data_PCOD8122013
_publ_section_title
;
Structure prediction by ZEFSAII (Michael W. Deem and Ramdas Pophale) SiO2 
 PCOD8122013
Probable space group: P 2/C
;
_chemical_formula_sum "Si O2"
_cell_formula_units_Z 30
_cell_length_a 12.968776
_cell_length_b 5.097570
_cell_length_c 25.470023
_cell_angle_alpha 90.000000
_cell_angle_beta 51.393091
_cell_angle_gamma 90.000000
_cell_volume 1315.800577
_symmetry_space_group_name_H-M "P 2/C"
_symmetry_group_IT_number 13
_symmetry_cell_setting 'monoclinic'
loop_
_space_group_symop_operation_xyz
x,y,z
-x,y,1/2-z
-x,-y,-z
x,-y,1/2+z
loop_
_atom_site_type_symbol
_atom_site_label
_atom_site_fract_x
_atom_site_fract_y
_atom_site_fract_z
Si Si1 0.322792 0.063585 0.672098
Si Si2 0.487225 0.571027 0.637611
Si Si3 0.850762 0.008496 0.562405
Si Si4 0.777999 0.814607 0.189484
Si Si5 0.092309 0.975948 0.672693
Si Si6 0.967250 0.529941 0.373459
Si Si7 0.500000 0.576716 0.250000
Si Si8 0.769429 0.505539 0.530898
O O1 0.443241 0.861516 0.635736
O O2 0.242999 0.996611 0.644718
O O3 0.374435 0.362615 0.657954
O O4 0.226095 0.034194 0.753396
O O5 0.518505 0.588271 0.690403
O O6 0.616071 0.488784 0.562518
O O7 0.836102 0.973306 0.629761
O O8 0.793074 0.294288 0.568546
O O9 0.775052 0.791942 0.554016
O O10 0.000000 0.000000 0.500000
O O11 0.630415 0.748603 0.217839
O O12 0.877556 0.561521 0.160565
O O13 0.055429 0.685518 0.664343
O O14 0.000000 0.057849 0.750000
O O15 0.077956 0.182734 0.630635
O O16 0.874775 0.453692 0.451801
#
# Coordination Sequence:
#
# PCOD8122013 Si02
#       8
#     4   4   4   4   4   4   2   4
#     4  11  26  45  72  99 141 177 241 296 355 406
#     4  11  25  45  68 101 143 190 231 286 345 423
#     4  12  25  42  67  99 148 187 229 277 345 423
#     4  11  25  44  68 108 140 186 228 286 354 423
#     4  12  26  48  73 106 133 180 236 305 355 406
#     4  12  27  45  74 103 141 179 239 290 355 410
#     4  10  24  40  68  98 146 182 232 270 344 424
#     4  12  26  46  67 104 146 190 231 287 341 428
#
# _framework density 22.799809
#
# number of rings (size 3 to 8) (size 9 to 14) (size 15 to 20)
#    0.000    0.533    4.000    3.200    7.467    0.533 
#    0.000    4.000    0.000    0.000    0.000    0.000 
#    0.000    0.000    0.000    0.000    0.000    0.000 
#
# Total GULP energy -372012.470460 kJ/mol
# GULP energy per Si atom -12400.415682 kJ/mol
# Density = 2.274792 g / cm^3
# Si number density = 22.799809 Si / 1000 Ang^3
#
#
#
# Elastic Constant Matrix: (Units=GPa)
#
#
# Indices 1 2 3 4 5 6 
#
# 1 123.6218 36.4590 23.1283 0.0000 -7.0554 0.0000
# 2 36.4590 80.6006 25.4226 0.0000 -1.8560 0.0000
# 3 23.1283 25.4226 79.8184 0.0000 -15.2255 0.0000
# 4 0.0000 0.0000 0.0000 25.3042 0.0000 -0.2430
# 5 -7.0554 -1.8560 -15.2255 0.0000 32.6651 0.0000
# 6 0.0000 0.0000 0.0000 -0.2430 0.0000 39.5101
#
#
#
# Elastic Compliance Matrix: (Units=1/GPa)
#
#
# Indices 1 2 3 4 5 6 
#
# 1 0.009547 -0.003882 -0.001294 0.000000 0.001238 0.000000
# 2 -0.003882 0.015428 -0.004151 0.000000 -0.001897 0.000000
# 3 -0.001294 -0.004151 0.015506 0.000000 0.006712 0.000000
# 4 0.000000 0.000000 0.000000 0.039521 0.000000 0.000243
# 5 0.001238 -0.001897 0.006712 0.000000 0.033902 0.000000
# 6 0.000000 0.000000 0.000000 0.000243 0.000000 0.025311
#
#
# Mechanical properties :
#
#
# Convention : Reuss Voigt Hill
#
# Bulk Modulus (GPa) = 45.81292 50.45117 48.13204
# Shear Modulus (GPa) = 30.27647 32.76462 31.52055
#
# Velocity S-wave (km/s) = 3.64803 3.79497 3.72222
# Velocity P-wave (km/s) = 6.15478 6.43260 6.29522
#
# Compressibility (1/GPa) = 0.02182790
#
# Stress axis : x y z
#
# Youngs Moduli (GPa) = 104.74769 64.81558 64.49214
#
# Poissons Ratio (x) = 0.25160 0.08343
# Poissons Ratio (y) = 0.40661 0.26771
# Poissons Ratio (z) = 0.13551 0.26905
#
# Static dielectric constant tensor:
#      x y z
#    x 6.227220 0.000000 -1.614070 
#    y 0.000000 4.304290 0.000000 
#    z -1.614070 0.000000 5.449990 
# 
# 
# High freq. dielectric constant tensor:
#      x y z
#    x 1.908430 0.000000 -0.013520 
#    y 0.000000 1.897580 0.000000 
#    z -0.013520 0.000000 1.899370 
# 
# From -- ./inp_files/91932.got.cif
#   From: 2010.06.25/outbox.cif.g09.slc.cpg/sg13_46_cif.got.tgz:91932.got - 2010.06.28 04:50:58.
