data_PCOD8122196
_publ_section_title
;
Structure prediction by ZEFSAII (Michael W. Deem and Ramdas Pophale) SiO2 
 PCOD8122196
Probable space group: P 2/C
;
_chemical_formula_sum "Si O2"
_cell_formula_units_Z 20
_cell_length_a 26.915632
_cell_length_b 4.925087
_cell_length_c 16.374646
_cell_angle_alpha 90.000000
_cell_angle_beta 19.955051
_cell_angle_gamma 90.000000
_cell_volume 740.806634
_symmetry_space_group_name_H-M "P 2/C"
_symmetry_group_IT_number 13
_symmetry_cell_setting 'monoclinic'
loop_
_space_group_symop_operation_xyz
x,y,z
-x,y,1/2-z
-x,-y,-z
x,-y,1/2+z
loop_
_atom_site_type_symbol
_atom_site_label
_atom_site_fract_x
_atom_site_fract_y
_atom_site_fract_z
Si Si1 0.634622 0.963386 0.201098
Si Si2 0.323433 0.456708 0.260443
Si Si3 0.416079 0.307713 0.458508
Si Si4 0.099745 0.377744 0.988342
Si Si5 0.056505 0.100651 0.827296
O O1 0.654397 0.652171 0.195745
O O2 0.637051 0.145317 0.280610
O O3 0.492868 0.016837 0.362068
O O4 0.769957 0.083041 0.940684
O O5 0.156460 0.499944 0.487487
O O6 0.436971 0.519320 0.010891
O O7 0.500000 0.435559 0.250000
O O8 0.241861 0.297197 0.712155
O O9 0.996118 0.592657 0.104179
O O10 0.010331 0.099815 0.138992
O O11 0.000000 0.000000 0.000000
#
# Coordination Sequence:
#
# PCOD8122196 Si02
#       5
#     4   4   4   4   4
#     4  12  24  45  73  99 139 183 230 288 345 415
#     4  10  25  44  72 102 136 179 238 281 348 411
#     4  10  24  46  71 100 139 183 234 287 348 411
#     4  10  25  43  68  98 139 174 233 275 342 409
#     4  12  25  44  68 103 140 179 226 283 349 408
#
# _framework density 26.997596999999999
#
# number of rings (size 3 to 8) (size 9 to 14) (size 15 to 20)
#    1.200    0.000    0.000    5.400    0.000    8.000 
#    0.000    5.000    0.000    0.000    0.000    0.000 
#    0.000    0.000    0.000    0.000    0.000    0.000 
#
# Total GULP energy -247799.915315 kJ/mol
# GULP energy per Si atom -12389.995766 kJ/mol
# Density = 2.693615 g / cm^3
# Si number density = 26.997597 Si / 1000 Ang^3
#
#
#
# Elastic Constant Matrix: (Units=GPa)
#
#
# Indices 1 2 3 4 5 6 
#
# 1 45.5299 15.0951 13.9620 0.0000 19.4780 0.0000
# 2 15.0951 100.6283 20.3393 0.0000 -6.2598 0.0000
# 3 13.9620 20.3393 79.9113 0.0000 8.6136 0.0000
# 4 0.0000 0.0000 0.0000 39.2832 0.0000 -15.2079
# 5 19.4780 -6.2598 8.6136 0.0000 43.8178 0.0000
# 6 0.0000 0.0000 0.0000 -15.2079 0.0000 28.9082
#
#
#
# Elastic Compliance Matrix: (Units=1/GPa)
#
#
# Indices 1 2 3 4 5 6 
#
# 1 0.030181 -0.004854 -0.002571 0.000000 -0.013604 0.000000
# 2 -0.004854 0.011443 -0.002527 0.000000 0.004289 0.000000
# 3 -0.002571 -0.002527 0.013815 0.000000 -0.001934 0.000000
# 4 0.000000 0.000000 0.000000 0.031967 0.000000 0.016817
# 5 -0.013604 0.004289 -0.001934 0.000000 0.029862 0.000000
# 6 0.000000 0.000000 0.000000 0.016817 0.000000 0.043439
#
#
# Mechanical properties :
#
#
# Convention : Reuss Voigt Hill
#
# Bulk Modulus (GPa) = 28.14132 36.09581 32.11856
# Shear Modulus (GPa) = 25.97986 34.18005 30.07995
#
# Velocity S-wave (km/s) = 3.10547 3.56201 3.34154
# Velocity P-wave (km/s) = 4.82751 5.50602 5.17789
#
# Compressibility (1/GPa) = 0.03553494
#
# Stress axis : x y z
#
# Youngs Moduli (GPa) = 33.13292 87.38772 72.38659
#
# Poissons Ratio (x) = 0.42418 0.18614
# Poissons Ratio (y) = 0.16083 0.18291
# Poissons Ratio (z) = 0.08520 0.22081
#
# Static dielectric constant tensor:
#      x y z
#    x 4.857410 0.000000 -0.304830 
#    y 0.000000 4.734810 0.000000 
#    z -0.304830 0.000000 5.382590 
# 
# 
# High freq. dielectric constant tensor:
#      x y z
#    x 2.077760 0.000000 -0.016210 
#    y 0.000000 2.071450 0.000000 
#    z -0.016210 0.000000 2.111460 
# 
# From -- ./inp_files/71998.got.cif
#   From: 2010.06.25/outbox.cif.g09.slc.cpg/sg13_36_cif.got.tgz:71998.got - 2010.06.28 04:50:58.
