data_PCOD8122474
_publ_section_title
;
Structure prediction by ZEFSAII (Michael W. Deem and Ramdas Pophale) SiO2 
 PCOD8122474
Probable space group: P 2/C
;
_chemical_formula_sum "Si O2"
_cell_formula_units_Z 28
_cell_length_a 15.995227
_cell_length_b 8.913869
_cell_length_c 13.594086
_cell_angle_alpha 90.000000
_cell_angle_beta 139.361785
_cell_angle_gamma 90.000000
_cell_volume 1262.335327
_symmetry_space_group_name_H-M "P 2/C"
_symmetry_group_IT_number 13
_symmetry_cell_setting 'monoclinic'
loop_
_space_group_symop_operation_xyz
x,y,z
-x,y,1/2-z
-x,-y,-z
x,-y,1/2+z
loop_
_atom_site_type_symbol
_atom_site_label
_atom_site_fract_x
_atom_site_fract_y
_atom_site_fract_z
Si Si1 0.792240 0.127466 0.816871
Si Si2 0.983875 0.631992 0.563569
Si Si3 0.777229 0.169996 0.199189
Si Si4 0.624389 0.626470 0.696777
Si Si5 0.338912 0.633349 0.419347
Si Si6 0.236716 0.507902 0.011414
Si Si7 0.648705 0.176999 0.882640
O O1 0.703700 0.203720 0.654652
O O2 0.713091 0.098359 0.846037
O O3 0.838342 0.970000 0.812074
O O4 0.913653 0.231701 0.946083
O O5 0.903822 0.568791 0.584782
O O6 0.000000 0.500000 0.500000
O O7 0.118108 0.697870 0.723105
O O8 0.659586 0.236271 0.157066
O O9 0.722249 0.117087 0.045190
O O10 0.476331 0.644882 0.596088
O O11 0.648832 0.467318 0.666578
O O12 0.715645 0.625006 0.873685
O O13 0.233867 0.561782 0.399610
O O14 0.339456 0.642785 0.109730
O O15 0.500000 0.131328 0.750000
#
# Coordination Sequence:
#
# PCOD8122474 Si02
#       7
#     4   4   4   4   4   4   4
#     4  11  26  44  66 100 145 177 226 290 346 418
#     4  11  23  48  71  96 135 182 236 290 333 405
#     4  12  25  44  69  99 140 192 225 278 364 417
#     4  11  21  38  66  97 135 176 226 287 339 404
#     4  11  21  39  66 100 132 174 229 287 343 397
#     4  11  22  39  70 100 132 174 239 292 334 401
#     4  11  23  42  69 100 137 182 230 282 350 420
#
# _framework density 22.18111
#
# number of rings (size 3 to 8) (size 9 to 14) (size 15 to 20)
#    0.000    0.857    5.714    2.571    0.000    5.714 
#    0.000    0.000    0.000    0.000    0.000    0.000 
#    0.000    0.000    0.000    0.000    0.000    0.000 
#
# Total GULP energy -347321.658986 kJ/mol
# GULP energy per Si atom -12404.344964 kJ/mol
# Density = 2.213063 g / cm^3
# Si number density = 22.181110 Si / 1000 Ang^3
#
#
#
# Elastic Constant Matrix: (Units=GPa)
#
#
# Indices 1 2 3 4 5 6 
#
# 1 127.7567 42.9259 43.5681 0.0000 -2.8180 0.0000
# 2 42.9259 75.7071 20.9720 0.0000 -0.3622 0.0000
# 3 43.5681 20.9720 94.2021 0.0000 -2.7649 0.0000
# 4 0.0000 0.0000 0.0000 33.3811 0.0000 -3.9291
# 5 -2.8180 -0.3622 -2.7649 0.0000 34.7342 0.0000
# 6 0.0000 0.0000 0.0000 -3.9291 0.0000 24.3612
#
#
#
# Elastic Compliance Matrix: (Units=1/GPa)
#
#
# Indices 1 2 3 4 5 6 
#
# 1 0.010871 -0.005087 -0.003880 0.000000 0.000520 0.000000
# 2 -0.005087 0.016457 -0.001322 0.000000 -0.000346 0.000000
# 3 -0.003880 -0.001322 0.012724 0.000000 0.000684 0.000000
# 4 0.000000 0.000000 0.000000 0.030537 0.000000 0.004925
# 5 0.000520 -0.000346 0.000684 0.000000 0.028883 0.000000
# 6 0.000000 0.000000 0.000000 0.004925 0.000000 0.041843
#
#
# Mechanical properties :
#
#
# Convention : Reuss Voigt Hill
#
# Bulk Modulus (GPa) = 51.34454 56.95532 54.14993
# Shear Modulus (GPa) = 29.69395 31.17530 30.43463
#
# Velocity S-wave (km/s) = 3.66280 3.75305 3.70820
# Velocity P-wave (km/s) = 6.40986 6.67186 6.54217
#
# Compressibility (1/GPa) = 0.01947627
#
# Stress axis : x y z
#
# Youngs Moduli (GPa) = 91.98652 60.76325 78.58960
#
# Poissons Ratio (x) = 0.30908 0.30494
# Poissons Ratio (y) = 0.46790 0.10386
# Poissons Ratio (z) = 0.35692 0.08030
#
# Static dielectric constant tensor:
#      x y z
#    x 4.113190 0.000000 0.010480 
#    y 0.000000 3.723140 0.000000 
#    z 0.010480 0.000000 3.926000 
# 
# 
# High freq. dielectric constant tensor:
#      x y z
#    x 1.878870 0.000000 -0.003780 
#    y 0.000000 1.849770 0.000000 
#    z -0.003780 0.000000 1.875750 
# 
# From -- ./inp_files/55308.got.cif
#   From: 2010.06.25/outbox.cif.g09.slc.cpg/sg13_28_cif.got.tgz:55308.got - 2010.06.28 04:50:58.
