data_PCOD8122987
_publ_section_title
;
Structure prediction by ZEFSAII (Michael W. Deem and Ramdas Pophale) SiO2 
 PCOD8122987
Probable space group: P 2/C
;
_chemical_formula_sum "Si O2"
_cell_formula_units_Z 32
_cell_length_a 24.379486
_cell_length_b 8.621984
_cell_length_c 14.399275
_cell_angle_alpha 90.000000
_cell_angle_beta 151.237846
_cell_angle_gamma 90.000000
_cell_volume 1456.381656
_symmetry_space_group_name_H-M "P 2/C"
_symmetry_group_IT_number 13
_symmetry_cell_setting 'monoclinic'
loop_
_space_group_symop_operation_xyz
x,y,z
-x,y,1/2-z
-x,-y,-z
x,-y,1/2+z
loop_
_atom_site_type_symbol
_atom_site_label
_atom_site_fract_x
_atom_site_fract_y
_atom_site_fract_z
Si Si1 0.243134 0.267295 0.670798
Si Si2 0.053379 0.834605 0.558675
Si Si3 0.171834 0.658476 0.260030
Si Si4 0.875144 0.056786 0.525382
Si Si5 0.696056 0.152091 0.405576
Si Si6 0.499909 0.316906 0.485134
Si Si7 0.565593 0.842278 0.255889
Si Si8 0.219073 0.338948 0.428482
O O1 0.198930 0.368819 0.691767
O O2 0.380130 0.258770 0.878515
O O3 0.201217 0.346082 0.513032
O O4 0.189959 0.097612 0.602274
O O5 0.114757 0.834055 0.550001
O O6 0.142654 0.798657 0.772728
O O7 0.959057 0.701597 0.420029
O O8 0.000000 0.000000 0.500000
O O9 0.255270 0.793126 0.422935
O O10 0.189312 0.502208 0.341700
O O11 0.802189 0.150689 0.492493
O O12 0.000000 0.015518 0.750000
O O13 0.640411 0.983267 0.328031
O O14 0.601903 0.277105 0.235460
O O15 0.500000 0.500000 0.500000
O O16 0.477600 0.220234 0.547395
O O17 0.500000 0.895975 0.250000
O O18 0.650016 0.699328 0.401838
#
# Coordination Sequence:
#
# PCOD8122987 Si02
#       8
#     4   4   4   4   4   4   4   4
#     4  11  26  45  74 101 143 190 230 297 364 415
#     4  12  24  44  74 105 136 181 240 289 347 429
#     4  12  27  45  71 107 140 186 237 288 365 429
#     4  12  24  45  75 105 143 186 238 300 353 417
#     4  12  25  45  73 102 144 186 242 291 351 429
#     4  11  26  47  69 104 145 187 236 291 360 426
#     4  11  26  43  70 105 137 186 243 294 348 419
#     4  11  26  48  67 103 149 180 236 292 360 426
#
# _framework density 21.972261
#
# number of rings (size 3 to 8) (size 9 to 14) (size 15 to 20)
#    0.000    0.500    5.000    3.750    5.250    1.000 
#    0.000    0.000    0.000    0.000    0.000    0.000 
#    0.000    0.000    0.000    0.000    0.000    0.000 
#
# Total GULP energy -396996.253048 kJ/mol
# GULP energy per Si atom -12406.132908 kJ/mol
# Density = 2.192225 g / cm^3
# Si number density = 21.972261 Si / 1000 Ang^3
#
#
#
# Elastic Constant Matrix: (Units=GPa)
#
#
# Indices 1 2 3 4 5 6 
#
# 1 179.0088 37.2317 51.4634 0.0000 -5.8386 0.0000
# 2 37.2317 71.1625 15.7795 0.0000 1.5440 0.0000
# 3 51.4634 15.7795 108.4352 0.0000 -2.0021 0.0000
# 4 0.0000 0.0000 0.0000 38.9921 0.0000 -5.9868
# 5 -5.8386 1.5440 -2.0021 0.0000 36.8368 0.0000
# 6 0.0000 0.0000 0.0000 -5.9868 0.0000 25.0686
#
#
#
# Elastic Compliance Matrix: (Units=1/GPa)
#
#
# Indices 1 2 3 4 5 6 
#
# 1 0.007099 -0.003095 -0.002899 0.000000 0.001097 0.000000
# 2 -0.003095 0.015890 -0.000865 0.000000 -0.001204 0.000000
# 3 -0.002899 -0.000865 0.010727 0.000000 0.000160 0.000000
# 4 0.000000 0.000000 0.000000 0.026622 0.000000 0.006358
# 5 0.001097 -0.001204 0.000160 0.000000 0.027380 0.000000
# 6 0.000000 0.000000 0.000000 0.006358 0.000000 0.041409
#
#
# Mechanical properties :
#
#
# Convention : Reuss Voigt Hill
#
# Bulk Modulus (GPa) = 50.00771 63.06174 56.53472
# Shear Modulus (GPa) = 33.44229 37.12162 35.28196
#
# Velocity S-wave (km/s) = 3.90554 4.11478 4.01153
# Velocity P-wave (km/s) = 6.56861 7.16507 6.87331
#
# Compressibility (1/GPa) = 0.01999692
#
# Stress axis : x y z
#
# Youngs Moduli (GPa) = 140.86049 62.93332 93.22560
#
# Poissons Ratio (x) = 0.19480 0.27022
# Poissons Ratio (y) = 0.43601 0.08068
# Poissons Ratio (z) = 0.40830 0.05447
#
# Static dielectric constant tensor:
#      x y z
#    x 4.526590 0.000000 0.122300 
#    y 0.000000 3.812500 0.000000 
#    z 0.122300 0.000000 4.440310 
# 
# 
# High freq. dielectric constant tensor:
#      x y z
#    x 1.868500 0.000000 -0.005080 
#    y 0.000000 1.860460 0.000000 
#    z -0.005080 0.000000 1.881820 
# 
# From -- ./inp_files/58818.got.cif
#   From: 2010.06.25/outbox.cif.g09.slc.cpg/sg13_30_cif.got.tgz:58818.got - 2010.06.28 04:50:58.
