data_PCOD8122765
_publ_section_title
;
Structure prediction by ZEFSAII (Michael W. Deem and Ramdas Pophale) SiO2 
 PCOD8122765
Probable space group: P 2/C
;
_chemical_formula_sum "Si O2"
_cell_formula_units_Z 28
_cell_length_a 5.216058
_cell_length_b 8.354783
_cell_length_c 27.975266
_cell_angle_alpha 90.000000
_cell_angle_beta 66.650895
_cell_angle_gamma 90.000000
_cell_volume 1119.296461
_symmetry_space_group_name_H-M "P 2/C"
_symmetry_group_IT_number 13
_symmetry_cell_setting 'monoclinic'
loop_
_space_group_symop_operation_xyz
x,y,z
-x,y,1/2-z
-x,-y,-z
x,-y,1/2+z
loop_
_atom_site_type_symbol
_atom_site_label
_atom_site_fract_x
_atom_site_fract_y
_atom_site_fract_z
Si Si1 0.728043 0.646224 0.415331
Si Si2 0.860830 0.917797 0.602262
Si Si3 0.712628 0.924339 0.357019
Si Si4 0.791145 0.569670 0.638810
Si Si5 0.283434 0.575928 0.959962
Si Si6 0.773796 0.895952 0.491973
Si Si7 0.000000 0.763506 0.250000
Si Si8 0.500000 0.453692 0.750000
O O1 0.571574 0.762891 0.389124
O O2 0.549865 0.520571 0.460958
O O3 0.843669 0.753937 0.450122
O O4 0.967205 0.557552 0.367359
O O5 0.930261 0.741018 0.615850
O O6 0.533909 0.950063 0.634072
O O7 0.058748 0.023591 0.620971
O O8 0.955561 0.977672 0.539307
O O9 0.866064 0.887137 0.296790
O O10 0.648857 0.518397 0.599811
O O11 0.578899 0.568850 0.699364
O O12 0.285351 0.772669 0.957895
O O13 0.000000 0.500000 0.000000
O O14 0.500000 0.000000 0.500000
O O15 0.237842 0.655011 0.255900
#
# Coordination Sequence:
#
# PCOD8122765 Si02
#       8
#     4   4   4   4   4   4   2   2
#     4  11  25  46  74 107 149 201 255 316 376 465
#     4  11  27  47  71 109 152 198 241 320 380 454
#     4  11  25  47  73 105 147 192 250 309 380 444
#     4  12  27  46  75 107 155 197 259 314 384 453
#     4  12  24  44  74 106 150 197 259 312 389 457
#     4  11  23  44  68 107 148 196 245 304 382 451
#     4  12  24  46  80 106 140 192 260 306 378 448
#     4  12  28  46  76 114 142 200 254 318 370 456
#
# _framework density 25.015713999999999
#
# number of rings (size 3 to 8) (size 9 to 14) (size 15 to 20)
#    0.000    0.571    4.286    3.000    6.000    1.143 
#    0.000    2.857    0.000    0.000    0.000    0.000 
#    0.000    0.000    0.000    0.000    0.000    0.000 
#
# Total GULP energy -346902.770696 kJ/mol
# GULP energy per Si atom -12389.384668 kJ/mol
# Density = 2.495878 g / cm^3
# Si number density = 25.015714 Si / 1000 Ang^3
#
#
#
# Elastic Constant Matrix: (Units=GPa)
#
#
# Indices 1 2 3 4 5 6 
#
# 1 52.5977 30.6461 18.7437 0.0000 -25.6075 0.0000
# 2 30.6461 158.2814 50.9030 0.0000 -11.5219 0.0000
# 3 18.7437 50.9030 187.9012 0.0000 -12.5088 0.0000
# 4 0.0000 0.0000 0.0000 35.5661 0.0000 -22.4786
# 5 -25.6075 -11.5219 -12.5088 0.0000 26.6515 0.0000
# 6 0.0000 0.0000 0.0000 -22.4786 0.0000 41.3554
#
#
#
# Elastic Compliance Matrix: (Units=1/GPa)
#
#
# Indices 1 2 3 4 5 6 
#
# 1 0.039233 -0.004947 -0.000213 0.000000 0.035458 0.000000
# 2 -0.004947 0.007669 -0.001734 0.000000 -0.002251 0.000000
# 3 -0.000213 -0.001734 0.005935 0.000000 0.001831 0.000000
# 4 0.000000 0.000000 0.000000 0.042830 0.000000 0.023280
# 5 0.035458 -0.002251 0.001831 0.000000 0.071476 0.000000
# 6 0.000000 0.000000 0.000000 0.023280 0.000000 0.036835
#
#
# Mechanical properties :
#
#
# Convention : Reuss Voigt Hill
#
# Bulk Modulus (GPa) = 25.60829 66.59622 46.10225
# Shear Modulus (GPa) = 21.66537 40.61378 31.13957
#
# Velocity S-wave (km/s) = 2.94610 4.03368 3.53200
# Velocity P-wave (km/s) = 4.67245 6.95511 5.92475
#
# Compressibility (1/GPa) = 0.03904986
#
# Stress axis : x y z
#
# Youngs Moduli (GPa) = 25.48865 130.38779 168.49559
#
# Poissons Ratio (x) = 0.64498 0.03590
# Poissons Ratio (y) = 0.12608 0.29219
# Poissons Ratio (z) = 0.00543 0.22610
#
# Static dielectric constant tensor:
#      x y z
#    x 4.467060 0.000000 0.360090 
#    y 0.000000 5.260370 0.000000 
#    z 0.360090 0.000000 5.232400 
# 
# 
# High freq. dielectric constant tensor:
#      x y z
#    x 1.999500 0.000000 0.017070 
#    y 0.000000 2.029450 0.000000 
#    z 0.017070 0.000000 2.019720 
# 
# From -- ./inp_files/94994.got.cif
#   From: 2010.06.25/outbox.cif.g09.slc.cpg/sg13_48_cif.got.tgz:94994.got - 2010.06.28 04:50:58.
