data_PCOD8122656
_publ_section_title
;
Structure prediction by ZEFSAII (Michael W. Deem and Ramdas Pophale) SiO2 
 PCOD8122656
Probable space group: P 2/C
;
_chemical_formula_sum "Si O2"
_cell_formula_units_Z 30
_cell_length_a 14.445102
_cell_length_b 15.527811
_cell_length_c 17.448272
_cell_angle_alpha 90.000000
_cell_angle_beta 20.765974
_cell_angle_gamma 90.000000
_cell_volume 1387.595528
_symmetry_space_group_name_H-M "P 2/C"
_symmetry_group_IT_number 13
_symmetry_cell_setting 'monoclinic'
loop_
_space_group_symop_operation_xyz
x,y,z
-x,y,1/2-z
-x,-y,-z
x,-y,1/2+z
loop_
_atom_site_type_symbol
_atom_site_label
_atom_site_fract_x
_atom_site_fract_y
_atom_site_fract_z
Si Si1 0.046627 0.520450 0.552149
Si Si2 0.741424 0.050612 0.408442
Si Si3 0.353424 0.655414 0.632451
Si Si4 0.500000 0.359263 0.750000
Si Si5 0.947702 0.651506 0.203267
Si Si6 0.454717 0.767037 0.412928
Si Si7 0.233681 0.941350 0.790774
Si Si8 0.054017 0.237288 0.482356
O O1 0.295729 0.581980 0.363620
O O2 0.000000 0.500000 0.500000
O O3 0.795732 0.570164 0.781744
O O4 0.101926 0.434405 0.558365
O O5 0.663871 0.139207 0.510579
O O6 0.791566 0.069630 0.280609
O O7 0.000000 0.014091 0.250000
O O8 0.513426 0.980949 0.596233
O O9 0.646171 0.629077 0.424838
O O10 0.346390 0.732128 0.576853
O O11 0.203639 0.686208 0.824113
O O12 0.642458 0.297637 0.578034
O O13 0.000000 0.676020 0.250000
O O14 0.034923 0.734516 0.086103
O O15 0.767470 0.774681 0.168811
O O16 0.216200 0.850545 0.848237
O O17 0.000000 0.000000 0.000000
#
# Coordination Sequence:
#
# PCOD8122656 Si02
#       8
#     4   4   4   2   4   4   4   4
#     4  12  25  45  67 101 146 187 236 294 358 420
#     4  11  26  42  74 111 143 182 239 290 363 438
#     4  11  23  45  68  97 140 188 226 296 355 415
#     4  12  28  40  72 110 140 182 244 292 358 426
#     4  11  27  43  70  99 136 194 246 289 347 421
#     4  11  24  42  69 108 141 182 234 294 365 422
#     4  11  24  47  75 102 147 188 226 297 368 430
#     4  11  22  48  72  97 144 188 231 293 360 426
#
# _framework density 21.620134
#
# number of rings (size 3 to 8) (size 9 to 14) (size 15 to 20)
#    0.000    0.800    5.333    1.200    7.467    1.067 
#    0.000    4.000    0.000    0.000    0.000    0.000 
#    0.000    0.000    0.000    0.000    0.000    0.000 
#
# Total GULP energy -372157.984750 kJ/mol
# GULP energy per Si atom -12405.266158 kJ/mol
# Density = 2.157093 g / cm^3
# Si number density = 21.620134 Si / 1000 Ang^3
#
#
#
# Elastic Constant Matrix: (Units=GPa)
#
#
# Indices 1 2 3 4 5 6 
#
# 1 120.4567 53.8068 43.7015 0.0000 -0.8366 0.0000
# 2 53.8068 130.0484 52.9048 0.0000 -5.3659 0.0000
# 3 43.7015 52.9048 105.2217 0.0000 1.5311 0.0000
# 4 0.0000 0.0000 0.0000 35.1543 0.0000 3.8630
# 5 -0.8366 -5.3659 1.5311 0.0000 30.1124 0.0000
# 6 0.0000 0.0000 0.0000 3.8630 0.0000 28.6491
#
#
#
# Elastic Compliance Matrix: (Units=1/GPa)
#
#
# Indices 1 2 3 4 5 6 
#
# 1 0.010810 -0.003336 -0.002811 0.000000 -0.000151 0.000000
# 2 -0.003336 0.010814 -0.004082 0.000000 0.002042 0.000000
# 3 -0.002811 -0.004082 0.012744 0.000000 -0.001453 0.000000
# 4 0.000000 0.000000 0.000000 0.028874 0.000000 -0.003893
# 5 -0.000151 0.002042 -0.001453 0.000000 0.033642 0.000000
# 6 0.000000 0.000000 0.000000 -0.003893 0.000000 0.035430
#
#
# Mechanical properties :
#
#
# Convention : Reuss Voigt Hill
#
# Bulk Modulus (GPa) = 71.87314 72.95032 72.41173
# Shear Modulus (GPa) = 31.76443 32.47073 32.11758
#
# Velocity S-wave (km/s) = 3.83718 3.87961 3.85845
# Velocity P-wave (km/s) = 7.27652 7.34054 7.30860
#
# Compressibility (1/GPa) = 0.01391340
#
# Stress axis : x y z
#
# Youngs Moduli (GPa) = 92.50419 92.47063 78.46576
#
# Poissons Ratio (x) = 0.30845 0.22053
# Poissons Ratio (y) = 0.30856 0.32027
# Poissons Ratio (z) = 0.25998 0.37743
#
# Static dielectric constant tensor:
#      x y z
#    x 3.822570 0.000000 0.124070 
#    y 0.000000 4.091150 0.000000 
#    z 0.124070 0.000000 4.152640 
# 
# 
# High freq. dielectric constant tensor:
#      x y z
#    x 1.836610 0.000000 0.007370 
#    y 0.000000 1.859070 0.000000 
#    z 0.007370 0.000000 1.861140 
# 
# From -- ./inp_files/68789.got.cif
#   From: 2010.06.25/outbox.cif.g09.slc.cpg/sg13_35_cif.got.tgz:68789.got - 2010.06.28 04:50:58.
