data_PCOD8122418
_publ_section_title
;
Structure prediction by ZEFSAII (Michael W. Deem and Ramdas Pophale) SiO2 
 PCOD8122418
Probable space group: P 2/C
;
_chemical_formula_sum "Si O2"
_cell_formula_units_Z 30
_cell_length_a 20.830623
_cell_length_b 12.181595
_cell_length_c 26.411622
_cell_angle_alpha 90.000000
_cell_angle_beta 11.858024
_cell_angle_gamma 90.000000
_cell_volume 1377.166279
_symmetry_space_group_name_H-M "P 2/C"
_symmetry_group_IT_number 13
_symmetry_cell_setting 'monoclinic'
loop_
_space_group_symop_operation_xyz
x,y,z
-x,y,1/2-z
-x,-y,-z
x,-y,1/2+z
loop_
_atom_site_type_symbol
_atom_site_label
_atom_site_fract_x
_atom_site_fract_y
_atom_site_fract_z
Si Si1 0.644546 0.060034 0.536201
Si Si2 0.955259 0.208906 0.656074
Si Si3 0.833357 0.556710 0.508429
Si Si4 0.237146 0.535572 0.613132
Si Si5 0.341949 0.264671 0.721773
Si Si6 0.500000 0.040782 0.250000
Si Si7 0.334524 0.829376 0.017979
Si Si8 0.258067 0.625825 0.810654
O O1 0.419532 0.158991 0.694820
O O2 0.620209 0.040628 0.614411
O O3 0.525241 0.949932 0.599997
O O4 0.000000 0.090869 0.250000
O O5 0.779002 0.226560 0.739519
O O6 0.691810 0.182778 0.901321
O O7 0.123555 0.319719 0.545240
O O8 0.211096 0.113868 0.453811
O O9 0.851710 0.557324 0.555051
O O10 0.082707 0.478664 0.287682
O O11 0.500000 0.509551 0.750000
O O12 0.350470 0.660361 0.521113
O O13 0.534220 0.453322 0.384162
O O14 0.000000 0.506182 0.750000
O O15 0.068465 0.333405 0.962280
O O16 0.000000 0.821892 0.250000
O O17 0.548475 0.736885 0.826378
#
# Coordination Sequence:
#
# PCOD8122418 Si02
#       8
#     4   4   4   4   4   2   4   4
#     4  11  24  47  69  97 140 184 231 281 348 419
#     4  11  22  39  70 106 136 170 228 292 349 401
#     4  11  20  37  69 102 127 170 231 286 338 401
#     4  12  24  45  70  92 139 187 231 283 341 417
#     4  11  28  45  63 101 150 182 223 290 350 415
#     4  12  22  44  78 104 132 186 244 284 338 430
#     4  11  20  40  71 102 135 176 227 290 345 405
#     4  11  23  41  68 102 131 173 231 286 348 402
#
# _framework density 21.783861000000002
#
# number of rings (size 3 to 8) (size 9 to 14) (size 15 to 20)
#    0.000    0.800    6.000    3.600    0.000    4.800 
#    4.800    1.333    0.000    0.000    0.000    0.000 
#    0.000    0.000    0.000    0.000    0.000    0.000 
#
# Total GULP energy -371978.718632 kJ/mol
# GULP energy per Si atom -12399.290621 kJ/mol
# Density = 2.173428 g / cm^3
# Si number density = 21.783861 Si / 1000 Ang^3
#
#
#
# Elastic Constant Matrix: (Units=GPa)
#
#
# Indices 1 2 3 4 5 6 
#
# 1 58.7178 20.9154 39.7316 0.0000 8.2417 0.0000
# 2 20.9154 109.5781 49.7240 0.0000 -5.2137 0.0000
# 3 39.7316 49.7240 112.3591 0.0000 14.7756 0.0000
# 4 0.0000 0.0000 0.0000 -0.7899 0.0000 1.8838
# 5 8.2417 -5.2137 14.7756 0.0000 34.5283 0.0000
# 6 0.0000 0.0000 0.0000 1.8838 0.0000 20.7797
#
#
#
# Elastic Compliance Matrix: (Units=1/GPa)
#
#
# Indices 1 2 3 4 5 6 
#
# 1 0.022648 -0.001201 -0.007144 0.000000 -0.002530 0.000000
# 2 -0.001201 0.012064 -0.005501 0.000000 0.004462 0.000000
# 3 -0.007144 -0.005501 0.014565 0.000000 -0.005358 0.000000
# 4 0.000000 0.000000 0.000000 -1.040947 0.000000 0.094367
# 5 -0.002530 0.004462 -0.005358 0.000000 0.032532 0.000000
# 6 0.000000 0.000000 0.000000 0.094367 0.000000 0.039569
#
#
# Mechanical properties :
#
#
# Convention : Reuss Voigt Hill
#
# Bulk Modulus (GPa) = 46.33015 55.71077 51.02046
# Shear Modulus (GPa) = -5.65175 22.25589 8.30207
#
# Velocity S-wave (km/s) = -1.61248 3.19982 1.95432
# Velocity P-wave (km/s) = 4.22463 6.26751 5.34458
#
# Compressibility (1/GPa) = 0.02158422
#
# Stress axis : x y z
#
# Youngs Moduli (GPa) = 44.15445 82.89386 68.65667
#
# Poissons Ratio (x) = 0.09958 0.49049
# Poissons Ratio (y) = 0.05304 0.37766
# Poissons Ratio (z) = 0.31545 0.45597
#
# Static dielectric constant tensor:
#      x y z
#    x 3.726990 0.000000 0.169180 
#    y 0.000000 3.942280 0.000000 
#    z 0.169180 0.000000 4.255670 
# 
# 
# High freq. dielectric constant tensor:
#      x y z
#    x 1.838970 0.000000 0.013590 
#    y 0.000000 1.852720 0.000000 
#    z 0.013590 0.000000 1.867920 
# 
# From -- ./inp_files/97739.got.cif
#   From: 2010.06.25/outbox.cif.g09.slc.cpg/sg13_49_cif.got.tgz:97739.got - 2010.06.28 04:50:58.
