data_PCOD8122277
_publ_section_title
;
Structure prediction by ZEFSAII (Michael W. Deem and Ramdas Pophale) SiO2 
 PCOD8122277
Probable space group: P 2/C
;
_chemical_formula_sum "Si O2"
_cell_formula_units_Z 20
_cell_length_a 18.202962
_cell_length_b 5.265911
_cell_length_c 17.669777
_cell_angle_alpha 90.000000
_cell_angle_beta 28.344569
_cell_angle_gamma 90.000000
_cell_volume 804.141784
_symmetry_space_group_name_H-M "P 2/C"
_symmetry_group_IT_number 13
_symmetry_cell_setting 'monoclinic'
loop_
_space_group_symop_operation_xyz
x,y,z
-x,y,1/2-z
-x,-y,-z
x,-y,1/2+z
loop_
_atom_site_type_symbol
_atom_site_label
_atom_site_fract_x
_atom_site_fract_y
_atom_site_fract_z
Si Si1 0.629641 0.781399 0.497936
Si Si2 0.792120 0.280121 0.291863
Si Si3 0.723761 0.231229 0.184929
Si Si4 0.081969 0.892956 0.605641
Si Si5 0.333360 0.463513 0.898067
O O1 0.678578 0.511968 0.415645
O O2 0.452500 0.863661 0.641493
O O3 0.657635 0.728862 0.562452
O O4 0.731760 0.006241 0.373581
O O5 0.809374 0.277472 0.185678
O O6 0.964620 0.301042 0.169430
O O7 0.706757 0.491609 0.153634
O O8 0.831241 0.053689 0.035902
O O9 0.203332 0.726601 0.546124
O O10 0.000000 0.048964 0.750000
O O11 0.500000 0.324930 0.750000
#
# Coordination Sequence:
#
# PCOD8122277 Si02
#       5
#     4   4   4   4   4
#     4  11  26  50  77 110 151 199 251 305 380 462
#     4  12  27  48  77 114 151 193 249 318 384 446
#     4  11  27  45  77 109 151 197 252 313 379 454
#     4  12  26  45  75 107 155 197 253 314 381 445
#     4  10  25  45  74 105 146 202 253 304 371 458
#
# _framework density 24.871234999999999
#
# number of rings (size 3 to 8) (size 9 to 14) (size 15 to 20)
#    0.000    0.800    2.000    3.000   11.200    2.400 
#    0.000    0.000    0.000    0.000    0.000    0.000 
#    0.000    0.000    0.000    0.000    0.000    0.000 
#
# Total GULP energy -247848.547518 kJ/mol
# GULP energy per Si atom -12392.427376 kJ/mol
# Density = 2.481463 g / cm^3
# Si number density = 24.871235 Si / 1000 Ang^3
#
#
#
# Elastic Constant Matrix: (Units=GPa)
#
#
# Indices 1 2 3 4 5 6 
#
# 1 139.9463 30.7086 74.4555 0.0000 12.5589 0.0000
# 2 30.7086 96.4530 55.4716 0.0000 4.5794 0.0000
# 3 74.4555 55.4716 163.5216 0.0000 -2.5398 0.0000
# 4 0.0000 0.0000 0.0000 40.8374 0.0000 2.5071
# 5 12.5589 4.5794 -2.5398 0.0000 38.5456 0.0000
# 6 0.0000 0.0000 0.0000 2.5071 0.0000 20.2003
#
#
#
# Elastic Compliance Matrix: (Units=1/GPa)
#
#
# Indices 1 2 3 4 5 6 
#
# 1 0.009901 -0.000452 -0.004408 0.000000 -0.003463 0.000000
# 2 -0.000452 0.013030 -0.004240 0.000000 -0.001680 0.000000
# 3 -0.004408 -0.004240 0.009601 0.000000 0.002573 0.000000
# 4 0.000000 0.000000 0.000000 0.024675 0.000000 -0.003062
# 5 -0.003463 -0.001680 0.002573 0.000000 0.027441 0.000000
# 6 0.000000 0.000000 0.000000 -0.003062 0.000000 0.049884
#
#
# Mechanical properties :
#
#
# Convention : Reuss Voigt Hill
#
# Bulk Modulus (GPa) = 69.78461 80.13247 74.95854
# Shear Modulus (GPa) = 31.74363 35.86902 33.80633
#
# Velocity S-wave (km/s) = 3.57644 3.80174 3.69081
# Velocity P-wave (km/s) = 6.72115 7.18052 6.95462
#
# Compressibility (1/GPa) = 0.01432981
#
# Stress axis : x y z
#
# Youngs Moduli (GPa) = 100.99908 76.74451 104.15463
#
# Poissons Ratio (x) = 0.03473 0.45916
# Poissons Ratio (y) = 0.04570 0.44165
# Poissons Ratio (z) = 0.44525 0.32542
#
# Static dielectric constant tensor:
#      x y z
#    x 4.954790 0.000000 -0.112980 
#    y 0.000000 3.994990 0.000000 
#    z -0.112980 0.000000 4.853900 
# 
# 
# High freq. dielectric constant tensor:
#      x y z
#    x 2.008070 0.000000 0.000810 
#    y 0.000000 1.960620 0.000000 
#    z 0.000810 0.000000 2.016460 
# 
# From -- ./inp_files/62311.got.cif
#   From: 2010.06.25/outbox.cif.g09.slc.cpg/sg13_32_cif.got.tgz:62311.got - 2010.06.28 04:50:58.
