data_PCOD8122046
_publ_section_title
;
Structure prediction by ZEFSAII (Michael W. Deem and Ramdas Pophale) SiO2 
 PCOD8122046
Probable space group: P 2/C
;
_chemical_formula_sum "Si O2"
_cell_formula_units_Z 20
_cell_length_a 18.813980
_cell_length_b 5.351493
_cell_length_c 8.935299
_cell_angle_alpha 90.000000
_cell_angle_beta 82.327190
_cell_angle_gamma 90.000000
_cell_volume 891.576960
_symmetry_space_group_name_H-M "P 2/C"
_symmetry_group_IT_number 13
_symmetry_cell_setting 'monoclinic'
loop_
_space_group_symop_operation_xyz
x,y,z
-x,y,1/2-z
-x,-y,-z
x,-y,1/2+z
loop_
_atom_site_type_symbol
_atom_site_label
_atom_site_fract_x
_atom_site_fract_y
_atom_site_fract_z
Si Si1 0.632253 0.204582 0.883075
Si Si2 0.922598 0.179982 0.281502
Si Si3 0.582879 0.710244 0.735264
Si Si4 0.866271 0.507881 0.047321
Si Si5 0.796065 0.800054 0.317726
O O1 0.620784 0.467791 0.799675
O O2 0.714323 0.113889 0.845681
O O3 0.588998 0.967681 0.828731
O O4 0.613341 0.244543 0.061402
O O5 0.918976 0.349226 0.135786
O O6 0.922555 0.334054 0.434928
O O7 0.000000 0.036460 0.250000
O O8 0.850750 0.025744 0.305186
O O9 0.500000 0.637998 0.750000
O O10 0.809624 0.661899 0.159233
O O11 0.811855 0.360080 0.958653
#
# Coordination Sequence:
#
# PCOD8122046 Si02
#       5
#     4   4   4   4   4
#     4  12  27  44  77 107 152 190 242 301 362 432
#     4  11  24  42  66  95 133 177 231 288 346 411
#     4  12  26  49  76 110 147 193 242 297 365 437
#     4  10  24  42  64  91 134 171 236 277 354 408
#     4  11  25  41  66  95 134 177 230 280 351 414
#
# _framework density 22.432164
#
# number of rings (size 3 to 8) (size 9 to 14) (size 15 to 20)
#    0.000    0.800    0.000    6.000   11.200    6.400 
#    0.000    0.000    0.000    0.000    0.000    0.000 
#    0.000    0.000    0.000    0.000    0.000    0.000 
#
# Total GULP energy -247900.016990 kJ/mol
# GULP energy per Si atom -12395.000850 kJ/mol
# Density = 2.238111 g / cm^3
# Si number density = 22.432164 Si / 1000 Ang^3
#
#
#
# Elastic Constant Matrix: (Units=GPa)
#
#
# Indices 1 2 3 4 5 6 
#
# 1 151.5404 31.1969 38.1032 0.0000 -29.6474 0.0000
# 2 31.1969 124.0828 51.7392 0.0000 -0.7847 0.0000
# 3 38.1032 51.7392 156.8115 0.0000 8.5203 0.0000
# 4 0.0000 0.0000 0.0000 65.7746 0.0000 11.4146
# 5 -29.6474 -0.7847 8.5203 0.0000 14.8474 0.0000
# 6 0.0000 0.0000 0.0000 11.4146 0.0000 40.9178
#
#
#
# Elastic Compliance Matrix: (Units=1/GPa)
#
#
# Indices 1 2 3 4 5 6 
#
# 1 0.014032 -0.001414 -0.004605 0.000000 0.030587 0.000000
# 2 -0.001414 0.009567 -0.002773 0.000000 -0.000727 0.000000
# 3 -0.004605 -0.002773 0.009206 0.000000 -0.014624 0.000000
# 4 0.000000 0.000000 0.000000 0.015977 0.000000 -0.004457
# 5 0.030587 -0.000727 -0.014624 0.000000 0.136781 0.000000
# 6 0.000000 0.000000 0.000000 -0.004457 0.000000 0.025683
#
#
# Mechanical properties :
#
#
# Convention : Reuss Voigt Hill
#
# Bulk Modulus (GPa) = 65.70670 74.94591 70.32630
# Shear Modulus (GPa) = 21.37641 45.06766 33.22203
#
# Velocity S-wave (km/s) = 3.09031 4.48712 3.85255
# Velocity P-wave (km/s) = 6.48755 7.76712 7.15599
#
# Compressibility (1/GPa) = 0.01521915
#
# Stress axis : x y z
#
# Youngs Moduli (GPa) = 71.26623 104.53143 108.62946
#
# Poissons Ratio (x) = 0.14785 0.50022
# Poissons Ratio (y) = 0.10080 0.30125
# Poissons Ratio (z) = 0.32817 0.28989
#
# Static dielectric constant tensor:
#      x y z
#    x 3.986780 0.000000 0.032080 
#    y 0.000000 4.233680 0.000000 
#    z 0.032080 0.000000 4.467850 
# 
# 
# High freq. dielectric constant tensor:
#      x y z
#    x 1.893500 0.000000 -0.000300 
#    y 0.000000 1.883300 0.000000 
#    z -0.000300 0.000000 1.914690 
# 
# From -- ./inp_files/20465.got.cif
#   From: 2010.06.25/outbox.cif.g09.slc.cpg/sg13_11_cif.got.tgz:20465.got - 2010.06.28 04:50:58.
