data_PCOD8122890
_publ_section_title
;
Structure prediction by ZEFSAII (Michael W. Deem and Ramdas Pophale) SiO2 
 PCOD8122890
Probable space group: P 2/C
;
_chemical_formula_sum "Si O2"
_cell_formula_units_Z 32
_cell_length_a 15.460688
_cell_length_b 5.145802
_cell_length_c 18.669515
_cell_angle_alpha 90.000000
_cell_angle_beta 62.229855
_cell_angle_gamma 90.000000
_cell_volume 1314.231147
_symmetry_space_group_name_H-M "P 2/C"
_symmetry_group_IT_number 13
_symmetry_cell_setting 'monoclinic'
loop_
_space_group_symop_operation_xyz
x,y,z
-x,y,1/2-z
-x,-y,-z
x,-y,1/2+z
loop_
_atom_site_type_symbol
_atom_site_label
_atom_site_fract_x
_atom_site_fract_y
_atom_site_fract_z
Si Si1 0.274486 0.301962 0.804979
Si Si2 0.343865 0.608147 0.654756
Si Si3 0.589661 0.050383 0.171647
Si Si4 0.910990 0.804569 0.385779
Si Si5 0.141040 0.681269 0.678380
Si Si6 0.466318 0.902856 0.089715
Si Si7 0.111619 0.952261 0.834048
Si Si8 0.795958 0.682674 0.570201
O O1 0.300473 0.559911 0.750619
O O2 0.376902 0.174302 0.786626
O O3 0.212155 0.382231 0.900265
O O4 0.207439 0.124336 0.779444
O O5 0.255524 0.606097 0.632220
O O6 0.423464 0.389831 0.601889
O O7 0.384469 0.896550 0.646928
O O8 0.500000 0.192577 0.250000
O O9 0.555806 0.916747 0.110560
O O10 0.683180 0.224611 0.117116
O O11 0.918695 0.569462 0.326064
O O12 0.837496 0.703598 0.475172
O O13 0.870819 0.067598 0.366776
O O14 0.017602 0.862312 0.376510
O O15 0.900545 0.746364 0.726079
O O16 0.500000 0.000000 0.000000
O O17 0.129600 0.824095 0.904414
#
# Coordination Sequence:
#
# PCOD8122890 Si02
#       8
#     4   4   4   4   4   4   4   4
#     4  11  24  45  78 108 147 203 254 316 373 459
#     4  12  25  49  73 106 149 202 250 312 377 460
#     4  11  25  45  73 111 149 198 259 306 375 461
#     4  12  30  49  80 116 158 198 258 329 383 453
#     4  12  28  48  78 113 156 206 257 313 386 465
#     4  12  28  46  75 108 152 196 249 314 388 451
#     4  11  26  50  77 113 153 208 263 305 386 467
#     4  11  27  47  78 112 158 201 253 327 387 445
#
# _framework density 24.348835999999999
#
# number of rings (size 3 to 8) (size 9 to 14) (size 15 to 20)
#    0.000    0.500    2.500    4.125   10.500    3.000 
#    0.000    0.000    0.000    0.000    0.000    0.000 
#    0.000    0.000    0.000    0.000    0.000    0.000 
#
# Total GULP energy -396767.673332 kJ/mol
# GULP energy per Si atom -12398.989792 kJ/mol
# Density = 2.429342 g / cm^3
# Si number density = 24.348836 Si / 1000 Ang^3
#
#
#
# Elastic Constant Matrix: (Units=GPa)
#
#
# Indices 1 2 3 4 5 6 
#
# 1 149.8800 42.2146 54.8882 0.0000 2.4619 0.0000
# 2 42.2146 91.2288 12.6314 0.0000 -0.0124 0.0000
# 3 54.8882 12.6314 101.2786 0.0000 -3.9221 0.0000
# 4 0.0000 0.0000 0.0000 37.3505 0.0000 0.3840
# 5 2.4619 -0.0124 -3.9221 0.0000 26.3952 0.0000
# 6 0.0000 0.0000 0.0000 0.3840 0.0000 22.5734
#
#
#
# Elastic Compliance Matrix: (Units=1/GPa)
#
#
# Indices 1 2 3 4 5 6 
#
# 1 0.009484 -0.003733 -0.004736 0.000000 -0.001590 0.000000
# 2 -0.003733 0.012625 0.000465 0.000000 0.000423 0.000000
# 3 -0.004736 0.000465 0.012471 0.000000 0.002295 0.000000
# 4 0.000000 0.000000 0.000000 0.026778 0.000000 -0.000456
# 5 -0.001590 0.000423 0.002295 0.000000 0.038375 0.000000
# 6 0.000000 0.000000 0.000000 -0.000456 0.000000 0.044308
#
#
# Mechanical properties :
#
#
# Convention : Reuss Voigt Hill
#
# Bulk Modulus (GPa) = 53.84465 62.42841 58.13653
# Shear Modulus (GPa) = 30.07723 32.77405 31.42564
#
# Velocity S-wave (km/s) = 3.51844 3.67280 3.59645
# Velocity P-wave (km/s) = 6.21834 6.60914 6.41672
#
# Compressibility (1/GPa) = 0.01857195
#
# Stress axis : x y z
#
# Youngs Moduli (GPa) = 105.44234 79.21098 80.18467
#
# Poissons Ratio (x) = 0.29569 0.37974
# Poissons Ratio (y) = 0.39362 -0.03728
# Poissons Ratio (z) = 0.49935 -0.03683
#
# Static dielectric constant tensor:
#      x y z
#    x 4.795420 0.000000 0.054840 
#    y 0.000000 4.421160 0.000000 
#    z 0.054840 0.000000 4.295190 
# 
# 
# High freq. dielectric constant tensor:
#      x y z
#    x 1.990180 0.000000 0.004760 
#    y 0.000000 1.971800 0.000000 
#    z 0.004760 0.000000 1.959140 
# 
# From -- ./inp_files/79319.got.cif
#   From: 2010.06.25/outbox.cif.g09.slc.cpg/sg13_40_cif.got.tgz:79319.got - 2010.06.28 04:50:58.
