data_PCOD8122859
_publ_section_title
;
Structure prediction by ZEFSAII (Michael W. Deem and Ramdas Pophale) SiO2 
 PCOD8122859
Probable space group: P 2/C
;
_chemical_formula_sum "Si O2"
_cell_formula_units_Z 18
_cell_length_a 6.623446
_cell_length_b 8.080340
_cell_length_c 17.992692
_cell_angle_alpha 90.000000
_cell_angle_beta 59.563634
_cell_angle_gamma 90.000000
_cell_volume 830.259641
_symmetry_space_group_name_H-M "P 2/C"
_symmetry_group_IT_number 13
_symmetry_cell_setting 'monoclinic'
loop_
_space_group_symop_operation_xyz
x,y,z
-x,y,1/2-z
-x,-y,-z
x,-y,1/2+z
loop_
_atom_site_type_symbol
_atom_site_label
_atom_site_fract_x
_atom_site_fract_y
_atom_site_fract_z
Si Si1 0.318680 0.141372 0.550526
Si Si2 0.500000 0.841392 0.250000
Si Si3 0.650116 0.360587 0.583458
Si Si4 0.906392 0.064403 0.193609
Si Si5 0.842077 0.703955 0.568163
O O1 0.433303 0.300019 0.572045
O O2 0.227178 0.184060 0.486905
O O3 0.500000 0.000000 0.500000
O O4 0.100793 0.068515 0.634698
O O5 0.356883 0.736716 0.337563
O O6 0.682352 0.956554 0.259644
O O7 0.653377 0.553823 0.605944
O O8 0.886666 0.342646 0.491940
O O9 0.826934 0.195752 0.147381
O O10 0.000000 0.159151 0.250000
#
# Coordination Sequence:
#
# PCOD8122859 Si02
#       5
#     4   2   4   4   4
#     4  12  22  43  72 100 130 182 241 282 340 424
#     4  12  24  44  68  98 140 182 230 298 354 416
#     4  11  24  44  68  99 142 179 228 288 358 411
#     4  12  25  42  69 103 136 183 240 289 346 421
#     4  11  25  44  68 100 137 186 228 286 351 423
#
# _framework density 21.679964999999999
#
# number of rings (size 3 to 8) (size 9 to 14) (size 15 to 20)
#    0.000    0.444    6.667    2.667    0.000    0.889 
#    0.000    1.111    0.000    0.000    0.000    0.000 
#    0.000    0.000    0.000    0.000    0.000    0.000 
#
# Total GULP energy -223110.749727 kJ/mol
# GULP energy per Si atom -12395.041651 kJ/mol
# Density = 2.163062 g / cm^3
# Si number density = 21.679965 Si / 1000 Ang^3
#
#
#
# Elastic Constant Matrix: (Units=GPa)
#
#
# Indices 1 2 3 4 5 6 
#
# 1 126.2215 53.7845 36.2283 0.0000 24.3696 0.0000
# 2 53.7845 103.0699 40.3269 0.0000 6.9210 0.0000
# 3 36.2283 40.3269 78.5769 0.0000 16.4981 0.0000
# 4 0.0000 0.0000 0.0000 23.9838 0.0000 5.0770
# 5 24.3696 6.9210 16.4981 0.0000 56.6259 0.0000
# 6 0.0000 0.0000 0.0000 5.0770 0.0000 46.3705
#
#
#
# Elastic Compliance Matrix: (Units=1/GPa)
#
#
# Indices 1 2 3 4 5 6 
#
# 1 0.011265 -0.004882 -0.001913 0.000000 -0.003694 0.000000
# 2 -0.004882 0.014262 -0.005479 0.000000 0.001954 0.000000
# 3 -0.001913 -0.005479 0.017156 0.000000 -0.003506 0.000000
# 4 0.000000 0.000000 0.000000 0.042684 0.000000 -0.004673
# 5 -0.003694 0.001954 -0.003506 0.000000 0.020032 0.000000
# 6 0.000000 0.000000 0.000000 -0.004673 0.000000 0.022077
#
#
# Mechanical properties :
#
#
# Convention : Reuss Voigt Hill
#
# Bulk Modulus (GPa) = 55.13866 63.17196 59.15531
# Shear Modulus (GPa) = 31.63165 37.23126 34.43146
#
# Velocity S-wave (km/s) = 3.82386 4.14854 3.98951
# Velocity P-wave (km/s) = 6.70702 7.22142 6.96897
#
# Compressibility (1/GPa) = 0.01813610
#
# Stress axis : x y z
#
# Youngs Moduli (GPa) = 88.77006 70.11551 58.28796
#
# Poissons Ratio (x) = 0.34230 0.11149
# Poissons Ratio (y) = 0.43337 0.31936
# Poissons Ratio (z) = 0.16979 0.38416
#
# Static dielectric constant tensor:
#      x y z
#    x 4.500710 0.000000 -0.170060 
#    y 0.000000 4.017080 0.000000 
#    z -0.170060 0.000000 3.922170 
# 
# 
# High freq. dielectric constant tensor:
#      x y z
#    x 1.870530 0.000000 0.004160 
#    y 0.000000 1.843720 0.000000 
#    z 0.004160 0.000000 1.857290 
# 
# From -- ./inp_files/60349.got.cif
#   From: 2010.06.25/outbox.cif.g09.slc.cpg/sg13_31_cif.got.tgz:60349.got - 2010.06.28 04:50:58.
