data_PCOD8122509
_publ_section_title
;
Structure prediction by ZEFSAII (Michael W. Deem and Ramdas Pophale) SiO2 
 PCOD8122509
Probable space group: P 2/C
;
_chemical_formula_sum "Si O2"
_cell_formula_units_Z 24
_cell_length_a 8.924447
_cell_length_b 9.530325
_cell_length_c 13.973857
_cell_angle_alpha 90.000000
_cell_angle_beta 111.063505
_cell_angle_gamma 90.000000
_cell_volume 1109.103243
_symmetry_space_group_name_H-M "P 2/C"
_symmetry_group_IT_number 13
_symmetry_cell_setting 'monoclinic'
loop_
_space_group_symop_operation_xyz
x,y,z
-x,y,1/2-z
-x,-y,-z
x,-y,1/2+z
loop_
_atom_site_type_symbol
_atom_site_label
_atom_site_fract_x
_atom_site_fract_y
_atom_site_fract_z
Si Si1 0.613892 0.157561 0.954788
Si Si2 0.171293 0.350290 0.090239
Si Si3 0.000000 0.749320 0.250000
Si Si4 0.500000 0.717104 0.250000
Si Si5 0.259715 0.872449 0.455125
Si Si6 0.758982 0.533494 0.232011
Si Si7 0.179560 0.402947 0.452270
O O1 0.616651 0.184944 0.840686
O O2 0.429958 0.140814 0.942545
O O3 0.678608 0.292062 0.025844
O O4 0.737443 0.031118 0.004958
O O5 0.250441 0.386137 0.211870
O O6 0.986108 0.318504 0.071072
O O7 0.249221 0.225283 0.047405
O O8 0.203271 0.499407 0.048716
O O9 0.115204 0.844108 0.346089
O O10 0.106291 0.648954 0.204076
O O11 0.591365 0.615177 0.196616
O O12 0.812593 0.503375 0.136708
#
# Coordination Sequence:
#
# PCOD8122509 Si02
#       7
#     4   4   2   2   4   4   4
#     4  11  26  47  65 100 142 180 225 282 336 412
#     4  11  21  41  69 101 129 175 225 281 330 403
#     4  12  20  46  70  94 134 186 220 282 352 390
#     4  12  24  42  70  96 134 190 222 278 360 404
#     4  11  26  46  69  97 140 181 228 279 338 409
#     4  12  23  40  70 106 135 174 232 284 340 409
#     4  11  22  41  69 100 135 167 228 282 331 401
#
# _framework density 21.639102999999999
#
# number of rings (size 3 to 8) (size 9 to 14) (size 15 to 20)
#    0.000    0.667    6.667    1.000    2.333    2.000 
#    9.000    0.000    0.000    0.000    0.000    0.000 
#    0.000    0.000    0.000    0.000    0.000    0.000 
#
# Total GULP energy -297380.905367 kJ/mol
# GULP energy per Si atom -12390.871057 kJ/mol
# Density = 2.158985 g / cm^3
# Si number density = 21.639103 Si / 1000 Ang^3
#
#
#
# Elastic Constant Matrix: (Units=GPa)
#
#
# Indices 1 2 3 4 5 6 
#
# 1 65.0680 58.0184 28.2690 0.0000 3.5118 0.0000
# 2 58.0184 100.8744 44.4945 0.0000 9.9006 0.0000
# 3 28.2690 44.4945 85.4206 0.0000 2.2346 0.0000
# 4 0.0000 0.0000 0.0000 30.5286 0.0000 0.5290
# 5 3.5118 9.9006 2.2346 0.0000 33.8933 0.0000
# 6 0.0000 0.0000 0.0000 0.5290 0.0000 37.7110
#
#
#
# Elastic Compliance Matrix: (Units=1/GPa)
#
#
# Indices 1 2 3 4 5 6 
#
# 1 0.031791 -0.017942 -0.001228 0.000000 0.002028 0.000000
# 2 -0.017942 0.023381 -0.006122 0.000000 -0.004567 0.000000
# 3 -0.001228 -0.006122 0.015278 0.000000 0.000908 0.000000
# 4 0.000000 0.000000 0.000000 0.032764 0.000000 -0.000460
# 5 0.002028 -0.004567 0.000908 0.000000 0.030569 0.000000
# 6 0.000000 0.000000 0.000000 -0.000460 0.000000 0.026524
#
#
# Mechanical properties :
#
#
# Convention : Reuss Voigt Hill
#
# Bulk Modulus (GPa) = 50.33615 56.99187 53.66401
# Shear Modulus (GPa) = 22.98716 28.46530 25.72623
#
# Velocity S-wave (km/s) = 3.26283 3.63086 3.45175
# Velocity P-wave (km/s) = 6.12429 6.63115 6.38275
#
# Compressibility (1/GPa) = 0.01986644
#
# Stress axis : x y z
#
# Youngs Moduli (GPa) = 31.45569 42.76931 65.45261
#
# Poissons Ratio (x) = 0.76736 0.08038
# Poissons Ratio (y) = 0.56438 0.40069
# Poissons Ratio (z) = 0.03863 0.26183
#
# Static dielectric constant tensor:
#      x y z
#    x 4.011690 0.000000 -0.030590 
#    y 0.000000 3.850910 0.000000 
#    z -0.030590 0.000000 3.844130 
# 
# 
# High freq. dielectric constant tensor:
#      x y z
#    x 1.860690 0.000000 -0.007240 
#    y 0.000000 1.833590 0.000000 
#    z -0.007240 0.000000 1.849730 
# 
# From -- ./inp_files/46242.got.cif
#   From: 2010.06.25/outbox.cif.g09.slc.cpg/sg13_24_cif.got.tgz:46242.got - 2010.06.28 04:50:58.
