data_PCOD8122471
_publ_section_title
;
Structure prediction by ZEFSAII (Michael W. Deem and Ramdas Pophale) SiO2 
 PCOD8122471
Probable space group: P 2/C
;
_chemical_formula_sum "Si O2"
_cell_formula_units_Z 20
_cell_length_a 9.857407
_cell_length_b 12.530742
_cell_length_c 10.519221
_cell_angle_alpha 90.000000
_cell_angle_beta 131.152716
_cell_angle_gamma 90.000000
_cell_volume 978.349322
_symmetry_space_group_name_H-M "P 2/C"
_symmetry_group_IT_number 13
_symmetry_cell_setting 'monoclinic'
loop_
_space_group_symop_operation_xyz
x,y,z
-x,y,1/2-z
-x,-y,-z
x,-y,1/2+z
loop_
_atom_site_type_symbol
_atom_site_label
_atom_site_fract_x
_atom_site_fract_y
_atom_site_fract_z
Si Si1 0.286981 0.811591 0.608312
Si Si2 0.309328 0.442023 0.388468
Si Si3 0.716059 0.576973 0.901332
Si Si4 0.619992 0.014184 0.949152
Si Si5 0.198018 0.788497 0.832844
O O1 0.500000 0.804451 0.750000
O O2 0.218364 0.696013 0.517325
O O3 0.200475 0.836236 0.692222
O O4 0.247751 0.910346 0.487694
O O5 0.500000 0.500000 0.500000
O O6 0.206520 0.496687 0.443974
O O7 0.204317 0.455932 0.188753
O O8 0.329239 0.314774 0.424985
O O9 0.500000 0.572729 0.750000
O O10 0.500000 0.026936 0.750000
O O11 0.739342 0.120021 0.032092
O O12 0.500000 0.000000 0.000000
O O13 0.000000 0.750440 0.750000
#
# Coordination Sequence:
#
# PCOD8122471 Si02
#       5
#     4   4   4   4   4
#     4   9  17  36  58  80 122 165 200 238 314 360
#     4   9  18  33  56  84 114 158 201 242 296 367
#     4   8  15  29  53  78 107 145 191 243 286 343
#     4  11  21  38  64  92 118 161 219 248 293 381
#     4  11  23  39  60  93 130 160 199 264 320 354
#
# _framework density 20.442595000000001
#
# number of rings (size 3 to 8) (size 9 to 14) (size 15 to 20)
#    0.000    2.400    4.000    1.200    0.000    3.200 
#    0.000    4.000    0.000    1.200    0.000    0.000 
#    0.000    0.000    0.000    0.000    0.000    0.000 
#
# Total GULP energy -247763.039817 kJ/mol
# GULP energy per Si atom -12388.151991 kJ/mol
# Density = 2.039607 g / cm^3
# Si number density = 20.442595 Si / 1000 Ang^3
#
#
#
# Elastic Constant Matrix: (Units=GPa)
#
#
# Indices 1 2 3 4 5 6 
#
# 1 108.0771 52.8860 38.5963 0.0000 -32.6541 0.0000
# 2 52.8860 191.0158 58.0471 0.0000 -39.4836 0.0000
# 3 38.5963 58.0471 48.6985 0.0000 -27.6921 0.0000
# 4 0.0000 0.0000 0.0000 -116.2710 0.0000 18.6772
# 5 -32.6541 -39.4836 -27.6921 0.0000 41.3107 0.0000
# 6 0.0000 0.0000 0.0000 18.6772 0.0000 23.4508
#
#
#
# Elastic Compliance Matrix: (Units=1/GPa)
#
#
# Indices 1 2 3 4 5 6 
#
# 1 0.013725 -0.000476 -0.007110 0.000000 0.005628 0.000000
# 2 -0.000476 0.008337 -0.008473 0.000000 0.001912 0.000000
# 3 -0.007110 -0.008473 0.046004 0.000000 0.017120 0.000000
# 4 0.000000 0.000000 0.000000 -0.007625 0.000000 0.006073
# 5 0.005628 0.001912 0.017120 0.000000 0.041959 0.000000
# 6 0.000000 0.000000 0.000000 0.006073 0.000000 0.037806
#
#
# Mechanical properties :
#
#
# Convention : Reuss Voigt Hill
#
# Bulk Modulus (GPa) = 27.81774 71.87223 49.84498
# Shear Modulus (GPa) = 27.12859 2.91557 15.02208
#
# Velocity S-wave (km/s) = 3.64684 1.19554 2.71374
# Velocity P-wave (km/s) = 5.60088 6.09427 5.85278
#
# Compressibility (1/GPa) = 0.03594828
#
# Stress axis : x y z
#
# Youngs Moduli (GPa) = 72.85868 119.94725 21.73710
#
# Poissons Ratio (x) = 0.05710 0.15456
# Poissons Ratio (y) = 0.03468 0.18417
# Poissons Ratio (z) = 0.51806 1.01627
#
# Static dielectric constant tensor:
#      x y z
#    x 4.213080 0.000000 -0.698940 
#    y 0.000000 4.501060 0.000000 
#    z -0.698940 0.000000 3.337510 
# 
# 
# High freq. dielectric constant tensor:
#      x y z
#    x 1.806490 0.000000 -0.034200 
#    y 0.000000 1.817780 0.000000 
#    z -0.034200 0.000000 1.737370 
# 
# From -- ./inp_files/29135.got.cif
#   From: 2010.06.25/outbox.cif.g09.slc.cpg/sg13_15_cif.got.tgz:29135.got - 2010.06.28 04:50:58.
