data_PCOD8122303
_publ_section_title
;
Structure prediction by ZEFSAII (Michael W. Deem and Ramdas Pophale) SiO2 
 PCOD8122303
Probable space group: P 2/C
;
_chemical_formula_sum "Si O2"
_cell_formula_units_Z 32
_cell_length_a 8.959441
_cell_length_b 15.059042
_cell_length_c 23.793092
_cell_angle_alpha 90.000000
_cell_angle_beta 150.821561
_cell_angle_gamma 90.000000
_cell_volume 1565.061825
_symmetry_space_group_name_H-M "P 2/C"
_symmetry_group_IT_number 13
_symmetry_cell_setting 'monoclinic'
loop_
_space_group_symop_operation_xyz
x,y,z
-x,y,1/2-z
-x,-y,-z
x,-y,1/2+z
loop_
_atom_site_type_symbol
_atom_site_label
_atom_site_fract_x
_atom_site_fract_y
_atom_site_fract_z
Si Si1 0.165959 0.269888 0.905011
Si Si2 0.291696 0.386992 0.235669
Si Si3 0.667477 0.120717 0.746829
Si Si4 0.797115 0.569744 0.236707
Si Si5 0.329281 0.671055 0.013428
Si Si6 0.558668 0.783199 0.885423
Si Si7 0.755655 0.079916 0.286166
Si Si8 0.108828 0.162993 0.493081
O O1 0.926102 0.191257 0.815048
O O2 0.975656 0.363548 0.839122
O O3 0.420192 0.274917 0.940248
O O4 0.351365 0.246635 0.022474
O O5 0.500000 0.389854 0.250000
O O6 0.325516 0.481605 0.275203
O O7 0.428020 0.306264 0.315988
O O8 0.923914 0.378990 0.107101
O O9 0.500000 0.145827 0.750000
O O10 0.412153 0.117907 0.615513
O O11 0.811153 0.023058 0.791987
O O12 0.000000 0.544286 0.250000
O O13 0.486385 0.609092 0.110487
O O14 0.137124 0.734391 0.989687
O O15 0.301127 0.860422 0.789151
O O16 0.845766 0.835502 0.953384
O O17 0.500000 0.095758 0.250000
O O18 0.057494 0.112801 0.417277
#
# Coordination Sequence:
#
# PCOD8122303 Si02
#       8
#     4   4   4   4   4   4   4   4
#     4  11  25  41  64  94 129 169 215 257 319 381
#     4  12  25  42  68  96 124 168 214 263 320 373
#     4  11  22  37  67  99 127 170 219 265 314 373
#     4  10  26  44  63  93 128 168 212 255 323 388
#     4  11  24  45  65  88 133 172 205 262 322 380
#     4  11  22  40  65  97 125 164 219 265 314 375
#     4   9  21  37  62  97 131 166 215 263 321 374
#     4  11  20  41  67  88 134 170 209 269 314 371
#
# _framework density 20.446477000000002
#
# number of rings (size 3 to 8) (size 9 to 14) (size 15 to 20)
#    0.000    1.250    5.000    0.375    5.250    4.500 
#    0.000    0.625    2.750    0.000    0.000    0.000 
#    0.000    0.000    0.000    0.000    0.000    0.000 
#
# Total GULP energy -396417.952127 kJ/mol
# GULP energy per Si atom -12388.061004 kJ/mol
# Density = 2.039994 g / cm^3
# Si number density = 20.446477 Si / 1000 Ang^3
#
#
#
# Elastic Constant Matrix: (Units=GPa)
#
#
# Indices 1 2 3 4 5 6 
#
# 1 49.0007 34.4904 35.0496 0.0000 -6.6929 0.0000
# 2 34.4904 123.7595 41.0451 0.0000 -2.6316 0.0000
# 3 35.0496 41.0451 136.9294 0.0000 -5.3610 0.0000
# 4 0.0000 0.0000 0.0000 34.0799 0.0000 3.9322
# 5 -6.6929 -2.6316 -5.3610 0.0000 26.7154 0.0000
# 6 0.0000 0.0000 0.0000 3.9322 0.0000 3.9135
#
#
#
# Elastic Compliance Matrix: (Units=1/GPa)
#
#
# Indices 1 2 3 4 5 6 
#
# 1 0.029510 -0.006298 -0.005443 0.000000 0.005680 0.000000
# 2 -0.006298 0.010319 -0.001515 0.000000 -0.000865 0.000000
# 3 -0.005443 -0.001515 0.009163 0.000000 0.000326 0.000000
# 4 0.000000 0.000000 0.000000 0.033191 0.000000 -0.033349
# 5 0.005680 -0.000865 0.000326 0.000000 0.038835 0.000000
# 6 0.000000 0.000000 0.000000 -0.033349 0.000000 0.289037
#
#
# Mechanical properties :
#
#
# Convention : Reuss Voigt Hill
#
# Bulk Modulus (GPa) = 44.48410 58.98443 51.73426
# Shear Modulus (GPa) = 11.25968 26.21539 18.73754
#
# Velocity S-wave (km/s) = 2.34923 3.58459 3.03053
# Velocity P-wave (km/s) = 5.40019 6.78552 6.13210
#
# Compressibility (1/GPa) = 0.02247994
#
# Stress axis : x y z
#
# Youngs Moduli (GPa) = 33.88629 96.90419 109.13107
#
# Poissons Ratio (x) = 0.61031 0.59405
# Poissons Ratio (y) = 0.21342 0.16534
# Poissons Ratio (z) = 0.18446 0.14682
#
# Static dielectric constant tensor:
#      x y z
#    x 3.482840 0.000000 -0.133750 
#    y 0.000000 3.640170 0.000000 
#    z -0.133750 0.000000 4.041470 
# 
# 
# High freq. dielectric constant tensor:
#      x y z
#    x 1.771160 0.000000 -0.006140 
#    y 0.000000 1.808020 0.000000 
#    z -0.006140 0.000000 1.824410 
# 
# From -- ./inp_files/85366.got.cif
#   From: 2010.06.25/outbox.cif.g09.slc.cpg/sg13_43_cif.got.tgz:85366.got - 2010.06.28 04:50:58.
