data_PCOD8122891
_publ_section_title
;
Structure prediction by ZEFSAII (Michael W. Deem and Ramdas Pophale) SiO2 
 PCOD8122891
Probable space group: P 2/C
;
_chemical_formula_sum "Si O2"
_cell_formula_units_Z 20
_cell_length_a 18.070750
_cell_length_b 5.142255
_cell_length_c 9.983241
_cell_angle_alpha 90.000000
_cell_angle_beta 118.637538
_cell_angle_gamma 90.000000
_cell_volume 814.202035
_symmetry_space_group_name_H-M "P 2/C"
_symmetry_group_IT_number 13
_symmetry_cell_setting 'monoclinic'
loop_
_space_group_symop_operation_xyz
x,y,z
-x,y,1/2-z
-x,-y,-z
x,-y,1/2+z
loop_
_atom_site_type_symbol
_atom_site_label
_atom_site_fract_x
_atom_site_fract_y
_atom_site_fract_z
Si Si1 0.446536 0.092786 0.826277
Si Si2 0.836359 0.901342 0.458659
Si Si3 0.056294 0.409300 0.926135
Si Si4 0.694704 0.234780 0.394257
Si Si5 0.288391 0.380581 0.807577
O O1 0.500000 0.220946 0.750000
O O2 0.375799 0.288502 0.816501
O O3 0.401061 0.847236 0.716619
O O4 0.500000 0.000000 0.000000
O O5 0.899865 0.140209 0.491592
O O6 0.757452 0.993077 0.483635
O O7 0.880657 0.644951 0.559876
O O8 0.790944 0.815669 0.279352
O O9 0.000000 0.341010 0.750000
O O10 0.000000 0.500000 0.000000
O O11 0.696335 0.430893 0.522110
O O12 0.734134 0.358887 0.293246
#
# Coordination Sequence:
#
# PCOD8122891 Si02
#       5
#     4   4   4   4   4
#     4  11  24  46  68 106 151 194 253 314 373 438
#     4  11  26  48  74 109 151 193 251 306 364 457
#     4  12  28  48  76 110 148 194 247 310 381 440
#     4  11  26  45  75 107 147 206 250 307 378 444
#     4  11  26  45  75 106 148 204 251 305 379 444
#
# _framework density 24.563929000000002
#
# number of rings (size 3 to 8) (size 9 to 14) (size 15 to 20)
#    0.000    0.800    4.000    1.200    8.400    3.200 
#    0.000    0.000    0.000    0.000    0.000    0.000 
#    0.000    0.000    0.000    0.000    0.000    0.000 
#
# Total GULP energy -247822.357742 kJ/mol
# GULP energy per Si atom -12391.117887 kJ/mol
# Density = 2.450802 g / cm^3
# Si number density = 24.563929 Si / 1000 Ang^3
#
#
#
# Elastic Constant Matrix: (Units=GPa)
#
#
# Indices 1 2 3 4 5 6 
#
# 1 62.6846 9.3140 51.6322 0.0000 12.1282 0.0000
# 2 9.3140 100.3939 26.9992 0.0000 18.1044 0.0000
# 3 51.6322 26.9992 134.9055 0.0000 4.5468 0.0000
# 4 0.0000 0.0000 0.0000 28.6424 0.0000 2.7257
# 5 12.1282 18.1044 4.5468 0.0000 47.2702 0.0000
# 6 0.0000 0.0000 0.0000 2.7257 0.0000 33.5148
#
#
#
# Elastic Compliance Matrix: (Units=1/GPa)
#
#
# Indices 1 2 3 4 5 6 
#
# 1 0.024769 0.001343 -0.009548 0.000000 -0.005951 0.000000
# 2 0.001343 0.011345 -0.002635 0.000000 -0.004436 0.000000
# 3 -0.009548 -0.002635 0.011515 0.000000 0.002351 0.000000
# 4 0.000000 0.000000 0.000000 0.035186 0.000000 -0.002862
# 5 -0.005951 -0.004436 0.002351 0.000000 0.024155 0.000000
# 6 0.000000 0.000000 0.000000 -0.002862 0.000000 0.030070
#
#
# Mechanical properties :
#
#
# Convention : Reuss Voigt Hill
#
# Bulk Modulus (GPa) = 38.53715 52.65278 45.59496
# Shear Modulus (GPa) = 29.87398 35.88806 32.88102
#
# Velocity S-wave (km/s) = 3.49115 3.82646 3.66264
# Velocity P-wave (km/s) = 5.65450 6.40343 6.04058
#
# Compressibility (1/GPa) = 0.02594899
#
# Stress axis : x y z
#
# Youngs Moduli (GPa) = 40.37240 88.14622 86.84283
#
# Poissons Ratio (x) = -0.11838 0.82919
# Poissons Ratio (y) = -0.05422 0.22883
# Poissons Ratio (z) = 0.38548 0.23226
#
# Static dielectric constant tensor:
#      x y z
#    x 4.371000 0.000000 0.406640 
#    y 0.000000 4.541710 0.000000 
#    z 0.406640 0.000000 4.572930 
# 
# 
# High freq. dielectric constant tensor:
#      x y z
#    x 1.970050 0.000000 0.020930 
#    y 0.000000 1.971700 0.000000 
#    z 0.020930 0.000000 1.995510 
# 
# From -- ./inp_files/38283.got.cif
#   From: 2010.06.25/outbox.cif.g09.slc.cpg/sg13_20_cif.got.tgz:38283.got - 2010.06.28 04:50:58.
