data_PCOD8122384
_publ_section_title
;
Structure prediction by ZEFSAII (Michael W. Deem and Ramdas Pophale) SiO2 
 PCOD8122384
Probable space group: P 2/C
;
_chemical_formula_sum "Si O2"
_cell_formula_units_Z 24
_cell_length_a 13.123294
_cell_length_b 4.830312
_cell_length_c 22.347363
_cell_angle_alpha 90.000000
_cell_angle_beta 51.927229
_cell_angle_gamma 90.000000
_cell_volume 1115.179949
_symmetry_space_group_name_H-M "P 2/C"
_symmetry_group_IT_number 13
_symmetry_cell_setting 'monoclinic'
loop_
_space_group_symop_operation_xyz
x,y,z
-x,y,1/2-z
-x,-y,-z
x,-y,1/2+z
loop_
_atom_site_type_symbol
_atom_site_label
_atom_site_fract_x
_atom_site_fract_y
_atom_site_fract_z
Si Si1 0.970522 0.461974 0.694211
Si Si2 0.798829 0.016939 0.248519
Si Si3 0.350642 0.973968 0.080871
Si Si4 0.550538 0.225965 0.595946
Si Si5 0.747265 0.476664 0.448023
Si Si6 0.542925 0.736899 0.799964
O O1 0.881505 0.238560 0.690810
O O2 0.000000 0.341762 0.750000
O O3 0.097974 0.520824 0.608427
O O4 0.899289 0.748574 0.729300
O O5 0.730242 0.887564 0.331317
O O6 0.687924 0.136775 0.244687
O O7 0.498519 0.899976 0.049695
O O8 0.305279 0.787920 0.041325
O O9 0.315205 0.294799 0.082958
O O10 0.692926 0.352074 0.530683
O O11 0.460244 0.471232 0.655104
O O12 0.555902 0.974361 0.640835
O O13 0.500000 0.640882 0.750000
#
# Coordination Sequence:
#
# PCOD8122384 Si02
#       6
#     4   4   4   4   4   4
#     4  12  21  35  56  86 128 165 189 222 278 368
#     4  11  21  37  57  87 115 154 208 237 281 348
#     4  11  19  34  54  84 124 160 190 232 282 361
#     4  11  23  38  58  90 117 151 203 248 306 353
#     4  12  22  33  56  85 130 164 183 228 293 366
#     4  11  24  44  67  83 109 153 210 274 304 328
#
# _framework density 21.521190000000001
#
# number of rings (size 3 to 8) (size 9 to 14) (size 15 to 20)
#    0.000    0.667    3.333    8.000    0.000    0.000 
#    0.000    0.000    0.000    6.000    0.000    0.000 
#    0.000    0.000    0.000    0.000    0.000    0.000 
#
# Total GULP energy -297567.489893 kJ/mol
# GULP energy per Si atom -12398.645412 kJ/mol
# Density = 2.147221 g / cm^3
# Si number density = 21.521190 Si / 1000 Ang^3
#
#
#
# Elastic Constant Matrix: (Units=GPa)
#
#
# Indices 1 2 3 4 5 6 
#
# 1 56.8925 10.5604 31.9808 0.0000 -13.9755 0.0000
# 2 10.5604 99.3360 8.1497 0.0000 -2.6389 0.0000
# 3 31.9808 8.1497 47.8550 0.0000 -12.4019 0.0000
# 4 0.0000 0.0000 0.0000 31.8326 0.0000 -9.0592
# 5 -13.9755 -2.6389 -12.4019 0.0000 34.7201 0.0000
# 6 0.0000 0.0000 0.0000 -9.0592 0.0000 29.8499
#
#
#
# Elastic Compliance Matrix: (Units=1/GPa)
#
#
# Indices 1 2 3 4 5 6 
#
# 1 0.029209 -0.001497 -0.017905 0.000000 0.005248 0.000000
# 2 -0.001497 0.010287 -0.000777 0.000000 -0.000098 0.000000
# 3 -0.017905 -0.000777 0.034285 0.000000 0.004980 0.000000
# 4 0.000000 0.000000 0.000000 0.034384 0.000000 0.010435
# 5 0.005248 -0.000098 0.004980 0.000000 0.032686 0.000000
# 6 0.000000 0.000000 0.000000 0.010435 0.000000 0.036668
#
#
# Mechanical properties :
#
#
# Convention : Reuss Voigt Hill
#
# Bulk Modulus (GPa) = 29.91914 33.94060 31.92987
# Shear Modulus (GPa) = 21.83241 29.50669 25.66955
#
# Velocity S-wave (km/s) = 3.18852 3.70679 3.45738
# Velocity P-wave (km/s) = 5.24289 5.84170 5.55037
#
# Compressibility (1/GPa) = 0.03342342
#
# Stress axis : x y z
#
# Youngs Moduli (GPa) = 34.23630 97.20899 29.16723
#
# Poissons Ratio (x) = 0.14551 0.52224
# Poissons Ratio (y) = 0.05125 0.02266
# Poissons Ratio (z) = 0.61300 0.07554
#
# Static dielectric constant tensor:
#      x y z
#    x 3.594600 0.000000 -0.492070 
#    y 0.000000 4.026530 0.000000 
#    z -0.492070 0.000000 3.952910 
# 
# 
# High freq. dielectric constant tensor:
#      x y z
#    x 1.795880 0.000000 -0.043030 
#    y 0.000000 1.874630 0.000000 
#    z -0.043030 0.000000 1.836630 
# 
# From -- ./inp_files/77169.got.cif
#   From: 2010.06.25/outbox.cif.g09.slc.cpg/sg13_39_cif.got.tgz:77169.got - 2010.06.28 04:50:58.
