data_PCOD8122746
_publ_section_title
;
Structure prediction by ZEFSAII (Michael W. Deem and Ramdas Pophale) SiO2 
 PCOD8122746
Probable space group: P 2/C
;
_chemical_formula_sum "Si O2"
_cell_formula_units_Z 20
_cell_length_a 4.969238
_cell_length_b 17.144086
_cell_length_c 11.945762
_cell_angle_alpha 90.000000
_cell_angle_beta 54.096501
_cell_angle_gamma 90.000000
_cell_volume 824.339550
_symmetry_space_group_name_H-M "P 2/C"
_symmetry_group_IT_number 13
_symmetry_cell_setting 'monoclinic'
loop_
_space_group_symop_operation_xyz
x,y,z
-x,y,1/2-z
-x,-y,-z
x,-y,1/2+z
loop_
_atom_site_type_symbol
_atom_site_label
_atom_site_fract_x
_atom_site_fract_y
_atom_site_fract_z
Si Si1 0.258328 0.259109 0.404095
Si Si2 0.500000 0.567418 0.250000
Si Si3 0.628222 0.342920 0.493181
Si Si4 0.642351 0.040972 0.601246
Si Si5 0.649659 0.882449 0.881295
Si Si6 0.000000 0.462224 0.250000
O O1 0.500000 0.294646 0.250000
O O2 0.310370 0.305341 0.508618
O O3 0.346056 0.167902 0.403281
O O4 0.888770 0.271792 0.447255
O O5 0.450501 0.622456 0.368014
O O6 0.184386 0.513915 0.298764
O O7 0.747584 0.410973 0.382521
O O8 0.500000 0.078385 0.750000
O O9 0.624407 0.115008 0.522156
O O10 0.373462 0.972584 0.648092
O O11 0.000000 0.000000 0.500000
O O12 0.000000 0.847749 0.750000
#
# Coordination Sequence:
#
# PCOD8122746 Si02
#       6
#     4   2   4   4   4   2
#     4  12  24  45  72 100 140 187 243 282 349 423
#     4  12  26  44  72 104 144 182 230 292 368 412
#     4  12  25  45  70 106 140 182 233 295 346 427
#     4  11  23  43  68 102 143 179 244 293 352 418
#     4  11  24  41  71 102 132 192 236 297 351 418
#     4  12  22  46  72 104 136 186 238 284 350 428
#
# _framework density 24.261845000000001
#
# number of rings (size 3 to 8) (size 9 to 14) (size 15 to 20)
#    0.000    0.400    4.000    5.400    2.800    0.000 
#    1.800    2.000    0.000    0.000    0.000    0.000 
#    0.000    0.000    0.000    0.000    0.000    0.000 
#
# Total GULP energy -247922.848088 kJ/mol
# GULP energy per Si atom -12396.142404 kJ/mol
# Density = 2.420662 g / cm^3
# Si number density = 24.261845 Si / 1000 Ang^3
#
#
#
# Elastic Constant Matrix: (Units=GPa)
#
#
# Indices 1 2 3 4 5 6 
#
# 1 82.8214 3.3272 3.9611 0.0000 13.6001 0.0000
# 2 3.3272 83.1561 22.2625 0.0000 12.7611 0.0000
# 3 3.9611 22.2625 143.1545 0.0000 32.8587 0.0000
# 4 0.0000 0.0000 0.0000 18.9046 0.0000 10.5216
# 5 13.6001 12.7611 32.8587 0.0000 42.8992 0.0000
# 6 0.0000 0.0000 0.0000 10.5216 0.0000 46.5332
#
#
#
# Elastic Compliance Matrix: (Units=1/GPa)
#
#
# Indices 1 2 3 4 5 6 
#
# 1 0.012795 0.000006 0.000699 0.000000 -0.004594 0.000000
# 2 0.000006 0.012814 -0.001356 0.000000 -0.002775 0.000000
# 3 0.000699 -0.001356 0.008657 0.000000 -0.006450 0.000000
# 4 0.000000 0.000000 0.000000 0.060512 0.000000 -0.013682
# 5 -0.004594 -0.002775 -0.006450 0.000000 0.030532 0.000000
# 6 0.000000 0.000000 0.000000 -0.013682 0.000000 0.024584
#
#
# Mechanical properties :
#
#
# Convention : Reuss Voigt Hill
#
# Bulk Modulus (GPa) = 30.33524 40.91483 35.62503
# Shear Modulus (GPa) = 30.82911 40.30614 35.56763
#
# Velocity S-wave (km/s) = 3.56853 4.08032 3.83298
# Velocity P-wave (km/s) = 5.43228 6.25293 5.85700
#
# Compressibility (1/GPa) = 0.03296496
#
# Stress axis : x y z
#
# Youngs Moduli (GPa) = 78.15649 78.03823 115.50872
#
# Poissons Ratio (x) = -0.00045 -0.08080
# Poissons Ratio (y) = -0.00045 0.15663
# Poissons Ratio (z) = -0.05467 0.10582
#
# Static dielectric constant tensor:
#      x y z
#    x 6.147500 0.000000 1.202250 
#    y 0.000000 4.257260 0.000000 
#    z 1.202250 0.000000 4.966890 
# 
# 
# High freq. dielectric constant tensor:
#      x y z
#    x 1.974710 0.000000 0.024950 
#    y 0.000000 1.959620 0.000000 
#    z 0.024950 0.000000 1.957720 
# 
# From -- ./inp_files/26452.got.cif
#   From: 2010.06.25/outbox.cif.g09.slc.cpg/sg13_14_cif.got.tgz:26452.got - 2010.06.28 04:50:58.
