data_PCOD8122178
_publ_section_title
;
Structure prediction by ZEFSAII (Michael W. Deem and Ramdas Pophale) SiO2 
 PCOD8122178
Probable space group: P 2/C
;
_chemical_formula_sum "Si O2"
_cell_formula_units_Z 20
_cell_length_a 10.564223
_cell_length_b 8.692315
_cell_length_c 7.607073
_cell_angle_alpha 90.000000
_cell_angle_beta 106.081066
_cell_angle_gamma 90.000000
_cell_volume 671.205599
_symmetry_space_group_name_H-M "P 2/C"
_symmetry_group_IT_number 13
_symmetry_cell_setting 'monoclinic'
loop_
_space_group_symop_operation_xyz
x,y,z
-x,y,1/2-z
-x,-y,-z
x,-y,1/2+z
loop_
_atom_site_type_symbol
_atom_site_label
_atom_site_fract_x
_atom_site_fract_y
_atom_site_fract_z
Si Si1 0.949639 0.757885 0.535021
Si Si2 0.412643 0.209589 0.876293
Si Si3 0.270537 0.556996 0.105727
Si Si4 0.195821 0.070029 0.008956
Si Si5 0.649235 0.735242 0.704759
O O1 0.883353 0.605131 0.417849
O O2 0.000000 0.719986 0.750000
O O3 0.064265 0.824180 0.453201
O O4 0.836806 0.890088 0.504494
O O5 0.500000 0.132371 0.750000
O O6 0.368681 0.375832 0.790405
O O7 0.287511 0.104520 0.874639
O O8 0.497033 0.229454 0.092110
O O9 0.310907 0.377135 0.112220
O O10 0.286919 0.639874 0.926675
O O11 0.276243 0.107088 0.220038
#
# Coordination Sequence:
#
# PCOD8122178 Si02
#       5
#     4   4   4   4   4
#     4  11  26  50  76 108 152 198 255 311 366 450
#     4  10  24  45  76 110 152 194 247 308 377 444
#     4  11  24  45  75 112 151 198 248 307 376 440
#     4  11  25  46  80 108 149 201 250 308 378 438
#     4  11  23  46  73 115 149 195 249 311 374 449
#
# _framework density 29.797129000000002
#
# number of rings (size 3 to 8) (size 9 to 14) (size 15 to 20)
#    0.000    1.200    2.000    2.400    5.600    4.000 
#    0.000   11.000    0.000    3.600    0.000    0.000 
#    0.000    0.000    0.000    0.000    0.000    0.000 
#
# Total GULP energy -247839.449361 kJ/mol
# GULP energy per Si atom -12391.972468 kJ/mol
# Density = 2.972931 g / cm^3
# Si number density = 29.797129 Si / 1000 Ang^3
#
#
#
# Elastic Constant Matrix: (Units=GPa)
#
#
# Indices 1 2 3 4 5 6 
#
# 1 187.5632 65.4397 28.1839 0.0000 3.0768 0.0000
# 2 65.4397 84.8761 33.2058 0.0000 23.1561 0.0000
# 3 28.1839 33.2058 144.5335 0.0000 17.6090 0.0000
# 4 0.0000 0.0000 0.0000 36.4224 0.0000 7.9720
# 5 3.0768 23.1561 17.6090 0.0000 58.1876 0.0000
# 6 0.0000 0.0000 0.0000 7.9720 0.0000 42.6295
#
#
#
# Elastic Compliance Matrix: (Units=1/GPa)
#
#
# Indices 1 2 3 4 5 6 
#
# 1 0.007535 -0.006295 -0.000291 0.000000 0.002195 0.000000
# 2 -0.006295 0.019397 -0.002418 0.000000 -0.006654 0.000000
# 3 -0.000291 -0.002418 0.007696 0.000000 -0.001351 0.000000
# 4 0.000000 0.000000 0.000000 0.028627 0.000000 -0.005353
# 5 0.002195 -0.006654 -0.001351 0.000000 0.020127 0.000000
# 6 0.000000 0.000000 0.000000 -0.005353 0.000000 0.024459
#
#
# Mechanical properties :
#
#
# Convention : Reuss Voigt Hill
#
# Bulk Modulus (GPa) = 60.16567 74.51465 67.34016
# Shear Modulus (GPa) = 38.05509 46.79078 42.42294
#
# Velocity S-wave (km/s) = 3.57759 3.96701 3.77732
# Velocity P-wave (km/s) = 6.10746 6.78561 6.45545
#
# Compressibility (1/GPa) = 0.01662077
#
# Stress axis : x y z
#
# Youngs Moduli (GPa) = 132.70604 51.55502 129.94374
#
# Poissons Ratio (x) = 0.32453 0.03776
# Poissons Ratio (y) = 0.83537 0.31421
# Poissons Ratio (z) = 0.03856 0.12466
#
# Static dielectric constant tensor:
#      x y z
#    x 5.947420 0.000000 -0.074420 
#    y 0.000000 5.342620 0.000000 
#    z -0.074420 0.000000 5.975490 
# 
# 
# High freq. dielectric constant tensor:
#      x y z
#    x 2.230420 0.000000 -0.003450 
#    y 0.000000 2.208790 0.000000 
#    z -0.003450 0.000000 2.236700 
# 
# From -- ./inp_files/14993.got.cif
#   From: 2010.06.25/outbox.cif.g09.slc.cpg/sg13_8_cif.got.tgz:14993.got - 2010.06.28 04:50:58.
