data_PCOD8122480
_publ_section_title
;
Structure prediction by ZEFSAII (Michael W. Deem and Ramdas Pophale) SiO2 
 PCOD8122480
Probable space group: P 2/C
;
_chemical_formula_sum "Si O2"
_cell_formula_units_Z 28
_cell_length_a 25.306843
_cell_length_b 9.510213
_cell_length_c 8.922170
_cell_angle_alpha 90.000000
_cell_angle_beta 36.559254
_cell_angle_gamma 90.000000
_cell_volume 1279.065028
_symmetry_space_group_name_H-M "P 2/C"
_symmetry_group_IT_number 13
_symmetry_cell_setting 'monoclinic'
loop_
_space_group_symop_operation_xyz
x,y,z
-x,y,1/2-z
-x,-y,-z
x,-y,1/2+z
loop_
_atom_site_type_symbol
_atom_site_label
_atom_site_fract_x
_atom_site_fract_y
_atom_site_fract_z
Si Si1 0.988229 0.352410 0.600366
Si Si2 0.258764 0.095003 0.797529
Si Si3 0.560127 0.587321 0.251532
Si Si4 0.685474 0.167261 0.498689
Si Si5 0.206040 0.626040 0.949196
Si Si6 0.945600 0.107061 0.223555
Si Si7 0.725132 0.393570 0.880581
O O1 0.000000 0.356168 0.750000
O O2 0.000000 0.500000 0.500000
O O3 0.059095 0.249253 0.362950
O O4 0.887687 0.307008 0.790763
O O5 0.284232 0.234760 0.650321
O O6 0.322273 0.971260 0.588695
O O7 0.277341 0.113896 0.929264
O O8 0.154545 0.057207 0.012192
O O9 0.500000 0.628677 0.250000
O O10 0.500000 0.500000 0.500000
O O11 0.595803 0.740101 0.229133
O O12 0.639850 0.483931 0.023697
O O13 0.753868 0.268596 0.261840
O O14 0.194806 0.474303 0.889586
O O15 0.265225 0.605369 0.962520
O O16 0.000000 0.134062 0.250000
O O17 0.000000 0.000000 0.000000
#
# Coordination Sequence:
#
# PCOD8122480 Si02
#       7
#     4   4   4   4   4   4   4
#     4  12  23  37  57  87 124 166 214 270 313 350
#     4  12  23  42  62  92 127 167 213 254 306 374
#     4  11  23  44  69  96 122 153 199 253 312 382
#     4  11  24  41  65  91 125 166 204 254 311 375
#     4  11  21  39  59  90 123 166 216 256 306 373
#     4  12  24  40  61  89 125 171 215 263 309 354
#     4  11  22  39  66  91 123 165 204 256 314 374
#
# _framework density 21.890989000000001
#
# number of rings (size 3 to 8) (size 9 to 14) (size 15 to 20)
#    0.000    0.571    0.000   11.143    0.000    0.000 
#    0.000    3.571    0.000    0.000    0.000    0.000 
#    0.000    0.000    0.000    0.000    0.000    0.000 
#
# Total GULP energy -347140.828432 kJ/mol
# GULP energy per Si atom -12397.886730 kJ/mol
# Density = 2.184116 g / cm^3
# Si number density = 21.890989 Si / 1000 Ang^3
#
#
#
# Elastic Constant Matrix: (Units=GPa)
#
#
# Indices 1 2 3 4 5 6 
#
# 1 138.5106 35.7860 38.7702 0.0000 18.5133 0.0000
# 2 35.7860 162.4585 50.8725 0.0000 12.8256 0.0000
# 3 38.7702 50.8725 82.6986 0.0000 11.8068 0.0000
# 4 0.0000 0.0000 0.0000 49.7692 0.0000 8.3068
# 5 18.5133 12.8256 11.8068 0.0000 46.6968 0.0000
# 6 0.0000 0.0000 0.0000 8.3068 0.0000 29.9769
#
#
#
# Elastic Compliance Matrix: (Units=1/GPa)
#
#
# Indices 1 2 3 4 5 6 
#
# 1 0.008637 -0.000684 -0.003285 0.000000 -0.002406 0.000000
# 2 -0.000684 0.007718 -0.004319 0.000000 -0.000757 0.000000
# 3 -0.003285 -0.004319 0.016531 0.000000 -0.001691 0.000000
# 4 0.000000 0.000000 0.000000 0.021067 0.000000 -0.005838
# 5 -0.002406 -0.000757 -0.001691 0.000000 0.023004 0.000000
# 6 0.000000 0.000000 0.000000 -0.005838 0.000000 0.034977
#
#
# Mechanical properties :
#
#
# Convention : Reuss Voigt Hill
#
# Bulk Modulus (GPa) = 61.31329 70.50280 65.90804
# Shear Modulus (GPa) = 37.32799 42.50450 39.91625
#
# Velocity S-wave (km/s) = 4.13386 4.41119 4.27477
# Velocity P-wave (km/s) = 7.13122 7.63027 7.38496
#
# Compressibility (1/GPa) = 0.01630968
#
# Stress axis : x y z
#
# Youngs Moduli (GPa) = 115.77446 129.56094 60.49368
#
# Poissons Ratio (x) = 0.08862 0.19873
# Poissons Ratio (y) = 0.07919 0.26129
# Poissons Ratio (z) = 0.38033 0.55961
#
# Static dielectric constant tensor:
#      x y z
#    x 3.949210 0.000000 -0.062070 
#    y 0.000000 4.288450 0.000000 
#    z -0.062070 0.000000 4.296620 
# 
# 
# High freq. dielectric constant tensor:
#      x y z
#    x 1.862660 0.000000 0.015480 
#    y 0.000000 1.874100 0.000000 
#    z 0.015480 0.000000 1.865280 
# 
# From -- ./inp_files/24544.got.cif
#   From: 2010.06.25/outbox.cif.g09.slc.cpg/sg13_13_cif.got.tgz:24544.got - 2010.06.28 04:50:58.
