data_PCOD8122712
_publ_section_title
;
Structure prediction by ZEFSAII (Michael W. Deem and Ramdas Pophale) SiO2 
 PCOD8122712
Probable space group: P 2/C
;
_chemical_formula_sum "Si O2"
_cell_formula_units_Z 28
_cell_length_a 8.388521
_cell_length_b 13.450519
_cell_length_c 14.440987
_cell_angle_alpha 90.000000
_cell_angle_beta 131.812468
_cell_angle_gamma 90.000000
_cell_volume 1214.424346
_symmetry_space_group_name_H-M "P 2/C"
_symmetry_group_IT_number 13
_symmetry_cell_setting 'monoclinic'
loop_
_space_group_symop_operation_xyz
x,y,z
-x,y,1/2-z
-x,-y,-z
x,-y,1/2+z
loop_
_atom_site_type_symbol
_atom_site_label
_atom_site_fract_x
_atom_site_fract_y
_atom_site_fract_z
Si Si1 0.739601 0.779859 0.815444
Si Si2 0.748863 0.410209 0.866793
Si Si3 0.450775 0.131961 0.570515
Si Si4 0.762756 0.947106 0.681113
Si Si5 0.062528 0.888589 0.048849
Si Si6 0.839015 0.241707 0.765125
Si Si7 0.027334 0.587610 0.650788
O O1 0.500000 0.749360 0.750000
O O2 0.755486 0.885564 0.771688
O O3 0.847618 0.691925 0.799108
O O4 0.880042 0.806252 0.959246
O O5 0.500000 0.404796 0.750000
O O6 0.856298 0.316733 0.857524
O O7 0.826493 0.509298 0.845910
O O8 0.811103 0.406797 0.001759
O O9 0.304628 0.132862 0.423170
O O10 0.292982 0.137175 0.596009
O O11 0.600307 0.230451 0.630132
O O12 0.590882 0.033010 0.624049
O O13 0.000000 0.986828 0.750000
O O14 0.097490 0.869990 0.172484
O O15 0.000000 0.000000 0.000000
O O16 0.000000 0.280167 0.750000
O O17 0.000000 0.558830 0.750000
#
# Coordination Sequence:
#
# PCOD8122712 Si02
#       7
#     4   4   4   4   4   4   4
#     4  12  25  42  68  99 141 187 231 290 359 423
#     4  11  25  50  78 109 149 189 239 302 367 432
#     4  11  25  41  68  97 139 185 239 294 357 421
#     4  11  23  42  65 100 138 184 239 296 353 431
#     4  12  25  44  66  96 139 187 237 294 352 417
#     4  12  27  44  71 104 140 188 243 291 359 430
#     4  11  26  48  77 110 148 188 242 299 365 443
#
# _framework density 23.056191999999999
#
# number of rings (size 3 to 8) (size 9 to 14) (size 15 to 20)
#    0.000    0.571    2.857    4.714    6.000    0.571 
#    0.000    0.000    0.000    0.000    0.000    0.000 
#    0.000    0.000    0.000    0.000    0.000    0.000 
#
# Total GULP energy -346996.755483 kJ/mol
# GULP energy per Si atom -12392.741267 kJ/mol
# Density = 2.300372 g / cm^3
# Si number density = 23.056192 Si / 1000 Ang^3
#
#
#
# Elastic Constant Matrix: (Units=GPa)
#
#
# Indices 1 2 3 4 5 6 
#
# 1 116.7367 17.1964 66.1508 0.0000 8.0029 0.0000
# 2 17.1964 54.8147 21.0985 0.0000 5.0426 0.0000
# 3 66.1508 21.0985 139.7010 0.0000 0.8311 0.0000
# 4 0.0000 0.0000 0.0000 34.6214 0.0000 -2.9566
# 5 8.0029 5.0426 0.8311 0.0000 42.4542 0.0000
# 6 0.0000 0.0000 0.0000 -2.9566 0.0000 25.8354
#
#
#
# Elastic Compliance Matrix: (Units=1/GPa)
#
#
# Indices 1 2 3 4 5 6 
#
# 1 0.012010 -0.001488 -0.005450 0.000000 -0.001981 0.000000
# 2 -0.001488 0.019770 -0.002269 0.000000 -0.002023 0.000000
# 3 -0.005450 -0.002269 0.010075 0.000000 0.001100 0.000000
# 4 0.000000 0.000000 0.000000 0.029169 0.000000 0.003338
# 5 -0.001981 -0.002023 0.001100 0.000000 0.024147 0.000000
# 6 0.000000 0.000000 0.000000 0.003338 0.000000 0.039089
#
#
# Mechanical properties :
#
#
# Convention : Reuss Voigt Hill
#
# Bulk Modulus (GPa) = 42.66219 57.79375 50.22797
# Shear Modulus (GPa) = 31.15524 34.36932 32.76228
#
# Velocity S-wave (km/s) = 3.67996 3.86512 3.77367
# Velocity P-wave (km/s) = 6.04978 6.71116 6.38904
#
# Compressibility (1/GPa) = 0.02343996
#
# Stress axis : x y z
#
# Youngs Moduli (GPa) = 83.26578 50.58286 99.25396
#
# Poissons Ratio (x) = 0.07525 0.54097
# Poissons Ratio (y) = 0.12387 0.22524
# Poissons Ratio (z) = 0.45383 0.11479
#
# Static dielectric constant tensor:
#      x y z
#    x 4.041990 0.000000 0.096870 
#    y 0.000000 4.295780 0.000000 
#    z 0.096870 0.000000 8.564390 
# 
# 
# High freq. dielectric constant tensor:
#      x y z
#    x 1.902580 0.000000 0.005590 
#    y 0.000000 1.910480 0.000000 
#    z 0.005590 0.000000 1.937880 
# 
# From -- ./inp_files/47725.got.cif
#   From: 2010.06.25/outbox.cif.g09.slc.cpg/sg13_24_cif.got.tgz:47725.got - 2010.06.28 04:50:58.
