data_PCOD8122360
_publ_section_title
;
Structure prediction by ZEFSAII (Michael W. Deem and Ramdas Pophale) SiO2 
 PCOD8122360
Probable space group: P 2/C
;
_chemical_formula_sum "Si O2"
_cell_formula_units_Z 16
_cell_length_a 10.747113
_cell_length_b 4.749484
_cell_length_c 15.343212
_cell_angle_alpha 90.000000
_cell_angle_beta 45.814573
_cell_angle_gamma 90.000000
_cell_volume 561.599779
_symmetry_space_group_name_H-M "P 2/C"
_symmetry_group_IT_number 13
_symmetry_cell_setting 'monoclinic'
loop_
_space_group_symop_operation_xyz
x,y,z
-x,y,1/2-z
-x,-y,-z
x,-y,1/2+z
loop_
_atom_site_type_symbol
_atom_site_label
_atom_site_fract_x
_atom_site_fract_y
_atom_site_fract_z
Si Si1 0.449636 0.924454 0.396858
Si Si2 0.827124 0.217677 0.872133
Si Si3 0.684902 0.576066 0.790592
Si Si4 0.839064 0.804572 0.556658
O O1 0.327078 0.987553 0.541769
O O2 0.628633 0.098031 0.323142
O O3 0.339077 0.004820 0.363798
O O4 0.505167 0.598124 0.365004
O O5 0.779332 0.474374 0.831663
O O6 0.867915 0.347302 0.948625
O O7 0.000000 0.065706 0.750000
O O8 0.813204 0.564261 0.643491
O O9 0.000000 0.000000 0.500000
#
# Coordination Sequence:
#
# PCOD8122360 Si02
#       4
#     4   4   4   4
#     4  10  27  50  83 121 164 221 280 351 420 498
#     4  10  26  52  81 125 171 227 272 355 429 507
#     4  12  25  55  83 120 168 220 290 349 418 512
#     4  10  27  52  82 127 173 226 282 355 427 509
#
# _framework density 28.490041000000002
#
# number of rings (size 3 to 8) (size 9 to 14) (size 15 to 20)
#    1.500    0.000    0.000    2.250    3.500    7.000 
#    4.500    0.000    0.000    0.000    0.000    0.000 
#    0.000    0.000    0.000    0.000    0.000    0.000 
#
# Total GULP energy -198323.054111 kJ/mol
# GULP energy per Si atom -12395.190882 kJ/mol
# Density = 2.842520 g / cm^3
# Si number density = 28.490041 Si / 1000 Ang^3
#
#
#
# Elastic Constant Matrix: (Units=GPa)
#
#
# Indices 1 2 3 4 5 6 
#
# 1 191.1017 32.4538 77.4320 0.0000 26.0709 0.0000
# 2 32.4538 55.1973 39.1504 0.0000 1.5690 0.0000
# 3 77.4320 39.1504 204.5832 0.0000 27.8241 0.0000
# 4 0.0000 0.0000 0.0000 53.5186 0.0000 3.5906
# 5 26.0709 1.5690 27.8241 0.0000 51.1027 0.0000
# 6 0.0000 0.0000 0.0000 3.5906 0.0000 20.7110
#
#
#
# Elastic Compliance Matrix: (Units=1/GPa)
#
#
# Indices 1 2 3 4 5 6 
#
# 1 0.006703 -0.002668 -0.001698 0.000000 -0.002413 0.000000
# 2 -0.002668 0.022156 -0.003588 0.000000 0.002635 0.000000
# 3 -0.001698 -0.003588 0.006571 0.000000 -0.002601 0.000000
# 4 0.000000 0.000000 0.000000 0.018905 0.000000 -0.003277
# 5 -0.002413 0.002635 -0.002601 0.000000 0.022135 0.000000
# 6 0.000000 0.000000 0.000000 -0.003277 0.000000 0.048852
#
#
# Mechanical properties :
#
#
# Convention : Reuss Voigt Hill
#
# Bulk Modulus (GPa) = 51.22737 83.21719 67.22228
# Shear Modulus (GPa) = 33.84358 45.18952 39.51655
#
# Velocity S-wave (km/s) = 3.45034 3.98697 3.72833
# Velocity P-wave (km/s) = 5.82177 7.10403 6.49462
#
# Compressibility (1/GPa) = 0.01952082
#
# Stress axis : x y z
#
# Youngs Moduli (GPa) = 149.18078 45.13480 152.17778
#
# Poissons Ratio (x) = 0.12042 0.25845
# Poissons Ratio (y) = 0.39803 0.54607
# Poissons Ratio (z) = 0.25336 0.16196
#
# Static dielectric constant tensor:
#      x y z
#    x 5.200840 0.000000 0.126080 
#    y 0.000000 4.262590 0.000000 
#    z 0.126080 0.000000 5.536360 
# 
# 
# High freq. dielectric constant tensor:
#      x y z
#    x 2.172360 0.000000 0.007870 
#    y 0.000000 2.109450 0.000000 
#    z 0.007870 0.000000 2.177800 
# 
# From -- ./inp_files/64997.got.cif
#   From: 2010.06.25/outbox.cif.g09.slc.cpg/sg13_33_cif.got.tgz:64997.got - 2010.06.28 04:50:58.
