data_PCOD8122054
_publ_section_title
;
Structure prediction by ZEFSAII (Michael W. Deem and Ramdas Pophale) SiO2 
 PCOD8122054
Probable space group: P 2/C
;
_chemical_formula_sum "Si O2"
_cell_formula_units_Z 16
_cell_length_a 7.689536
_cell_length_b 17.569157
_cell_length_c 5.549509
_cell_angle_alpha 90.000000
_cell_angle_beta 63.807843
_cell_angle_gamma 90.000000
_cell_volume 672.747951
_symmetry_space_group_name_H-M "P 2/C"
_symmetry_group_IT_number 13
_symmetry_cell_setting 'monoclinic'
loop_
_space_group_symop_operation_xyz
x,y,z
-x,y,1/2-z
-x,-y,-z
x,-y,1/2+z
loop_
_atom_site_type_symbol
_atom_site_label
_atom_site_fract_x
_atom_site_fract_y
_atom_site_fract_z
Si Si1 0.000000 0.217017 0.250000
Si Si2 0.710943 0.840172 0.571090
Si Si3 0.705738 0.300884 0.754535
Si Si4 0.219484 0.472551 0.812028
Si Si5 0.000000 0.954109 0.250000
O O1 0.843712 0.160924 0.226610
O O2 0.888271 0.272576 0.494670
O O3 0.500000 0.874110 0.750000
O O4 0.692517 0.753078 0.494373
O O5 0.812543 0.899274 0.327889
O O6 0.500000 0.295667 0.750000
O O7 0.760697 0.386401 0.791991
O O8 0.317463 0.517809 0.520642
O O9 0.000000 0.500000 0.000000
O O10 0.000000 0.000000 0.500000
#
# Coordination Sequence:
#
# PCOD8122054 Si02
#       5
#     2   4   4   4   2
#     4  12  23  46  74 109 150 194 256 320 385 444
#     4  12  27  48  80 115 153 201 260 318 380 457
#     4  12  26  43  77 109 145 204 267 326 385 458
#     4  10  24  42  64  99 146 200 252 312 394 446
#     4  12  29  52  82 119 160 208 244 304 387 470
#
# _framework density 23.783049999999999
#
# number of rings (size 3 to 8) (size 9 to 14) (size 15 to 20)
#    0.000    0.500    5.000    2.250   10.500    2.000 
#    0.000    0.000    0.000    0.000    0.000    0.000 
#    0.000    0.000    0.000    0.000    0.000    0.000 
#
# Total GULP energy -198272.228496 kJ/mol
# GULP energy per Si atom -12392.014281 kJ/mol
# Density = 2.372892 g / cm^3
# Si number density = 23.783050 Si / 1000 Ang^3
#
#
#
# Elastic Constant Matrix: (Units=GPa)
#
#
# Indices 1 2 3 4 5 6 
#
# 1 145.2208 43.3313 39.2969 0.0000 -5.9301 0.0000
# 2 43.3313 146.9886 51.8111 0.0000 1.3749 0.0000
# 3 39.2969 51.8111 143.7924 0.0000 9.3862 0.0000
# 4 0.0000 0.0000 0.0000 107.2664 0.0000 -29.7996
# 5 -5.9301 1.3749 9.3862 0.0000 50.2028 0.0000
# 6 0.0000 0.0000 0.0000 -29.7996 0.0000 41.1554
#
#
#
# Elastic Compliance Matrix: (Units=1/GPa)
#
#
# Indices 1 2 3 4 5 6 
#
# 1 0.007902 -0.001776 -0.001603 0.000000 0.001282 0.000000
# 2 -0.001776 0.008197 -0.002470 0.000000 0.000027 0.000000
# 3 -0.001603 -0.002470 0.008393 0.000000 -0.001691 0.000000
# 4 0.000000 0.000000 0.000000 0.011670 0.000000 0.008450
# 5 0.001282 0.000027 -0.001691 0.000000 0.020386 0.000000
# 6 0.000000 0.000000 0.000000 0.008450 0.000000 0.030417
#
#
# Mechanical properties :
#
#
# Convention : Reuss Voigt Hill
#
# Bulk Modulus (GPa) = 78.16548 78.32002 78.24275
# Shear Modulus (GPa) = 48.57724 59.82909 54.20317
#
# Velocity S-wave (km/s) = 4.52432 5.02104 4.77914
# Velocity P-wave (km/s) = 7.76080 8.16192 7.96389
#
# Compressibility (1/GPa) = 0.01279337
#
# Stress axis : x y z
#
# Youngs Moduli (GPa) = 126.54555 121.99153 119.14760
#
# Poissons Ratio (x) = 0.21671 0.19102
# Poissons Ratio (y) = 0.22480 0.29429
# Poissons Ratio (z) = 0.20288 0.30131
#
# Static dielectric constant tensor:
#      x y z
#    x 4.902460 0.000000 0.715470 
#    y 0.000000 4.434120 0.000000 
#    z 0.715470 0.000000 5.668480 
# 
# 
# High freq. dielectric constant tensor:
#      x y z
#    x 1.950470 0.000000 -0.005330 
#    y 0.000000 1.939900 0.000000 
#    z -0.005330 0.000000 1.954860 
# 
# From -- ./inp_files/1261.got.cif
#   From: 2010.06.25/outbox.cif.g09.slc.cpg/sg13_1_cif.got.tgz:1261.got - 2010.06.28 04:50:58.
