data_PCOD8122637
_publ_section_title
;
Structure prediction by ZEFSAII (Michael W. Deem and Ramdas Pophale) SiO2 
 PCOD8122637
Probable space group: P 2/C
;
_chemical_formula_sum "Si O2"
_cell_formula_units_Z 26
_cell_length_a 21.585879
_cell_length_b 5.230139
_cell_length_c 26.514029
_cell_angle_alpha 90.000000
_cell_angle_beta 157.632761
_cell_angle_gamma 90.000000
_cell_volume 1139.097547
_symmetry_space_group_name_H-M "P 2/C"
_symmetry_group_IT_number 13
_symmetry_cell_setting 'monoclinic'
loop_
_space_group_symop_operation_xyz
x,y,z
-x,y,1/2-z
-x,-y,-z
x,-y,1/2+z
loop_
_atom_site_type_symbol
_atom_site_label
_atom_site_fract_x
_atom_site_fract_y
_atom_site_fract_z
Si Si1 0.646480 0.286158 0.256258
Si Si2 0.257824 0.771941 0.118610
Si Si3 0.117552 0.291234 0.156447
Si Si4 0.704450 0.247340 0.543887
Si Si5 0.153890 0.959571 0.938792
Si Si6 0.000000 0.384520 0.250000
Si Si7 0.861118 0.800835 0.264633
O O1 0.649625 0.506411 0.301237
O O2 0.797572 0.331165 0.333094
O O3 0.655267 0.006681 0.287565
O O4 0.481760 0.330913 0.100760
O O5 0.266165 0.821245 0.064734
O O6 0.072871 0.741631 0.997752
O O7 0.159455 0.530306 0.223659
O O8 0.181664 0.029602 0.229564
O O9 0.833033 0.464330 0.627353
O O10 0.733551 0.162259 0.623032
O O11 0.733122 0.029625 0.523350
O O12 0.009889 0.778865 0.808888
O O13 0.049740 0.188359 0.886574
#
# Coordination Sequence:
#
# PCOD8122637 Si02
#       7
#     4   4   4   4   4   2   4
#     4  12  28  46  67 105 143 184 230 283 340 408
#     4  11  25  46  70  98 140 187 231 274 340 413
#     4  11  24  45  76  98 137 186 235 285 337 406
#     4  12  26  42  71 103 143 177 226 293 349 412
#     4  11  24  43  72 102 131 185 231 283 339 423
#     4  12  22  46  74  94 140 176 230 278 354 408
#     4  11  22  43  74 105 130 180 238 286 346 402
#
# _framework density 22.825087
#
# number of rings (size 3 to 8) (size 9 to 14) (size 15 to 20)
#    0.000    0.615    3.077    5.538    4.308    1.846 
#    0.000    0.000    0.000    0.000    0.000    0.000 
#    0.000    0.000    0.000    0.000    0.000    0.000 
#
# Total GULP energy -322428.110822 kJ/mol
# GULP energy per Si atom -12401.081185 kJ/mol
# Density = 2.277314 g / cm^3
# Si number density = 22.825087 Si / 1000 Ang^3
#
#
#
# Elastic Constant Matrix: (Units=GPa)
#
#
# Indices 1 2 3 4 5 6 
#
# 1 46.2906 26.8391 4.2649 0.0000 -20.4363 0.0000
# 2 26.8391 128.4151 34.2180 0.0000 -8.1034 0.0000
# 3 4.2649 34.2180 105.4272 0.0000 -12.4439 0.0000
# 4 0.0000 0.0000 0.0000 20.7391 0.0000 -22.7201
# 5 -20.4363 -8.1034 -12.4439 0.0000 32.2456 0.0000
# 6 0.0000 0.0000 0.0000 -22.7201 0.0000 17.9342
#
#
#
# Elastic Compliance Matrix: (Units=1/GPa)
#
#
# Indices 1 2 3 4 5 6 
#
# 1 0.034785 -0.006799 0.003353 0.000000 0.021631 0.000000
# 2 -0.006799 0.009892 -0.003301 0.000000 -0.003097 0.000000
# 3 0.003353 -0.003301 0.011079 0.000000 0.005570 0.000000
# 4 0.000000 0.000000 0.000000 -0.124316 0.000000 -0.157491
# 5 0.021631 -0.003097 0.005570 0.000000 0.046093 0.000000
# 6 0.000000 0.000000 0.000000 -0.157491 0.000000 -0.143760
#
#
# Mechanical properties :
#
#
# Convention : Reuss Voigt Hill
#
# Bulk Modulus (GPa) = 23.66203 45.64188 34.65196
# Shear Modulus (GPa) = -36.06316 28.50450 -3.77933
#
# Velocity S-wave (km/s) = -3.97921 3.53770 -1.28817
# Velocity P-wave (km/s) = 3.27459 6.06027 3.60583
#
# Compressibility (1/GPa) = 0.04226180
#
# Stress axis : x y z
#
# Youngs Moduli (GPa) = 28.74783 101.08762 90.26450
#
# Poissons Ratio (x) = 0.68725 -0.30262
# Poissons Ratio (y) = 0.19544 0.29798
# Poissons Ratio (z) = -0.09638 0.33371
#
# Static dielectric constant tensor:
#      x y z
#    x 4.272570 0.000000 -0.317320 
#    y 0.000000 4.237890 0.000000 
#    z -0.317320 0.000000 4.120850 
# 
# 
# High freq. dielectric constant tensor:
#      x y z
#    x 1.895920 0.000000 -0.022960 
#    y 0.000000 1.910220 0.000000 
#    z -0.022960 0.000000 1.900080 
# 
# From -- ./inp_files/93759.got.cif
#   From: 2010.06.25/outbox.cif.g09.slc.cpg/sg13_47_cif.got.tgz:93759.got - 2010.06.28 04:50:58.
