data_PCOD8122498
_publ_section_title
;
Structure prediction by ZEFSAII (Michael W. Deem and Ramdas Pophale) SiO2 
 PCOD8122498
Probable space group: P 2/C
;
_chemical_formula_sum "Si O2"
_cell_formula_units_Z 24
_cell_length_a 9.735939
_cell_length_b 11.651852
_cell_length_c 24.851372
_cell_angle_alpha 90.000000
_cell_angle_beta 155.192239
_cell_angle_gamma 90.000000
_cell_volume 1182.858569
_symmetry_space_group_name_H-M "P 2/C"
_symmetry_group_IT_number 13
_symmetry_cell_setting 'monoclinic'
loop_
_space_group_symop_operation_xyz
x,y,z
-x,y,1/2-z
-x,-y,-z
x,-y,1/2+z
loop_
_atom_site_type_symbol
_atom_site_label
_atom_site_fract_x
_atom_site_fract_y
_atom_site_fract_z
Si Si1 0.894024 0.598845 0.271376
Si Si2 0.828991 0.621171 0.446443
Si Si3 0.110495 0.029293 0.600280
Si Si4 0.137743 0.791321 0.638977
Si Si5 0.179110 0.663800 0.761376
Si Si6 0.108812 0.724975 0.450456
O O1 0.514367 0.615993 0.146422
O O2 0.960476 0.463392 0.300656
O O3 0.000000 0.642252 0.250000
O O4 0.095964 0.675472 0.385514
O O5 0.000000 0.500000 0.500000
O O6 0.037808 0.703984 0.557520
O O7 0.806867 0.676483 0.378938
O O8 0.500000 0.051901 0.750000
O O9 0.906955 0.137041 0.552077
O O10 0.970501 0.916876 0.581407
O O11 0.000000 0.000000 0.500000
O O12 0.500000 0.822648 0.750000
O O13 0.072841 0.739330 0.673696
O O14 0.000000 0.714367 0.750000
O O15 0.566851 0.671737 0.907134
#
# Coordination Sequence:
#
# PCOD8122498 Si02
#       6
#     4   4   4   4   4   4
#     4  11  26  41  63  95 135 174 210 270 338 393
#     4  12  21  38  66  96 125 161 217 271 314 382
#     4  11  22  41  68 100 133 171 221 280 337 387
#     4  11  21  40  66  94 126 166 219 267 324 384
#     4  11  25  43  64  92 133 176 213 267 337 401
#     4  12  23  43  66  97 128 169 226 271 324 396
#
# _framework density 20.289829999999998
#
# number of rings (size 3 to 8) (size 9 to 14) (size 15 to 20)
#    0.000    0.667    5.000    3.500    2.333    1.333 
#    0.000    1.667    0.000    0.000    0.000    0.000 
#    0.000    0.000    0.000    0.000    0.000    0.000 
#
# Total GULP energy -297422.659297 kJ/mol
# GULP energy per Si atom -12392.610804 kJ/mol
# Density = 2.024365 g / cm^3
# Si number density = 20.289830 Si / 1000 Ang^3
#
#
#
# Elastic Constant Matrix: (Units=GPa)
#
#
# Indices 1 2 3 4 5 6 
#
# 1 149.8911 49.3374 9.2022 0.0000 -18.2306 0.0000
# 2 49.3374 143.2632 5.9762 0.0000 -22.1767 0.0000
# 3 9.2022 5.9762 41.1780 0.0000 -12.4251 0.0000
# 4 0.0000 0.0000 0.0000 19.2031 0.0000 -10.2512
# 5 -18.2306 -22.1767 -12.4251 0.0000 37.7108 0.0000
# 6 0.0000 0.0000 0.0000 -10.2512 0.0000 55.9057
#
#
#
# Elastic Compliance Matrix: (Units=1/GPa)
#
#
# Indices 1 2 3 4 5 6 
#
# 1 0.007735 -0.002301 -0.000749 0.000000 0.002139 0.000000
# 2 -0.002301 0.008367 0.000499 0.000000 0.003972 0.000000
# 3 -0.000749 0.000499 0.027048 0.000000 0.008843 0.000000
# 4 0.000000 0.000000 0.000000 0.057726 0.000000 0.010585
# 5 0.002139 0.003972 0.008843 0.000000 0.032801 0.000000
# 6 0.000000 0.000000 0.000000 0.010585 0.000000 0.019828
#
#
# Mechanical properties :
#
#
# Convention : Reuss Voigt Hill
#
# Bulk Modulus (GPa) = 26.28392 51.48488 38.88440
# Shear Modulus (GPa) = 29.19005 40.55168 34.87086
#
# Velocity S-wave (km/s) = 3.79707 4.47544 4.15014
# Velocity P-wave (km/s) = 5.67504 7.22052 6.49392
#
# Compressibility (1/GPa) = 0.03804607
#
# Stress axis : x y z
#
# Youngs Moduli (GPa) = 129.27873 119.52009 36.97103
#
# Poissons Ratio (x) = 0.27507 0.02770
# Poissons Ratio (y) = 0.29753 -0.01843
# Poissons Ratio (z) = 0.09685 -0.05958
#
# Static dielectric constant tensor:
#      x y z
#    x 5.762150 0.000000 -0.945740 
#    y 0.000000 3.945120 0.000000 
#    z -0.945740 0.000000 4.063140 
# 
# 
# High freq. dielectric constant tensor:
#      x y z
#    x 1.790320 0.000000 -0.014530 
#    y 0.000000 1.806220 0.000000 
#    z -0.014530 0.000000 1.790410 
# 
# From -- ./inp_files/80203.got.cif
#   From: 2010.06.25/outbox.cif.g09.slc.cpg/sg13_41_cif.got.tgz:80203.got - 2010.06.28 04:50:58.
