data_PCOD8122053
_publ_section_title
;
Structure prediction by ZEFSAII (Michael W. Deem and Ramdas Pophale) SiO2 
 PCOD8122053
Probable space group: P 2/C
;
_chemical_formula_sum "Si O2"
_cell_formula_units_Z 20
_cell_length_a 9.547702
_cell_length_b 18.414623
_cell_length_c 5.072270
_cell_angle_alpha 90.000000
_cell_angle_beta 95.307455
_cell_angle_gamma 90.000000
_cell_volume 887.969573
_symmetry_space_group_name_H-M "P 2/C"
_symmetry_group_IT_number 13
_symmetry_cell_setting 'monoclinic'
loop_
_space_group_symop_operation_xyz
x,y,z
-x,y,1/2-z
-x,-y,-z
x,-y,1/2+z
loop_
_atom_site_type_symbol
_atom_site_label
_atom_site_fract_x
_atom_site_fract_y
_atom_site_fract_z
Si Si1 0.797468 0.176678 0.802380
Si Si2 0.500000 0.767485 0.250000
Si Si3 0.840384 0.452316 0.743420
Si Si4 0.375541 0.646368 0.580119
Si Si5 0.000000 0.949564 0.250000
Si Si6 0.142589 0.263933 0.200345
O O1 0.629628 0.177143 0.813329
O O2 0.858170 0.099001 0.727582
O O3 0.847769 0.236711 0.598837
O O4 0.858607 0.196133 0.099521
O O5 0.461923 0.715138 0.484658
O O6 0.819146 0.518660 0.534949
O O7 0.715316 0.395188 0.658472
O O8 0.000000 0.419676 0.750000
O O9 0.500000 0.599550 0.750000
O O10 0.265722 0.677915 0.777222
O O11 0.000000 0.000000 0.500000
O O12 0.000000 0.307152 0.250000
#
# Coordination Sequence:
#
# PCOD8122053 Si02
#       6
#     4   2   4   4   2   4
#     4  11  22  41  64  93 136 170 209 270 330 384
#     4  10  24  42  64  98 138 172 208 280 350 400
#     4  10  25  46  66  90 133 185 228 278 336 404
#     4  11  24  40  67 101 135 169 232 282 344 413
#     4  12  24  42  68 100 130 176 230 264 302 388
#     4  11  21  38  64  96 128 170 214 275 339 384
#
# _framework density 22.523294
#
# number of rings (size 3 to 8) (size 9 to 14) (size 15 to 20)
#    0.000    1.200    4.000    1.200    2.800    6.400 
#    0.000    1.000    0.000    0.000    0.000    0.000 
#    0.000    0.000    0.000    0.000    0.000    0.000 
#
# Total GULP energy -247806.325599 kJ/mol
# GULP energy per Si atom -12390.316280 kJ/mol
# Density = 2.247203 g / cm^3
# Si number density = 22.523294 Si / 1000 Ang^3
#
#
#
# Elastic Constant Matrix: (Units=GPa)
#
#
# Indices 1 2 3 4 5 6 
#
# 1 203.5794 52.0070 38.8796 0.0000 15.2455 0.0000
# 2 52.0070 77.0361 16.5927 0.0000 8.2793 0.0000
# 3 38.8796 16.5927 90.7944 0.0000 6.3457 0.0000
# 4 0.0000 0.0000 0.0000 28.1705 0.0000 6.7951
# 5 15.2455 8.2793 6.3457 0.0000 40.6763 0.0000
# 6 0.0000 0.0000 0.0000 6.7951 0.0000 27.8141
#
#
#
# Elastic Compliance Matrix: (Units=1/GPa)
#
#
# Indices 1 2 3 4 5 6 
#
# 1 0.006330 -0.003714 -0.001940 0.000000 -0.001314 0.000000
# 2 -0.003714 0.015926 -0.001204 0.000000 -0.001662 0.000000
# 3 -0.001940 -0.001204 0.012129 0.000000 -0.000920 0.000000
# 4 0.000000 0.000000 0.000000 0.037721 0.000000 -0.009215
# 5 -0.001314 -0.001662 -0.000920 0.000000 0.025558 0.000000
# 6 0.000000 0.000000 0.000000 -0.009215 0.000000 0.038204
#
#
# Mechanical properties :
#
#
# Convention : Reuss Voigt Hill
#
# Bulk Modulus (GPa) = 48.38185 65.15206 56.76696
# Shear Modulus (GPa) = 31.95404 36.92754 34.44079
#
# Velocity S-wave (km/s) = 3.77066 4.05350 3.91464
# Velocity P-wave (km/s) = 6.36276 7.13422 6.75950
#
# Compressibility (1/GPa) = 0.02066891
#
# Stress axis : x y z
#
# Youngs Moduli (GPa) = 157.98279 62.78932 82.44753
#
# Poissons Ratio (x) = 0.23321 0.15994
# Poissons Ratio (y) = 0.58678 0.09926
# Poissons Ratio (z) = 0.30648 0.07559
#
# Static dielectric constant tensor:
#      x y z
#    x 5.030620 0.000000 0.141760 
#    y 0.000000 3.702910 0.000000 
#    z 0.141760 0.000000 4.124570 
# 
# 
# High freq. dielectric constant tensor:
#      x y z
#    x 1.917290 0.000000 -0.000740 
#    y 0.000000 1.836700 0.000000 
#    z -0.000740 0.000000 1.902140 
# 
# From -- ./inp_files/1653.got.cif
#   From: 2010.06.25/outbox.cif.g09.slc.cpg/sg13_1_cif.got.tgz:1653.got - 2010.06.28 04:50:58.
