data_PCOD8122808
_publ_section_title
;
Structure prediction by ZEFSAII (Michael W. Deem and Ramdas Pophale) SiO2 
 PCOD8122808
Probable space group: P 2/C
;
_chemical_formula_sum "Si O2"
_cell_formula_units_Z 20
_cell_length_a 7.512528
_cell_length_b 8.242447
_cell_length_c 16.206056
_cell_angle_alpha 90.000000
_cell_angle_beta 124.170041
_cell_angle_gamma 90.000000
_cell_volume 830.274430
_symmetry_space_group_name_H-M "P 2/C"
_symmetry_group_IT_number 13
_symmetry_cell_setting 'monoclinic'
loop_
_space_group_symop_operation_xyz
x,y,z
-x,y,1/2-z
-x,-y,-z
x,-y,1/2+z
loop_
_atom_site_type_symbol
_atom_site_label
_atom_site_fract_x
_atom_site_fract_y
_atom_site_fract_z
Si Si1 0.407472 0.070846 0.890988
Si Si2 0.231010 0.627606 0.280276
Si Si3 0.000000 0.145201 0.250000
Si Si4 0.910831 0.794978 0.896292
Si Si5 0.500000 0.382490 0.250000
Si Si6 0.807578 0.149131 0.888222
O O1 0.325037 0.258273 0.878690
O O2 0.588958 0.076824 0.868305
O O3 0.216591 0.961748 0.805065
O O4 0.500000 0.000000 0.000000
O O5 0.389064 0.482252 0.295674
O O6 0.223376 0.737928 0.197154
O O7 0.000000 0.562053 0.250000
O O8 0.000069 0.263186 0.330262
O O9 0.670224 0.727527 0.844454
O O10 0.942442 0.990649 0.897787
O O11 0.061913 0.739899 0.011093
#
# Coordination Sequence:
#
# PCOD8122808 Si02
#       6
#     4   4   2   4   2   4
#     4  12  22  41  73 111 139 187 249 310 358 420
#     4  12  26  49  72 105 150 203 241 303 370 451
#     4  12  22  42  74 110 146 184 258 306 362 426
#     4  11  25  43  72 108 139 194 242 316 357 441
#     4  12  28  48  72 104 160 192 242 294 394 448
#     4  11  23  46  76 103 147 186 259 306 362 420
#
# _framework density 24.088419999999999
#
# number of rings (size 3 to 8) (size 9 to 14) (size 15 to 20)
#    0.000    0.400    7.000    1.200    4.200    0.800 
#    0.000    1.000    0.000    0.000    0.000    0.000 
#    0.000    0.000    0.000    0.000    0.000    0.000 
#
# Total GULP energy -247892.659513 kJ/mol
# GULP energy per Si atom -12394.632976 kJ/mol
# Density = 2.403359 g / cm^3
# Si number density = 24.088420 Si / 1000 Ang^3
#
#
#
# Elastic Constant Matrix: (Units=GPa)
#
#
# Indices 1 2 3 4 5 6 
#
# 1 152.2860 21.0577 51.7083 0.0000 3.1698 0.0000
# 2 21.0577 69.3161 42.9913 0.0000 1.0602 0.0000
# 3 51.7083 42.9913 149.2204 0.0000 5.1924 0.0000
# 4 0.0000 0.0000 0.0000 24.1821 0.0000 3.4974
# 5 3.1698 1.0602 5.1924 0.0000 40.8861 0.0000
# 6 0.0000 0.0000 0.0000 3.4974 0.0000 35.6690
#
#
#
# Elastic Compliance Matrix: (Units=1/GPa)
#
#
# Indices 1 2 3 4 5 6 
#
# 1 0.007482 -0.000812 -0.002350 0.000000 -0.000261 0.000000
# 2 -0.000812 0.017655 -0.004813 0.000000 0.000216 0.000000
# 3 -0.002350 -0.004813 0.008931 0.000000 -0.000827 0.000000
# 4 0.000000 0.000000 0.000000 0.041948 0.000000 -0.004113
# 5 -0.000261 0.000216 -0.000827 0.000000 0.024578 0.000000
# 6 0.000000 0.000000 0.000000 -0.004113 0.000000 0.028439
#
#
# Mechanical properties :
#
#
# Convention : Reuss Voigt Hill
#
# Bulk Modulus (GPa) = 55.18844 66.92635 61.05739
# Shear Modulus (GPa) = 33.10800 37.15178 35.12989
#
# Velocity S-wave (km/s) = 3.71136 3.93148 3.82301
# Velocity P-wave (km/s) = 6.42854 6.96080 6.69996
#
# Compressibility (1/GPa) = 0.01811974
#
# Stress axis : x y z
#
# Youngs Moduli (GPa) = 133.65194 56.64152 111.96772
#
# Poissons Ratio (x) = 0.04597 0.26311
# Poissons Ratio (y) = 0.10847 0.53888
# Poissons Ratio (z) = 0.31406 0.27260
#
# Static dielectric constant tensor:
#      x y z
#    x 4.590650 0.000000 0.056500 
#    y 0.000000 4.329550 0.000000 
#    z 0.056500 0.000000 4.586040 
# 
# 
# High freq. dielectric constant tensor:
#      x y z
#    x 1.973710 0.000000 0.002430 
#    y 0.000000 1.934770 0.000000 
#    z 0.002430 0.000000 1.959870 
# 
# From -- ./inp_files/63582.got.cif
#   From: 2010.06.25/outbox.cif.g09.slc.cpg/sg13_32_cif.got.tgz:63582.got - 2010.06.28 04:50:58.
