data_PCOD8122028
_publ_section_title
;
Structure prediction by ZEFSAII (Michael W. Deem and Ramdas Pophale) SiO2 
 PCOD8122028
Probable space group: P 2/C
;
_chemical_formula_sum "Si O2"
_cell_formula_units_Z 18
_cell_length_a 8.466729
_cell_length_b 10.773532
_cell_length_c 12.775977
_cell_angle_alpha 90.000000
_cell_angle_beta 133.827654
_cell_angle_gamma 90.000000
_cell_volume 840.736155
_symmetry_space_group_name_H-M "P 2/C"
_symmetry_group_IT_number 13
_symmetry_cell_setting 'monoclinic'
loop_
_space_group_symop_operation_xyz
x,y,z
-x,y,1/2-z
-x,-y,-z
x,-y,1/2+z
loop_
_atom_site_type_symbol
_atom_site_label
_atom_site_fract_x
_atom_site_fract_y
_atom_site_fract_z
Si Si1 0.152255 0.234975 0.539902
Si Si2 0.330186 0.838425 0.915525
Si Si3 0.702085 0.336954 0.279544
Si Si4 0.217732 0.900558 0.286972
Si Si5 0.500000 0.425554 0.750000
O O1 0.168824 0.151719 0.442161
O O2 0.194730 0.145461 0.657472
O O3 0.340346 0.338378 0.609909
O O4 0.921355 0.304706 0.444495
O O5 0.279782 0.713223 0.829506
O O6 0.275116 0.953503 0.814020
O O7 0.582451 0.831075 0.065344
O O8 0.500000 0.273248 0.250000
O O9 0.655697 0.485555 0.249849
O O10 0.000000 0.866915 0.250000
#
# Coordination Sequence:
#
# PCOD8122028 Si02
#       5
#     4   4   4   4   2
#     4  12  22  47  67  95 137 171 218 270 326 388
#     4  11  24  43  66 101 129 172 215 271 329 393
#     4  10  24  41  67  96 132 169 222 265 325 381
#     4  11  24  41  68  97 132 171 214 268 334 390
#     4  10  24  44  66  96 128 182 216 276 308 388
#
# _framework density 21.40981
#
# number of rings (size 3 to 8) (size 9 to 14) (size 15 to 20)
#    0.667    0.444    2.222    4.000    0.000    8.000 
#    0.000    0.000    0.000    0.000    0.000    0.000 
#    0.000    0.000    0.000    0.000    0.000    0.000 
#
# Total GULP energy -223164.603140 kJ/mol
# GULP energy per Si atom -12398.033508 kJ/mol
# Density = 2.136108 g / cm^3
# Si number density = 21.409810 Si / 1000 Ang^3
#
#
#
# Elastic Constant Matrix: (Units=GPa)
#
#
# Indices 1 2 3 4 5 6 
#
# 1 116.7380 39.9203 60.0425 0.0000 7.0418 0.0000
# 2 39.9203 98.4068 51.2318 0.0000 -14.0061 0.0000
# 3 60.0425 51.2318 117.3876 0.0000 -0.1193 0.0000
# 4 0.0000 0.0000 0.0000 28.2337 0.0000 4.4353
# 5 7.0418 -14.0061 -0.1193 0.0000 54.0440 0.0000
# 6 0.0000 0.0000 0.0000 4.4353 0.0000 33.8136
#
#
#
# Elastic Compliance Matrix: (Units=1/GPa)
#
#
# Indices 1 2 3 4 5 6 
#
# 1 0.012232 -0.002625 -0.005113 0.000000 -0.002285 0.000000
# 2 -0.002625 0.014367 -0.004923 0.000000 0.004055 0.000000
# 3 -0.005113 -0.004923 0.013282 0.000000 -0.000580 0.000000
# 4 0.000000 0.000000 0.000000 0.036164 0.000000 -0.004744
# 5 -0.002285 0.004055 -0.000580 0.000000 0.019851 0.000000
# 6 0.000000 0.000000 0.000000 -0.004744 0.000000 0.030196
#
#
# Mechanical properties :
#
#
# Convention : Reuss Voigt Hill
#
# Bulk Modulus (GPa) = 68.69223 70.54684 69.61953
# Shear Modulus (GPa) = 31.99649 35.30745 33.65197
#
# Velocity S-wave (km/s) = 3.87004 4.06535 3.96890
# Velocity P-wave (km/s) = 7.21968 7.42013 7.32059
#
# Compressibility (1/GPa) = 0.01455769
#
# Stress axis : x y z
#
# Youngs Moduli (GPa) = 81.75579 69.60314 75.28967
#
# Poissons Ratio (x) = 0.18274 0.38494
# Poissons Ratio (y) = 0.21464 0.37067
# Poissons Ratio (z) = 0.41800 0.34268
#
# Static dielectric constant tensor:
#      x y z
#    x 3.853740 0.000000 0.312970 
#    y 0.000000 3.729630 0.000000 
#    z 0.312970 0.000000 3.897050 
# 
# 
# High freq. dielectric constant tensor:
#      x y z
#    x 1.841000 0.000000 0.022630 
#    y 0.000000 1.829720 0.000000 
#    z 0.022630 0.000000 1.851170 
# 
# From -- ./inp_files/29180.got.cif
#   From: 2010.06.25/outbox.cif.g09.slc.cpg/sg13_15_cif.got.tgz:29180.got - 2010.06.28 04:50:58.
