data_PCOD8122969
_publ_section_title
;
Structure prediction by ZEFSAII (Michael W. Deem and Ramdas Pophale) SiO2 
 PCOD8122969
Probable space group: P 2/C
;
_chemical_formula_sum "Si O2"
_cell_formula_units_Z 22
_cell_length_a 13.830331
_cell_length_b 5.501780
_cell_length_c 21.743463
_cell_angle_alpha 90.000000
_cell_angle_beta 32.312485
_cell_angle_gamma 90.000000
_cell_volume 884.386068
_symmetry_space_group_name_H-M "P 2/C"
_symmetry_group_IT_number 13
_symmetry_cell_setting 'monoclinic'
loop_
_space_group_symop_operation_xyz
x,y,z
-x,y,1/2-z
-x,-y,-z
x,-y,1/2+z
loop_
_atom_site_type_symbol
_atom_site_label
_atom_site_fract_x
_atom_site_fract_y
_atom_site_fract_z
Si Si1 0.855007 0.696035 0.594665
Si Si2 0.215101 0.599673 0.639609
Si Si3 0.500000 0.452059 0.750000
Si Si4 0.616260 0.787365 0.064282
Si Si5 0.729305 0.883499 0.320795
Si Si6 0.952113 0.977394 0.425664
O O1 0.648475 0.606267 0.707644
O O2 0.866920 0.894091 0.535124
O O3 0.000000 0.500000 0.500000
O O4 0.912975 0.795770 0.630477
O O5 0.315292 0.581253 0.519637
O O6 0.304848 0.362896 0.622792
O O7 0.000000 0.571684 0.750000
O O8 0.259273 0.864947 0.646682
O O9 0.399004 0.299101 0.856793
O O10 0.433221 0.916276 0.140632
O O11 0.784108 0.973345 0.971728
O O12 0.913044 0.808244 0.185488
#
# Coordination Sequence:
#
# PCOD8122969 Si02
#       6
#     4   4   2   4   4   4
#     4  11  25  48  71 111 158 206 260 320 393 466
#     4  12  28  54  81 117 157 213 258 330 393 469
#     4  12  28  44  84 112 154 216 250 334 390 478
#     4  12  28  50  77 117 157 205 269 321 399 471
#     4  12  29  51  84 114 159 208 267 325 396 468
#     4  11  27  47  76 112 159 205 262 330 392 474
#
# _framework density 24.876014000000001
#
# number of rings (size 3 to 8) (size 9 to 14) (size 15 to 20)
#    0.000    0.364    3.636    2.727   12.727    0.000 
#    0.000    0.000    0.000    0.000    0.000    0.000 
#    0.000    0.000    0.000    0.000    0.000    0.000 
#
# Total GULP energy -272626.531429 kJ/mol
# GULP energy per Si atom -12392.115065 kJ/mol
# Density = 2.481939 g / cm^3
# Si number density = 24.876014 Si / 1000 Ang^3
#
#
#
# Elastic Constant Matrix: (Units=GPa)
#
#
# Indices 1 2 3 4 5 6 
#
# 1 134.2393 39.6393 46.1931 0.0000 -26.4738 0.0000
# 2 39.6393 102.0271 10.6115 0.0000 -9.9979 0.0000
# 3 46.1931 10.6115 138.7216 0.0000 -10.0949 0.0000
# 4 0.0000 0.0000 0.0000 33.8900 0.0000 0.1938
# 5 -26.4738 -9.9979 -10.0949 0.0000 65.7149 0.0000
# 6 0.0000 0.0000 0.0000 0.1938 0.0000 17.3068
#
#
#
# Elastic Compliance Matrix: (Units=1/GPa)
#
#
# Indices 1 2 3 4 5 6 
#
# 1 0.010015 -0.003290 -0.002858 0.000000 0.003095 0.000000
# 2 -0.003290 0.011091 0.000277 0.000000 0.000404 0.000000
# 3 -0.002858 0.000277 0.008150 0.000000 0.000143 0.000000
# 4 0.000000 0.000000 0.000000 0.029509 0.000000 -0.000330
# 5 0.003095 0.000404 0.000143 0.000000 0.016547 0.000000
# 6 0.000000 0.000000 0.000000 -0.000330 0.000000 0.057784
#
#
# Mechanical properties :
#
#
# Convention : Reuss Voigt Hill
#
# Bulk Modulus (GPa) = 57.10470 63.09730 60.10100
# Shear Modulus (GPa) = 33.18373 41.95196 37.56784
#
# Velocity S-wave (km/s) = 3.65631 4.11109 3.89035
# Velocity P-wave (km/s) = 6.38986 6.92492 6.66276
#
# Compressibility (1/GPa) = 0.01751169
#
# Stress axis : x y z
#
# Youngs Moduli (GPa) = 99.85222 90.16703 122.70598
#
# Poissons Ratio (x) = 0.29669 0.35068
# Poissons Ratio (y) = 0.32855 -0.03396
# Poissons Ratio (z) = 0.28537 -0.02495
#
# Static dielectric constant tensor:
#      x y z
#    x 2.164100 0.000000 -2.668860 
#    y 0.000000 4.404290 0.000000 
#    z -2.668860 0.000000 2.072780 
# 
# 
# High freq. dielectric constant tensor:
#      x y z
#    x 2.009480 0.000000 -0.008390 
#    y 0.000000 1.972830 0.000000 
#    z -0.008390 0.000000 2.014490 
# 
# From -- ./inp_files/86966.got.cif
#   From: 2010.06.25/outbox.cif.g09.slc.cpg/sg13_44_cif.got.tgz:86966.got - 2010.06.28 04:50:58.
