data_PCOD8122281
_publ_section_title
;
Structure prediction by ZEFSAII (Michael W. Deem and Ramdas Pophale) SiO2 
 PCOD8122281
Probable space group: P 2/C
;
_chemical_formula_sum "Si O2"
_cell_formula_units_Z 28
_cell_length_a 14.755470
_cell_length_b 9.026861
_cell_length_c 13.829544
_cell_angle_alpha 90.000000
_cell_angle_beta 131.596470
_cell_angle_gamma 90.000000
_cell_volume 1377.544919
_symmetry_space_group_name_H-M "P 2/C"
_symmetry_group_IT_number 13
_symmetry_cell_setting 'monoclinic'
loop_
_space_group_symop_operation_xyz
x,y,z
-x,y,1/2-z
-x,-y,-z
x,-y,1/2+z
loop_
_atom_site_type_symbol
_atom_site_label
_atom_site_fract_x
_atom_site_fract_y
_atom_site_fract_z
Si Si1 0.042622 0.516392 0.388151
Si Si2 0.370232 0.854978 0.619436
Si Si3 0.604862 0.885618 0.084165
Si Si4 0.677108 0.520327 0.882768
Si Si5 0.804404 0.991216 0.367816
Si Si6 0.006245 0.246853 0.020509
Si Si7 0.477734 0.411830 0.887274
O O1 0.185409 0.487641 0.493913
O O2 0.978088 0.369627 0.384585
O O3 0.000000 0.542722 0.250000
O O4 0.004777 0.665410 0.417889
O O5 0.500000 0.912351 0.750000
O O6 0.355305 0.836392 0.494265
O O7 0.348499 0.693229 0.645898
O O8 0.271609 0.970954 0.589711
O O9 0.719645 0.957859 0.216985
O O10 0.543891 0.757909 0.103915
O O11 0.500000 0.000000 0.000000
O O12 0.593840 0.435514 0.901297
O O13 0.645534 0.462567 0.753210
O O14 0.882975 0.845702 0.445982
O O15 0.882859 0.133786 0.393904
O O16 0.500000 0.500000 0.000000
#
# Coordination Sequence:
#
# PCOD8122281 Si02
#       7
#     4   4   4   4   4   4   4
#     4  11  25  44  69  97 132 177 240 284 338 395
#     4  12  22  44  66  99 138 178 217 279 346 405
#     4  12  26  40  68 103 135 179 218 274 345 410
#     4  11  23  41  70  99 135 175 228 287 328 403
#     4  11  25  45  69  96 143 176 226 281 343 415
#     4  10  25  46  68  97 130 185 228 285 338 400
#     4  11  23  41  69 100 135 176 225 271 342 405
#
# _framework density 20.326017
#
# number of rings (size 3 to 8) (size 9 to 14) (size 15 to 20)
#    0.000    0.857    5.714    0.857    2.000    8.000 
#    0.000    2.857    0.000    0.000    0.000    0.000 
#    0.000    0.000    0.000    0.000    0.000    0.000 
#
# Total GULP energy -347265.961687 kJ/mol
# GULP energy per Si atom -12402.355775 kJ/mol
# Density = 2.027975 g / cm^3
# Si number density = 20.326017 Si / 1000 Ang^3
#
#
#
# Elastic Constant Matrix: (Units=GPa)
#
#
# Indices 1 2 3 4 5 6 
#
# 1 104.7437 53.6803 52.5159 0.0000 -1.1692 0.0000
# 2 53.6803 148.1856 57.6530 0.0000 -1.5119 0.0000
# 3 52.5159 57.6530 121.8449 0.0000 -10.4263 0.0000
# 4 0.0000 0.0000 0.0000 32.1973 0.0000 0.1230
# 5 -1.1692 -1.5119 -10.4263 0.0000 40.9718 0.0000
# 6 0.0000 0.0000 0.0000 0.1230 0.0000 44.6869
#
#
#
# Elastic Compliance Matrix: (Units=1/GPa)
#
#
# Indices 1 2 3 4 5 6 
#
# 1 0.013320 -0.003153 -0.004321 0.000000 -0.000836 0.000000
# 2 -0.003153 0.009037 -0.002961 0.000000 -0.000510 0.000000
# 3 -0.004321 -0.002961 0.011705 0.000000 0.002746 0.000000
# 4 0.000000 0.000000 0.000000 0.031059 0.000000 -0.000085
# 5 -0.000836 -0.000510 0.002746 0.000000 0.025063 0.000000
# 6 0.000000 0.000000 0.000000 -0.000085 0.000000 0.022378
#
#
# Mechanical properties :
#
#
# Convention : Reuss Voigt Hill
#
# Bulk Modulus (GPa) = 75.79301 78.05252 76.92277
# Shear Modulus (GPa) = 36.27689 37.63286 36.95488
#
# Velocity S-wave (km/s) = 4.22922 4.30753 4.26855
# Velocity P-wave (km/s) = 7.82419 7.95132 7.88801
#
# Compressibility (1/GPa) = 0.01319383
#
# Stress axis : x y z
#
# Youngs Moduli (GPa) = 75.07635 110.65507 85.43066
#
# Poissons Ratio (x) = 0.34885 0.36912
# Poissons Ratio (y) = 0.23669 0.25295
# Poissons Ratio (z) = 0.32438 0.32764
#
# Static dielectric constant tensor:
#      x y z
#    x 3.753230 0.000000 0.208180 
#    y 0.000000 3.959840 0.000000 
#    z 0.208180 0.000000 3.574020 
# 
# 
# High freq. dielectric constant tensor:
#      x y z
#    x 1.800880 0.000000 0.002790 
#    y 0.000000 1.810160 0.000000 
#    z 0.002790 0.000000 1.799080 
# 
# From -- ./inp_files/53126.got.cif
#   From: 2010.06.25/outbox.cif.g09.slc.cpg/sg13_27_cif.got.tgz:53126.got - 2010.06.28 04:50:58.
