data_PCOD8122457
_publ_section_title
;
Structure prediction by ZEFSAII (Michael W. Deem and Ramdas Pophale) SiO2 
 PCOD8122457
Probable space group: P 2/C
;
_chemical_formula_sum "Si O2"
_cell_formula_units_Z 20
_cell_length_a 4.838893
_cell_length_b 11.136128
_cell_length_c 17.684917
_cell_angle_alpha 90.000000
_cell_angle_beta 74.437327
_cell_angle_gamma 90.000000
_cell_volume 918.040311
_symmetry_space_group_name_H-M "P 2/C"
_symmetry_group_IT_number 13
_symmetry_cell_setting 'monoclinic'
loop_
_space_group_symop_operation_xyz
x,y,z
-x,y,1/2-z
-x,-y,-z
x,-y,1/2+z
loop_
_atom_site_type_symbol
_atom_site_label
_atom_site_fract_x
_atom_site_fract_y
_atom_site_fract_z
Si Si1 0.626342 0.571043 0.127061
Si Si2 0.353432 0.723883 0.514373
Si Si3 0.210816 0.811230 0.301270
Si Si4 0.110529 0.582892 0.662980
Si Si5 0.913023 0.876414 0.468357
O O1 0.689187 0.688164 0.169628
O O2 0.319756 0.522325 0.176696
O O3 0.868750 0.469558 0.123803
O O4 0.576039 0.607451 0.042498
O O5 0.302531 0.681411 0.604207
O O6 0.052141 0.769604 0.505134
O O7 0.578582 0.835847 0.491721
O O8 0.500000 0.878613 0.250000
O O9 0.038500 0.890270 0.374597
O O10 0.000000 0.779935 0.250000
O O11 0.000000 0.641386 0.750000
O O12 0.000000 0.000000 0.500000
#
# Coordination Sequence:
#
# PCOD8122457 Si02
#       5
#     4   4   4   4   4
#     4  11  21  36  59  87 123 159 194 237 293 356
#     4  11  23  40  61  86 118 158 201 244 291 356
#     4  11  21  37  61  92 117 144 193 252 297 339
#     4  12  23  36  57  89 127 163 194 231 286 359
#     4  11  24  43  64  84 114 156 201 250 303 350
#
# _framework density 21.785537000000001
#
# number of rings (size 3 to 8) (size 9 to 14) (size 15 to 20)
#    0.000    0.800    0.000   11.400    0.000    0.000 
#    0.000    3.000    0.000    0.000    0.000    0.000 
#    0.000    0.000    0.000    0.000    0.000    0.000 
#
# Total GULP energy -247907.243624 kJ/mol
# GULP energy per Si atom -12395.362181 kJ/mol
# Density = 2.173595 g / cm^3
# Si number density = 21.785537 Si / 1000 Ang^3
#
#
#
# Elastic Constant Matrix: (Units=GPa)
#
#
# Indices 1 2 3 4 5 6 
#
# 1 106.3861 11.7536 39.4449 0.0000 -2.5579 0.0000
# 2 11.7536 49.3395 48.4128 0.0000 -0.3426 0.0000
# 3 39.4449 48.4128 179.7794 0.0000 -10.4269 0.0000
# 4 0.0000 0.0000 0.0000 -1.6594 0.0000 -3.0934
# 5 -2.5579 -0.3426 -10.4269 0.0000 34.1188 0.0000
# 6 0.0000 0.0000 0.0000 -3.0934 0.0000 21.6002
#
#
#
# Elastic Compliance Matrix: (Units=1/GPa)
#
#
# Indices 1 2 3 4 5 6 
#
# 1 0.010236 -0.000326 -0.002152 0.000000 0.000107 0.000000
# 2 -0.000326 0.027695 -0.007505 0.000000 -0.002040 0.000000
# 3 -0.002152 -0.007505 0.008187 0.000000 0.002265 0.000000
# 4 0.000000 0.000000 0.000000 -0.475654 0.000000 -0.068118
# 5 0.000107 -0.002040 0.002265 0.000000 0.029989 0.000000
# 6 0.000000 0.000000 0.000000 -0.068118 0.000000 0.036541
#
#
# Mechanical properties :
#
#
# Convention : Reuss Voigt Hill
#
# Bulk Modulus (GPa) = 38.23741 59.41417 48.82579
# Shear Modulus (GPa) = -14.95562 26.53818 5.79128
#
# Velocity S-wave (km/s) = -2.62294 3.49400 1.63220
# Velocity P-wave (km/s) = 2.90116 6.60370 5.10027
#
# Compressibility (1/GPa) = 0.02615240
#
# Stress axis : x y z
#
# Youngs Moduli (GPa) = 97.69271 36.10749 122.14739
#
# Poissons Ratio (x) = 0.01178 0.26284
# Poissons Ratio (y) = 0.03187 0.91668
# Poissons Ratio (z) = 0.21022 0.27098
#
# Static dielectric constant tensor:
#      x y z
#    x 4.240040 0.000000 -0.183270 
#    y 0.000000 3.468260 0.000000 
#    z -0.183270 0.000000 4.560560 
# 
# 
# High freq. dielectric constant tensor:
#      x y z
#    x 1.879790 0.000000 0.000210 
#    y 0.000000 1.809520 0.000000 
#    z 0.000210 0.000000 1.869100 
# 
# From -- ./inp_files/60833.got.cif
#   From: 2010.06.25/outbox.cif.g09.slc.cpg/sg13_31_cif.got.tgz:60833.got - 2010.06.28 04:50:58.
