data_PCOD8122065
_publ_section_title
;
Structure prediction by ZEFSAII (Michael W. Deem and Ramdas Pophale) SiO2 
 PCOD8122065
Probable space group: P 2/C
;
_chemical_formula_sum "Si O2"
_cell_formula_units_Z 20
_cell_length_a 18.313378
_cell_length_b 5.069363
_cell_length_c 8.827861
_cell_angle_alpha 90.000000
_cell_angle_beta 94.552392
_cell_angle_gamma 90.000000
_cell_volume 816.968002
_symmetry_space_group_name_H-M "P 2/C"
_symmetry_group_IT_number 13
_symmetry_cell_setting 'monoclinic'
loop_
_space_group_symop_operation_xyz
x,y,z
-x,y,1/2-z
-x,-y,-z
x,-y,1/2+z
loop_
_atom_site_type_symbol
_atom_site_label
_atom_site_fract_x
_atom_site_fract_y
_atom_site_fract_z
Si Si1 0.790928 0.812633 0.215368
Si Si2 0.857993 0.506513 0.989025
Si Si3 0.372923 0.157343 0.808731
Si Si4 0.080235 0.177291 0.264345
Si Si5 0.422173 0.354480 0.487898
O O1 0.789131 0.596366 0.081826
O O2 0.820194 0.712123 0.379902
O O3 0.710938 0.941256 0.224560
O O4 0.853170 0.005244 0.161262
O O5 0.922980 0.410517 0.111980
O O6 0.897704 0.731245 0.899157
O O7 0.404785 0.256081 0.654058
O O8 0.369473 0.410961 0.920306
O O9 0.419392 0.906708 0.879309
O O10 0.000000 0.039219 0.250000
O O11 0.500000 0.500000 0.500000
#
# Coordination Sequence:
#
# PCOD8122065 Si02
#       5
#     4   4   4   4   4
#     4  11  25  42  70 101 141 190 246 298 373 442
#     4  10  24  42  66  97 143 182 253 298 374 428
#     4  12  28  48  83 113 162 200 257 319 384 460
#     4  11  24  42  67  99 144 191 246 306 369 437
#     4  12  28  52  81 118 154 204 253 316 389 466
#
# _framework density 24.480761999999999
#
# number of rings (size 3 to 8) (size 9 to 14) (size 15 to 20)
#    0.000    0.800    0.000    5.400   11.200    8.000 
#    0.000    0.000    0.000    0.000    0.000    0.000 
#    0.000    0.000    0.000    0.000    0.000    0.000 
#
# Total GULP energy -247808.916848 kJ/mol
# GULP energy per Si atom -12390.445842 kJ/mol
# Density = 2.442504 g / cm^3
# Si number density = 24.480762 Si / 1000 Ang^3
#
#
#
# Elastic Constant Matrix: (Units=GPa)
#
#
# Indices 1 2 3 4 5 6 
#
# 1 185.0383 49.3128 58.3443 0.0000 -4.7288 0.0000
# 2 49.3128 123.0427 51.8804 0.0000 0.1184 0.0000
# 3 58.3443 51.8804 153.9996 0.0000 -4.3569 0.0000
# 4 0.0000 0.0000 0.0000 -53.2353 0.0000 16.7367
# 5 -4.7288 0.1184 -4.3569 0.0000 14.0586 0.0000
# 6 0.0000 0.0000 0.0000 16.7367 0.0000 37.9783
#
#
#
# Elastic Compliance Matrix: (Units=1/GPa)
#
#
# Indices 1 2 3 4 5 6 
#
# 1 0.006506 -0.001852 -0.001794 0.000000 0.001648 0.000000
# 2 -0.001852 0.010017 -0.002716 0.000000 -0.001549 0.000000
# 3 -0.001794 -0.002716 0.008143 0.000000 0.001943 0.000000
# 4 0.000000 0.000000 0.000000 -0.016499 0.000000 0.007271
# 5 0.001648 -0.001549 0.001943 0.000000 0.072301 0.000000
# 6 0.000000 0.000000 0.000000 0.007271 0.000000 0.023127
#
#
# Mechanical properties :
#
#
# Convention : Reuss Voigt Hill
#
# Bulk Modulus (GPa) = 83.75458 86.79509 85.27483
# Shear Modulus (GPa) = 41.56269 19.92985 30.74627
#
# Velocity S-wave (km/s) = 4.12487 2.85634 3.54776
# Velocity P-wave (km/s) = 7.54803 6.81246 7.18966
#
# Compressibility (1/GPa) = 0.01193965
#
# Stress axis : x y z
#
# Youngs Moduli (GPa) = 153.70949 99.83462 122.79982
#
# Poissons Ratio (x) = 0.18494 0.22031
# Poissons Ratio (y) = 0.28475 0.33358
# Poissons Ratio (z) = 0.27577 0.27120
#
# Static dielectric constant tensor:
#      x y z
#    x 4.422390 0.000000 0.061160 
#    y 0.000000 4.622590 0.000000 
#    z 0.061160 0.000000 4.611770 
# 
# 
# High freq. dielectric constant tensor:
#      x y z
#    x 1.968470 0.000000 0.002120 
#    y 0.000000 1.970700 0.000000 
#    z 0.002120 0.000000 2.000380 
# 
# From -- ./inp_files/20516.got.cif
#   From: 2010.06.25/outbox.cif.g09.slc.cpg/sg13_11_cif.got.tgz:20516.got - 2010.06.28 04:50:58.
