data_PCOD8122904
_publ_section_title
;
Structure prediction by ZEFSAII (Michael W. Deem and Ramdas Pophale) SiO2 
 PCOD8122904
Probable space group: P 2/C
;
_chemical_formula_sum "Si O2"
_cell_formula_units_Z 18
_cell_length_a 7.992479
_cell_length_b 8.938708
_cell_length_c 19.045241
_cell_angle_alpha 90.000000
_cell_angle_beta 144.836340
_cell_angle_gamma 90.000000
_cell_volume 783.610606
_symmetry_space_group_name_H-M "P 2/C"
_symmetry_group_IT_number 13
_symmetry_cell_setting 'monoclinic'
loop_
_space_group_symop_operation_xyz
x,y,z
-x,y,1/2-z
-x,-y,-z
x,-y,1/2+z
loop_
_atom_site_type_symbol
_atom_site_label
_atom_site_fract_x
_atom_site_fract_y
_atom_site_fract_z
Si Si1 0.278837 0.900696 0.963850
Si Si2 0.000000 0.713453 0.750000
Si Si3 0.520670 0.278262 0.662229
Si Si4 0.023361 0.178868 0.581411
Si Si5 0.530633 0.617133 0.842588
O O1 0.076719 0.819809 0.840025
O O2 0.086000 0.009118 0.946613
O O3 0.478091 0.772511 0.067958
O O4 0.500000 0.000000 0.000000
O O5 0.748155 0.616111 0.700384
O O6 0.389557 0.442591 0.631726
O O7 0.851816 0.253299 0.802892
O O8 0.299284 0.166369 0.625661
O O9 0.774516 0.283605 0.463274
O O10 0.500000 0.670860 0.750000
#
# Coordination Sequence:
#
# PCOD8122904 Si02
#       5
#     4   2   4   4   4
#     4  12  25  48  70 106 150 191 246 307 370 438
#     4  12  28  46  76 112 148 200 250 304 376 442
#     4  11  26  45  77 106 143 196 248 303 373 435
#     4  11  24  47  75 105 145 192 248 303 365 447
#     4  12  26  49  76 108 151 194 249 305 370 443
#
# _framework density 22.970592
#
# number of rings (size 3 to 8) (size 9 to 14) (size 15 to 20)
#    0.000    0.444    4.444    4.000    3.111    2.667 
#    0.000    0.000    0.000    0.000    0.000    0.000 
#    0.000    0.000    0.000    0.000    0.000    0.000 
#
# Total GULP energy -223012.236003 kJ/mol
# GULP energy per Si atom -12389.568667 kJ/mol
# Density = 2.291831 g / cm^3
# Si number density = 22.970592 Si / 1000 Ang^3
#
#
#
# Elastic Constant Matrix: (Units=GPa)
#
#
# Indices 1 2 3 4 5 6 
#
# 1 110.0587 23.2171 39.3655 0.0000 5.2780 0.0000
# 2 23.2171 93.8196 54.7342 0.0000 -23.4796 0.0000
# 3 39.3655 54.7342 172.1626 0.0000 -32.3458 0.0000
# 4 0.0000 0.0000 0.0000 19.7271 0.0000 -5.6302
# 5 5.2780 -23.4796 -32.3458 0.0000 43.4554 0.0000
# 6 0.0000 0.0000 0.0000 -5.6302 0.0000 40.1491
#
#
#
# Elastic Compliance Matrix: (Units=1/GPa)
#
#
# Indices 1 2 3 4 5 6 
#
# 1 0.010689 -0.002261 -0.002556 0.000000 -0.004423 0.000000
# 2 -0.002261 0.014414 -0.002965 0.000000 0.005855 0.000000
# 3 -0.002556 -0.002965 0.008246 0.000000 0.004846 0.000000
# 4 0.000000 0.000000 0.000000 0.052805 0.000000 0.007405
# 5 -0.004423 0.005855 0.004846 0.000000 0.030320 0.000000
# 6 0.000000 0.000000 0.000000 0.007405 0.000000 0.025946
#
#
# Mechanical properties :
#
#
# Convention : Reuss Voigt Hill
#
# Bulk Modulus (GPa) = 56.22937 67.85272 62.04105
# Shear Modulus (GPa) = 30.50399 37.91460 34.20929
#
# Velocity S-wave (km/s) = 3.64807 4.06713 3.86329
# Velocity P-wave (km/s) = 6.50204 7.18738 6.85328
#
# Compressibility (1/GPa) = 0.01778430
#
# Stress axis : x y z
#
# Youngs Moduli (GPa) = 93.55059 69.37929 121.26703
#
# Poissons Ratio (x) = 0.15685 0.31000
# Poissons Ratio (y) = 0.21149 0.35960
# Poissons Ratio (z) = 0.23915 0.20574
#
# Static dielectric constant tensor:
#      x y z
#    x 4.101970 0.000000 -0.359790 
#    y 0.000000 4.691860 0.000000 
#    z -0.359790 0.000000 4.569780 
# 
# 
# High freq. dielectric constant tensor:
#      x y z
#    x 1.911300 0.000000 -0.009380 
#    y 0.000000 1.910070 0.000000 
#    z -0.009380 0.000000 1.924740 
# 
# From -- ./inp_files/75897.got.cif
#   From: 2010.06.25/outbox.cif.g09.slc.cpg/sg13_38_cif.got.tgz:75897.got - 2010.06.28 04:50:58.
