data_PCOD8122439
_publ_section_title
;
Structure prediction by ZEFSAII (Michael W. Deem and Ramdas Pophale) SiO2 
 PCOD8122439
Probable space group: P 2/C
;
_chemical_formula_sum "Si O2"
_cell_formula_units_Z 30
_cell_length_a 14.796510
_cell_length_b 13.681490
_cell_length_c 14.468216
_cell_angle_alpha 90.000000
_cell_angle_beta 28.962627
_cell_angle_gamma 90.000000
_cell_volume 1418.297880
_symmetry_space_group_name_H-M "P 2/C"
_symmetry_group_IT_number 13
_symmetry_cell_setting 'monoclinic'
loop_
_space_group_symop_operation_xyz
x,y,z
-x,y,1/2-z
-x,-y,-z
x,-y,1/2+z
loop_
_atom_site_type_symbol
_atom_site_label
_atom_site_fract_x
_atom_site_fract_y
_atom_site_fract_z
Si Si1 0.880417 0.465160 0.724863
Si Si2 0.296641 0.778147 0.435496
Si Si3 0.570796 0.667946 0.584052
Si Si4 0.849550 0.840231 0.303073
Si Si5 0.000000 0.374780 0.250000
Si Si6 0.180405 0.629438 0.849336
Si Si7 0.830666 0.060608 0.331662
Si Si8 0.976728 0.811882 0.980232
O O1 0.991319 0.553230 0.671717
O O2 0.796483 0.518583 0.709474
O O3 0.032216 0.379991 0.567484
O O4 0.711967 0.420165 0.934580
O O5 0.500000 0.731417 0.250000
O O6 0.322796 0.870909 0.481882
O O7 0.214687 0.806234 0.407584
O O8 0.178529 0.694000 0.589012
O O9 0.500000 0.653780 0.750000
O O10 0.674073 0.770212 0.475275
O O11 0.385703 0.667809 0.688261
O O12 0.942695 0.827230 0.119389
O O13 0.000000 0.823153 0.250000
O O14 0.763482 0.949282 0.384141
O O15 0.088551 0.710259 0.863767
O O16 0.000000 0.072207 0.250000
O O17 0.893780 0.100266 0.174364
#
# Coordination Sequence:
#
# PCOD8122439 Si02
#       8
#     4   4   4   4   2   4   4   4
#     4  11  24  42  66  94 133 173 223 272 338 390
#     4  11  23  42  70 101 133 167 219 282 341 403
#     4  12  26  42  64  95 133 181 226 268 327 401
#     4  11  24  42  67  97 136 183 226 275 334 399
#     4  12  22  42  66  94 132 172 212 274 334 390
#     4  11  23  43  67  94 134 170 222 280 328 401
#     4   9  20  42  68  98 133 171 222 279 338 403
#     4  11  20  44  69  97 133 178 220 279 342 392
#
# _framework density 21.152115999999999
#
# number of rings (size 3 to 8) (size 9 to 14) (size 15 to 20)
#    0.000    1.067    4.667    2.400    0.933    4.267 
#    0.000    4.000    0.000    0.000    0.000    0.000 
#    0.000    0.000    0.000    0.000    0.000    0.000 
#
# Total GULP energy -371844.081881 kJ/mol
# GULP energy per Si atom -12394.802729 kJ/mol
# Density = 2.110397 g / cm^3
# Si number density = 21.152116 Si / 1000 Ang^3
#
#
#
# Elastic Constant Matrix: (Units=GPa)
#
#
# Indices 1 2 3 4 5 6 
#
# 1 98.8537 45.9590 54.8264 0.0000 6.9660 0.0000
# 2 45.9590 140.4379 67.1160 0.0000 -7.0142 0.0000
# 3 54.8264 67.1160 138.8152 0.0000 -1.7154 0.0000
# 4 0.0000 0.0000 0.0000 44.0560 0.0000 -3.5567
# 5 6.9660 -7.0142 -1.7154 0.0000 42.0533 0.0000
# 6 0.0000 0.0000 0.0000 -3.5567 0.0000 35.5443
#
#
#
# Elastic Compliance Matrix: (Units=1/GPa)
#
#
# Indices 1 2 3 4 5 6 
#
# 1 0.013917 -0.002674 -0.004240 0.000000 -0.002924 0.000000
# 2 -0.002674 0.009853 -0.003684 0.000000 0.001936 0.000000
# 3 -0.004240 -0.003684 0.010666 0.000000 0.000523 0.000000
# 4 0.000000 0.000000 0.000000 0.022883 0.000000 0.002290
# 5 -0.002924 0.001936 0.000523 0.000000 0.024608 0.000000
# 6 0.000000 0.000000 0.000000 0.002290 0.000000 0.028363
#
#
# Mechanical properties :
#
#
# Convention : Reuss Voigt Hill
#
# Bulk Modulus (GPa) = 75.52714 79.32330 77.42522
# Shear Modulus (GPa) = 36.79221 38.34441 37.56831
#
# Velocity S-wave (km/s) = 4.17515 4.26231 4.21895
# Velocity P-wave (km/s) = 7.68288 7.86167 7.77279
#
# Compressibility (1/GPa) = 0.01324027
#
# Stress axis : x y z
#
# Youngs Moduli (GPa) = 71.85576 101.49334 93.75734
#
# Poissons Ratio (x) = 0.27141 0.39751
# Poissons Ratio (y) = 0.19216 0.34537
# Poissons Ratio (z) = 0.30465 0.37387
#
# Static dielectric constant tensor:
#      x y z
#    x 3.943150 0.000000 0.225100 
#    y 0.000000 4.234550 0.000000 
#    z 0.225100 0.000000 3.868130 
# 
# 
# High freq. dielectric constant tensor:
#      x y z
#    x 1.826960 0.000000 0.014570 
#    y 0.000000 1.844430 0.000000 
#    z 0.014570 0.000000 1.821820 
# 
# From -- ./inp_files/53856.got.cif
#   From: 2010.06.25/outbox.cif.g09.slc.cpg/sg13_27_cif.got.tgz:53856.got - 2010.06.28 04:50:58.
