data_PCOD8122678
_publ_section_title
;
Structure prediction by ZEFSAII (Michael W. Deem and Ramdas Pophale) SiO2 
 PCOD8122678
Probable space group: P 2/C
;
_chemical_formula_sum "Si O2"
_cell_formula_units_Z 22
_cell_length_a 21.367193
_cell_length_b 6.407978
_cell_length_c 10.356018
_cell_angle_alpha 90.000000
_cell_angle_beta 41.864977
_cell_angle_gamma 90.000000
_cell_volume 946.308661
_symmetry_space_group_name_H-M "P 2/C"
_symmetry_group_IT_number 13
_symmetry_cell_setting 'monoclinic'
loop_
_space_group_symop_operation_xyz
x,y,z
-x,y,1/2-z
-x,-y,-z
x,-y,1/2+z
loop_
_atom_site_type_symbol
_atom_site_label
_atom_site_fract_x
_atom_site_fract_y
_atom_site_fract_z
Si Si1 0.891515 0.650513 0.394684
Si Si2 0.191846 0.377293 0.752986
Si Si3 0.629722 0.365766 0.514238
Si Si4 0.500000 0.301196 0.250000
Si Si5 0.585673 0.959470 0.274325
Si Si6 0.254244 0.976893 0.797982
O O1 0.856842 0.462058 0.540511
O O2 0.877408 0.610647 0.263456
O O3 0.839555 0.863722 0.512726
O O4 0.000000 0.689952 0.250000
O O5 0.277207 0.521142 0.576474
O O6 0.226219 0.140914 0.729959
O O7 0.561310 0.546630 0.560534
O O8 0.663564 0.187554 0.365451
O O9 0.569982 0.253943 0.719842
O O10 0.581409 0.163399 0.189925
O O11 0.690285 0.918631 0.168966
O O12 0.500000 0.000000 0.500000
#
# Coordination Sequence:
#
# PCOD8122678 Si02
#       6
#     4   4   4   2   4   4
#     4  11  25  44  71 105 138 179 230 286 353 421
#     4  11  24  45  71  99 138 182 229 287 348 416
#     4  11  23  40  61  91 127 172 224 277 340 406
#     4  12  24  38  58  86 126 166 216 276 336 400
#     4  12  24  40  62  92 129 175 228 282 338 401
#     4  11  24  42  67  96 133 178 227 283 341 407
#
# _framework density 23.248228999999998
#
# number of rings (size 3 to 8) (size 9 to 14) (size 15 to 20)
#    0.000    0.727    0.000    8.727    0.000    8.727 
#    0.000    0.000    0.000    0.000    0.000    0.000 
#    0.000    0.000    0.000    0.000    0.000    0.000 
#
# Total GULP energy -272548.769038 kJ/mol
# GULP energy per Si atom -12388.580411 kJ/mol
# Density = 2.319532 g / cm^3
# Si number density = 23.248229 Si / 1000 Ang^3
#
#
#
# Elastic Constant Matrix: (Units=GPa)
#
#
# Indices 1 2 3 4 5 6 
#
# 1 156.7056 50.8571 33.8519 0.0000 -3.4512 0.0000
# 2 50.8571 106.5556 40.1798 0.0000 -1.7924 0.0000
# 3 33.8519 40.1798 96.9909 0.0000 -7.9703 0.0000
# 4 0.0000 0.0000 0.0000 22.7540 0.0000 -5.6722
# 5 -3.4512 -1.7924 -7.9703 0.0000 39.8625 0.0000
# 6 0.0000 0.0000 0.0000 -5.6722 0.0000 20.6851
#
#
#
# Elastic Compliance Matrix: (Units=1/GPa)
#
#
# Indices 1 2 3 4 5 6 
#
# 1 0.007707 -0.003161 -0.001359 0.000000 0.000253 0.000000
# 2 -0.003161 0.012426 -0.004088 0.000000 -0.000532 0.000000
# 3 -0.001359 -0.004088 0.012661 0.000000 0.002230 0.000000
# 4 0.000000 0.000000 0.000000 0.047173 0.000000 0.012936
# 5 0.000253 -0.000532 0.002230 0.000000 0.025530 0.000000
# 6 0.000000 0.000000 0.000000 0.012936 0.000000 0.051891
#
#
# Mechanical properties :
#
#
# Convention : Reuss Voigt Hill
#
# Bulk Modulus (GPa) = 64.19833 67.78108 65.98970
# Shear Modulus (GPa) = 27.80894 32.35121 30.08007
#
# Velocity S-wave (km/s) = 3.46233 3.73440 3.60094
# Velocity P-wave (km/s) = 6.60741 6.91470 6.76280
#
# Compressibility (1/GPa) = 0.01557673
#
# Stress axis : x y z
#
# Youngs Moduli (GPa) = 129.75873 80.47497 78.97972
#
# Poissons Ratio (x) = 0.25441 0.10736
# Poissons Ratio (y) = 0.41022 0.32288
# Poissons Ratio (z) = 0.17638 0.32899
#
# Static dielectric constant tensor:
#      x y z
#    x 4.273250 0.000000 0.084750 
#    y 0.000000 4.742230 0.000000 
#    z 0.084750 0.000000 4.169150 
# 
# 
# High freq. dielectric constant tensor:
#      x y z
#    x 1.914700 0.000000 -0.010650 
#    y 0.000000 1.936780 0.000000 
#    z -0.010650 0.000000 1.914550 
# 
# From -- ./inp_files/35528.got.cif
#   From: 2010.06.25/outbox.cif.g09.slc.cpg/sg13_18_cif.got.tgz:35528.got - 2010.06.28 04:50:58.
