data_PCOD8122959
_publ_section_title
;
Structure prediction by ZEFSAII (Michael W. Deem and Ramdas Pophale) SiO2 
 PCOD8122959
Probable space group: P 2/C
;
_chemical_formula_sum "Si O2"
_cell_formula_units_Z 30
_cell_length_a 21.217693
_cell_length_b 5.531189
_cell_length_c 18.126814
_cell_angle_alpha 90.000000
_cell_angle_beta 36.080772
_cell_angle_gamma 90.000000
_cell_volume 1252.847624
_symmetry_space_group_name_H-M "P 2/C"
_symmetry_group_IT_number 13
_symmetry_cell_setting 'monoclinic'
loop_
_space_group_symop_operation_xyz
x,y,z
-x,y,1/2-z
-x,-y,-z
x,-y,1/2+z
loop_
_atom_site_type_symbol
_atom_site_label
_atom_site_fract_x
_atom_site_fract_y
_atom_site_fract_z
Si Si1 0.802322 0.689296 0.672552
Si Si2 0.919900 0.977420 0.449547
Si Si3 0.000000 0.665956 0.250000
Si Si4 0.592457 0.942604 0.855455
Si Si5 0.117941 0.320515 0.249575
Si Si6 0.334359 0.256160 0.972018
Si Si7 0.714767 0.299462 0.646418
Si Si8 0.450960 0.264387 0.374956
O O1 0.902867 0.831345 0.541768
O O2 0.845832 0.561191 0.705830
O O3 0.758935 0.528684 0.647409
O O4 0.701607 0.856346 0.792516
O O5 0.919064 0.819155 0.375981
O O6 0.817254 0.137905 0.534457
O O7 0.031441 0.116647 0.349911
O O8 0.929021 0.517377 0.260253
O O9 0.621094 0.182912 0.783407
O O10 0.548806 0.740024 0.840397
O O11 0.500000 0.000000 0.000000
O O12 0.217560 0.199314 0.114560
O O13 0.335303 0.344077 0.886177
O O14 0.380722 0.501537 0.967002
O O15 0.395854 0.002582 0.927467
O O16 0.500000 0.320483 0.250000
#
# Coordination Sequence:
#
# PCOD8122959 Si02
#       8
#     4   4   2   4   4   4   4   4
#     4  11  26  47  74 103 148 195 246 314 378 468
#     4  11  25  47  74 105 148 192 244 312 387 453
#     4  12  26  44  76 102 146 188 242 312 370 460
#     4  11  26  46  74 105 148 194 250 315 379 450
#     4  12  27  46  73 112 144 195 250 311 384 457
#     4  12  27  45  76 112 153 197 262 313 382 456
#     4  11  25  47  72 108 144 201 248 309 384 455
#     4  12  26  47  74 110 147 208 254 319 380 453
#
# _framework density 23.945447999999999
#
# number of rings (size 3 to 8) (size 9 to 14) (size 15 to 20)
#    0.000    0.533    1.333    6.000    9.333    4.800 
#    0.000    0.000    0.000    0.000    0.000    0.000 
#    0.000    0.000    0.000    0.000    0.000    0.000 
#
# Total GULP energy -371854.139865 kJ/mol
# GULP energy per Si atom -12395.137995 kJ/mol
# Density = 2.389095 g / cm^3
# Si number density = 23.945448 Si / 1000 Ang^3
#
#
#
# Elastic Constant Matrix: (Units=GPa)
#
#
# Indices 1 2 3 4 5 6 
#
# 1 120.2177 26.0324 32.1517 0.0000 8.1979 0.0000
# 2 26.0324 110.0054 47.8034 0.0000 -7.4868 0.0000
# 3 32.1517 47.8034 181.2215 0.0000 -2.1771 0.0000
# 4 0.0000 0.0000 0.0000 40.5184 0.0000 -4.3350
# 5 8.1979 -7.4868 -2.1771 0.0000 24.3593 0.0000
# 6 0.0000 0.0000 0.0000 -4.3350 0.0000 28.9348
#
#
#
# Elastic Compliance Matrix: (Units=1/GPa)
#
#
# Indices 1 2 3 4 5 6 
#
# 1 0.009320 -0.001952 -0.001185 0.000000 -0.003842 0.000000
# 2 -0.001952 0.010888 -0.002480 0.000000 0.003782 0.000000
# 3 -0.001185 -0.002480 0.006385 0.000000 0.000207 0.000000
# 4 0.000000 0.000000 0.000000 0.025082 0.000000 0.003758
# 5 -0.003842 0.003782 0.000207 0.000000 0.043526 0.000000
# 6 0.000000 0.000000 0.000000 0.003758 0.000000 0.035123
#
#
# Mechanical properties :
#
#
# Convention : Reuss Voigt Hill
#
# Bulk Modulus (GPa) = 65.11145 69.26882 67.19014
# Shear Modulus (GPa) = 34.08835 39.12631 36.60733
#
# Velocity S-wave (km/s) = 3.77713 4.04663 3.91420
# Velocity P-wave (km/s) = 6.80242 7.12911 6.96768
#
# Compressibility (1/GPa) = 0.01535828
#
# Stress axis : x y z
#
# Youngs Moduli (GPa) = 107.29796 91.84769 156.61661
#
# Poissons Ratio (x) = 0.17930 0.18554
# Poissons Ratio (y) = 0.20947 0.38844
# Poissons Ratio (z) = 0.12712 0.22780
#
# Static dielectric constant tensor:
#      x y z
#    x 4.439060 0.000000 -0.237920 
#    y 0.000000 4.470200 0.000000 
#    z -0.237920 0.000000 4.713040 
# 
# 
# High freq. dielectric constant tensor:
#      x y z
#    x 1.959780 0.000000 -0.001720 
#    y 0.000000 1.942890 0.000000 
#    z -0.001720 0.000000 1.974090 
# 
# From -- ./inp_files/81946.got.cif
#   From: 2010.06.25/outbox.cif.g09.slc.cpg/sg13_41_cif.got.tgz:81946.got - 2010.06.28 04:50:58.
