data_PCOD8122906
_publ_section_title
;
Structure prediction by ZEFSAII (Michael W. Deem and Ramdas Pophale) SiO2 
 PCOD8122906
Probable space group: P 2/C
;
_chemical_formula_sum "Si O2"
_cell_formula_units_Z 20
_cell_length_a 20.538883
_cell_length_b 6.384424
_cell_length_c 14.900269
_cell_angle_alpha 90.000000
_cell_angle_beta 152.497418
_cell_angle_gamma 90.000000
_cell_volume 902.268603
_symmetry_space_group_name_H-M "P 2/C"
_symmetry_group_IT_number 13
_symmetry_cell_setting 'monoclinic'
loop_
_space_group_symop_operation_xyz
x,y,z
-x,y,1/2-z
-x,-y,-z
x,-y,1/2+z
loop_
_atom_site_type_symbol
_atom_site_label
_atom_site_fract_x
_atom_site_fract_y
_atom_site_fract_z
Si Si1 0.505623 0.505549 0.614358
Si Si2 0.200882 0.566885 0.778838
Si Si3 0.500000 0.127713 0.250000
Si Si4 0.267811 0.799925 0.025462
Si Si5 0.000000 0.001696 0.250000
Si Si6 0.020805 0.195870 0.588766
O O1 0.500000 0.500000 0.500000
O O2 0.365243 0.384566 0.469896
O O3 0.498107 0.730712 0.656210
O O4 0.638162 0.373528 0.810252
O O5 0.112972 0.652038 0.587193
O O6 0.165286 0.320136 0.742901
O O7 0.165281 0.694391 0.825672
O O8 0.361480 0.983345 0.094124
O O9 0.147801 0.876133 0.949008
O O10 0.030890 0.856983 0.203947
O O11 0.000000 0.000000 0.500000
#
# Coordination Sequence:
#
# PCOD8122906 Si02
#       6
#     4   4   2   4   2   4
#     4  12  28  43  74 107 142 195 245 305 362 439
#     4  11  24  48  70 100 149 183 244 302 365 425
#     4  12  24  50  72 100 148 196 236 300 372 424
#     4  12  26  48  73 107 145 192 244 303 368 433
#     4  12  28  44  76 106 146 188 252 296 366 446
#     4  11  26  45  71 104 140 193 231 302 363 431
#
# _framework density 22.166346999999998
#
# number of rings (size 3 to 8) (size 9 to 14) (size 15 to 20)
#    0.000    0.400    6.000    1.200    5.600    1.600 
#    0.000    0.000    0.000    0.000    0.000    0.000 
#    0.000    0.000    0.000    0.000    0.000    0.000 
#
# Total GULP energy -247826.727641 kJ/mol
# GULP energy per Si atom -12391.336382 kJ/mol
# Density = 2.211590 g / cm^3
# Si number density = 22.166347 Si / 1000 Ang^3
#
#
#
# Elastic Constant Matrix: (Units=GPa)
#
#
# Indices 1 2 3 4 5 6 
#
# 1 95.5549 53.1858 44.0336 0.0000 -4.7103 0.0000
# 2 53.1858 124.4892 48.1180 0.0000 -0.5434 0.0000
# 3 44.0336 48.1180 124.3096 0.0000 9.8118 0.0000
# 4 0.0000 0.0000 0.0000 49.6075 0.0000 -0.1540
# 5 -4.7103 -0.5434 9.8118 0.0000 56.9100 0.0000
# 6 0.0000 0.0000 0.0000 -0.1540 0.0000 12.1366
#
#
#
# Elastic Compliance Matrix: (Units=1/GPa)
#
#
# Indices 1 2 3 4 5 6 
#
# 1 0.014967 -0.005036 -0.003494 0.000000 0.001793 0.000000
# 2 -0.005036 0.011171 -0.002550 0.000000 0.000130 0.000000
# 3 -0.003494 -0.002550 0.010436 0.000000 -0.002113 0.000000
# 4 0.000000 0.000000 0.000000 0.020159 0.000000 0.000256
# 5 0.001793 0.000130 -0.002113 0.000000 0.018086 0.000000
# 6 0.000000 0.000000 0.000000 0.000256 0.000000 0.082398
#
#
# Mechanical properties :
#
#
# Convention : Reuss Voigt Hill
#
# Bulk Modulus (GPa) = 69.38108 70.55872 69.96990
# Shear Modulus (GPa) = 27.14728 36.99859 32.07293
#
# Velocity S-wave (km/s) = 3.50338 4.08994 3.80797
# Velocity P-wave (km/s) = 6.90891 7.36234 7.13922
#
# Compressibility (1/GPa) = 0.01441315
#
# Stress axis : x y z
#
# Youngs Moduli (GPa) = 66.81566 89.52014 95.82261
#
# Poissons Ratio (x) = 0.45082 0.33478
# Poissons Ratio (y) = 0.33648 0.24438
# Poissons Ratio (z) = 0.23344 0.22831
#
# Static dielectric constant tensor:
#      x y z
#    x 0.000000 0.000000 0.000000 
#    y 0.000000 0.000000 0.000000 
#    z 0.000000 0.000000 0.000000 
# 
# 
# High freq. dielectric constant tensor:
#      x y z
#    x 1.863490 0.000000 0.003630 
#    y 0.000000 1.880720 0.000000 
#    z 0.003630 0.000000 1.896170 
# 
# From -- ./inp_files/56410.got.cif
#   From: 2010.06.25/outbox.cif.g09.slc.cpg/sg13_29_cif.got.tgz:56410.got - 2010.06.28 04:50:58.
