data_PCOD8122772
_publ_section_title
;
Structure prediction by ZEFSAII (Michael W. Deem and Ramdas Pophale) SiO2 
 PCOD8122772
Probable space group: P 2/C
;
_chemical_formula_sum "Si O2"
_cell_formula_units_Z 24
_cell_length_a 8.927709
_cell_length_b 11.189222
_cell_length_c 11.369108
_cell_angle_alpha 90.000000
_cell_angle_beta 80.511409
_cell_angle_gamma 90.000000
_cell_volume 1120.168780
_symmetry_space_group_name_H-M "P 2/C"
_symmetry_group_IT_number 13
_symmetry_cell_setting 'monoclinic'
loop_
_space_group_symop_operation_xyz
x,y,z
-x,y,1/2-z
-x,-y,-z
x,-y,1/2+z
loop_
_atom_site_type_symbol
_atom_site_label
_atom_site_fract_x
_atom_site_fract_y
_atom_site_fract_z
Si Si1 0.360806 0.067137 0.853925
Si Si2 0.335200 0.574472 0.311244
Si Si3 0.171105 0.338493 0.269111
Si Si4 0.699008 0.808362 0.549751
Si Si5 0.826243 0.207114 0.783290
Si Si6 0.614046 0.277275 0.471963
O O1 0.500000 0.099260 0.750000
O O2 0.206959 0.097130 0.801385
O O3 0.367832 0.930820 0.890932
O O4 0.368092 0.148458 0.969107
O O5 0.500000 0.529664 0.250000
O O6 0.217217 0.468158 0.310719
O O7 0.283506 0.683625 0.235894
O O8 0.343769 0.614816 0.445894
O O9 0.180808 0.246809 0.375644
O O10 0.275878 0.288330 0.152368
O O11 0.000000 0.346216 0.250000
O O12 0.789823 0.834854 0.419236
O O13 0.560135 0.714912 0.550112
O O14 0.000000 0.246732 0.750000
#
# Coordination Sequence:
#
# PCOD8122772 Si02
#       6
#     4   4   4   4   4   4
#     4  11  23  44  73 101 134 180 230 285 330 401
#     4  11  23  47  75  97 132 180 231 285 331 409
#     4  12  30  43  65 105 141 178 225 285 348 397
#     4  12  25  44  73  98 137 182 232 280 329 407
#     4  11  25  43  68 105 138 180 227 275 351 401
#     4  11  23  46  71 100 134 176 234 278 336 405
#
# _framework density 21.425342000000001
#
# number of rings (size 3 to 8) (size 9 to 14) (size 15 to 20)
#    0.000    0.667    3.333    4.500    9.333    3.333 
#    0.000    0.000    0.000    0.000    0.000    0.000 
#    0.000    0.000    0.000    0.000    0.000    0.000 
#
# Total GULP energy -297757.099034 kJ/mol
# GULP energy per Si atom -12406.545793 kJ/mol
# Density = 2.137658 g / cm^3
# Si number density = 21.425342 Si / 1000 Ang^3
#
#
#
# Elastic Constant Matrix: (Units=GPa)
#
#
# Indices 1 2 3 4 5 6 
#
# 1 150.5918 36.6336 36.4438 0.0000 9.1981 0.0000
# 2 36.6336 100.4177 36.8790 0.0000 15.1136 0.0000
# 3 36.4438 36.8790 98.3265 0.0000 13.1064 0.0000
# 4 0.0000 0.0000 0.0000 16.2189 0.0000 -4.0910
# 5 9.1981 15.1136 13.1064 0.0000 36.1924 0.0000
# 6 0.0000 0.0000 0.0000 -4.0910 0.0000 15.2339
#
#
#
# Elastic Compliance Matrix: (Units=1/GPa)
#
#
# Indices 1 2 3 4 5 6 
#
# 1 0.007639 -0.001982 -0.002038 0.000000 -0.000376 0.000000
# 2 -0.001982 0.012481 -0.003487 0.000000 -0.003445 0.000000
# 3 -0.002038 -0.003487 0.012577 0.000000 -0.002581 0.000000
# 4 0.000000 0.000000 0.000000 0.066136 0.000000 0.017761
# 5 -0.000376 -0.003445 -0.002581 0.000000 0.030099 0.000000
# 6 0.000000 0.000000 0.000000 0.017761 0.000000 0.070412
#
#
# Mechanical properties :
#
#
# Convention : Reuss Voigt Hill
#
# Bulk Modulus (GPa) = 56.55146 63.24985 59.90066
# Shear Modulus (GPa) = 22.70125 29.48771 26.09448
#
# Velocity S-wave (km/s) = 3.25861 3.71388 3.49367
# Velocity P-wave (km/s) = 6.37260 6.92645 6.65528
#
# Compressibility (1/GPa) = 0.01768301
#
# Stress axis : x y z
#
# Youngs Moduli (GPa) = 130.91297 80.12419 79.50740
#
# Poissons Ratio (x) = 0.15878 0.16202
# Poissons Ratio (y) = 0.25943 0.27727
# Poissons Ratio (z) = 0.26678 0.27942
#
# Static dielectric constant tensor:
#      x y z
#    x 3.982970 0.000000 0.277850 
#    y 0.000000 3.746180 0.000000 
#    z 0.277850 0.000000 3.983690 
# 
# 
# High freq. dielectric constant tensor:
#      x y z
#    x 1.844260 0.000000 0.016690 
#    y 0.000000 1.839900 0.000000 
#    z 0.016690 0.000000 1.853140 
# 
# From -- ./inp_files/29331.got.cif
#   From: 2010.06.25/outbox.cif.g09.slc.cpg/sg13_15_cif.got.tgz:29331.got - 2010.06.28 04:50:58.
