data_PCOD8122871
_publ_section_title
;
Structure prediction by ZEFSAII (Michael W. Deem and Ramdas Pophale) SiO2 
 PCOD8122871
Probable space group: P 2/C
;
_chemical_formula_sum "Si O2"
_cell_formula_units_Z 30
_cell_length_a 16.216359
_cell_length_b 6.355392
_cell_length_c 14.301568
_cell_angle_alpha 90.000000
_cell_angle_beta 64.350851
_cell_angle_gamma 90.000000
_cell_volume 1328.698835
_symmetry_space_group_name_H-M "P 2/C"
_symmetry_group_IT_number 13
_symmetry_cell_setting 'monoclinic'
loop_
_space_group_symop_operation_xyz
x,y,z
-x,y,1/2-z
-x,-y,-z
x,-y,1/2+z
loop_
_atom_site_type_symbol
_atom_site_label
_atom_site_fract_x
_atom_site_fract_y
_atom_site_fract_z
Si Si1 0.268680 0.226297 0.362371
Si Si2 0.323413 0.089118 0.680355
Si Si3 0.000000 0.994631 0.750000
Si Si4 0.674128 0.915683 0.008475
Si Si5 0.106926 0.507396 0.929510
Si Si6 0.146842 0.670117 0.216898
Si Si7 0.860578 0.290081 0.412514
Si Si8 0.602473 0.376021 0.700532
O O1 0.160903 0.278449 0.432123
O O2 0.324994 0.440704 0.319786
O O3 0.275409 0.089541 0.265684
O O4 0.308542 0.114222 0.433738
O O5 0.249314 0.244486 0.670646
O O6 0.391949 0.215257 0.714511
O O7 0.376191 0.988131 0.563695
O O8 0.924094 0.138943 0.739013
O O9 0.951689 0.844580 0.849347
O O10 0.618789 0.740029 0.092971
O O11 0.770557 0.827728 0.921618
O O12 0.129118 0.484094 0.811043
O O13 0.149042 0.316503 0.970583
O O14 0.000000 0.500000 0.000000
O O15 0.131096 0.526366 0.133382
O O16 0.500000 0.469105 0.750000
#
# Coordination Sequence:
#
# PCOD8122871 Si02
#       8
#     4   4   2   4   4   4   4   4
#     4  11  24  45  65 103 140 176 227 294 346 407
#     4  11  24  44  74 100 134 182 231 284 349 414
#     4  12  26  38  64  98 142 190 226 282 336 390
#     4  11  24  44  74 100 134 182 231 284 349 414
#     4  12  24  38  65  93 137 185 229 275 337 405
#     4  12  25  44  64 100 139 180 233 285 334 402
#     4  12  25  44  64 100 139 180 233 285 334 402
#     4  11  26  48  72 102 139 176 224 293 359 417
#
# _framework density 22.578479000000002
#
# number of rings (size 3 to 8) (size 9 to 14) (size 15 to 20)
#    0.000    0.533    4.000    4.400    3.733    3.200 
#    0.000    1.333    0.000    0.000    0.000    0.000 
#    0.000    0.000    0.000    0.000    0.000    0.000 
#
# Total GULP energy -371964.653958 kJ/mol
# GULP energy per Si atom -12398.821799 kJ/mol
# Density = 2.252709 g / cm^3
# Si number density = 22.578479 Si / 1000 Ang^3
#
#
#
# Elastic Constant Matrix: (Units=GPa)
#
#
# Indices 1 2 3 4 5 6 
#
# 1 71.0622 18.3579 21.1305 0.0000 -10.7834 0.0000
# 2 18.3579 90.7882 25.6110 0.0000 -0.5003 0.0000
# 3 21.1305 25.6110 95.3006 0.0000 15.6516 0.0000
# 4 0.0000 0.0000 0.0000 24.9897 0.0000 0.3335
# 5 -10.7834 -0.5003 15.6516 0.0000 38.1774 0.0000
# 6 0.0000 0.0000 0.0000 0.3335 0.0000 21.4741
#
#
#
# Elastic Compliance Matrix: (Units=1/GPa)
#
#
# Indices 1 2 3 4 5 6 
#
# 1 0.016871 -0.002187 -0.004215 0.000000 0.006465 0.000000
# 2 -0.002187 0.012291 -0.002941 0.000000 0.000749 0.000000
# 3 -0.004215 -0.002941 0.013317 0.000000 -0.006688 0.000000
# 4 0.000000 0.000000 0.000000 0.040025 0.000000 -0.000622
# 5 0.006465 0.000749 -0.006688 0.000000 0.030771 0.000000
# 6 0.000000 0.000000 0.000000 -0.000622 0.000000 0.046577
#
#
# Mechanical properties :
#
#
# Convention : Reuss Voigt Hill
#
# Bulk Modulus (GPa) = 42.02937 43.03886 42.53412
# Shear Modulus (GPa) = 26.81414 29.73168 28.27291
#
# Velocity S-wave (km/s) = 3.44989 3.63273 3.54249
# Velocity P-wave (km/s) = 5.87573 6.05796 5.96754
#
# Compressibility (1/GPa) = 0.02379289
#
# Stress axis : x y z
#
# Youngs Moduli (GPa) = 59.27183 81.36260 75.09471
#
# Poissons Ratio (x) = 0.17793 0.31651
# Poissons Ratio (y) = 0.12962 0.22086
# Poissons Ratio (z) = 0.24982 0.23930
#
# Static dielectric constant tensor:
#      x y z
#    x 3.906680 0.000000 -0.085770 
#    y 0.000000 4.167750 0.000000 
#    z -0.085770 0.000000 1.276480 
# 
# 
# High freq. dielectric constant tensor:
#      x y z
#    x 1.876760 0.000000 0.013470 
#    y 0.000000 1.895130 0.000000 
#    z 0.013470 0.000000 1.898410 
# 
# From -- ./inp_files/54612.got.cif
#   From: 2010.06.25/outbox.cif.g09.slc.cpg/sg13_28_cif.got.tgz:54612.got - 2010.06.28 04:50:58.
