data_PCOD8122947
_publ_section_title
;
Structure prediction by ZEFSAII (Michael W. Deem and Ramdas Pophale) SiO2 
 PCOD8122947
Probable space group: P 2/C
;
_chemical_formula_sum "Si O2"
_cell_formula_units_Z 12
_cell_length_a 4.746658
_cell_length_b 6.432258
_cell_length_c 19.005892
_cell_angle_alpha 90.000000
_cell_angle_beta 54.800976
_cell_angle_gamma 90.000000
_cell_volume 474.180780
_symmetry_space_group_name_H-M "P 2/C"
_symmetry_group_IT_number 13
_symmetry_cell_setting 'monoclinic'
loop_
_space_group_symop_operation_xyz
x,y,z
-x,y,1/2-z
-x,-y,-z
x,-y,1/2+z
loop_
_atom_site_type_symbol
_atom_site_label
_atom_site_fract_x
_atom_site_fract_y
_atom_site_fract_z
Si Si1 0.948098 0.374075 0.435748
Si Si2 0.609763 0.005809 0.155202
Si Si3 0.733848 0.782455 0.416084
O O1 0.849813 0.540076 0.388171
O O2 0.623063 0.213927 0.488119
O O3 0.000000 0.500000 0.500000
O O4 0.300375 0.250556 0.367036
O O5 0.500000 0.957648 0.250000
O O6 0.305773 0.916715 0.149787
O O7 0.956966 0.882851 0.083759
#
# Coordination Sequence:
#
# PCOD8122947 Si02
#       3
#     4   4   4
#     4  11  25  45  78 104 138 190 247 291 347 434
#     4  12  27  46  68 105 150 185 233 302 366 420
#     4  11  25  46  73 102 138 190 240 291 353 431
#
# _framework density 25.306802999999999
#
# number of rings (size 3 to 8) (size 9 to 14) (size 15 to 20)
#    0.000    0.667    3.333    3.000    9.333    1.333 
#    6.000    0.000    0.000    0.000    0.000    0.000 
#    0.000    0.000    0.000    0.000    0.000    0.000 
#
# Total GULP energy -148744.997690 kJ/mol
# GULP energy per Si atom -12395.416474 kJ/mol
# Density = 2.524920 g / cm^3
# Si number density = 25.306803 Si / 1000 Ang^3
#
#
#
# Elastic Constant Matrix: (Units=GPa)
#
#
# Indices 1 2 3 4 5 6 
#
# 1 98.1109 31.6765 11.4753 0.0000 -0.5758 0.0000
# 2 31.6765 106.8726 40.5595 0.0000 0.9200 0.0000
# 3 11.4753 40.5595 46.8868 0.0000 7.9803 0.0000
# 4 0.0000 0.0000 0.0000 21.6176 0.0000 6.2077
# 5 -0.5758 0.9200 7.9803 0.0000 29.1231 0.0000
# 6 0.0000 0.0000 0.0000 6.2077 0.0000 60.1644
#
#
#
# Elastic Compliance Matrix: (Units=1/GPa)
#
#
# Indices 1 2 3 4 5 6 
#
# 1 0.011275 -0.003391 0.000124 0.000000 0.000296 0.000000
# 2 -0.003391 0.015205 -0.012828 0.000000 0.002968 0.000000
# 3 0.000124 -0.012828 0.033907 0.000000 -0.008883 0.000000
# 4 0.000000 0.000000 0.000000 0.047671 0.000000 -0.004919
# 5 0.000296 0.002968 -0.008883 0.000000 0.036683 0.000000
# 6 0.000000 0.000000 0.000000 -0.004919 0.000000 0.017129
#
#
# Mechanical properties :
#
#
# Convention : Reuss Voigt Hill
#
# Bulk Modulus (GPa) = 35.46721 46.58808 41.02764
# Shear Modulus (GPa) = 24.57492 33.39163 28.98328
#
# Velocity S-wave (km/s) = 3.11960 3.63640 3.38786
# Velocity P-wave (km/s) = 5.19819 6.00670 5.61701
#
# Compressibility (1/GPa) = 0.02819505
#
# Stress axis : x y z
#
# Youngs Moduli (GPa) = 88.69384 65.76762 29.49260
#
# Poissons Ratio (x) = 0.22304 -0.00365
# Poissons Ratio (y) = 0.30079 0.37834
# Poissons Ratio (z) = -0.01098 0.84369
#
# Static dielectric constant tensor:
#      x y z
#    x 4.920390 0.000000 -0.192920 
#    y 0.000000 5.021490 0.000000 
#    z -0.192920 0.000000 3.893850 
# 
# 
# High freq. dielectric constant tensor:
#      x y z
#    x 2.029900 0.000000 -0.007990 
#    y 0.000000 2.033030 0.000000 
#    z -0.007990 0.000000 1.954420 
# 
# From -- ./inp_files/42917.got.cif
#   From: 2010.06.25/outbox.cif.g09.slc.cpg/sg13_22_cif.got.tgz:42917.got - 2010.06.28 04:50:58.
