data_PCOD8122377
_publ_section_title
;
Structure prediction by ZEFSAII (Michael W. Deem and Ramdas Pophale) SiO2 
 PCOD8122377
Probable space group: P 2/C
;
_chemical_formula_sum "Si O2"
_cell_formula_units_Z 20
_cell_length_a 8.049310
_cell_length_b 10.947176
_cell_length_c 10.099461
_cell_angle_alpha 90.000000
_cell_angle_beta 71.490162
_cell_angle_gamma 90.000000
_cell_volume 843.899202
_symmetry_space_group_name_H-M "P 2/C"
_symmetry_group_IT_number 13
_symmetry_cell_setting 'monoclinic'
loop_
_space_group_symop_operation_xyz
x,y,z
-x,y,1/2-z
-x,-y,-z
x,-y,1/2+z
loop_
_atom_site_type_symbol
_atom_site_label
_atom_site_fract_x
_atom_site_fract_y
_atom_site_fract_z
Si Si1 0.351613 0.363867 0.949862
Si Si2 0.153810 0.406697 0.490979
Si Si3 0.379076 0.016458 0.658665
Si Si4 0.740671 0.726503 0.294942
Si Si5 0.692062 0.751357 0.763056
O O1 0.332800 0.511276 0.946428
O O2 0.224821 0.304109 0.867930
O O3 0.548561 0.322779 0.880094
O O4 0.280618 0.321222 0.108805
O O5 0.124295 0.341678 0.640785
O O6 0.167864 0.302221 0.375771
O O7 0.000000 0.500000 0.500000
O O8 0.500000 0.055640 0.750000
O O9 0.245458 0.129329 0.674802
O O10 0.500000 0.000000 0.500000
O O11 0.270084 0.894228 0.718446
O O12 0.500000 0.737904 0.750000
#
# Coordination Sequence:
#
# PCOD8122377 Si02
#       5
#     4   4   4   4   4
#     4  11  22  38  64  95 136 171 225 282 344 404
#     4  12  27  43  62  94 143 185 226 275 343 415
#     4  11  18  36  64 103 133 164 225 293 341 400
#     4  11  21  39  66 100 129 174 222 290 348 397
#     4  11  22  38  68 103 132 176 231 284 342 407
#
# _framework density 23.699513
#
# number of rings (size 3 to 8) (size 9 to 14) (size 15 to 20)
#    0.000    0.800    6.000    3.000    2.800    3.200 
#    0.000    0.000    0.000    7.200    0.000    0.000 
#    0.000    0.000    0.000    0.000    0.000    0.000 
#
# Total GULP energy -248017.832684 kJ/mol
# GULP energy per Si atom -12400.891634 kJ/mol
# Density = 2.364557 g / cm^3
# Si number density = 23.699513 Si / 1000 Ang^3
#
#
#
# Elastic Constant Matrix: (Units=GPa)
#
#
# Indices 1 2 3 4 5 6 
#
# 1 46.2315 23.7262 29.1475 0.0000 19.2203 0.0000
# 2 23.7262 201.8618 64.8195 0.0000 7.8324 0.0000
# 3 29.1475 64.8195 185.7472 0.0000 31.1547 0.0000
# 4 0.0000 0.0000 0.0000 45.9232 0.0000 4.2804
# 5 19.2203 7.8324 31.1547 0.0000 31.3812 0.0000
# 6 0.0000 0.0000 0.0000 4.2804 0.0000 26.5183
#
#
#
# Elastic Compliance Matrix: (Units=1/GPa)
#
#
# Indices 1 2 3 4 5 6 
#
# 1 0.030760 -0.002617 -0.001036 0.000000 -0.017158 0.000000
# 2 -0.002617 0.005813 -0.001972 0.000000 0.002109 0.000000
# 3 -0.001036 -0.001972 0.007253 0.000000 -0.006074 0.000000
# 4 0.000000 0.000000 0.000000 0.022108 0.000000 -0.003569
# 5 -0.017158 0.002109 -0.006074 0.000000 0.047879 0.000000
# 6 0.000000 0.000000 0.000000 -0.003569 0.000000 0.038286
#
#
# Mechanical properties :
#
#
# Convention : Reuss Voigt Hill
#
# Bulk Modulus (GPa) = 30.69670 74.35854 52.52762
# Shear Modulus (GPa) = 28.70163 41.84103 35.27133
#
# Velocity S-wave (km/s) = 3.48381 4.20632 3.86200
# Velocity P-wave (km/s) = 5.40029 7.41852 6.48836
#
# Compressibility (1/GPa) = 0.03257679
#
# Stress axis : x y z
#
# Youngs Moduli (GPa) = 32.51006 172.03608 137.87390
#
# Poissons Ratio (x) = 0.45023 0.14279
# Poissons Ratio (y) = 0.08508 0.27183
# Poissons Ratio (z) = 0.03367 0.33918
#
# Static dielectric constant tensor:
#      x y z
#    x 3.965400 0.000000 0.437510 
#    y 0.000000 4.737540 0.000000 
#    z 0.437510 0.000000 4.614320 
# 
# 
# High freq. dielectric constant tensor:
#      x y z
#    x 1.901550 0.000000 0.022410 
#    y 0.000000 1.954900 0.000000 
#    z 0.022410 0.000000 1.959450 
# 
# From -- ./inp_files/11674.got.cif
#   From: 2010.06.25/outbox.cif.g09.slc.cpg/sg13_6_cif.got.tgz:11674.got - 2010.06.28 04:50:58.
