data_PCOD8122411
_publ_section_title
;
Structure prediction by ZEFSAII (Michael W. Deem and Ramdas Pophale) SiO2 
 PCOD8122411
Probable space group: P 2/C
;
_chemical_formula_sum "Si O2"
_cell_formula_units_Z 32
_cell_length_a 22.997832
_cell_length_b 11.548218
_cell_length_c 17.331168
_cell_angle_alpha 90.000000
_cell_angle_beta 161.284261
_cell_angle_gamma 90.000000
_cell_volume 1476.940889
_symmetry_space_group_name_H-M "P 2/C"
_symmetry_group_IT_number 13
_symmetry_cell_setting 'monoclinic'
loop_
_space_group_symop_operation_xyz
x,y,z
-x,y,1/2-z
-x,-y,-z
x,-y,1/2+z
loop_
_atom_site_type_symbol
_atom_site_label
_atom_site_fract_x
_atom_site_fract_y
_atom_site_fract_z
Si Si1 0.334193 0.310998 0.259391
Si Si2 0.676959 0.437619 0.017902
Si Si3 0.154702 0.495895 0.131539
Si Si4 0.676752 0.931198 0.693682
Si Si5 0.198677 0.525682 0.472041
Si Si6 0.682505 0.166142 0.026964
Si Si7 0.039867 0.904748 0.884301
Si Si8 0.270491 0.676741 0.168672
O O1 0.177406 0.382723 0.107145
O O2 0.285643 0.175966 0.200911
O O3 0.529807 0.316826 0.545607
O O4 0.327161 0.367626 0.164070
O O5 0.500000 0.469474 0.750000
O O6 0.713180 0.302234 0.075100
O O7 0.665743 0.495458 0.087937
O O8 0.823939 0.507206 0.148887
O O9 0.140847 0.612117 0.065874
O O10 0.000000 0.500000 0.000000
O O11 0.660904 0.891472 0.584476
O O12 0.500000 0.000000 0.500000
O O13 0.852383 0.010914 0.923407
O O14 0.278076 0.400413 0.600534
O O15 0.000000 0.553213 0.250000
O O16 0.500000 0.138361 0.750000
O O17 0.854477 0.120249 0.196050
O O18 0.000000 0.960281 0.750000
O O19 0.173099 0.797498 0.031079
#
# Coordination Sequence:
#
# PCOD8122411 Si02
#       8
#     4   4   4   4   4   4   4   4
#     4  11  23  42  64  94 136 181 229 285 358 429
#     4  11  20  35  62  94 128 164 213 271 345 402
#     4  11  21  36  60  95 129 171 214 276 348 417
#     4  12  25  46  71  98 138 191 241 296 360 415
#     4  11  22  37  61  97 135 172 220 282 352 427
#     4  11  24  42  71 103 136 174 236 298 351 425
#     4  12  25  44  71 100 132 178 243 300 361 426
#     4  11  22  39  65  93 131 174 227 284 349 425
#
# _framework density 21.666404
#
# number of rings (size 3 to 8) (size 9 to 14) (size 15 to 20)
#    0.000    0.750    2.500    8.250    1.750    0.500 
#    0.000    0.000    2.750    0.000    0.000    0.000 
#    0.000    0.000    0.000    0.000    0.000    0.000 
#
# Total GULP energy -396452.094913 kJ/mol
# GULP energy per Si atom -12389.127966 kJ/mol
# Density = 2.161709 g / cm^3
# Si number density = 21.666404 Si / 1000 Ang^3
#
#
#
# Elastic Constant Matrix: (Units=GPa)
#
#
# Indices 1 2 3 4 5 6 
#
# 1 80.9861 22.8831 -6.6776 0.0000 -10.1668 0.0000
# 2 22.8831 98.0856 25.7750 0.0000 -7.2231 0.0000
# 3 -6.6776 25.7750 73.5048 0.0000 3.4806 0.0000
# 4 0.0000 0.0000 0.0000 29.7130 0.0000 -13.6997
# 5 -10.1668 -7.2231 3.4806 0.0000 48.8338 0.0000
# 6 0.0000 0.0000 0.0000 -13.6997 0.0000 -7.5412
#
#
#
# Elastic Compliance Matrix: (Units=1/GPa)
#
#
# Indices 1 2 3 4 5 6 
#
# 1 0.013875 -0.003725 0.002464 0.000000 0.002162 0.000000
# 2 -0.003725 0.012418 -0.004759 0.000000 0.001400 0.000000
# 3 0.002464 -0.004759 0.015559 0.000000 -0.001300 0.000000
# 4 0.000000 0.000000 0.000000 0.018315 0.000000 -0.033272
# 5 0.002162 0.001400 -0.001300 0.000000 0.021227 0.000000
# 6 0.000000 0.000000 0.000000 -0.033272 0.000000 -0.072162
#
#
# Mechanical properties :
#
#
# Convention : Reuss Voigt Hill
#
# Bulk Modulus (GPa) = 33.54402 37.39307 35.46855
# Shear Modulus (GPa) = 160.20727 28.24087 94.22407
#
# Velocity S-wave (km/s) = 8.60832 3.61424 6.60174
# Velocity P-wave (km/s) = 10.69205 5.89177 8.63229
#
# Compressibility (1/GPa) = 0.02981157
#
# Stress axis : x y z
#
# Youngs Moduli (GPa) = 72.07183 80.52780 64.27212
#
# Poissons Ratio (x) = 0.30000 -0.15840
# Poissons Ratio (y) = 0.26850 0.30589
# Poissons Ratio (z) = -0.17762 0.38325
#
# Static dielectric constant tensor:
#      x y z
#    x 4.340860 0.000000 -0.826270 
#    y 0.000000 4.039710 0.000000 
#    z -0.826270 0.000000 4.850770 
# 
# 
# High freq. dielectric constant tensor:
#      x y z
#    x 1.865030 0.000000 -0.005860 
#    y 0.000000 1.825680 0.000000 
#    z -0.005860 0.000000 1.883400 
# 
# From -- ./inp_files/71498.got.cif
#   From: 2010.06.25/outbox.cif.g09.slc.cpg/sg13_36_cif.got.tgz:71498.got - 2010.06.28 04:50:58.
