data_PCOD8122251
_publ_section_title
;
Structure prediction by ZEFSAII (Michael W. Deem and Ramdas Pophale) SiO2 
 PCOD8122251
Probable space group: P 2/C
;
_chemical_formula_sum "Si O2"
_cell_formula_units_Z 26
_cell_length_a 14.102991
_cell_length_b 10.806269
_cell_length_c 20.582860
_cell_angle_alpha 90.000000
_cell_angle_beta 158.806386
_cell_angle_gamma 90.000000
_cell_volume 1134.033377
_symmetry_space_group_name_H-M "P 2/C"
_symmetry_group_IT_number 13
_symmetry_cell_setting 'monoclinic'
loop_
_space_group_symop_operation_xyz
x,y,z
-x,y,1/2-z
-x,-y,-z
x,-y,1/2+z
loop_
_atom_site_type_symbol
_atom_site_label
_atom_site_fract_x
_atom_site_fract_y
_atom_site_fract_z
Si Si1 0.500000 0.340929 0.750000
Si Si2 0.760494 0.936199 0.691898
Si Si3 0.876636 0.860102 0.035372
Si Si4 0.325739 0.820817 0.727561
Si Si5 0.299333 0.322637 0.755326
Si Si6 0.228632 0.332752 0.351713
Si Si7 0.929654 0.580911 0.884826
O O1 0.428739 0.264264 0.771303
O O2 0.240266 0.419405 0.566419
O O3 0.722744 0.907749 0.743053
O O4 0.818854 0.813982 0.688263
O O5 0.500000 0.000000 0.500000
O O6 0.015673 0.025517 0.852661
O O7 0.115037 0.767161 0.177437
O O8 0.638678 0.794085 0.922343
O O9 0.770678 0.898871 0.896526
O O10 0.158771 0.693087 0.623841
O O11 0.150028 0.448069 0.635183
O O12 0.507148 0.361989 0.941765
O O13 0.233006 0.401813 0.285658
O O14 0.000000 0.387353 0.250000
#
# Coordination Sequence:
#
# PCOD8122251 Si02
#       7
#     2   4   4   4   4   4   4
#     4  12  24  42  72 100 138 178 224 280 338 414
#     4  11  24  43  66  94 131 179 234 278 342 404
#     4  11  24  43  69  99 138 178 226 287 344 408
#     4  10  25  44  65 102 139 175 227 286 346 407
#     4  12  25  43  70 102 136 181 228 281 347 413
#     4  11  24  45  67  94 136 178 230 287 339 415
#     4  11  25  44  69 103 137 180 229 277 352 412
#
# _framework density 22.927015999999998
#
# number of rings (size 3 to 8) (size 9 to 14) (size 15 to 20)
#    0.000    0.923    4.615    1.385    4.308    0.000 
#    0.000    0.000    0.000    0.000    0.000    0.000 
#    0.000    0.000    0.000    0.000    0.000    0.000 
#
# Total GULP energy -322329.931924 kJ/mol
# GULP energy per Si atom -12397.305074 kJ/mol
# Density = 2.287483 g / cm^3
# Si number density = 22.927016 Si / 1000 Ang^3
#
#
#
# Elastic Constant Matrix: (Units=GPa)
#
#
# Indices 1 2 3 4 5 6 
#
# 1 57.7135 8.6910 20.8211 0.0000 19.6322 0.0000
# 2 8.6910 82.5833 21.9793 0.0000 12.7321 0.0000
# 3 20.8211 21.9793 130.4074 0.0000 18.9855 0.0000
# 4 0.0000 0.0000 0.0000 39.8213 0.0000 -6.0172
# 5 19.6322 12.7321 18.9855 0.0000 44.1379 0.0000
# 6 0.0000 0.0000 0.0000 -6.0172 0.0000 18.6520
#
#
#
# Elastic Compliance Matrix: (Units=1/GPa)
#
#
# Indices 1 2 3 4 5 6 
#
# 1 0.020963 -0.000371 -0.002072 0.000000 -0.008326 0.000000
# 2 -0.000371 0.013047 -0.001724 0.000000 -0.002857 0.000000
# 3 -0.002072 -0.001724 0.008623 0.000000 -0.002290 0.000000
# 4 0.000000 0.000000 0.000000 0.026399 0.000000 0.008516
# 5 -0.008326 -0.002857 -0.002290 0.000000 0.028169 0.000000
# 6 0.000000 0.000000 0.000000 0.008516 0.000000 0.056361
#
#
# Mechanical properties :
#
#
# Convention : Reuss Voigt Hill
#
# Bulk Modulus (GPa) = 29.15559 41.52078 35.33819
# Shear Modulus (GPa) = 28.84691 35.13643 31.99167
#
# Velocity S-wave (km/s) = 3.55097 3.91901 3.73952
# Velocity P-wave (km/s) = 5.43662 6.21510 5.83885
#
# Compressibility (1/GPa) = 0.03429874
#
# Stress axis : x y z
#
# Youngs Moduli (GPa) = 47.70414 76.64406 115.96754
#
# Poissons Ratio (x) = 0.02843 0.24032
# Poissons Ratio (y) = 0.01770 0.19991
# Poissons Ratio (z) = 0.09886 0.13212
#
# Static dielectric constant tensor:
#      x y z
#    x 4.205390 0.000000 -0.141320 
#    y 0.000000 3.845330 0.000000 
#    z -0.141320 0.000000 4.799580 
# 
# 
# High freq. dielectric constant tensor:
#      x y z
#    x 1.917490 0.000000 -0.010510 
#    y 0.000000 1.869110 0.000000 
#    z -0.010510 0.000000 1.938650 
# 
# From -- ./inp_files/80225.got.cif
#   From: 2010.06.25/outbox.cif.g09.slc.cpg/sg13_41_cif.got.tgz:80225.got - 2010.06.28 04:50:58.
