data_PCOD8122651
_publ_section_title
;
Structure prediction by ZEFSAII (Michael W. Deem and Ramdas Pophale) SiO2 
 PCOD8122651
Probable space group: P 2/C
;
_chemical_formula_sum "Si O2"
_cell_formula_units_Z 32
_cell_length_a 10.995605
_cell_length_b 8.093569
_cell_length_c 15.844168
_cell_angle_alpha 90.000000
_cell_angle_beta 91.652686
_cell_angle_gamma 90.000000
_cell_volume 1409.444391
_symmetry_space_group_name_H-M "P 2/C"
_symmetry_group_IT_number 13
_symmetry_cell_setting 'monoclinic'
loop_
_space_group_symop_operation_xyz
x,y,z
-x,y,1/2-z
-x,-y,-z
x,-y,1/2+z
loop_
_atom_site_type_symbol
_atom_site_label
_atom_site_fract_x
_atom_site_fract_y
_atom_site_fract_z
Si Si1 0.264068 0.878198 0.159738
Si Si2 0.718058 0.183098 0.539026
Si Si3 0.059487 0.669557 0.529156
Si Si4 0.322593 0.694069 0.838123
Si Si5 0.622667 0.322280 0.703348
Si Si6 0.874410 0.192551 0.298321
Si Si7 0.460710 0.912171 0.587273
Si Si8 0.813405 0.180093 0.018350
O O1 0.267225 0.748543 0.236984
O O2 0.154313 0.009449 0.167547
O O3 0.396835 0.963336 0.151655
O O4 0.233962 0.774182 0.075342
O O5 0.835845 0.299225 0.537975
O O6 0.629366 0.222906 0.615475
O O7 0.644815 0.211214 0.449569
O O8 0.763630 0.995168 0.549443
O O9 0.113437 0.674860 0.625248
O O10 0.000000 0.500000 0.500000
O O11 0.959332 0.815132 0.523751
O O12 0.369786 0.515440 0.813800
O O13 0.241498 0.763132 0.760840
O O14 0.436243 0.814838 0.859650
O O15 0.240263 0.680044 0.920261
O O16 0.500000 0.283179 0.750000
O O17 0.000000 0.189580 0.250000
O O18 0.500000 0.000000 0.500000
#
# Coordination Sequence:
#
# PCOD8122651 Si02
#       8
#     4   4   4   4   4   4   4   4
#     4  11  26  46  76 108 148 196 268 313 379 469
#     4  11  24  48  76 107 148 200 268 307 384 467
#     4  12  26  47  77 112 155 199 250 324 391 459
#     4  12  27  47  73 109 162 196 249 325 395 458
#     4  12  30  46  69 115 158 201 251 329 397 447
#     4  12  27  48  77 114 151 202 259 320 388 464
#     4  11  22  46  78 108 138 207 256 312 374 471
#     4  11  23  48  78 106 146 205 262 311 383 471
#
# _framework density 22.703982
#
# number of rings (size 3 to 8) (size 9 to 14) (size 15 to 20)
#    0.000    0.500    6.250    2.625    5.250    0.500 
#    0.000    0.625    0.000    0.000    0.000    0.000 
#    0.000    0.000    0.000    0.000    0.000    0.000 
#
# Total GULP energy -396722.466556 kJ/mol
# GULP energy per Si atom -12397.577080 kJ/mol
# Density = 2.265231 g / cm^3
# Si number density = 22.703982 Si / 1000 Ang^3
#
#
#
# Elastic Constant Matrix: (Units=GPa)
#
#
# Indices 1 2 3 4 5 6 
#
# 1 138.6753 45.2603 50.4504 0.0000 4.2644 0.0000
# 2 45.2603 91.4294 55.2344 0.0000 10.5968 0.0000
# 3 50.4504 55.2344 141.6809 0.0000 13.7734 0.0000
# 4 0.0000 0.0000 0.0000 39.9731 0.0000 0.0065
# 5 4.2644 10.5968 13.7734 0.0000 51.3770 0.0000
# 6 0.0000 0.0000 0.0000 0.0065 0.0000 37.8642
#
#
#
# Elastic Compliance Matrix: (Units=1/GPa)
#
#
# Indices 1 2 3 4 5 6 
#
# 1 0.008992 -0.003327 -0.001950 0.000000 0.000463 0.000000
# 2 -0.003327 0.015651 -0.004754 0.000000 -0.001678 0.000000
# 3 -0.001950 -0.004754 0.009749 0.000000 -0.001471 0.000000
# 4 0.000000 0.000000 0.000000 0.025017 0.000000 -0.000004
# 5 0.000463 -0.001678 -0.001471 0.000000 0.020166 0.000000
# 6 0.000000 0.000000 0.000000 -0.000004 0.000000 0.026410
#
#
# Mechanical properties :
#
#
# Convention : Reuss Voigt Hill
#
# Bulk Modulus (GPa) = 69.78217 74.85286 72.31752
# Shear Modulus (GPa) = 38.21988 40.56557 39.39272
#
# Velocity S-wave (km/s) = 4.10738 4.23154 4.16992
# Velocity P-wave (km/s) = 7.30044 7.54422 7.42333
#
# Compressibility (1/GPa) = 0.01433031
#
# Stress axis : x y z
#
# Youngs Moduli (GPa) = 111.20881 63.89555 102.57836
#
# Poissons Ratio (x) = 0.21258 0.20002
# Poissons Ratio (y) = 0.36999 0.48762
# Poissons Ratio (z) = 0.21684 0.30373
#
# Static dielectric constant tensor:
#      x y z
#    x 4.641610 0.000000 0.003890 
#    y 0.000000 3.822980 0.000000 
#    z 0.003890 0.000000 4.396240 
# 
# 
# High freq. dielectric constant tensor:
#      x y z
#    x 1.914660 0.000000 -0.003770 
#    y 0.000000 1.874880 0.000000 
#    z -0.003770 0.000000 1.910490 
# 
# From -- ./inp_files/50339.got.cif
#   From: 2010.06.25/outbox.cif.g09.slc.cpg/sg13_26_cif.got.tgz:50339.got - 2010.06.28 04:50:58.
