data_PCOD8122823
_publ_section_title
;
Structure prediction by ZEFSAII (Michael W. Deem and Ramdas Pophale) SiO2 
 PCOD8122823
Probable space group: P 2/C
;
_chemical_formula_sum "Si O2"
_cell_formula_units_Z 32
_cell_length_a 16.099364
_cell_length_b 8.901788
_cell_length_c 20.404754
_cell_angle_alpha 90.000000
_cell_angle_beta 143.750908
_cell_angle_gamma 90.000000
_cell_volume 1729.111140
_symmetry_space_group_name_H-M "P 2/C"
_symmetry_group_IT_number 13
_symmetry_cell_setting 'monoclinic'
loop_
_space_group_symop_operation_xyz
x,y,z
-x,y,1/2-z
-x,-y,-z
x,-y,1/2+z
loop_
_atom_site_type_symbol
_atom_site_label
_atom_site_fract_x
_atom_site_fract_y
_atom_site_fract_z
Si Si1 0.415764 0.073254 0.387277
Si Si2 0.436681 0.923337 0.138881
Si Si3 0.563318 0.423337 0.861119
Si Si4 0.848283 0.576781 0.233037
Si Si5 0.584236 0.573254 0.612723
Si Si6 0.151717 0.076781 0.766963
Si Si7 0.165758 0.076674 0.928703
Si Si8 0.834242 0.423326 0.571297
O O1 0.430239 0.250000 0.402784
O O2 0.500000 0.000000 0.500000
O O3 0.477328 0.022964 0.357331
O O4 0.252660 0.025243 0.286913
O O5 0.500000 0.953184 0.250000
O O6 0.447153 0.750000 0.124916
O O7 0.273945 0.973053 0.036950
O O8 0.500000 0.453184 0.750000
O O9 0.477328 0.522964 0.857330
O O10 0.726055 0.473053 0.963050
O O11 0.747340 0.474757 0.213087
O O12 0.825062 0.750000 0.237068
O O13 0.811067 0.551053 0.133570
O O14 0.008562 0.528726 0.349184
O O15 0.500000 0.500000 0.500000
O O16 0.188933 0.051053 0.866430
O O17 0.991438 0.028726 0.650816
O O18 0.192111 0.250000 0.963273
#
# Coordination Sequence:
#
# PCOD8122823 Si02
#       8
#     4   4   4   4   4   4   4   4
#     4  12  23  36  58  87 116 149 192 237 282 335
#     4  11  24  40  58  83 117 154 192 236 284 336
#     4  11  24  40  58  83 117 154 192 236 284 336
#     4   9  18  34  57  87 117 145 184 236 287 331
#     4  12  23  36  58  87 116 149 192 237 282 335
#     4   9  18  34  57  87 117 145 184 236 287 331
#     4   9  18  34  58  85 115 150 186 231 285 338
#     4   9  18  34  58  85 115 150 186 231 285 338
#
# _framework density 18.506619000000001
#
# number of rings (size 3 to 8) (size 9 to 14) (size 15 to 20)
#    0.000    1.750    2.500    4.500    0.000    3.000 
#    0.000    3.750    0.000    0.000    0.000    0.000 
#    0.000    0.000    0.000    0.000    0.000    0.000 
#
# Total GULP energy -396903.638774 kJ/mol
# GULP energy per Si atom -12403.238712 kJ/mol
# Density = 1.846450 g / cm^3
# Si number density = 18.506619 Si / 1000 Ang^3
#
#
#
# Elastic Constant Matrix: (Units=GPa)
#
#
# Indices 1 2 3 4 5 6 
#
# 1 99.3387 63.0669 52.2864 0.0000 19.1597 0.0000
# 2 63.0669 128.1145 65.9587 0.0000 6.9288 0.0000
# 3 52.2864 65.9587 118.3501 0.0000 16.1421 0.0000
# 4 0.0000 0.0000 0.0000 31.7935 0.0000 6.0846
# 5 19.1597 6.9288 16.1421 0.0000 27.4113 0.0000
# 6 0.0000 0.0000 0.0000 6.0846 0.0000 32.8851
#
#
#
# Elastic Compliance Matrix: (Units=1/GPa)
#
#
# Indices 1 2 3 4 5 6 
#
# 1 0.017503 -0.006702 -0.002784 0.000000 -0.008901 0.000000
# 2 -0.006702 0.013533 -0.005169 0.000000 0.004307 0.000000
# 3 -0.002784 -0.005169 0.013175 0.000000 -0.004506 0.000000
# 4 0.000000 0.000000 0.000000 0.032608 0.000000 -0.006033
# 5 -0.008901 0.004307 -0.004506 0.000000 0.044267 0.000000
# 6 0.000000 0.000000 0.000000 -0.006033 0.000000 0.031525
#
#
# Mechanical properties :
#
#
# Convention : Reuss Voigt Hill
#
# Bulk Modulus (GPa) = 67.10516 78.71415 72.90966
# Shear Modulus (GPa) = 26.75416 29.38405 28.06911
#
# Velocity S-wave (km/s) = 3.80630 3.98899 3.89872
# Velocity P-wave (km/s) = 7.46030 7.99008 7.72973
#
# Compressibility (1/GPa) = 0.01490198
#
# Stress axis : x y z
#
# Youngs Moduli (GPa) = 57.13226 73.89512 75.90350
#
# Poissons Ratio (x) = 0.49522 0.21130
# Poissons Ratio (y) = 0.38288 0.39233
# Poissons Ratio (z) = 0.15905 0.38195
#
# Static dielectric constant tensor:
#      x y z
#    x 3.453180 0.000000 0.278100 
#    y 0.000000 3.398560 0.000000 
#    z 0.278100 0.000000 3.415470 
# 
# 
# High freq. dielectric constant tensor:
#      x y z
#    x 1.711590 0.000000 0.025920 
#    y 0.000000 1.720060 0.000000 
#    z 0.025920 0.000000 1.712510 
# 
# From -- ./inp_files/80955.got.cif
#   From: 2010.06.25/outbox.cif.g09.slc.cpg/sg13_41_cif.got.tgz:80955.got - 2010.06.28 04:50:58.
