data_PCOD8122244
_publ_section_title
;
Structure prediction by ZEFSAII (Michael W. Deem and Ramdas Pophale) SiO2 
 PCOD8122244
Probable space group: P 2/C
;
_chemical_formula_sum "Si O2"
_cell_formula_units_Z 16
_cell_length_a 23.870765
_cell_length_b 7.475970
_cell_length_c 13.779464
_cell_angle_alpha 90.000000
_cell_angle_beta 18.681209
_cell_angle_gamma 90.000000
_cell_volume 787.637343
_symmetry_space_group_name_H-M "P 2/C"
_symmetry_group_IT_number 13
_symmetry_cell_setting 'monoclinic'
loop_
_space_group_symop_operation_xyz
x,y,z
-x,y,1/2-z
-x,-y,-z
x,-y,1/2+z
loop_
_atom_site_type_symbol
_atom_site_label
_atom_site_fract_x
_atom_site_fract_y
_atom_site_fract_z
Si Si1 0.691545 0.255757 0.395119
Si Si2 0.073942 0.841863 0.819541
Si Si3 0.316353 0.953037 0.251168
Si Si4 0.166595 0.620036 0.408657
O O1 0.800549 0.264728 0.314983
O O2 0.724154 0.441259 0.287233
O O3 0.734197 0.096518 0.249097
O O4 0.500000 0.232150 0.750000
O O5 0.164653 0.940364 0.579832
O O6 0.916829 0.708166 0.050044
O O7 0.000000 0.000000 0.000000
O O8 0.314640 0.754659 0.207664
O O9 0.500000 0.000000 0.000000
O O10 0.000000 0.579192 0.750000
#
# Coordination Sequence:
#
# PCOD8122244 Si02
#       4
#     4   4   4   4
#     4  12  25  43  68  97 131 174 216 266 328 384
#     4  11  23  43  70  95 128 173 217 267 325 382
#     4  11  24  45  65  97 134 168 217 269 322 382
#     4  10  25  43  65  98 132 168 218 268 319 386
#
# _framework density 20.313918000000001
#
# number of rings (size 3 to 8) (size 9 to 14) (size 15 to 20)
#    0.000    1.000    5.000    0.750    3.500    4.000 
#    0.000    0.000    0.000    0.000    0.000    0.000 
#    0.000    0.000    0.000    0.000    0.000    0.000 
#
# Total GULP energy -198282.338425 kJ/mol
# GULP energy per Si atom -12392.646152 kJ/mol
# Density = 2.026768 g / cm^3
# Si number density = 20.313918 Si / 1000 Ang^3
#
#
#
# Elastic Constant Matrix: (Units=GPa)
#
#
# Indices 1 2 3 4 5 6 
#
# 1 111.8331 43.9774 23.4186 0.0000 3.3137 0.0000
# 2 43.9774 133.1858 35.8200 0.0000 28.9146 0.0000
# 3 23.4186 35.8200 46.3742 0.0000 -0.7499 0.0000
# 4 0.0000 0.0000 0.0000 89.6338 0.0000 -19.0850
# 5 3.3137 28.9146 -0.7499 0.0000 32.6880 0.0000
# 6 0.0000 0.0000 0.0000 -19.0850 0.0000 50.8961
#
#
#
# Elastic Compliance Matrix: (Units=1/GPa)
#
#
# Indices 1 2 3 4 5 6 
#
# 1 0.010736 -0.003069 -0.003026 0.000000 0.001557 0.000000
# 2 -0.003069 0.013552 -0.009110 0.000000 -0.011886 0.000000
# 3 -0.003026 -0.009110 0.030275 0.000000 0.009060 0.000000
# 4 0.000000 0.000000 0.000000 0.012125 0.000000 0.004546
# 5 0.001557 -0.011886 0.009060 0.000000 0.041156 0.000000
# 6 0.000000 0.000000 0.000000 0.004546 0.000000 0.021353
#
#
# Mechanical properties :
#
#
# Convention : Reuss Voigt Hill
#
# Bulk Modulus (GPa) = 41.40264 55.31392 48.35828
# Shear Modulus (GPa) = 29.82252 47.18873 38.50562
#
# Velocity S-wave (km/s) = 3.83571 4.82495 4.35849
# Velocity P-wave (km/s) = 6.32792 7.63734 7.01326
#
# Compressibility (1/GPa) = 0.02415305
#
# Stress axis : x y z
#
# Youngs Moduli (GPa) = 93.14116 73.78783 33.03059
#
# Poissons Ratio (x) = 0.22649 0.09994
# Poissons Ratio (y) = 0.28589 0.30091
# Poissons Ratio (z) = 0.28182 0.67222
#
# Static dielectric constant tensor:
#      x y z
#    x 3.717140 0.000000 0.029310 
#    y 0.000000 3.664620 0.000000 
#    z 0.029310 0.000000 3.575670 
# 
# 
# High freq. dielectric constant tensor:
#      x y z
#    x 1.816880 0.000000 -0.003700 
#    y 0.000000 1.798950 0.000000 
#    z -0.003700 0.000000 1.790990 
# 
# From -- ./inp_files/27523.got.cif
#   From: 2010.06.25/outbox.cif.g09.slc.cpg/sg13_14_cif.got.tgz:27523.got - 2010.06.28 04:50:58.
