data_PCOD8122213
_publ_section_title
;
Structure prediction by ZEFSAII (Michael W. Deem and Ramdas Pophale) SiO2 
 PCOD8122213
Probable space group: P 2/C
;
_chemical_formula_sum "Si O2"
_cell_formula_units_Z 24
_cell_length_a 7.924499
_cell_length_b 12.993175
_cell_length_c 11.584675
_cell_angle_alpha 90.000000
_cell_angle_beta 69.646581
_cell_angle_gamma 90.000000
_cell_volume 1118.336177
_symmetry_space_group_name_H-M "P 2/C"
_symmetry_group_IT_number 13
_symmetry_cell_setting 'monoclinic'
loop_
_space_group_symop_operation_xyz
x,y,z
-x,y,1/2-z
-x,-y,-z
x,-y,1/2+z
loop_
_atom_site_type_symbol
_atom_site_label
_atom_site_fract_x
_atom_site_fract_y
_atom_site_fract_z
Si Si1 0.500000 0.531202 0.750000
Si Si2 0.000000 0.933558 0.250000
Si Si3 0.279097 0.314240 0.458079
Si Si4 0.586509 0.904041 0.613863
Si Si5 0.213487 0.625739 0.223576
Si Si6 0.248649 0.931642 0.555566
Si Si7 0.085200 0.225616 0.930501
O O1 0.612584 0.595345 0.629389
O O2 0.658369 0.469864 0.777254
O O3 0.015337 0.861314 0.358230
O O4 0.161097 0.014688 0.188808
O O5 0.344329 0.209844 0.384303
O O6 0.304301 0.322051 0.589983
O O7 0.063513 0.308371 0.490213
O O8 0.500000 0.946868 0.750000
O O9 0.449235 0.898756 0.539900
O O10 0.747719 0.983023 0.547160
O O11 0.231282 0.706618 0.325429
O O12 0.000000 0.597004 0.250000
O O13 0.156006 0.828546 0.529489
#
# Coordination Sequence:
#
# PCOD8122213 Si02
#       7
#     2   2   4   4   4   4   4
#     4  12  26  44  74  94 128 174 222 288 344 400
#     4  12  20  40  64  90 136 174 208 272 314 382
#     4  11  23  44  66  96 133 168 217 280 335 387
#     4  11  23  42  59  96 138 171 214 271 321 388
#     4  10  24  47  69  97 129 173 225 280 339 399
#     4  11  25  36  67  97 129 182 221 251 323 408
#     4  11  22  43  67  94 132 176 220 269 328 396
#
# _framework density 21.460455
#
# number of rings (size 3 to 8) (size 9 to 14) (size 15 to 20)
#    0.000    1.000    5.000    2.000    4.667    4.000 
#    3.000    0.000    0.000    0.000    0.000    0.000 
#    0.000    0.000    0.000    0.000    0.000    0.000 
#
# Total GULP energy -297328.259429 kJ/mol
# GULP energy per Si atom -12388.677476 kJ/mol
# Density = 2.141161 g / cm^3
# Si number density = 21.460455 Si / 1000 Ang^3
#
#
#
# Elastic Constant Matrix: (Units=GPa)
#
#
# Indices 1 2 3 4 5 6 
#
# 1 63.7815 33.0133 25.6061 0.0000 -6.3329 0.0000
# 2 33.0133 93.8033 34.8744 0.0000 -12.0776 0.0000
# 3 25.6061 34.8744 107.2645 0.0000 -24.6179 0.0000
# 4 0.0000 0.0000 0.0000 31.4698 0.0000 -31.0249
# 5 -6.3329 -12.0776 -24.6179 0.0000 28.1385 0.0000
# 6 0.0000 0.0000 0.0000 -31.0249 0.0000 -41.1514
#
#
#
# Elastic Compliance Matrix: (Units=1/GPa)
#
#
# Indices 1 2 3 4 5 6 
#
# 1 0.019900 -0.005991 -0.002959 0.000000 -0.000682 0.000000
# 2 -0.005991 0.014040 -0.002579 0.000000 0.002422 0.000000
# 3 -0.002959 -0.002579 0.013089 0.000000 0.009678 0.000000
# 4 0.000000 0.000000 0.000000 0.018228 0.000000 -0.013743
# 5 -0.000682 0.002422 0.009678 0.000000 0.044892 0.000000
# 6 0.000000 0.000000 0.000000 -0.013743 0.000000 -0.013940
#
#
# Mechanical properties :
#
#
# Convention : Reuss Voigt Hill
#
# Bulk Modulus (GPa) = 41.71795 50.20409 45.96102
# Shear Modulus (GPa) = 39.29065 15.11507 27.20286
#
# Velocity S-wave (km/s) = 4.28347 2.65679 3.56417
# Velocity P-wave (km/s) = 6.62917 5.73201 6.19684
#
# Compressibility (1/GPa) = 0.02397050
#
# Stress axis : x y z
#
# Youngs Moduli (GPa) = 50.25158 71.22670 76.40155
#
# Poissons Ratio (x) = 0.42674 0.22607
# Poissons Ratio (y) = 0.30107 0.19701
# Poissons Ratio (z) = 0.14870 0.18367
#
# Static dielectric constant tensor:
#      x y z
#    x 3.810480 0.000000 -0.217140 
#    y 0.000000 3.887000 0.000000 
#    z -0.217140 0.000000 3.936870 
# 
# 
# High freq. dielectric constant tensor:
#      x y z
#    x 1.829070 0.000000 -0.018040 
#    y 0.000000 1.836750 0.000000 
#    z -0.018040 0.000000 1.855840 
# 
# From -- ./inp_files/29402.got.cif
#   From: 2010.06.25/outbox.cif.g09.slc.cpg/sg13_15_cif.got.tgz:29402.got - 2010.06.28 04:50:58.
