data_PCOD8122939
_publ_section_title
;
Structure prediction by ZEFSAII (Michael W. Deem and Ramdas Pophale) SiO2 
 PCOD8122939
Probable space group: P 2/C
;
_chemical_formula_sum "Si O2"
_cell_formula_units_Z 18
_cell_length_a 6.796497
_cell_length_b 7.111114
_cell_length_c 17.796814
_cell_angle_alpha 90.000000
_cell_angle_beta 53.153841
_cell_angle_gamma 90.000000
_cell_volume 688.319245
_symmetry_space_group_name_H-M "P 2/C"
_symmetry_group_IT_number 13
_symmetry_cell_setting 'monoclinic'
loop_
_space_group_symop_operation_xyz
x,y,z
-x,y,1/2-z
-x,-y,-z
x,-y,1/2+z
loop_
_atom_site_type_symbol
_atom_site_label
_atom_site_fract_x
_atom_site_fract_y
_atom_site_fract_z
Si Si1 0.278399 0.322686 0.845325
Si Si2 0.000000 0.978658 0.750000
Si Si3 0.224455 0.261730 0.328032
Si Si4 0.208380 0.841090 0.002110
Si Si5 0.529748 0.199225 0.919545
O O1 0.500000 0.221603 0.750000
O O2 0.193707 0.513306 0.823689
O O3 0.401208 0.363703 0.899899
O O4 0.060984 0.169030 0.896836
O O5 0.955455 0.843806 0.687990
O O6 0.763896 0.106377 0.823269
O O7 0.500000 0.194578 0.250000
O O8 0.169771 0.236319 0.428399
O O9 0.305645 0.052036 0.980317
O O10 0.391432 0.723878 0.016007
#
# Coordination Sequence:
#
# PCOD8122939 Si02
#       5
#     4   2   4   4   4
#     4  11  26  45  70 102 141 186 232 294 347 418
#     4  12  26  46  76 108 142 194 234 290 358 428
#     4  11  26  46  71 101 147 187 231 292 360 418
#     4  11  25  45  71 106 139 184 236 291 352 419
#     4  11  26  42  73 104 138 182 241 288 348 421
#
# _framework density 26.150656999999999
#
# number of rings (size 3 to 8) (size 9 to 14) (size 15 to 20)
#    0.000    0.889    2.222    2.667   12.444    4.444 
#    0.000    0.000    0.000    0.000    0.000    0.000 
#    0.000    0.000    0.000    0.000    0.000    0.000 
#
# Total GULP energy -222990.980099 kJ/mol
# GULP energy per Si atom -12388.387783 kJ/mol
# Density = 2.609114 g / cm^3
# Si number density = 26.150657 Si / 1000 Ang^3
#
#
#
# Elastic Constant Matrix: (Units=GPa)
#
#
# Indices 1 2 3 4 5 6 
#
# 1 120.9753 42.1252 13.6863 0.0000 15.2663 0.0000
# 2 42.1252 48.2133 20.3996 0.0000 -0.8917 0.0000
# 3 13.6863 20.3996 104.0504 0.0000 -21.8657 0.0000
# 4 0.0000 0.0000 0.0000 8.3159 0.0000 9.8066
# 5 15.2663 -0.8917 -21.8657 0.0000 60.8975 0.0000
# 6 0.0000 0.0000 0.0000 9.8066 0.0000 33.7611
#
#
#
# Elastic Compliance Matrix: (Units=1/GPa)
#
#
# Indices 1 2 3 4 5 6 
#
# 1 0.012513 -0.010904 -0.000217 0.000000 -0.003375 0.000000
# 2 -0.010904 0.032224 -0.004553 0.000000 0.001570 0.000000
# 3 -0.000217 -0.004553 0.011389 0.000000 0.004077 0.000000
# 4 0.000000 0.000000 0.000000 0.182902 0.000000 -0.053128
# 5 -0.003375 0.001570 0.004077 0.000000 0.018754 0.000000
# 6 0.000000 0.000000 0.000000 -0.053128 0.000000 0.045052
#
#
# Mechanical properties :
#
#
# Convention : Reuss Voigt Hill
#
# Bulk Modulus (GPa) = 40.36021 47.29567 43.82794
# Shear Modulus (GPa) = 14.60102 33.73010 24.16556
#
# Velocity S-wave (km/s) = 2.36549 3.59533 3.04318
# Velocity P-wave (km/s) = 4.78831 5.94645 5.39853
#
# Compressibility (1/GPa) = 0.02477688
#
# Stress axis : x y z
#
# Youngs Moduli (GPa) = 79.91421 31.03309 87.80542
#
# Poissons Ratio (x) = 0.33838 0.01909
# Poissons Ratio (y) = 0.87136 0.39981
# Poissons Ratio (z) = 0.01737 0.14131
#
# Static dielectric constant tensor:
#      x y z
#    x 5.405360 0.000000 0.267860 
#    y 0.000000 4.105470 0.000000 
#    z 0.267860 0.000000 5.242270 
# 
# 
# High freq. dielectric constant tensor:
#      x y z
#    x 2.076680 0.000000 0.005940 
#    y 0.000000 2.006570 0.000000 
#    z 0.005940 0.000000 2.068720 
# 
# From -- ./inp_files/60524.got.cif
#   From: 2010.06.25/outbox.cif.g09.slc.cpg/sg13_31_cif.got.tgz:60524.got - 2010.06.28 04:50:58.
