data_PCOD8122585
_publ_section_title
;
Structure prediction by ZEFSAII (Michael W. Deem and Ramdas Pophale) SiO2 
 PCOD8122585
Probable space group: P 2/C
;
_chemical_formula_sum "Si O2"
_cell_formula_units_Z 28
_cell_length_a 13.330091
_cell_length_b 8.216975
_cell_length_c 14.554893
_cell_angle_alpha 90.000000
_cell_angle_beta 53.743212
_cell_angle_gamma 90.000000
_cell_volume 1285.555724
_symmetry_space_group_name_H-M "P 2/C"
_symmetry_group_IT_number 13
_symmetry_cell_setting 'monoclinic'
loop_
_space_group_symop_operation_xyz
x,y,z
-x,y,1/2-z
-x,-y,-z
x,-y,1/2+z
loop_
_atom_site_type_symbol
_atom_site_label
_atom_site_fract_x
_atom_site_fract_y
_atom_site_fract_z
Si Si1 0.044117 0.882021 0.555433
Si Si2 0.767833 0.066904 0.924044
Si Si3 0.737730 0.362197 0.603533
Si Si4 0.626198 0.431438 0.322767
Si Si5 0.776109 0.120293 0.240205
Si Si6 0.632300 0.961955 0.159245
Si Si7 0.654065 0.412564 0.998759
O O1 0.130037 0.735063 0.469155
O O2 0.916203 0.808025 0.665565
O O3 0.105854 0.994349 0.600848
O O4 0.000000 0.000000 0.500000
O O5 0.761626 0.029297 0.819374
O O6 0.744801 0.257083 0.956551
O O7 0.656678 0.975464 0.037563
O O8 0.713521 0.501463 0.692678
O O9 0.630861 0.229652 0.683039
O O10 0.726942 0.441262 0.508763
O O11 0.684162 0.261031 0.322459
O O12 0.480804 0.396697 0.377084
O O13 0.632779 0.556487 0.403068
O O14 0.739363 0.054597 0.158797
O O15 0.500000 0.042540 0.250000
#
# Coordination Sequence:
#
# PCOD8122585 Si02
#       7
#     4   4   4   4   4   4   4
#     4  11  24  47  68  94 129 177 226 282 328 403
#     4  11  24  42  68  96 133 180 227 280 333 400
#     4  11  23  42  67  93 134 172 218 276 344 396
#     4  11  24  41  67  98 137 174 216 278 340 406
#     4  12  24  44  68  97 134 178 233 277 332 403
#     4  11  22  39  66  96 130 174 224 275 336 400
#     4  11  24  42  63 102 137 170 220 275 342 405
#
# _framework density 21.780465
#
# number of rings (size 3 to 8) (size 9 to 14) (size 15 to 20)
#    0.000    0.857    2.857    6.000    0.000    5.143 
#    0.000    0.000    0.000    0.000    0.000    0.000 
#    0.000    0.000    0.000    0.000    0.000    0.000 
#
# Total GULP energy -347031.011749 kJ/mol
# GULP energy per Si atom -12393.964705 kJ/mol
# Density = 2.173089 g / cm^3
# Si number density = 21.780465 Si / 1000 Ang^3
#
#
#
# Elastic Constant Matrix: (Units=GPa)
#
#
# Indices 1 2 3 4 5 6 
#
# 1 85.1298 37.2494 41.8625 0.0000 -20.4062 0.0000
# 2 37.2494 98.8841 20.2673 0.0000 -12.8230 0.0000
# 3 41.8625 20.2673 100.1520 0.0000 -11.5646 0.0000
# 4 0.0000 0.0000 0.0000 36.7656 0.0000 1.9275
# 5 -20.4062 -12.8230 -11.5646 0.0000 42.3621 0.0000
# 6 0.0000 0.0000 0.0000 1.9275 0.0000 34.7188
#
#
#
# Elastic Compliance Matrix: (Units=1/GPa)
#
#
# Indices 1 2 3 4 5 6 
#
# 1 0.018167 -0.004892 -0.005952 0.000000 0.005646 0.000000
# 2 -0.004892 0.012174 -0.000274 0.000000 0.001254 0.000000
# 3 -0.005952 -0.000274 0.012584 0.000000 0.000485 0.000000
# 4 0.000000 0.000000 0.000000 0.027279 0.000000 -0.001514
# 5 0.005646 0.001254 0.000485 0.000000 0.026838 0.000000
# 6 0.000000 0.000000 0.000000 -0.001514 0.000000 0.028887
#
#
# Mechanical properties :
#
#
# Convention : Reuss Voigt Hill
#
# Bulk Modulus (GPa) = 48.33164 53.65826 50.99495
# Shear Modulus (GPa) = 32.24528 35.08841 33.66685
#
# Velocity S-wave (km/s) = 3.85186 4.01809 3.93585
# Velocity P-wave (km/s) = 6.48236 6.79824 6.64218
#
# Compressibility (1/GPa) = 0.02069038
#
# Stress axis : x y z
#
# Youngs Moduli (GPa) = 55.04394 82.14024 79.46469
#
# Poissons Ratio (x) = 0.40179 0.47297
# Poissons Ratio (y) = 0.26925 0.02179
# Poissons Ratio (z) = 0.32762 0.02253
#
# Static dielectric constant tensor:
#      x y z
#    x 4.096310 0.000000 -0.226000 
#    y 0.000000 3.828750 0.000000 
#    z -0.226000 0.000000 4.030040 
# 
# 
# High freq. dielectric constant tensor:
#      x y z
#    x 1.853100 0.000000 -0.000320 
#    y 0.000000 1.853140 0.000000 
#    z -0.000320 0.000000 1.864890 
# 
# From -- ./inp_files/50236.got.cif
#   From: 2010.06.25/outbox.cif.g09.slc.cpg/sg13_26_cif.got.tgz:50236.got - 2010.06.28 04:50:58.
