data_PCOD8122460
_publ_section_title
;
Structure prediction by ZEFSAII (Michael W. Deem and Ramdas Pophale) SiO2 
 PCOD8122460
Probable space group: P 2/C
;
_chemical_formula_sum "Si O2"
_cell_formula_units_Z 26
_cell_length_a 8.233290
_cell_length_b 9.021052
_cell_length_c 19.244770
_cell_angle_alpha 90.000000
_cell_angle_beta 72.091089
_cell_angle_gamma 90.000000
_cell_volume 1360.107957
_symmetry_space_group_name_H-M "P 2/C"
_symmetry_group_IT_number 13
_symmetry_cell_setting 'monoclinic'
loop_
_space_group_symop_operation_xyz
x,y,z
-x,y,1/2-z
-x,-y,-z
x,-y,1/2+z
loop_
_atom_site_type_symbol
_atom_site_label
_atom_site_fract_x
_atom_site_fract_y
_atom_site_fract_z
Si Si1 0.806063 0.916947 0.300476
Si Si2 0.312228 0.562529 0.523766
Si Si3 0.500000 0.809697 0.250000
Si Si4 0.705549 0.959804 0.535482
Si Si5 0.649025 0.849478 0.908535
Si Si6 0.876774 0.267572 0.919877
Si Si7 0.749000 0.250135 0.605356
O O1 0.661039 0.900839 0.260544
O O2 0.777413 0.794301 0.365149
O O3 0.000000 0.905845 0.250000
O O4 0.778974 0.079906 0.336295
O O5 0.500000 0.500000 0.500000
O O6 0.295984 0.679409 0.589070
O O7 0.182521 0.430979 0.553649
O O8 0.268978 0.642846 0.457615
O O9 0.413196 0.714918 0.323238
O O10 0.548680 0.865403 0.588708
O O11 0.847599 0.842381 0.490051
O O12 0.650737 0.067227 0.481194
O O13 0.765642 0.073414 0.587169
O O14 0.076471 0.284610 0.877178
#
# Coordination Sequence:
#
# PCOD8122460 Si02
#       7
#     4   4   2   4   4   4   4
#     4  11  22  40  63  88 116 158 205 249 303 366
#     4  11  21  37  60  86 121 159 199 250 311 364
#     4  12  22  38  62  88 120 152 204 246 302 372
#     4   9  17  33  58  87 113 145 196 254 297 339
#     4   9  18  34  58  85 113 152 195 245 302 349
#     4  11  21  37  62  91 119 156 203 253 306 363
#     4  11  22  36  59  91 119 158 203 253 302 367
#
# _framework density 19.116129999999998
#
# number of rings (size 3 to 8) (size 9 to 14) (size 15 to 20)
#    0.000    1.538    4.615    1.846    0.000    0.000 
#    0.000    0.769    0.000    1.846    0.000    0.000 
#    0.000    0.000    0.000    0.000    0.000    0.000 
#
# Total GULP energy -322201.608588 kJ/mol
# GULP energy per Si atom -12392.369561 kJ/mol
# Density = 1.907262 g / cm^3
# Si number density = 19.116130 Si / 1000 Ang^3
#
#
#
# Elastic Constant Matrix: (Units=GPa)
#
#
# Indices 1 2 3 4 5 6 
#
# 1 118.2615 39.2859 37.3842 0.0000 -9.3412 0.0000
# 2 39.2859 125.5157 48.6669 0.0000 -5.2476 0.0000
# 3 37.3842 48.6669 92.2104 0.0000 -13.7897 0.0000
# 4 0.0000 0.0000 0.0000 21.9924 0.0000 -6.5814
# 5 -9.3412 -5.2476 -13.7897 0.0000 35.2376 0.0000
# 6 0.0000 0.0000 0.0000 -6.5814 0.0000 22.1513
#
#
#
# Elastic Compliance Matrix: (Units=1/GPa)
#
#
# Indices 1 2 3 4 5 6 
#
# 1 0.010126 -0.002009 -0.002855 0.000000 0.001268 0.000000
# 2 -0.002009 0.010428 -0.004819 0.000000 -0.000865 0.000000
# 3 -0.002855 -0.004819 0.015215 0.000000 0.004480 0.000000
# 4 0.000000 0.000000 0.000000 0.049908 0.000000 0.014828
# 5 0.001268 -0.000865 0.004480 0.000000 0.030339 0.000000
# 6 0.000000 0.000000 0.000000 0.014828 0.000000 0.049550
#
#
# Mechanical properties :
#
#
# Convention : Reuss Voigt Hill
#
# Bulk Modulus (GPa) = 60.96312 65.18460 63.07386
# Shear Modulus (GPa) = 26.26048 29.91964 28.09006
#
# Velocity S-wave (km/s) = 3.71041 3.96049 3.83749
# Velocity P-wave (km/s) = 7.09340 7.42208 7.25960
#
# Compressibility (1/GPa) = 0.01640336
#
# Stress axis : x y z
#
# Youngs Moduli (GPa) = 98.75521 95.89385 65.72263
#
# Poissons Ratio (x) = 0.19268 0.18766
# Poissons Ratio (y) = 0.19843 0.31669
# Poissons Ratio (z) = 0.28197 0.46207
#
# Static dielectric constant tensor:
#      x y z
#    x 3.564080 0.000000 -0.056070 
#    y 0.000000 4.451960 0.000000 
#    z -0.056070 0.000000 3.375980 
# 
# 
# High freq. dielectric constant tensor:
#      x y z
#    x 1.750840 0.000000 -0.011630 
#    y 0.000000 1.725100 0.000000 
#    z -0.011630 0.000000 1.731540 
# 
# From -- ./inp_files/75219.got.cif
#   From: 2010.06.25/outbox.cif.g09.slc.cpg/sg13_38_cif.got.tgz:75219.got - 2010.06.28 04:50:58.
