data_PCOD8122264
_publ_section_title
;
Structure prediction by ZEFSAII (Michael W. Deem and Ramdas Pophale) SiO2 
 PCOD8122264
Probable space group: P 2/C
;
_chemical_formula_sum "Si O2"
_cell_formula_units_Z 32
_cell_length_a 12.041906
_cell_length_b 10.643323
_cell_length_c 12.539871
_cell_angle_alpha 90.000000
_cell_angle_beta 104.518274
_cell_angle_gamma 90.000000
_cell_volume 1555.862772
_symmetry_space_group_name_H-M "P 2/C"
_symmetry_group_IT_number 13
_symmetry_cell_setting 'monoclinic'
loop_
_space_group_symop_operation_xyz
x,y,z
-x,y,1/2-z
-x,-y,-z
x,-y,1/2+z
loop_
_atom_site_type_symbol
_atom_site_label
_atom_site_fract_x
_atom_site_fract_y
_atom_site_fract_z
Si Si1 0.066119 0.090607 0.095195
Si Si2 0.396157 0.064847 0.666940
Si Si3 0.229344 0.776674 0.477781
Si Si4 0.030155 0.603005 0.374544
Si Si5 0.471614 0.799669 0.622603
Si Si6 0.303799 0.793905 0.954934
Si Si7 0.919386 0.669772 0.556649
Si Si8 0.217483 0.982496 0.299729
O O1 0.098961 0.008435 0.207439
O O2 0.988194 0.207637 0.113025
O O3 0.180174 0.139383 0.062640
O O4 0.000000 0.000000 0.000000
O O5 0.500000 0.137515 0.750000
O O6 0.331170 0.165655 0.581447
O O7 0.449744 0.949752 0.610514
O O8 0.317228 0.006278 0.738061
O O9 0.154721 0.651151 0.443566
O O10 0.358231 0.735726 0.543249
O O11 0.221076 0.851409 0.363724
O O12 0.028376 0.452160 0.373759
O O13 0.000000 0.653263 0.250000
O O14 0.933626 0.656603 0.431843
O O15 0.500000 0.755320 0.750000
O O16 0.580567 0.757082 0.578765
O O17 0.214937 0.678514 0.943585
O O18 0.234513 0.907202 0.887059
#
# Coordination Sequence:
#
# PCOD8122264 Si02
#       8
#     4   4   4   4   4   4   4   4
#     4  11  23  38  58  96 136 158 209 268 331 391
#     4  11  20  34  54  90 135 165 201 244 323 399
#     4  11  23  38  63  91 127 173 216 266 320 384
#     4  10  25  48  68  88 126 172 220 266 320 382
#     4  11  20  40  59  93 131 174 211 263 331 394
#     4  12  22  37  63  93 130 161 214 265 317 396
#     4  10  25  45  65  95 123 169 218 263 321 394
#     4  12  21  33  59  94 130 168 202 261 326 393
#
# _framework density 20.567364999999999
#
# number of rings (size 3 to 8) (size 9 to 14) (size 15 to 20)
#    0.000    1.000    5.000    2.625    7.000    1.000 
#    2.250    0.625    0.000    0.750    0.000    0.000 
#    0.000    0.000    0.000    0.000    0.000    0.000 
#
# Total GULP energy -396762.204644 kJ/mol
# GULP energy per Si atom -12398.818895 kJ/mol
# Density = 2.052055 g / cm^3
# Si number density = 20.567365 Si / 1000 Ang^3
#
#
#
# Elastic Constant Matrix: (Units=GPa)
#
#
# Indices 1 2 3 4 5 6 
#
# 1 141.7973 33.1622 37.9289 0.0000 -0.3504 0.0000
# 2 33.1622 62.6882 25.3479 0.0000 7.5314 0.0000
# 3 37.9289 25.3479 120.6034 0.0000 17.7562 0.0000
# 4 0.0000 0.0000 0.0000 14.9378 0.0000 -0.2322
# 5 -0.3504 7.5314 17.7562 0.0000 36.4466 0.0000
# 6 0.0000 0.0000 0.0000 -0.2322 0.0000 24.8741
#
#
#
# Elastic Compliance Matrix: (Units=1/GPa)
#
#
# Indices 1 2 3 4 5 6 
#
# 1 0.008541 -0.003879 -0.002155 0.000000 0.001934 0.000000
# 2 -0.003879 0.019326 -0.002422 0.000000 -0.002851 0.000000
# 3 -0.002155 -0.002422 0.010135 0.000000 -0.004458 0.000000
# 4 0.000000 0.000000 0.000000 0.066954 0.000000 0.000625
# 5 0.001934 -0.002851 -0.004458 0.000000 0.030217 0.000000
# 6 0.000000 0.000000 0.000000 0.000625 0.000000 0.040208
#
#
# Mechanical properties :
#
#
# Convention : Reuss Voigt Hill
#
# Bulk Modulus (GPa) = 47.41945 57.55188 52.48566
# Shear Modulus (GPa) = 25.08485 30.49501 27.78993
#
# Velocity S-wave (km/s) = 3.49613 3.85475 3.67981
# Velocity P-wave (km/s) = 6.27718 6.91773 6.60522
#
# Compressibility (1/GPa) = 0.02108839
#
# Stress axis : x y z
#
# Youngs Moduli (GPa) = 117.08489 51.74427 98.66875
#
# Poissons Ratio (x) = 0.20071 0.21268
# Poissons Ratio (y) = 0.45416 0.23900
# Poissons Ratio (z) = 0.25237 0.12534
#
# Static dielectric constant tensor:
#      x y z
#    x 3.910530 0.000000 0.015170 
#    y 0.000000 3.300150 0.000000 
#    z 0.015170 0.000000 3.897420 
# 
# 
# High freq. dielectric constant tensor:
#      x y z
#    x 1.818280 0.000000 -0.000210 
#    y 0.000000 1.755770 0.000000 
#    z -0.000210 0.000000 1.819010 
# 
# From -- ./inp_files/34164.got.cif
#   From: 2010.06.25/outbox.cif.g09.slc.cpg/sg13_18_cif.got.tgz:34164.got - 2010.06.28 04:50:58.
