data_PCOD8122832
_publ_section_title
;
Structure prediction by ZEFSAII (Michael W. Deem and Ramdas Pophale) SiO2 
 PCOD8122832
Probable space group: P 2/C
;
_chemical_formula_sum "Si O2"
_cell_formula_units_Z 20
_cell_length_a 16.585078
_cell_length_b 5.821600
_cell_length_c 8.282587
_cell_angle_alpha 90.000000
_cell_angle_beta 59.054804
_cell_angle_gamma 90.000000
_cell_volume 685.868430
_symmetry_space_group_name_H-M "P 2/C"
_symmetry_group_IT_number 13
_symmetry_cell_setting 'monoclinic'
loop_
_space_group_symop_operation_xyz
x,y,z
-x,y,1/2-z
-x,-y,-z
x,-y,1/2+z
loop_
_atom_site_type_symbol
_atom_site_label
_atom_site_fract_x
_atom_site_fract_y
_atom_site_fract_z
Si Si1 0.076094 0.787998 0.430619
Si Si2 0.563228 0.161588 0.540707
Si Si3 0.734985 0.845973 0.392611
Si Si4 0.881846 0.296127 0.243197
Si Si5 0.709062 0.568828 0.730917
O O1 0.155985 0.945084 0.241810
O O2 0.079921 0.555078 0.323423
O O3 0.118103 0.745727 0.564893
O O4 0.963447 0.859774 0.563550
O O5 0.500000 0.263186 0.750000
O O6 0.653261 0.022754 0.518392
O O7 0.500000 0.000000 0.500000
O O8 0.601952 0.368082 0.390981
O O9 0.731500 0.636975 0.524627
O O10 0.719018 0.706892 0.240472
O O11 0.778495 0.277007 0.269668
#
# Coordination Sequence:
#
# PCOD8122832 Si02
#       5
#     4   4   4   4   4
#     4   9  17  31  56  90 127 164 204 246 303 367
#     4  12  28  48  65  91 124 164 212 266 319 370
#     4  11  24  41  67  97 125 167 208 255 315 373
#     4   9  17  31  56  90 127 165 201 250 301 364
#     4  11  24  41  67  96 127 165 208 258 311 375
#
# _framework density 29.16011
#
# number of rings (size 3 to 8) (size 9 to 14) (size 15 to 20)
#    0.000    1.600    2.000    4.800    5.600    4.000 
#    0.000    1.000    0.000    0.000    0.000    0.000 
#    0.000    0.000    0.000    0.000    0.000    0.000 
#
# Total GULP energy -247928.286902 kJ/mol
# GULP energy per Si atom -12396.414345 kJ/mol
# Density = 2.909374 g / cm^3
# Si number density = 29.160110 Si / 1000 Ang^3
#
#
#
# Elastic Constant Matrix: (Units=GPa)
#
#
# Indices 1 2 3 4 5 6 
#
# 1 93.2322 7.5826 37.5618 0.0000 -22.0656 0.0000
# 2 7.5826 66.2282 37.0047 0.0000 -23.2120 0.0000
# 3 37.5618 37.0047 220.7868 0.0000 -43.2195 0.0000
# 4 0.0000 0.0000 0.0000 49.8870 0.0000 -8.0355
# 5 -22.0656 -23.2120 -43.2195 0.0000 66.0099 0.0000
# 6 0.0000 0.0000 0.0000 -8.0355 0.0000 37.7815
#
#
#
# Elastic Compliance Matrix: (Units=1/GPa)
#
#
# Indices 1 2 3 4 5 6 
#
# 1 0.012057 0.000606 -0.001516 0.000000 0.003251 0.000000
# 2 0.000606 0.018018 -0.002114 0.000000 0.005154 0.000000
# 3 -0.001516 -0.002114 0.005617 0.000000 0.002427 0.000000
# 4 0.000000 0.000000 0.000000 0.020756 0.000000 0.004415
# 5 0.003251 0.005154 0.002427 0.000000 0.019638 0.000000
# 6 0.000000 0.000000 0.000000 0.004415 0.000000 0.027407
#
#
# Mechanical properties :
#
#
# Convention : Reuss Voigt Hill
#
# Bulk Modulus (GPa) = 33.73516 60.50504 47.12010
# Shear Modulus (GPa) = 41.86857 50.60890 46.23873
#
# Velocity S-wave (km/s) = 3.79333 4.17052 3.98639
# Velocity P-wave (km/s) = 5.54796 6.63214 6.11413
#
# Compressibility (1/GPa) = 0.02964266
#
# Stress axis : x y z
#
# Youngs Moduli (GPa) = 82.93996 55.50133 178.04076
#
# Poissons Ratio (x) = -0.03365 0.27000
# Poissons Ratio (y) = -0.05028 0.37637
# Poissons Ratio (z) = 0.12578 0.11733
#
# Static dielectric constant tensor:
#      x y z
#    x 5.424060 0.000000 -0.758190 
#    y 0.000000 5.806420 0.000000 
#    z -0.758190 0.000000 6.253810 
# 
# 
# High freq. dielectric constant tensor:
#      x y z
#    x 2.178170 0.000000 -0.040760 
#    y 0.000000 2.237680 0.000000 
#    z -0.040760 0.000000 2.224860 
# 
# From -- ./inp_files/21035.got.cif
#   From: 2010.06.25/outbox.cif.g09.slc.cpg/sg13_11_cif.got.tgz:21035.got - 2010.06.28 04:50:58.
