data_PCOD8122426
_publ_section_title
;
Structure prediction by ZEFSAII (Michael W. Deem and Ramdas Pophale) SiO2 
 PCOD8122426
Probable space group: P 2/C
;
_chemical_formula_sum "Si O2"
_cell_formula_units_Z 28
_cell_length_a 17.043637
_cell_length_b 9.195369
_cell_length_c 16.468291
_cell_angle_alpha 90.000000
_cell_angle_beta 150.786085
_cell_angle_gamma 90.000000
_cell_volume 1259.689611
_symmetry_space_group_name_H-M "P 2/C"
_symmetry_group_IT_number 13
_symmetry_cell_setting 'monoclinic'
loop_
_space_group_symop_operation_xyz
x,y,z
-x,y,1/2-z
-x,-y,-z
x,-y,1/2+z
loop_
_atom_site_type_symbol
_atom_site_label
_atom_site_fract_x
_atom_site_fract_y
_atom_site_fract_z
Si Si1 0.084798 0.071759 0.250658
Si Si2 0.420378 0.185183 0.892055
Si Si3 0.098461 0.223300 0.959611
Si Si4 0.204568 0.592688 0.269140
Si Si5 0.420869 0.032852 0.055000
Si Si6 0.637176 0.676735 0.925286
Si Si7 0.222714 0.267109 0.242807
O O1 0.259419 0.034689 0.445714
O O2 0.097560 0.178296 0.185581
O O3 0.000000 0.152566 0.250000
O O4 0.984026 0.928181 0.137035
O O5 0.434076 0.087619 0.820902
O O6 0.594902 0.253274 0.064657
O O7 0.288476 0.313265 0.772097
O O8 0.367653 0.073858 0.914930
O O9 0.964670 0.341745 0.859347
O O10 0.200747 0.285694 0.976651
O O11 0.210148 0.206987 0.139881
O O12 0.319229 0.590817 0.452967
O O13 0.173800 0.434936 0.205313
O O14 0.465089 0.176348 0.144687
O O15 0.500000 0.588239 0.750000
#
# Coordination Sequence:
#
# PCOD8122426 Si02
#       7
#     4   4   4   4   4   4   4
#     4  11  20  39  62  90 124 162 205 260 314 366
#     4   9  18  35  60  81 122 159 208 246 312 364
#     4  12  21  40  64  92 123 166 211 257 309 381
#     4  11  22  41  60  90 128 171 206 257 315 376
#     4   9  17  34  57  89 112 159 202 261 303 362
#     4  11  22  38  65  90 119 164 221 259 313 378
#     4  11  25  37  61  95 128 163 208 256 314 376
#
# _framework density 22.227696999999999
#
# number of rings (size 3 to 8) (size 9 to 14) (size 15 to 20)
#    0.000    1.429    4.286    3.429    0.000    1.143 
#    2.571    0.000    0.000    3.429    0.000    0.000 
#    0.000    0.000    0.000    0.000    0.000    0.000 
#
# Total GULP energy -347003.989193 kJ/mol
# GULP energy per Si atom -12392.999614 kJ/mol
# Density = 2.217711 g / cm^3
# Si number density = 22.227697 Si / 1000 Ang^3
#
#
#
# Elastic Constant Matrix: (Units=GPa)
#
#
# Indices 1 2 3 4 5 6 
#
# 1 113.4692 30.1335 8.3714 0.0000 16.6734 0.0000
# 2 30.1335 78.6178 1.5992 0.0000 11.9794 0.0000
# 3 8.3714 1.5992 36.6223 0.0000 6.0973 0.0000
# 4 0.0000 0.0000 0.0000 13.5552 0.0000 -1.4823
# 5 16.6734 11.9794 6.0973 0.0000 39.3652 0.0000
# 6 0.0000 0.0000 0.0000 -1.4823 0.0000 21.0744
#
#
#
# Elastic Compliance Matrix: (Units=1/GPa)
#
#
# Indices 1 2 3 4 5 6 
#
# 1 0.010303 -0.003449 -0.001696 0.000000 -0.003051 0.000000
# 2 -0.003449 0.014494 0.000664 0.000000 -0.003052 0.000000
# 3 -0.001696 0.000664 0.028309 0.000000 -0.003868 0.000000
# 4 0.000000 0.000000 0.000000 0.074344 0.000000 0.005229
# 5 -0.003051 -0.003052 -0.003868 0.000000 0.028224 0.000000
# 6 0.000000 0.000000 0.000000 0.005229 0.000000 0.047819
#
#
# Mechanical properties :
#
#
# Convention : Reuss Voigt Hill
#
# Bulk Modulus (GPa) = 22.65490 34.32416 28.48953
# Shear Modulus (GPa) = 22.01009 27.37265 24.69137
#
# Velocity S-wave (km/s) = 3.15017 3.51303 3.33654
# Velocity P-wave (km/s) = 4.84208 5.65073 5.26197
#
# Compressibility (1/GPa) = 0.04414057
#
# Stress axis : x y z
#
# Youngs Moduli (GPa) = 97.06364 68.99644 35.32498
#
# Poissons Ratio (x) = 0.23800 0.05993
# Poissons Ratio (y) = 0.33481 -0.02345
# Poissons Ratio (z) = 0.16466 -0.04580
#
# Static dielectric constant tensor:
#      x y z
#    x 4.494760 0.000000 0.167740 
#    y 0.000000 3.911970 0.000000 
#    z 0.167740 0.000000 3.785140 
# 
# 
# High freq. dielectric constant tensor:
#      x y z
#    x 1.892990 0.000000 0.023580 
#    y 0.000000 1.851160 0.000000 
#    z 0.023580 0.000000 1.857890 
# 
# From -- ./inp_files/69703.got.cif
#   From: 2010.06.25/outbox.cif.g09.slc.cpg/sg13_35_cif.got.tgz:69703.got - 2010.06.28 04:50:58.
