data_PCOD8122898
_publ_section_title
;
Structure prediction by ZEFSAII (Michael W. Deem and Ramdas Pophale) SiO2 
 PCOD8122898
Probable space group: P 2/C
;
_chemical_formula_sum "Si O2"
_cell_formula_units_Z 12
_cell_length_a 8.554311
_cell_length_b 9.194639
_cell_length_c 12.762368
_cell_angle_alpha 90.000000
_cell_angle_beta 32.079969
_cell_angle_gamma 90.000000
_cell_volume 533.125229
_symmetry_space_group_name_H-M "P 2/C"
_symmetry_group_IT_number 13
_symmetry_cell_setting 'monoclinic'
loop_
_space_group_symop_operation_xyz
x,y,z
-x,y,1/2-z
-x,-y,-z
x,-y,1/2+z
loop_
_atom_site_type_symbol
_atom_site_label
_atom_site_fract_x
_atom_site_fract_y
_atom_site_fract_z
Si Si1 0.163463 0.151869 0.405957
Si Si2 0.255634 0.347202 0.177077
Si Si3 0.682677 0.639232 0.251993
O O1 0.500000 0.136791 0.250000
O O2 0.162352 0.197957 0.284818
O O3 0.989793 0.272722 0.573578
O O4 0.000000 0.000000 0.500000
O O5 0.290801 0.464564 0.251501
O O6 0.000000 0.411613 0.250000
O O7 0.533224 0.312294 0.946141
O O8 0.500000 0.675516 0.250000
#
# Coordination Sequence:
#
# PCOD8122898 Si02
#       3
#     4   4   4
#     4  12  28  48  70 100 143 187 232 287 348 417
#     4  11  25  43  77 107 136 182 235 288 347 411
#     4  11  24  46  74 106 141 179 233 288 347 410
#
# _framework density 22.508782
#
# number of rings (size 3 to 8) (size 9 to 14) (size 15 to 20)
#    0.000    0.667    3.333    3.000    9.333    1.333 
#    0.000    0.000    0.000    0.000    0.000    0.000 
#    0.000    0.000    0.000    0.000    0.000    0.000 
#
# Total GULP energy -148737.805941 kJ/mol
# GULP energy per Si atom -12394.817162 kJ/mol
# Density = 2.245755 g / cm^3
# Si number density = 22.508782 Si / 1000 Ang^3
#
#
#
# Elastic Constant Matrix: (Units=GPa)
#
#
# Indices 1 2 3 4 5 6 
#
# 1 97.0644 53.5523 64.6898 0.0000 -14.7947 0.0000
# 2 53.5523 127.8963 109.4364 0.0000 9.7374 0.0000
# 3 64.6898 109.4364 173.2894 0.0000 -12.3722 0.0000
# 4 0.0000 0.0000 0.0000 36.9009 0.0000 -12.8586
# 5 -14.7947 9.7374 -12.3722 0.0000 42.9108 0.0000
# 6 0.0000 0.0000 0.0000 -12.8586 0.0000 27.2097
#
#
#
# Elastic Compliance Matrix: (Units=1/GPa)
#
#
# Indices 1 2 3 4 5 6 
#
# 1 0.015416 -0.005078 -0.002130 0.000000 0.005853 0.000000
# 2 -0.005078 0.021107 -0.012151 0.000000 -0.010044 0.000000
# 3 -0.002130 -0.012151 0.014686 0.000000 0.006257 0.000000
# 4 0.000000 0.000000 0.000000 0.032442 0.000000 0.015331
# 5 0.005853 -0.010044 0.006257 0.000000 0.029405 0.000000
# 6 0.000000 0.000000 0.000000 0.015331 0.000000 0.043997
#
#
# Mechanical properties :
#
#
# Convention : Reuss Voigt Hill
#
# Bulk Modulus (GPa) = 80.05744 94.84524 87.45134
# Shear Modulus (GPa) = 25.00817 32.77571 28.89194
#
# Velocity S-wave (km/s) = 3.33684 3.82007 3.58660
# Velocity P-wave (km/s) = 7.10566 7.85402 7.48920
#
# Compressibility (1/GPa) = 0.01249103
#
# Stress axis : x y z
#
# Youngs Moduli (GPa) = 64.86878 47.37801 68.09075
#
# Poissons Ratio (x) = 0.24057 0.14504
# Poissons Ratio (y) = 0.32939 0.82737
# Poissons Ratio (z) = 0.13818 0.57569
#
# Static dielectric constant tensor:
#      x y z
#    x 3.935920 0.000000 -0.031870 
#    y 0.000000 3.918400 0.000000 
#    z -0.031870 0.000000 4.562870 
# 
# 
# High freq. dielectric constant tensor:
#      x y z
#    x 1.881840 0.000000 -0.000710 
#    y 0.000000 1.872490 0.000000 
#    z -0.000710 0.000000 1.920050 
# 
# From -- ./inp_files/10506.got.cif
#   From: 2010.06.25/outbox.cif.g09.slc.cpg/sg13_6_cif.got.tgz:10506.got - 2010.06.28 04:50:58.
