data_PCOD8122778
_publ_section_title
;
Structure prediction by ZEFSAII (Michael W. Deem and Ramdas Pophale) SiO2 
 PCOD8122778
Probable space group: P 2/C
;
_chemical_formula_sum "Si O2"
_cell_formula_units_Z 18
_cell_length_a 11.987208
_cell_length_b 11.219452
_cell_length_c 11.569943
_cell_angle_alpha 90.000000
_cell_angle_beta 152.737958
_cell_angle_gamma 90.000000
_cell_volume 712.761096
_symmetry_space_group_name_H-M "P 2/C"
_symmetry_group_IT_number 13
_symmetry_cell_setting 'monoclinic'
loop_
_space_group_symop_operation_xyz
x,y,z
-x,y,1/2-z
-x,-y,-z
x,-y,1/2+z
loop_
_atom_site_type_symbol
_atom_site_label
_atom_site_fract_x
_atom_site_fract_y
_atom_site_fract_z
Si Si1 0.500000 0.358150 0.750000
Si Si2 0.024095 0.261340 0.899886
Si Si3 0.579980 0.191485 0.627287
Si Si4 0.269921 0.523806 0.704275
Si Si5 0.321363 0.950277 0.691040
O O1 0.420905 0.273405 0.568949
O O2 0.290334 0.446010 0.605146
O O3 0.000000 0.315830 0.750000
O O4 0.774222 0.278634 0.742518
O O5 0.257149 0.333039 0.168207
O O6 0.070288 0.118875 0.933372
O O7 0.410580 0.115005 0.389219
O O8 0.727284 0.090695 0.837530
O O9 0.000000 0.500000 0.500000
O O10 0.500000 0.500000 0.000000
O O11 0.500000 0.924356 0.750000
#
# Coordination Sequence:
#
# PCOD8122778 Si02
#       5
#     2   4   4   4   4
#     4  12  26  48  80 110 160 200 274 330 404 480
#     4  12  26  46  76 110 154 208 266 335 407 488
#     4  11  24  48  73 114 154 206 261 332 407 489
#     4  12  30  52  78 112 159 210 268 329 400 480
#     4  11  23  44  77 110 157 202 261 328 409 485
#
# _framework density 25.253903000000001
#
# number of rings (size 3 to 8) (size 9 to 14) (size 15 to 20)
#    0.000    0.444    5.556    2.000    4.667    0.000 
#    4.000    0.000    0.000    0.000    0.000    0.000 
#    0.000    0.000    0.000    0.000    0.000    0.000 
#
# Total GULP energy -223011.866341 kJ/mol
# GULP energy per Si atom -12389.548130 kJ/mol
# Density = 2.519642 g / cm^3
# Si number density = 25.253903 Si / 1000 Ang^3
#
#
#
# Elastic Constant Matrix: (Units=GPa)
#
#
# Indices 1 2 3 4 5 6 
#
# 1 186.7268 51.2327 37.1964 0.0000 12.5330 0.0000
# 2 51.2327 139.9760 23.8868 0.0000 3.2041 0.0000
# 3 37.1964 23.8868 96.0220 0.0000 9.7388 0.0000
# 4 0.0000 0.0000 0.0000 43.5962 0.0000 1.0856
# 5 12.5330 3.2041 9.7388 0.0000 30.5547 0.0000
# 6 0.0000 0.0000 0.0000 1.0856 0.0000 47.4759
#
#
#
# Elastic Compliance Matrix: (Units=1/GPa)
#
#
# Indices 1 2 3 4 5 6 
#
# 1 0.006381 -0.001988 -0.001791 0.000000 -0.001838 0.000000
# 2 -0.001988 0.008081 -0.001278 0.000000 0.000375 0.000000
# 3 -0.001791 -0.001278 0.011717 0.000000 -0.002866 0.000000
# 4 0.000000 0.000000 0.000000 0.022951 0.000000 -0.000525
# 5 -0.001838 0.000375 -0.002866 0.000000 0.034356 0.000000
# 6 0.000000 0.000000 0.000000 -0.000525 0.000000 0.021075
#
#
# Mechanical properties :
#
#
# Convention : Reuss Voigt Hill
#
# Bulk Modulus (GPa) = 62.24822 71.92852 67.08837
# Shear Modulus (GPa) = 41.65620 45.01930 43.33775
#
# Velocity S-wave (km/s) = 4.06580 4.22674 4.14706
# Velocity P-wave (km/s) = 6.83692 7.23633 7.03946
#
# Compressibility (1/GPa) = 0.01606472
#
# Stress axis : x y z
#
# Youngs Moduli (GPa) = 156.71688 123.74409 85.34833
#
# Poissons Ratio (x) = 0.24598 0.15285
# Poissons Ratio (y) = 0.31152 0.10911
# Poissons Ratio (z) = 0.28066 0.15819
#
# Static dielectric constant tensor:
#      x y z
#    x 4.819620 0.000000 -0.209780 
#    y 0.000000 5.763920 0.000000 
#    z -0.209780 0.000000 4.075830 
# 
# 
# High freq. dielectric constant tensor:
#      x y z
#    x 2.022810 0.000000 -0.010280 
#    y 0.000000 2.043700 0.000000 
#    z -0.010280 0.000000 1.965360 
# 
# From -- ./inp_files/34114.got.cif
#   From: 2010.06.25/outbox.cif.g09.slc.cpg/sg13_18_cif.got.tgz:34114.got - 2010.06.28 04:50:58.
