data_PCOD8122319
_publ_section_title
;
Structure prediction by ZEFSAII (Michael W. Deem and Ramdas Pophale) SiO2 
 PCOD8122319
Probable space group: P 2/C
;
_chemical_formula_sum "Si O2"
_cell_formula_units_Z 22
_cell_length_a 11.918256
_cell_length_b 5.526000
_cell_length_c 29.034103
_cell_angle_alpha 90.000000
_cell_angle_beta 30.701240
_cell_angle_gamma 90.000000
_cell_volume 976.292806
_symmetry_space_group_name_H-M "P 2/C"
_symmetry_group_IT_number 13
_symmetry_cell_setting 'monoclinic'
loop_
_space_group_symop_operation_xyz
x,y,z
-x,y,1/2-z
-x,-y,-z
x,-y,1/2+z
loop_
_atom_site_type_symbol
_atom_site_label
_atom_site_fract_x
_atom_site_fract_y
_atom_site_fract_z
Si Si1 0.322304 0.181344 0.851932
Si Si2 0.084541 0.281982 0.563222
Si Si3 0.091149 0.398138 0.299453
Si Si4 0.757628 0.993926 0.905948
Si Si5 0.580933 0.308798 0.130683
Si Si6 0.000000 0.281611 0.750000
O O1 0.500000 0.139875 0.750000
O O2 0.368882 0.442092 0.859396
O O3 0.078868 0.175644 0.917057
O O4 0.322949 0.943050 0.883759
O O5 0.132382 0.095318 0.586848
O O6 0.311742 0.352053 0.457587
O O7 0.961629 0.506757 0.630698
O O8 0.319901 0.253720 0.220785
O O9 0.130379 0.588669 0.245038
O O10 0.870624 0.264814 0.360120
O O11 0.806145 0.131725 0.841782
O O12 0.500000 0.000000 0.000000
#
# Coordination Sequence:
#
# PCOD8122319 Si02
#       6
#     4   4   4   4   4   2
#     4  12  25  49  73 111 150 195 244 306 370 444
#     4  11  27  45  72 109 144 192 251 301 371 447
#     4  11  26  47  72 107 147 193 250 308 374 450
#     4  11  27  46  75 104 147 194 248 311 370 450
#     4  12  28  45  81 105 153 194 244 306 375 443
#     4  10  26  46  70 108 144 188 252 304 378 430
#
# _framework density 22.534223000000001
#
# number of rings (size 3 to 8) (size 9 to 14) (size 15 to 20)
#    0.000    0.727    1.818    3.273   15.273    1.455 
#    0.000    0.000    0.000    0.000    0.000    0.000 
#    0.000    0.000    0.000    0.000    0.000    0.000 
#
# Total GULP energy -272640.235452 kJ/mol
# GULP energy per Si atom -12392.737975 kJ/mol
# Density = 2.248293 g / cm^3
# Si number density = 22.534223 Si / 1000 Ang^3
#
#
#
# Elastic Constant Matrix: (Units=GPa)
#
#
# Indices 1 2 3 4 5 6 
#
# 1 91.6276 46.3511 60.6684 0.0000 -1.4359 0.0000
# 2 46.3511 120.4876 48.6264 0.0000 -0.1336 0.0000
# 3 60.6684 48.6264 189.0389 0.0000 -2.6486 0.0000
# 4 0.0000 0.0000 0.0000 16.8747 0.0000 16.3767
# 5 -1.4359 -0.1336 -2.6486 0.0000 53.6054 0.0000
# 6 0.0000 0.0000 0.0000 16.3767 0.0000 -72.4044
#
#
#
# Elastic Compliance Matrix: (Units=1/GPa)
#
#
# Indices 1 2 3 4 5 6 
#
# 1 0.015775 -0.004493 -0.003904 0.000000 0.000218 0.000000
# 2 -0.004493 0.010541 -0.001272 0.000000 -0.000157 0.000000
# 3 -0.003904 -0.001272 0.006873 0.000000 0.000232 0.000000
# 4 0.000000 0.000000 0.000000 0.048594 0.000000 0.010991
# 5 0.000218 -0.000157 0.000232 0.000000 0.018672 0.000000
# 6 0.000000 0.000000 0.000000 0.010991 0.000000 -0.011325
#
#
# Mechanical properties :
#
#
# Convention : Reuss Voigt Hill
#
# Bulk Modulus (GPa) = 72.19100 79.16065 75.67582
# Shear Modulus (GPa) = 44.21531 15.98235 30.09883
#
# Velocity S-wave (km/s) = 4.43441 2.66606 3.65868
# Velocity P-wave (km/s) = 7.63704 6.68450 7.17659
#
# Compressibility (1/GPa) = 0.01385214
#
# Stress axis : x y z
#
# Youngs Moduli (GPa) = 63.39274 94.86730 145.49293
#
# Poissons Ratio (x) = 0.42621 0.56798
# Poissons Ratio (y) = 0.28480 0.18504
# Poissons Ratio (z) = 0.24748 0.12065
#
# Static dielectric constant tensor:
#      x y z
#    x 4.042970 0.000000 0.140130 
#    y 0.000000 4.137470 0.000000 
#    z 0.140130 0.000000 4.270340 
# 
# 
# High freq. dielectric constant tensor:
#      x y z
#    x 1.894710 0.000000 0.009390 
#    y 0.000000 1.885820 0.000000 
#    z 0.009390 0.000000 1.913790 
# 
# From -- ./inp_files/48832.got.cif
#   From: 2010.06.25/outbox.cif.g09.slc.cpg/sg13_25_cif.got.tgz:48832.got - 2010.06.28 04:50:58.
