data_PCOD8122163
_publ_section_title
;
Structure prediction by ZEFSAII (Michael W. Deem and Ramdas Pophale) SiO2 
 PCOD8122163
Probable space group: P 2/C
;
_chemical_formula_sum "Si O2"
_cell_formula_units_Z 32
_cell_length_a 12.200580
_cell_length_b 8.621186
_cell_length_c 31.361599
_cell_angle_alpha 90.000000
_cell_angle_beta 25.602077
_cell_angle_gamma 90.000000
_cell_volume 1425.438516
_symmetry_space_group_name_H-M "P 2/C"
_symmetry_group_IT_number 13
_symmetry_cell_setting 'monoclinic'
loop_
_space_group_symop_operation_xyz
x,y,z
-x,y,1/2-z
-x,-y,-z
x,-y,1/2+z
loop_
_atom_site_type_symbol
_atom_site_label
_atom_site_fract_x
_atom_site_fract_y
_atom_site_fract_z
Si Si1 0.540274 0.267590 0.879618
Si Si2 0.969880 0.827375 0.711293
Si Si3 0.025198 0.166786 0.825770
Si Si4 0.870987 0.838286 0.036548
Si Si5 0.517661 0.821057 0.004634
Si Si6 0.949080 0.692028 0.094268
Si Si7 0.475884 0.389234 0.378299
Si Si8 0.275993 0.382046 0.356330
O O1 0.830472 0.244287 0.764426
O O2 0.387979 0.160977 0.899064
O O3 0.468969 0.197955 0.949740
O O4 0.498461 0.451439 0.896019
O O5 0.233700 0.742795 0.604477
O O6 0.000000 0.876018 0.750000
O O7 0.732352 0.712996 0.787604
O O8 0.951353 0.980242 0.687962
O O9 0.745553 0.245134 0.921400
O O10 0.132580 0.219608 0.834055
O O11 0.802469 0.768213 0.106294
O O12 0.061939 0.741934 0.940225
O O13 0.000000 0.000000 0.000000
O O14 0.500000 0.000000 0.000000
O O15 0.851542 0.515339 0.128041
O O16 0.252111 0.708287 0.979470
O O17 0.390688 0.440990 0.360875
O O18 0.500000 0.305013 0.250000
#
# Coordination Sequence:
#
# PCOD8122163 Si02
#       8
#     4   4   4   4   4   4   4   4
#     4  12  24  44  71 102 144 184 240 292 364 433
#     4  11  25  46  73 104 141 187 243 304 368 434
#     4  11  25  42  72 102 139 189 240 298 365 435
#     4  11  26  42  68 104 144 187 239 304 356 432
#     4  10  24  45  70 100 142 182 235 302 365 417
#     4  11  23  46  69  99 147 187 232 290 367 425
#     4  11  24  44  71 103 139 194 233 293 364 441
#     4  11  23  45  70  99 147 191 238 292 367 434
#
# _framework density 22.449231000000001
#
# number of rings (size 3 to 8) (size 9 to 14) (size 15 to 20)
#    0.000    1.000    2.500    4.125    8.750    2.000 
#    0.000    1.875    0.000    0.000    0.000    0.000 
#    0.000    0.000    0.000    0.000    0.000    0.000 
#
# Total GULP energy -396690.880453 kJ/mol
# GULP energy per Si atom -12396.590014 kJ/mol
# Density = 2.239814 g / cm^3
# Si number density = 22.449231 Si / 1000 Ang^3
#
#
#
# Elastic Constant Matrix: (Units=GPa)
#
#
# Indices 1 2 3 4 5 6 
#
# 1 112.9394 47.5026 55.6348 0.0000 8.3117 0.0000
# 2 47.5026 99.4912 19.7100 0.0000 3.7470 0.0000
# 3 55.6348 19.7100 128.8850 0.0000 15.5566 0.0000
# 4 0.0000 0.0000 0.0000 31.9506 0.0000 7.4112
# 5 8.3117 3.7470 15.5566 0.0000 42.2736 0.0000
# 6 0.0000 0.0000 0.0000 7.4112 0.0000 33.2884
#
#
#
# Elastic Compliance Matrix: (Units=1/GPa)
#
#
# Indices 1 2 3 4 5 6 
#
# 1 0.013673 -0.005521 -0.005015 0.000000 -0.000353 0.000000
# 2 -0.005521 0.012600 0.000482 0.000000 -0.000208 0.000000
# 3 -0.005015 0.000482 0.010189 0.000000 -0.002806 0.000000
# 4 0.000000 0.000000 0.000000 0.033003 0.000000 -0.007348
# 5 -0.000353 -0.000208 -0.002806 0.000000 0.024776 0.000000
# 6 0.000000 0.000000 0.000000 -0.007348 0.000000 0.031676
#
#
# Mechanical properties :
#
#
# Convention : Reuss Voigt Hill
#
# Bulk Modulus (GPa) = 61.15493 65.22336 63.18915
# Shear Modulus (GPa) = 33.00830 36.06709 34.53769
#
# Velocity S-wave (km/s) = 3.83868 4.01260 3.92660
# Velocity P-wave (km/s) = 6.85185 7.11229 6.98329
#
# Compressibility (1/GPa) = 0.01635191
#
# Stress axis : x y z
#
# Youngs Moduli (GPa) = 73.13595 79.36621 98.14765
#
# Poissons Ratio (x) = 0.43822 0.49223
# Poissons Ratio (y) = 0.40382 -0.04728
# Poissons Ratio (z) = 0.36679 -0.03823
#
# Static dielectric constant tensor:
#      x y z
#    x 4.059780 0.000000 -0.276620 
#    y 0.000000 4.217160 0.000000 
#    z -0.276620 0.000000 4.669700 
# 
# 
# High freq. dielectric constant tensor:
#      x y z
#    x 1.889330 0.000000 -0.002190 
#    y 0.000000 1.864020 0.000000 
#    z -0.002190 0.000000 1.908410 
# 
# From -- ./inp_files/96684.got.cif
#   From: 2010.06.25/outbox.cif.g09.slc.cpg/sg13_49_cif.got.tgz:96684.got - 2010.06.28 04:50:58.
