data_PCOD8122184
_publ_section_title
;
Structure prediction by ZEFSAII (Michael W. Deem and Ramdas Pophale) SiO2 
 PCOD8122184
Probable space group: P 2/C
;
_chemical_formula_sum "Si O2"
_cell_formula_units_Z 22
_cell_length_a 5.205071
_cell_length_b 10.558336
_cell_length_c 20.019227
_cell_angle_alpha 90.000000
_cell_angle_beta 111.151913
_cell_angle_gamma 90.000000
_cell_volume 1026.071001
_symmetry_space_group_name_H-M "P 2/C"
_symmetry_group_IT_number 13
_symmetry_cell_setting 'monoclinic'
loop_
_space_group_symop_operation_xyz
x,y,z
-x,y,1/2-z
-x,-y,-z
x,-y,1/2+z
loop_
_atom_site_type_symbol
_atom_site_label
_atom_site_fract_x
_atom_site_fract_y
_atom_site_fract_z
Si Si1 0.742058 0.521545 0.826266
Si Si2 0.282857 0.808617 0.368721
Si Si3 0.000000 0.643520 0.250000
Si Si4 0.611768 0.931205 0.576428
Si Si5 0.879561 0.761113 0.916313
Si Si6 0.844854 0.692588 0.428883
O O1 0.500000 0.508615 0.750000
O O2 0.795072 0.667269 0.848294
O O3 0.712788 0.440773 0.891792
O O4 0.990064 0.450356 0.812360
O O5 0.582480 0.775872 0.426748
O O6 0.250931 0.739833 0.292960
O O7 0.027047 0.765676 0.390974
O O8 0.279128 0.960990 0.362174
O O9 0.374368 0.850098 0.588985
O O10 0.868454 0.843209 0.585168
O O11 0.500000 0.000000 0.500000
O O12 0.968292 0.675062 0.987878
#
# Coordination Sequence:
#
# PCOD8122184 Si02
#       6
#     4   4   2   4   4   4
#     4  11  25  44  67  93 135 174 218 268 330 385
#     4  11  22  40  70  92 127 170 223 255 324 378
#     4  10  24  46  66  90 130 178 218 274 314 388
#     4  12  23  43  67  96 136 169 211 272 325 389
#     4  12  25  41  69  99 133 169 214 273 332 382
#     4  11  21  41  68 100 122 170 218 270 315 389
#
# _framework density 21.441013000000002
#
# number of rings (size 3 to 8) (size 9 to 14) (size 15 to 20)
#    0.000    0.727    5.455    2.182    2.545    0.000 
#    3.273    4.545    0.000    0.000    0.000    0.000 
#    0.000    0.000    0.000    0.000    0.000    0.000 
#
# Total GULP energy -272606.545679 kJ/mol
# GULP energy per Si atom -12391.206622 kJ/mol
# Density = 2.139221 g / cm^3
# Si number density = 21.441013 Si / 1000 Ang^3
#
#
#
# Elastic Constant Matrix: (Units=GPa)
#
#
# Indices 1 2 3 4 5 6 
#
# 1 137.8967 71.2196 27.9247 0.0000 5.3974 0.0000
# 2 71.2196 177.5600 73.2706 0.0000 -0.7663 0.0000
# 3 27.9247 73.2706 85.9652 0.0000 0.6549 0.0000
# 4 0.0000 0.0000 0.0000 49.9113 0.0000 4.6775
# 5 5.3974 -0.7663 0.6549 0.0000 23.3519 0.0000
# 6 0.0000 0.0000 0.0000 4.6775 0.0000 32.1411
#
#
#
# Elastic Compliance Matrix: (Units=1/GPa)
#
#
# Indices 1 2 3 4 5 6 
#
# 1 0.009269 -0.003845 0.000283 0.000000 -0.002277 0.000000
# 2 -0.003845 0.010288 -0.007531 0.000000 0.001437 0.000000
# 3 0.000283 -0.007531 0.017965 0.000000 -0.000816 0.000000
# 4 0.000000 0.000000 0.000000 0.020313 0.000000 -0.002956
# 5 -0.002277 0.001437 -0.000816 0.000000 0.043419 0.000000
# 6 0.000000 0.000000 0.000000 -0.002956 0.000000 0.031543
#
#
# Mechanical properties :
#
#
# Convention : Reuss Voigt Hill
#
# Bulk Modulus (GPa) = 65.19615 82.91687 74.05651
# Shear Modulus (GPa) = 31.23171 36.34800 33.78986
#
# Velocity S-wave (km/s) = 3.82073 4.12182 3.97412
# Velocity P-wave (km/s) = 7.06662 7.83636 7.46142
#
# Compressibility (1/GPa) = 0.01533833
#
# Stress axis : x y z
#
# Youngs Moduli (GPa) = 107.88457 97.20370 55.66272
#
# Poissons Ratio (x) = 0.37371 -0.01576
# Poissons Ratio (y) = 0.41477 0.41917
# Poissons Ratio (z) = -0.03055 0.73200
#
# Static dielectric constant tensor:
#      x y z
#    x 3.816700 0.000000 0.099620 
#    y 0.000000 4.022290 0.000000 
#    z 0.099620 0.000000 4.123340 
# 
# 
# High freq. dielectric constant tensor:
#      x y z
#    x 1.841660 0.000000 0.010110 
#    y 0.000000 1.849240 0.000000 
#    z 0.010110 0.000000 1.833400 
# 
# From -- ./inp_files/73145.got.cif
#   From: 2010.06.25/outbox.cif.g09.slc.cpg/sg13_37_cif.got.tgz:73145.got - 2010.06.28 04:50:58.
