data_PCOD8122410
_publ_section_title
;
Structure prediction by ZEFSAII (Michael W. Deem and Ramdas Pophale) SiO2 
 PCOD8122410
Probable space group: P 2/C
;
_chemical_formula_sum "Si O2"
_cell_formula_units_Z 32
_cell_length_a 9.839991
_cell_length_b 14.829197
_cell_length_c 11.154030
_cell_angle_alpha 90.000000
_cell_angle_beta 92.931512
_cell_angle_gamma 90.000000
_cell_volume 1625.456853
_symmetry_space_group_name_H-M "P 2/C"
_symmetry_group_IT_number 13
_symmetry_cell_setting 'monoclinic'
loop_
_space_group_symop_operation_xyz
x,y,z
-x,y,1/2-z
-x,-y,-z
x,-y,1/2+z
loop_
_atom_site_type_symbol
_atom_site_label
_atom_site_fract_x
_atom_site_fract_y
_atom_site_fract_z
Si Si1 0.651237 0.069613 0.120456
Si Si2 0.603113 0.483484 0.846636
Si Si3 0.718639 0.271337 0.161686
Si Si4 0.899884 0.461250 0.841627
Si Si5 0.245186 0.243902 0.068041
Si Si6 0.474705 0.643360 0.507005
Si Si7 0.981273 0.646238 0.565308
Si Si8 0.666797 0.051146 0.392964
O O1 0.716275 0.168201 0.117795
O O2 0.692409 0.022306 0.252404
O O3 0.489593 0.080091 0.104897
O O4 0.702977 0.020467 0.000195
O O5 0.500000 0.528307 0.750000
O O6 0.746561 0.468347 0.787097
O O7 0.612911 0.555883 0.953987
O O8 0.544744 0.386204 0.886085
O O9 0.697891 0.279699 0.302521
O O10 0.598234 0.328104 0.098338
O O11 0.870551 0.307896 0.145523
O O12 0.948224 0.562067 0.869136
O O13 0.000000 0.416733 0.750000
O O14 0.896987 0.392055 0.950421
O O15 0.361870 0.278472 0.980409
O O16 0.095628 0.281487 0.030604
O O17 0.238040 0.135885 0.069226
#
# Coordination Sequence:
#
# PCOD8122410 Si02
#       8
#     4   4   4   4   4   4   4   4
#     4   9  18  34  58  85 115 144 183 238 296 350
#     4  11  24  37  56  81 113 152 192 240 286 334
#     4  11  20  37  58  84 113 147 191 238 281 335
#     4  11  24  39  55  77 115 158 190 233 288 341
#     4  11  20  35  60  86 109 149 190 238 279 338
#     4  11  22  36  55  83 113 144 194 244 281 322
#     4  11  24  38  55  81 114 150 195 234 281 339
#     4   9  18  34  57  87 114 144 184 236 296 350
#
# _framework density 19.686772999999999
#
# number of rings (size 3 to 8) (size 9 to 14) (size 15 to 20)
#    0.000    1.500    3.750    2.250    3.500    0.000 
#    0.000    3.125    0.000    0.000    0.000    0.000 
#    0.000    0.000    0.000    0.000    0.000    0.000 
#
# Total GULP energy -396561.807587 kJ/mol
# GULP energy per Si atom -12392.556487 kJ/mol
# Density = 1.964197 g / cm^3
# Si number density = 19.686773 Si / 1000 Ang^3
#
#
#
# Elastic Constant Matrix: (Units=GPa)
#
#
# Indices 1 2 3 4 5 6 
#
# 1 102.9414 19.6115 15.6315 0.0000 -6.4712 0.0000
# 2 19.6115 76.9331 32.9294 0.0000 -1.6685 0.0000
# 3 15.6315 32.9294 75.4257 0.0000 -8.2630 0.0000
# 4 0.0000 0.0000 0.0000 19.4252 0.0000 -16.5454
# 5 -6.4712 -1.6685 -8.2630 0.0000 24.7566 0.0000
# 6 0.0000 0.0000 0.0000 -16.5454 0.0000 7.2015
#
#
#
# Elastic Compliance Matrix: (Units=1/GPa)
#
#
# Indices 1 2 3 4 5 6 
#
# 1 0.010420 -0.002200 -0.000952 0.000000 0.002258 0.000000
# 2 -0.002200 0.016490 -0.006938 0.000000 -0.001779 0.000000
# 3 -0.000952 -0.006938 0.017029 0.000000 0.004967 0.000000
# 4 0.000000 0.000000 0.000000 -0.053799 0.000000 -0.123603
# 5 0.002258 -0.001779 0.004967 0.000000 0.042521 0.000000
# 6 0.000000 0.000000 0.000000 -0.123603 0.000000 -0.145116
#
#
# Mechanical properties :
#
#
# Convention : Reuss Voigt Hill
#
# Bulk Modulus (GPa) = 42.08948 43.51612 42.80280
# Shear Modulus (GPa) = -59.27301 22.75184 -18.26059
#
# Velocity S-wave (km/s) = -5.49303 3.40323 -3.04888
# Velocity P-wave (km/s) = 4.33650 6.13147 3.06510
#
# Compressibility (1/GPa) = 0.02375890
#
# Stress axis : x y z
#
# Youngs Moduli (GPa) = 95.97103 60.64163 58.72456
#
# Poissons Ratio (x) = 0.13340 0.05589
# Poissons Ratio (y) = 0.21112 0.40745
# Poissons Ratio (z) = 0.09133 0.42076
#
# Static dielectric constant tensor:
#      x y z
#    x 3.519600 0.000000 -0.150990 
#    y 0.000000 3.499470 0.000000 
#    z -0.150990 0.000000 3.725290 
# 
# 
# High freq. dielectric constant tensor:
#      x y z
#    x 1.766150 0.000000 -0.006340 
#    y 0.000000 1.749100 0.000000 
#    z -0.006340 0.000000 1.754870 
# 
# From -- ./inp_files/30400.got.cif
#   From: 2010.06.25/outbox.cif.g09.slc.cpg/sg13_16_cif.got.tgz:30400.got - 2010.06.28 04:50:58.
