data_PCOD8122909
_publ_section_title
;
Structure prediction by ZEFSAII (Michael W. Deem and Ramdas Pophale) SiO2 
 PCOD8122909
Probable space group: P 2/C
;
_chemical_formula_sum "Si O2"
_cell_formula_units_Z 16
_cell_length_a 8.400363
_cell_length_b 6.761227
_cell_length_c 16.169031
_cell_angle_alpha 90.000000
_cell_angle_beta 47.916720
_cell_angle_gamma 90.000000
_cell_volume 681.572108
_symmetry_space_group_name_H-M "P 2/C"
_symmetry_group_IT_number 13
_symmetry_cell_setting 'monoclinic'
loop_
_space_group_symop_operation_xyz
x,y,z
-x,y,1/2-z
-x,-y,-z
x,-y,1/2+z
loop_
_atom_site_type_symbol
_atom_site_label
_atom_site_fract_x
_atom_site_fract_y
_atom_site_fract_z
Si Si1 0.545636 0.150771 0.908263
Si Si2 0.110231 0.205892 0.445069
Si Si3 0.787845 0.521299 0.972050
Si Si4 0.000000 0.665141 0.250000
Si Si5 0.500000 0.041189 0.250000
O O1 0.797543 0.190366 0.806721
O O2 0.458029 0.080338 0.849401
O O3 0.433686 0.361675 0.970816
O O4 0.500000 0.000000 0.000000
O O5 0.243643 0.302834 0.476073
O O6 0.915854 0.345619 0.491276
O O7 0.287910 0.175632 0.311274
O O8 0.000000 0.000000 0.500000
O O9 0.944604 0.488713 0.840914
#
# Coordination Sequence:
#
# PCOD8122909 Si02
#       5
#     4   4   4   2   2
#     4  12  29  49  76 116 155 200 263 315 382 467
#     4  11  24  48  74 111 145 195 253 317 372 469
#     4  11  27  47  75 109 154 193 261 313 382 458
#     4  12  28  46  76 106 154 202 248 320 396 438
#     4  12  26  44  84 100 152 204 244 304 402 432
#
# _framework density 23.47514
#
# number of rings (size 3 to 8) (size 9 to 14) (size 15 to 20)
#    0.000    0.500    2.500    3.750   14.000    0.000 
#    0.000    0.000    0.000    0.000    0.000    0.000 
#    0.000    0.000    0.000    0.000    0.000    0.000 
#
# Total GULP energy -198220.897952 kJ/mol
# GULP energy per Si atom -12388.806122 kJ/mol
# Density = 2.342171 g / cm^3
# Si number density = 23.475140 Si / 1000 Ang^3
#
#
#
# Elastic Constant Matrix: (Units=GPa)
#
#
# Indices 1 2 3 4 5 6 
#
# 1 74.6495 47.5957 45.7259 0.0000 -6.7240 0.0000
# 2 47.5957 140.0982 58.8242 0.0000 3.6951 0.0000
# 3 45.7259 58.8242 161.0949 0.0000 -7.0579 0.0000
# 4 0.0000 0.0000 0.0000 57.4822 0.0000 -5.8077
# 5 -6.7240 3.6951 -7.0579 0.0000 60.0490 0.0000
# 6 0.0000 0.0000 0.0000 -5.8077 0.0000 41.5740
#
#
#
# Elastic Compliance Matrix: (Units=1/GPa)
#
#
# Indices 1 2 3 4 5 6 
#
# 1 0.018889 -0.005027 -0.003437 0.000000 0.002020 0.000000
# 2 -0.005027 0.009815 -0.002220 0.000000 -0.001428 0.000000
# 3 -0.003437 -0.002220 0.008024 0.000000 0.000695 0.000000
# 4 0.000000 0.000000 0.000000 0.017646 0.000000 0.002465
# 5 0.002020 -0.001428 0.000695 0.000000 0.017049 0.000000
# 6 0.000000 0.000000 0.000000 0.002465 0.000000 0.024398
#
#
# Mechanical properties :
#
#
# Convention : Reuss Voigt Hill
#
# Bulk Modulus (GPa) = 65.10444 75.57047 70.33745
# Shear Modulus (GPa) = 40.88014 46.73416 43.80715
#
# Velocity S-wave (km/s) = 4.17756 4.46667 4.32453
# Velocity P-wave (km/s) = 7.14583 7.67223 7.41371
#
# Compressibility (1/GPa) = 0.01535994
#
# Stress axis : x y z
#
# Youngs Moduli (GPa) = 52.94197 101.88071 124.62368
#
# Poissons Ratio (x) = 0.51217 0.42836
# Poissons Ratio (y) = 0.26614 0.27663
# Poissons Ratio (z) = 0.18197 0.22615
#
# Static dielectric constant tensor:
#      x y z
#    x 4.489360 0.000000 -0.256510 
#    y 0.000000 5.057830 0.000000 
#    z -0.256510 0.000000 4.559600 
# 
# 
# High freq. dielectric constant tensor:
#      x y z
#    x 1.936710 0.000000 -0.013670 
#    y 0.000000 1.940880 0.000000 
#    z -0.013670 0.000000 1.940500 
# 
# From -- ./inp_files/37816.got.cif
#   From: 2010.06.25/outbox.cif.g09.slc.cpg/sg13_19_cif.got.tgz:37816.got - 2010.06.28 04:50:58.
