data_PCOD8122801
_publ_section_title
;
Structure prediction by ZEFSAII (Michael W. Deem and Ramdas Pophale) SiO2 
 PCOD8122801
Probable space group: P 2/C
;
_chemical_formula_sum "Si O2"
_cell_formula_units_Z 16
_cell_length_a 21.947637
_cell_length_b 5.870737
_cell_length_c 9.452297
_cell_angle_alpha 90.000000
_cell_angle_beta 148.857095
_cell_angle_gamma 90.000000
_cell_volume 629.875564
_symmetry_space_group_name_H-M "P 2/C"
_symmetry_group_IT_number 13
_symmetry_cell_setting 'monoclinic'
loop_
_space_group_symop_operation_xyz
x,y,z
-x,y,1/2-z
-x,-y,-z
x,-y,1/2+z
loop_
_atom_site_type_symbol
_atom_site_label
_atom_site_fract_x
_atom_site_fract_y
_atom_site_fract_z
Si Si1 0.590522 0.706958 0.676421
Si Si2 0.205158 0.578302 0.834610
Si Si3 0.347041 0.957486 0.968747
Si Si4 0.877760 0.756594 0.556410
O O1 0.500000 0.500000 0.500000
O O2 0.571887 0.857971 0.497660
O O3 0.724321 0.614921 0.937548
O O4 0.576028 0.861819 0.787868
O O5 0.137068 0.471537 0.567029
O O6 0.305566 0.755325 0.987613
O O7 0.112053 0.690419 0.757803
O O8 0.230792 0.073661 0.673767
O O9 0.000000 0.875646 0.750000
#
# Coordination Sequence:
#
# PCOD8122801 Si02
#       4
#     4   4   4   4
#     4  11  26  50  76 106 146 196 248 308 373 434
#     4  11  23  46  70 107 151 187 250 304 349 448
#     4  11  24  49  74 107 150 189 251 304 364 450
#     4  11  24  43  74 109 147 196 242 303 364 431
#
# _framework density 25.401841999999998
#
# number of rings (size 3 to 8) (size 9 to 14) (size 15 to 20)
#    0.000    1.000    5.000    0.750    0.000    4.000 
#    4.500    1.250    0.000    0.000    0.000    0.000 
#    0.000    0.000    0.000    0.000    0.000    0.000 
#
# Total GULP energy -198463.602262 kJ/mol
# GULP energy per Si atom -12403.975141 kJ/mol
# Density = 2.534403 g / cm^3
# Si number density = 25.401842 Si / 1000 Ang^3
#
#
#
# Elastic Constant Matrix: (Units=GPa)
#
#
# Indices 1 2 3 4 5 6 
#
# 1 178.7155 62.4028 54.5802 0.0000 -6.1099 0.0000
# 2 62.4028 121.8947 44.9391 0.0000 -7.9400 0.0000
# 3 54.5802 44.9391 83.1407 0.0000 -13.3063 0.0000
# 4 0.0000 0.0000 0.0000 30.1624 0.0000 -8.0676
# 5 -6.1099 -7.9400 -13.3063 0.0000 39.5379 0.0000
# 6 0.0000 0.0000 0.0000 -8.0676 0.0000 45.1986
#
#
#
# Elastic Compliance Matrix: (Units=1/GPa)
#
#
# Indices 1 2 3 4 5 6 
#
# 1 0.007600 -0.002566 -0.003696 0.000000 -0.000585 0.000000
# 2 -0.002566 0.011114 -0.004258 0.000000 0.000402 0.000000
# 3 -0.003696 -0.004258 0.017468 0.000000 0.004453 0.000000
# 4 0.000000 0.000000 0.000000 0.034816 0.000000 0.006214
# 5 -0.000585 0.000402 0.004453 0.000000 0.026781 0.000000
# 6 0.000000 0.000000 0.000000 0.006214 0.000000 0.023234
#
#
# Mechanical properties :
#
#
# Convention : Reuss Voigt Hill
#
# Bulk Modulus (GPa) = 66.04274 78.62168 72.33221
# Shear Modulus (GPa) = 33.99028 37.76835 35.87931
#
# Velocity S-wave (km/s) = 3.66198 3.86013 3.76236
# Velocity P-wave (km/s) = 6.62840 7.13343 6.88555
#
# Compressibility (1/GPa) = 0.01514171
#
# Stress axis : x y z
#
# Youngs Moduli (GPa) = 131.57272 89.97937 57.24705
#
# Poissons Ratio (x) = 0.23093 0.21158
# Poissons Ratio (y) = 0.33768 0.24375
# Poissons Ratio (z) = 0.48627 0.38312
#
# Static dielectric constant tensor:
#      x y z
#    x 4.489410 0.000000 -0.117120 
#    y 0.000000 4.775430 0.000000 
#    z -0.117120 0.000000 4.505180 
# 
# 
# High freq. dielectric constant tensor:
#      x y z
#    x 2.022700 0.000000 -0.005180 
#    y 0.000000 2.018490 0.000000 
#    z -0.005180 0.000000 2.018620 
# 
# From -- ./inp_files/20268.got.cif
#   From: 2010.06.25/outbox.cif.g09.slc.cpg/sg13_11_cif.got.tgz:20268.got - 2010.06.28 04:50:58.
