data_PCOD8122687
_publ_section_title
;
Structure prediction by ZEFSAII (Michael W. Deem and Ramdas Pophale) SiO2 
 PCOD8122687
Probable space group: P 2/C
;
_chemical_formula_sum "Si O2"
_cell_formula_units_Z 24
_cell_length_a 8.622305
_cell_length_b 9.790788
_cell_length_c 13.795342
_cell_angle_alpha 90.000000
_cell_angle_beta 90.636196
_cell_angle_gamma 90.000000
_cell_volume 1164.519396
_symmetry_space_group_name_H-M "P 2/C"
_symmetry_group_IT_number 13
_symmetry_cell_setting 'monoclinic'
loop_
_space_group_symop_operation_xyz
x,y,z
-x,y,1/2-z
-x,-y,-z
x,-y,1/2+z
loop_
_atom_site_type_symbol
_atom_site_label
_atom_site_fract_x
_atom_site_fract_y
_atom_site_fract_z
Si Si1 0.179996 0.382071 0.066845
Si Si2 0.673206 0.115695 0.921167
Si Si3 0.176664 0.343607 0.454686
Si Si4 0.672601 0.856119 0.046301
Si Si5 0.681084 0.278709 0.240426
Si Si6 0.181335 0.979531 0.265645
O O1 0.262683 0.372625 0.170973
O O2 0.000889 0.343929 0.080248
O O3 0.208479 0.534379 0.029257
O O4 0.252513 0.283930 0.987107
O O5 0.500629 0.177465 0.918938
O O6 0.735780 0.116104 0.812667
O O7 0.785601 0.202523 0.990857
O O8 0.667728 0.958982 0.955773
O O9 0.283644 0.357064 0.359848
O O10 0.777078 0.921176 0.129877
O O11 0.500000 0.249684 0.250000
O O12 0.768836 0.135594 0.242411
O O13 0.000000 0.969289 0.250000
#
# Coordination Sequence:
#
# PCOD8122687 Si02
#       6
#     4   4   4   4   4   4
#     4  11  25  44  67  96 131 171 216 265 321 384
#     4  11  23  40  65  96 129 166 213 265 317 378
#     4  11  25  44  67  96 131 171 216 265 321 384
#     4  11  23  40  65  96 129 166 213 265 317 378
#     4  12  24  41  66  95 128 170 216 262 324 387
#     4  12  24  39  66  97 130 170 216 268 322 377
#
# _framework density 20.609359999999999
#
# number of rings (size 3 to 8) (size 9 to 14) (size 15 to 20)
#    0.000    0.667    3.333    5.000    0.000    5.333 
#    0.000    1.667    0.000    0.000    0.000    0.000 
#    0.000    0.000    0.000    0.000    0.000    0.000 
#
# Total GULP energy -297791.053907 kJ/mol
# GULP energy per Si atom -12407.960579 kJ/mol
# Density = 2.056245 g / cm^3
# Si number density = 20.609360 Si / 1000 Ang^3
#
#
#
# Elastic Constant Matrix: (Units=GPa)
#
#
# Indices 1 2 3 4 5 6 
#
# 1 108.2447 21.4040 -9.6327 0.0000 5.6929 0.0000
# 2 21.4040 59.4347 7.4536 0.0000 -3.4104 0.0000
# 3 -9.6327 7.4536 112.9391 0.0000 -17.2865 0.0000
# 4 0.0000 0.0000 0.0000 33.4129 0.0000 6.2586
# 5 5.6929 -3.4104 -17.2865 0.0000 51.4871 0.0000
# 6 0.0000 0.0000 0.0000 6.2586 0.0000 53.3391
#
#
#
# Elastic Compliance Matrix: (Units=1/GPa)
#
#
# Indices 1 2 3 4 5 6 
#
# 1 0.010136 -0.003831 0.000956 0.000000 -0.001054 0.000000
# 2 -0.003831 0.018444 -0.001362 0.000000 0.001188 0.000000
# 3 0.000956 -0.001362 0.009483 0.000000 0.002988 0.000000
# 4 0.000000 0.000000 0.000000 0.030601 0.000000 -0.003591
# 5 -0.001054 0.001188 0.002988 0.000000 0.020621 0.000000
# 6 0.000000 0.000000 0.000000 -0.003591 0.000000 0.019169
#
#
# Mechanical properties :
#
#
# Convention : Reuss Voigt Hill
#
# Bulk Modulus (GPa) = 33.79558 35.45203 34.62381
# Shear Modulus (GPa) = 39.43501 45.07406 42.25453
#
# Velocity S-wave (km/s) = 4.37905 4.68168 4.53289
# Velocity P-wave (km/s) = 6.48088 6.81641 6.65076
#
# Compressibility (1/GPa) = 0.02958966
#
# Stress axis : x y z
#
# Youngs Moduli (GPa) = 98.65546 54.21905 105.45067
#
# Poissons Ratio (x) = 0.20770 -0.10082
# Poissons Ratio (y) = 0.37792 0.14364
# Poissons Ratio (z) = -0.09432 0.07385
#
# Static dielectric constant tensor:
#      x y z
#    x 4.095510 0.000000 0.372600 
#    y 0.000000 3.591230 0.000000 
#    z 0.372600 0.000000 4.999870 
# 
# 
# High freq. dielectric constant tensor:
#      x y z
#    x 1.823790 0.000000 -0.001840 
#    y 0.000000 1.794700 0.000000 
#    z -0.001840 0.000000 1.821390 
# 
# From -- ./inp_files/46103.got.cif
#   From: 2010.06.25/outbox.cif.g09.slc.cpg/sg13_24_cif.got.tgz:46103.got - 2010.06.28 04:50:58.
