data_PCOD8122037
_publ_section_title
;
Structure prediction by ZEFSAII (Michael W. Deem and Ramdas Pophale) SiO2 
 PCOD8122037
Probable space group: P 2/C
;
_chemical_formula_sum "Si O2"
_cell_formula_units_Z 32
_cell_length_a 12.871261
_cell_length_b 14.440461
_cell_length_c 8.817122
_cell_angle_alpha 90.000000
_cell_angle_beta 106.846675
_cell_angle_gamma 90.000000
_cell_volume 1568.479823
_symmetry_space_group_name_H-M "P 2/C"
_symmetry_group_IT_number 13
_symmetry_cell_setting 'monoclinic'
loop_
_space_group_symop_operation_xyz
x,y,z
-x,y,1/2-z
-x,-y,-z
x,-y,1/2+z
loop_
_atom_site_type_symbol
_atom_site_label
_atom_site_fract_x
_atom_site_fract_y
_atom_site_fract_z
Si Si1 0.388819 0.723128 0.622733
Si Si2 0.808398 0.393459 0.835004
Si Si3 0.195186 0.591461 0.515507
Si Si4 0.041771 0.089227 0.432405
Si Si5 0.296639 0.083983 0.557777
Si Si6 0.005261 0.290477 0.072061
Si Si7 0.376954 0.089536 0.255933
Si Si8 0.387504 0.742592 0.273263
O O1 0.500000 0.692656 0.750000
O O2 0.313267 0.633798 0.593172
O O3 0.334920 0.808492 0.691380
O O4 0.407074 0.757877 0.459517
O O5 0.838992 0.412485 0.674093
O O6 0.695931 0.339044 0.799634
O O7 0.800651 0.489084 0.919359
O O8 0.900318 0.333554 0.951513
O O9 0.110942 0.655558 0.566146
O O10 0.170691 0.103972 0.479182
O O11 0.989072 0.183126 0.478828
O O12 0.000000 0.071179 0.250000
O O13 0.000000 0.000000 0.500000
O O14 0.365415 0.080567 0.431849
O O15 0.348213 0.160673 0.688263
O O16 0.302186 0.985833 0.643858
O O17 0.000000 0.296767 0.250000
O O18 0.500000 0.076747 0.250000
O O19 0.500000 0.709844 0.250000
#
# Coordination Sequence:
#
# PCOD8122037 Si02
#       8
#     4   4   4   4   4   4   4   4
#     4  10  24  42  63  97 129 168 213 263 323 381
#     4  11  24  45  63 101 124 169 214 268 327 380
#     4  11  25  41  71  90 132 166 215 266 324 390
#     4  11  26  43  63  98 133 174 216 263 322 380
#     4  12  23  41  67  93 133 170 218 265 320 384
#     4  11  24  43  68  95 129 170 217 265 322 380
#     4  11  23  39  64  95 130 169 216 264 317 383
#     4  11  23  42  67  95 130 170 214 266 323 386
#
# _framework density 20.40192
#
# number of rings (size 3 to 8) (size 9 to 14) (size 15 to 20)
#    0.000    1.000    1.250    5.250    5.250    4.500 
#    0.000    2.500    0.000    0.000    0.000    0.000 
#    0.000    0.000    0.000    0.000    0.000    0.000 
#
# Total GULP energy -396904.894215 kJ/mol
# GULP energy per Si atom -12403.277944 kJ/mol
# Density = 2.035548 g / cm^3
# Si number density = 20.401920 Si / 1000 Ang^3
#
#
#
# Elastic Constant Matrix: (Units=GPa)
#
#
# Indices 1 2 3 4 5 6 
#
# 1 93.3666 31.8135 52.0122 0.0000 1.0833 0.0000
# 2 31.8135 147.8489 69.4536 0.0000 -5.9295 0.0000
# 3 52.0122 69.4536 154.0288 0.0000 2.9497 0.0000
# 4 0.0000 0.0000 0.0000 39.9544 0.0000 2.7842
# 5 1.0833 -5.9295 2.9497 0.0000 32.3219 0.0000
# 6 0.0000 0.0000 0.0000 2.7842 0.0000 50.8313
#
#
#
# Elastic Compliance Matrix: (Units=1/GPa)
#
#
# Indices 1 2 3 4 5 6 
#
# 1 0.013299 -0.000970 -0.004049 0.000000 -0.000254 0.000000
# 2 -0.000970 0.008774 -0.003667 0.000000 0.001977 0.000000
# 3 -0.004049 -0.003667 0.009540 0.000000 -0.001408 0.000000
# 4 0.000000 0.000000 0.000000 0.025124 0.000000 -0.001376
# 5 -0.000254 0.001977 -0.001408 0.000000 0.031438 0.000000
# 6 0.000000 0.000000 0.000000 -0.001376 0.000000 0.019748
#
#
# Mechanical properties :
#
#
# Convention : Reuss Voigt Hill
#
# Bulk Modulus (GPa) = 70.21210 77.97809 74.09510
# Shear Modulus (GPa) = 38.44900 40.75252 39.60076
#
# Velocity S-wave (km/s) = 4.34588 4.47417 4.41049
# Velocity P-wave (km/s) = 7.72473 8.06194 7.89513
#
# Compressibility (1/GPa) = 0.01424256
#
# Stress axis : x y z
#
# Youngs Moduli (GPa) = 75.19176 113.97156 104.82472
#
# Poissons Ratio (x) = 0.11055 0.42440
# Poissons Ratio (y) = 0.07294 0.38436
# Poissons Ratio (z) = 0.30442 0.41790
#
# Static dielectric constant tensor:
#      x y z
#    x 3.860740 0.000000 0.017690 
#    y 0.000000 3.717350 0.000000 
#    z 0.017690 0.000000 3.941720 
# 
# 
# High freq. dielectric constant tensor:
#      x y z
#    x 1.801030 0.000000 0.004410 
#    y 0.000000 1.811780 0.000000 
#    z 0.004410 0.000000 1.818690 
# 
# From -- ./inp_files/19657.got.cif
#   From: 2010.06.25/outbox.cif.g09.slc.cpg/sg13_10_cif.got.tgz:19657.got - 2010.06.28 04:50:58.
