data_PCOD8122665
_publ_section_title
;
Structure prediction by ZEFSAII (Michael W. Deem and Ramdas Pophale) SiO2 
 PCOD8122665
Probable space group: P 2/C
;
_chemical_formula_sum "Si O2"
_cell_formula_units_Z 32
_cell_length_a 24.239028
_cell_length_b 9.474421
_cell_length_c 18.388764
_cell_angle_alpha 90.000000
_cell_angle_beta 22.604733
_cell_angle_gamma 90.000000
_cell_volume 1623.198723
_symmetry_space_group_name_H-M "P 2/C"
_symmetry_group_IT_number 13
_symmetry_cell_setting 'monoclinic'
loop_
_space_group_symop_operation_xyz
x,y,z
-x,y,1/2-z
-x,-y,-z
x,-y,1/2+z
loop_
_atom_site_type_symbol
_atom_site_label
_atom_site_fract_x
_atom_site_fract_y
_atom_site_fract_z
Si Si1 0.598036 0.352612 0.266053
Si Si2 0.842862 0.952298 0.613446
Si Si3 0.720226 0.421410 0.815564
Si Si4 0.637171 0.280075 0.383532
Si Si5 0.657944 0.111604 0.080852
Si Si6 0.833555 0.081294 0.470468
Si Si7 0.679281 0.348166 0.700665
Si Si8 0.874274 0.816880 0.194561
O O1 0.426115 0.359793 0.472120
O O2 0.646786 0.298765 0.285299
O O3 0.656247 0.251832 0.132324
O O4 0.665911 0.507917 0.170520
O O5 0.713152 0.867568 0.809822
O O6 0.976664 0.842921 0.444940
O O7 0.797304 0.001855 0.589232
O O8 0.877371 0.089838 0.617902
O O9 0.720577 0.591129 0.822370
O O10 0.731293 0.382058 0.717989
O O11 0.852881 0.347308 0.696625
O O12 0.474804 0.270867 0.608618
O O13 0.500000 0.061695 0.250000
O O14 0.742520 0.140837 0.904683
O O15 0.736423 0.984651 0.026063
O O16 0.793531 0.246380 0.523314
O O17 0.000000 0.065574 0.250000
#
# Coordination Sequence:
#
# PCOD8122665 Si02
#       8
#     4   4   4   4   4   4   4   4
#     4   9  18  37  60  89 115 149 200 254 297 360
#     4  11  23  39  59  87 126 163 205 251 305 368
#     4   9  17  36  60  88 120 147 197 253 302 349
#     4   9  19  35  63  90 110 151 206 249 292 363
#     4  12  24  38  63  93 124 162 207 255 308 368
#     4  12  24  42  61  89 128 169 201 254 312 370
#     4   9  20  37  63  88 114 154 201 246 299 366
#     4  11  23  38  58  89 126 164 198 252 314 360
#
# _framework density 19.71416
#
# number of rings (size 3 to 8) (size 9 to 14) (size 15 to 20)
#    0.000    1.750    5.000    1.500    1.750    1.000 
#    0.000    5.000    0.000    0.000    0.000    0.000 
#    0.000    0.000    0.000    0.000    0.000    0.000 
#
# Total GULP energy -396777.573339 kJ/mol
# GULP energy per Si atom -12399.299167 kJ/mol
# Density = 1.966929 g / cm^3
# Si number density = 19.714160 Si / 1000 Ang^3
#
#
#
# Elastic Constant Matrix: (Units=GPa)
#
#
# Indices 1 2 3 4 5 6 
#
# 1 55.1739 18.8892 19.1442 0.0000 -9.7685 0.0000
# 2 18.8892 76.6198 16.0110 0.0000 -5.1852 0.0000
# 3 19.1442 16.0110 64.5893 0.0000 0.3179 0.0000
# 4 0.0000 0.0000 0.0000 33.8523 0.0000 -8.9941
# 5 -9.7685 -5.1852 0.3179 0.0000 26.7414 0.0000
# 6 0.0000 0.0000 0.0000 -8.9941 0.0000 12.3489
#
#
#
# Elastic Compliance Matrix: (Units=1/GPa)
#
#
# Indices 1 2 3 4 5 6 
#
# 1 0.022840 -0.003892 -0.005843 0.000000 0.007658 0.000000
# 2 -0.003892 0.014627 -0.002479 0.000000 0.001444 0.000000
# 3 -0.005843 -0.002479 0.017843 0.000000 -0.002827 0.000000
# 4 0.000000 0.000000 0.000000 0.036628 0.000000 0.026677
# 5 0.007658 0.001444 -0.002827 0.000000 0.040506 0.000000
# 6 0.000000 0.000000 0.000000 0.026677 0.000000 0.100409
#
#
# Mechanical properties :
#
#
# Convention : Reuss Voigt Hill
#
# Bulk Modulus (GPa) = 32.38143 33.83022 33.10583
# Shear Modulus (GPa) = 18.68642 24.07776 21.38209
#
# Velocity S-wave (km/s) = 3.08209 3.49856 3.29691
# Velocity P-wave (km/s) = 5.39693 5.78943 5.59662
#
# Compressibility (1/GPa) = 0.03088190
#
# Stress axis : x y z
#
# Youngs Moduli (GPa) = 43.78275 68.36813 56.04502
#
# Poissons Ratio (x) = 0.26606 0.32746
# Poissons Ratio (y) = 0.17038 0.13896
# Poissons Ratio (z) = 0.25581 0.16952
#
# Static dielectric constant tensor:
#      x y z
#    x 3.490460 0.000000 -0.118910 
#    y 0.000000 3.689140 0.000000 
#    z -0.118910 0.000000 3.473320 
# 
# 
# High freq. dielectric constant tensor:
#      x y z
#    x 1.757690 0.000000 -0.005300 
#    y 0.000000 1.770870 0.000000 
#    z -0.005300 0.000000 1.758510 
# 
# From -- ./inp_files/82493.got.cif
#   From: 2010.06.25/outbox.cif.g09.slc.cpg/sg13_42_cif.got.tgz:82493.got - 2010.06.28 04:50:58.
