data_PCOD8122409
_publ_section_title
;
Structure prediction by ZEFSAII (Michael W. Deem and Ramdas Pophale) SiO2 
 PCOD8122409
Probable space group: P 2/C
;
_chemical_formula_sum "Si O2"
_cell_formula_units_Z 32
_cell_length_a 17.192072
_cell_length_b 11.104649
_cell_length_c 22.458476
_cell_angle_alpha 90.000000
_cell_angle_beta 22.181106
_cell_angle_gamma 90.000000
_cell_volume 1618.717551
_symmetry_space_group_name_H-M "P 2/C"
_symmetry_group_IT_number 13
_symmetry_cell_setting 'monoclinic'
loop_
_space_group_symop_operation_xyz
x,y,z
-x,y,1/2-z
-x,-y,-z
x,-y,1/2+z
loop_
_atom_site_type_symbol
_atom_site_label
_atom_site_fract_x
_atom_site_fract_y
_atom_site_fract_z
Si Si1 0.313217 0.821008 0.424702
Si Si2 0.284562 0.090473 0.435960
Si Si3 0.090927 0.778574 0.845333
Si Si4 0.979130 0.873542 0.046058
Si Si5 0.778705 0.787222 0.397074
Si Si6 0.277685 0.024748 0.132837
Si Si7 0.484858 0.796181 0.104794
Si Si8 0.479822 0.638225 0.530305
O O1 0.500000 0.848130 0.250000
O O2 0.417541 0.744203 0.403868
O O3 0.130014 0.742473 0.526170
O O4 0.229578 0.956154 0.498382
O O5 0.500000 0.098406 0.250000
O O6 0.310459 0.172660 0.476170
O O7 0.105893 0.137532 0.517547
O O8 0.150674 0.910956 0.776255
O O9 0.250194 0.675107 0.713033
O O10 0.067376 0.779994 0.933828
O O11 0.736162 0.858468 0.230267
O O12 0.000000 0.000000 0.000000
O O13 0.631330 0.685368 0.474412
O O14 0.000000 0.725867 0.250000
O O15 0.819142 0.900343 0.322946
O O16 0.324021 0.115484 0.046448
O O17 0.500000 0.000000 0.000000
O O18 0.452711 0.695191 0.079332
O O19 0.500000 0.500000 0.500000
#
# Coordination Sequence:
#
# PCOD8122409 Si02
#       8
#     4   4   4   4   4   4   4   4
#     4  11  20  35  57 100 131 162 197 252 317 400
#     4  11  22  32  55  96 139 165 195 243 316 406
#     4  11  22  38  65  92 133 168 207 259 326 385
#     4  12  21  34  63  99 136 172 197 245 334 408
#     4  12  23  39  62  90 131 162 213 269 326 379
#     4  11  21  33  58  92 128 166 201 247 326 401
#     4  11  22  38  62  91 132 162 209 260 314 388
#     4  11  27  48  65  86 119 176 234 272 315 368
#
# _framework density 19.768735
#
# number of rings (size 3 to 8) (size 9 to 14) (size 15 to 20)
#    0.000    0.750    6.250    3.750    0.000    1.500 
#    2.250    0.625    0.000    0.750    0.000    0.000 
#    0.000    0.000    0.000    0.000    0.000    0.000 
#
# Total GULP energy -396500.568073 kJ/mol
# GULP energy per Si atom -12390.642752 kJ/mol
# Density = 1.972374 g / cm^3
# Si number density = 19.768735 Si / 1000 Ang^3
#
#
#
# Elastic Constant Matrix: (Units=GPa)
#
#
# Indices 1 2 3 4 5 6 
#
# 1 155.8384 42.0369 39.1908 0.0000 -11.8249 0.0000
# 2 42.0369 85.9283 34.7580 0.0000 -2.5747 0.0000
# 3 39.1908 34.7580 82.7296 0.0000 -12.3524 0.0000
# 4 0.0000 0.0000 0.0000 15.6861 0.0000 1.3349
# 5 -11.8249 -2.5747 -12.3524 0.0000 44.0659 0.0000
# 6 0.0000 0.0000 0.0000 1.3349 0.0000 16.3153
#
#
#
# Elastic Compliance Matrix: (Units=1/GPa)
#
#
# Indices 1 2 3 4 5 6 
#
# 1 0.007876 -0.002871 -0.002332 0.000000 0.001292 0.000000
# 2 -0.002871 0.015099 -0.005184 0.000000 -0.001341 0.000000
# 3 -0.002332 -0.005184 0.015897 0.000000 0.003528 0.000000
# 4 0.000000 0.000000 0.000000 0.064198 0.000000 -0.005253
# 5 0.001292 -0.001341 0.003528 0.000000 0.023950 0.000000
# 6 0.000000 0.000000 0.000000 -0.005253 0.000000 0.061722
#
#
# Mechanical properties :
#
#
# Convention : Reuss Voigt Hill
#
# Bulk Modulus (GPa) = 55.25416 61.82974 58.54195
# Shear Modulus (GPa) = 23.19671 29.11414 26.15543
#
# Velocity S-wave (km/s) = 3.42921 3.84179 3.64135
# Velocity P-wave (km/s) = 6.60986 7.14308 6.88164
#
# Compressibility (1/GPa) = 0.01809818
#
# Stress axis : x y z
#
# Youngs Moduli (GPa) = 126.97139 66.23046 62.90557
#
# Poissons Ratio (x) = 0.19015 0.14668
# Poissons Ratio (y) = 0.36453 0.32609
# Poissons Ratio (z) = 0.29607 0.34333
#
# Static dielectric constant tensor:
#      x y z
#    x 3.910240 0.000000 0.542510 
#    y 0.000000 2.622330 0.000000 
#    z 0.542510 0.000000 3.183440 
# 
# 
# High freq. dielectric constant tensor:
#      x y z
#    x 1.797680 0.000000 0.000440 
#    y 0.000000 1.693480 0.000000 
#    z 0.000440 0.000000 1.796190 
# 
# From -- ./inp_files/88154.got.cif
#   From: 2010.06.25/outbox.cif.g09.slc.cpg/sg13_45_cif.got.tgz:88154.got - 2010.06.28 04:50:58.
