data_PCOD8122595
_publ_section_title
;
Structure prediction by ZEFSAII (Michael W. Deem and Ramdas Pophale) SiO2 
 PCOD8122595
Probable space group: P 2/C
;
_chemical_formula_sum "Si O2"
_cell_formula_units_Z 24
_cell_length_a 21.681545
_cell_length_b 5.861696
_cell_length_c 8.163364
_cell_angle_alpha 90.000000
_cell_angle_beta 124.216313
_cell_angle_gamma 90.000000
_cell_volume 857.919307
_symmetry_space_group_name_H-M "P 2/C"
_symmetry_group_IT_number 13
_symmetry_cell_setting 'monoclinic'
loop_
_space_group_symop_operation_xyz
x,y,z
-x,y,1/2-z
-x,-y,-z
x,-y,1/2+z
loop_
_atom_site_type_symbol
_atom_site_label
_atom_site_fract_x
_atom_site_fract_y
_atom_site_fract_z
Si Si1 0.560544 0.788426 0.583295
Si Si2 0.288839 0.849468 0.568839
Si Si3 0.731044 0.436245 0.774718
Si Si4 0.406451 0.296746 0.741504
Si Si5 0.846929 0.822305 0.613744
Si Si6 0.947453 0.136486 0.542194
O O1 0.624093 0.946204 0.784738
O O2 0.564071 0.555725 0.691555
O O3 0.592958 0.747597 0.451384
O O4 0.470816 0.857772 0.435920
O O5 0.279881 0.710028 0.727290
O O6 0.282887 0.640154 0.431531
O O7 0.223053 0.022522 0.433718
O O8 0.675667 0.278846 0.800521
O O9 0.815590 0.387273 0.961920
O O10 0.903164 0.957414 0.584967
O O11 0.888787 0.724945 0.840342
O O12 0.000000 0.282227 0.750000
O O13 0.000000 0.000000 0.500000
#
# Coordination Sequence:
#
# PCOD8122595 Si02
#       6
#     4   4   4   4   4   4
#     4   9  17  30  50  77 114 159 203 246 293 339
#     4  11  23  36  59  91 122 160 200 248 295 344
#     4  11  23  36  59  91 122 159 202 246 295 347
#     4   9  17  30  50  77 114 159 203 247 290 343
#     4  11  22  40  65  92 119 157 194 240 297 352
#     4   9  20  40  68  92 114 155 195 232 292 362
#
# _framework density 27.974661000000001
#
# number of rings (size 3 to 8) (size 9 to 14) (size 15 to 20)
#    0.000    2.000    1.667    4.000    4.667    2.000 
#    0.000    0.833    0.000   20.000    0.000    0.000 
#    0.000    0.000    0.000    0.000    0.000    0.000 
#
# Total GULP energy -297328.395682 kJ/mol
# GULP energy per Si atom -12388.683153 kJ/mol
# Density = 2.791099 g / cm^3
# Si number density = 27.974661 Si / 1000 Ang^3
#
#
#
# Elastic Constant Matrix: (Units=GPa)
#
#
# Indices 1 2 3 4 5 6 
#
# 1 93.9217 4.1168 32.1398 0.0000 5.7367 0.0000
# 2 4.1168 49.4056 31.3832 0.0000 10.3988 0.0000
# 3 32.1398 31.3832 258.0492 0.0000 33.8738 0.0000
# 4 0.0000 0.0000 0.0000 27.8205 0.0000 -7.5238
# 5 5.7367 10.3988 33.8738 0.0000 49.0160 0.0000
# 6 0.0000 0.0000 0.0000 -7.5238 0.0000 17.7547
#
#
#
# Elastic Compliance Matrix: (Units=1/GPa)
#
#
# Indices 1 2 3 4 5 6 
#
# 1 0.011128 0.000001 -0.001336 0.000000 -0.000379 0.000000
# 2 0.000001 0.022369 -0.002307 0.000000 -0.003152 0.000000
# 3 -0.001336 -0.002307 0.004660 0.000000 -0.002575 0.000000
# 4 0.000000 0.000000 0.000000 0.040597 0.000000 0.017204
# 5 -0.000379 -0.003152 -0.002575 0.000000 0.022894 0.000000
# 6 0.000000 0.000000 0.000000 0.017204 0.000000 0.063614
#
#
# Mechanical properties :
#
#
# Convention : Reuss Voigt Hill
#
# Bulk Modulus (GPa) = 32.39047 59.62848 46.00947
# Shear Modulus (GPa) = 27.34682 41.16734 34.25708
#
# Velocity S-wave (km/s) = 3.12998 3.84030 3.50319
# Velocity P-wave (km/s) = 4.96649 6.40510 5.73111
#
# Compressibility (1/GPa) = 0.03087328
#
# Stress axis : x y z
#
# Youngs Moduli (GPa) = 89.86699 44.70423 214.58218
#
# Poissons Ratio (x) = -0.00006 0.28675
# Poissons Ratio (y) = -0.00013 0.49503
# Poissons Ratio (z) = 0.12009 0.10313
#
# Static dielectric constant tensor:
#      x y z
#    x 5.171430 0.000000 0.582240 
#    y 0.000000 5.136730 0.000000 
#    z 0.582240 0.000000 6.457710 
# 
# 
# High freq. dielectric constant tensor:
#      x y z
#    x 2.130720 0.000000 0.022930 
#    y 0.000000 2.137540 0.000000 
#    z 0.022930 0.000000 2.182060 
# 
# From -- ./inp_files/22827.got.cif
#   From: 2010.06.25/outbox.cif.g09.slc.cpg/sg13_12_cif.got.tgz:22827.got - 2010.06.28 04:50:58.
