data_PCOD8122412
_publ_section_title
;
Structure prediction by ZEFSAII (Michael W. Deem and Ramdas Pophale) SiO2 
 PCOD8122412
Probable space group: P 2/C
;
_chemical_formula_sum "Si O2"
_cell_formula_units_Z 26
_cell_length_a 13.793628
_cell_length_b 9.458485
_cell_length_c 10.926023
_cell_angle_alpha 90.000000
_cell_angle_beta 123.134076
_cell_angle_gamma 90.000000
_cell_volume 1193.691030
_symmetry_space_group_name_H-M "P 2/C"
_symmetry_group_IT_number 13
_symmetry_cell_setting 'monoclinic'
loop_
_space_group_symop_operation_xyz
x,y,z
-x,y,1/2-z
-x,-y,-z
x,-y,1/2+z
loop_
_atom_site_type_symbol
_atom_site_label
_atom_site_fract_x
_atom_site_fract_y
_atom_site_fract_z
Si Si1 0.500000 0.504453 0.250000
Si Si2 0.871341 0.678182 0.673595
Si Si3 0.623433 0.720569 0.185543
Si Si4 0.776411 0.797100 0.853424
Si Si5 0.760591 0.910672 0.453303
Si Si6 0.587049 0.874223 0.546620
Si Si7 0.286776 0.408736 0.981850
O O1 0.608668 0.588879 0.266052
O O2 0.426097 0.415548 0.101227
O O3 0.858194 0.750113 0.798006
O O4 0.858164 0.795566 0.556809
O O5 0.775282 0.557776 0.587647
O O6 0.000000 0.613928 0.750000
O O7 0.677155 0.856993 0.287800
O O8 0.488892 0.745141 0.056478
O O9 0.714911 0.684223 0.142387
O O10 0.645808 0.823008 0.713593
O O11 0.778513 0.672409 0.954458
O O12 0.818797 0.942510 0.948555
O O13 0.684873 0.930992 0.522725
O O14 0.500000 0.000000 0.500000
#
# Coordination Sequence:
#
# PCOD8122412 Si02
#       7
#     2   4   4   4   4   4   4
#     4  12  20  40  60  96 142 176 222 258 320 404
#     4  11  27  51  71  93 130 175 233 292 341 395
#     4  12  21  37  63  96 139 180 215 262 325 393
#     4  11  25  43  68 104 134 175 229 273 339 407
#     4  11  23  43  66  98 136 174 226 276 331 399
#     4  11  20  35  63 100 142 180 209 259 327 400
#     4  12  25  41  67 102 135 183 222 273 335 403
#
# _framework density 21.781182000000001
#
# number of rings (size 3 to 8) (size 9 to 14) (size 15 to 20)
#    0.000    0.615    4.615    4.154    2.154    2.462 
#    0.000    0.769    0.000    0.000    0.000    0.000 
#    0.000    0.000    0.000    0.000    0.000    0.000 
#
# Total GULP energy -322348.968984 kJ/mol
# GULP energy per Si atom -12398.037269 kJ/mol
# Density = 2.173161 g / cm^3
# Si number density = 21.781182 Si / 1000 Ang^3
#
#
#
# Elastic Constant Matrix: (Units=GPa)
#
#
# Indices 1 2 3 4 5 6 
#
# 1 82.4861 23.9593 34.0676 0.0000 -2.7614 0.0000
# 2 23.9593 93.1806 26.6209 0.0000 -12.9736 0.0000
# 3 34.0676 26.6209 69.1661 0.0000 -13.7179 0.0000
# 4 0.0000 0.0000 0.0000 27.7913 0.0000 -11.0353
# 5 -2.7614 -12.9736 -13.7179 0.0000 36.6099 0.0000
# 6 0.0000 0.0000 0.0000 -11.0353 0.0000 26.2176
#
#
#
# Elastic Compliance Matrix: (Units=1/GPa)
#
#
# Indices 1 2 3 4 5 6 
#
# 1 0.015740 -0.002279 -0.007346 0.000000 -0.002373 0.000000
# 2 -0.002279 0.012647 -0.003122 0.000000 0.003140 0.000000
# 3 -0.007346 -0.003122 0.020470 0.000000 0.006010 0.000000
# 4 0.000000 0.000000 0.000000 0.043203 0.000000 0.018185
# 5 -0.002373 0.003140 0.006010 0.000000 0.030500 0.000000
# 6 0.000000 0.000000 0.000000 0.018185 0.000000 0.045797
#
#
# Mechanical properties :
#
#
# Convention : Reuss Voigt Hill
#
# Bulk Modulus (GPa) = 42.80473 46.01428 44.40951
# Shear Modulus (GPa) = 24.79676 28.80277 26.79976
#
# Velocity S-wave (km/s) = 3.37775 3.64038 3.51152
# Velocity P-wave (km/s) = 5.90822 6.23229 6.07242
#
# Compressibility (1/GPa) = 0.02336190
#
# Stress axis : x y z
#
# Youngs Moduli (GPa) = 63.53335 79.07002 48.85203
#
# Poissons Ratio (x) = 0.18018 0.35888
# Poissons Ratio (y) = 0.14478 0.15254
# Poissons Ratio (z) = 0.46673 0.24690
#
# Static dielectric constant tensor:
#      x y z
#    x 2.792900 0.000000 -1.899700 
#    y 0.000000 -3.458780 0.000000 
#    z -1.899700 0.000000 -0.099110 
# 
# 
# High freq. dielectric constant tensor:
#      x y z
#    x 1.826770 0.000000 -0.023370 
#    y 0.000000 1.863740 0.000000 
#    z -0.023370 0.000000 1.859400 
# 
# From -- ./inp_files/36281.got.cif
#   From: 2010.06.25/outbox.cif.g09.slc.cpg/sg13_19_cif.got.tgz:36281.got - 2010.06.28 04:50:58.
