data_PCOD8122834
_publ_section_title
;
Structure prediction by ZEFSAII (Michael W. Deem and Ramdas Pophale) SiO2 
 PCOD8122834
Probable space group: P 2/C
;
_chemical_formula_sum "Si O2"
_cell_formula_units_Z 20
_cell_length_a 10.726516
_cell_length_b 11.779667
_cell_length_c 10.427434
_cell_angle_alpha 90.000000
_cell_angle_beta 138.763616
_cell_angle_gamma 90.000000
_cell_volume 868.489732
_symmetry_space_group_name_H-M "P 2/C"
_symmetry_group_IT_number 13
_symmetry_cell_setting 'monoclinic'
loop_
_space_group_symop_operation_xyz
x,y,z
-x,y,1/2-z
-x,-y,-z
x,-y,1/2+z
loop_
_atom_site_type_symbol
_atom_site_label
_atom_site_fract_x
_atom_site_fract_y
_atom_site_fract_z
Si Si1 0.000000 0.633841 0.250000
Si Si2 0.695066 0.141431 0.951491
Si Si3 0.655354 0.320343 0.134402
Si Si4 0.000000 0.027400 0.750000
Si Si5 0.628635 0.538450 0.958418
Si Si6 0.984219 0.792452 0.453167
O O1 0.102673 0.706171 0.217776
O O2 0.167251 0.563504 0.446368
O O3 0.500000 0.084953 0.750000
O O4 0.831432 0.185667 0.944310
O O5 0.623729 0.245392 0.983680
O O6 0.812806 0.050144 0.125621
O O7 0.468130 0.339204 0.076553
O O8 0.826460 0.263353 0.343496
O O9 0.682119 0.452896 0.114942
O O10 0.031268 0.094516 0.907162
O O11 0.500000 0.478790 0.750000
#
# Coordination Sequence:
#
# PCOD8122834 Si02
#       6
#     2   4   4   2   4   4
#     4  11  24  41  70  98 140 185 222 291 350 408
#     4  12  25  45  73 103 142 187 231 294 349 417
#     4  11  24  45  71 100 144 182 230 292 348 418
#     4  11  26  47  72 104 138 187 244 289 348 416
#     4  11  24  44  69 106 138 182 236 283 350 429
#     4  11  24  47  69 103 144 183 236 292 348 419
#
# _framework density 23.028482
#
# number of rings (size 3 to 8) (size 9 to 14) (size 15 to 20)
#    0.000    0.800    4.000    2.400    2.800    3.200 
#    7.200    0.000    0.000    0.000    0.000    0.000 
#    0.000    0.000    0.000    0.000    0.000    0.000 
#
# Total GULP energy -247763.554980 kJ/mol
# GULP energy per Si atom -12388.177749 kJ/mol
# Density = 2.297607 g / cm^3
# Si number density = 23.028482 Si / 1000 Ang^3
#
#
#
# Elastic Constant Matrix: (Units=GPa)
#
#
# Indices 1 2 3 4 5 6 
#
# 1 94.8074 38.9823 61.6561 0.0000 3.1166 0.0000
# 2 38.9823 99.5651 69.3790 0.0000 8.6934 0.0000
# 3 61.6561 69.3790 166.2760 0.0000 25.1375 0.0000
# 4 0.0000 0.0000 0.0000 41.3332 0.0000 -18.1279
# 5 3.1166 8.6934 25.1375 0.0000 47.6411 0.0000
# 6 0.0000 0.0000 0.0000 -18.1279 0.0000 21.3861
#
#
#
# Elastic Compliance Matrix: (Units=1/GPa)
#
#
# Indices 1 2 3 4 5 6 
#
# 1 0.014562 -0.002684 -0.004575 0.000000 0.001951 0.000000
# 2 -0.002684 0.014670 -0.005159 0.000000 0.000221 0.000000
# 3 -0.004575 -0.005159 0.010514 0.000000 -0.004307 0.000000
# 4 0.000000 0.000000 0.000000 0.038510 0.000000 0.032643
# 5 0.001951 0.000221 -0.004307 0.000000 0.023095 0.000000
# 6 0.000000 0.000000 0.000000 0.032643 0.000000 0.074429
#
#
# Mechanical properties :
#
#
# Convention : Reuss Voigt Hill
#
# Bulk Modulus (GPa) = 67.06636 77.85368 72.46002
# Shear Modulus (GPa) = 24.32048 34.78083 29.55066
#
# Velocity S-wave (km/s) = 3.25330 3.89053 3.58610
# Velocity P-wave (km/s) = 6.58015 7.35272 6.97714
#
# Compressibility (1/GPa) = 0.01491060
#
# Stress axis : x y z
#
# Youngs Moduli (GPa) = 68.67038 68.16429 95.10786
#
# Poissons Ratio (x) = 0.18296 0.43510
# Poissons Ratio (y) = 0.18431 0.49070
# Poissons Ratio (z) = 0.31415 0.35169
#
# Static dielectric constant tensor:
#      x y z
#    x 4.314850 0.000000 -0.023780 
#    y 0.000000 4.132200 0.000000 
#    z -0.023780 0.000000 4.251190 
# 
# 
# High freq. dielectric constant tensor:
#      x y z
#    x 1.911930 0.000000 -0.006730 
#    y 0.000000 1.897780 0.000000 
#    z -0.006730 0.000000 1.927450 
# 
# From -- ./inp_files/33447.got.cif
#   From: 2010.06.25/outbox.cif.g09.slc.cpg/sg13_17_cif.got.tgz:33447.got - 2010.06.28 04:50:58.
