data_PCOD8122094
_publ_section_title
;
Structure prediction by ZEFSAII (Michael W. Deem and Ramdas Pophale) SiO2 
 PCOD8122094
Probable space group: P 2/C
;
_chemical_formula_sum "Si O2"
_cell_formula_units_Z 26
_cell_length_a 11.931693
_cell_length_b 13.755584
_cell_length_c 15.317661
_cell_angle_alpha 90.000000
_cell_angle_beta 28.243128
_cell_angle_gamma 90.000000
_cell_volume 1189.682716
_symmetry_space_group_name_H-M "P 2/C"
_symmetry_group_IT_number 13
_symmetry_cell_setting 'monoclinic'
loop_
_space_group_symop_operation_xyz
x,y,z
-x,y,1/2-z
-x,-y,-z
x,-y,1/2+z
loop_
_atom_site_type_symbol
_atom_site_label
_atom_site_fract_x
_atom_site_fract_y
_atom_site_fract_z
Si Si1 0.000000 0.144358 0.750000
Si Si2 0.202178 0.609170 0.293908
Si Si3 0.560899 0.721741 0.511786
Si Si4 0.682928 0.415237 0.193323
Si Si5 0.280363 0.797665 0.341282
Si Si6 0.130532 0.959034 0.325819
Si Si7 0.143445 0.844646 0.741726
O O1 0.240403 0.204550 0.592493
O O2 0.960190 0.081913 0.865882
O O3 0.266820 0.498855 0.271111
O O4 0.300297 0.686231 0.297109
O O5 0.919146 0.618842 0.481502
O O6 0.314639 0.632683 0.123454
O O7 0.428061 0.679882 0.686864
O O8 0.363647 0.771019 0.584200
O O9 0.500000 0.459698 0.250000
O O10 0.500000 0.826328 0.250000
O O11 0.295446 0.870181 0.246449
O O12 0.036013 0.809729 0.560238
O O13 0.258084 0.051247 0.191920
O O14 0.000000 0.000000 0.500000
O O15 0.000000 0.849469 0.750000
#
# Coordination Sequence:
#
# PCOD8122094 Si02
#       7
#     2   4   4   4   4   4   4
#     4  12  24  44  72 100 142 184 232 294 342 416
#     4  11  23  46  68 101 136 179 228 283 345 416
#     4  12  25  44  72 102 139 178 235 284 351 414
#     4  11  25  43  70  99 136 178 225 285 347 412
#     4  11  22  43  69  97 138 183 229 283 350 413
#     4  10  24  43  66 101 137 183 235 283 349 412
#     4  11  24  41  66 100 137 179 231 289 344 413
#
# _framework density 21.854566999999999
#
# number of rings (size 3 to 8) (size 9 to 14) (size 15 to 20)
#    0.000    0.923    3.846    2.769    0.000    3.077 
#    0.000    0.000    0.000    0.000    0.000    0.000 
#    0.000    0.000    0.000    0.000    0.000    0.000 
#
# Total GULP energy -322348.054709 kJ/mol
# GULP energy per Si atom -12398.002104 kJ/mol
# Density = 2.180482 g / cm^3
# Si number density = 21.854567 Si / 1000 Ang^3
#
#
#
# Elastic Constant Matrix: (Units=GPa)
#
#
# Indices 1 2 3 4 5 6 
#
# 1 129.6313 25.9974 42.0297 0.0000 -9.5705 0.0000
# 2 25.9974 81.5835 34.2367 0.0000 -7.3081 0.0000
# 3 42.0297 34.2367 107.4243 0.0000 -12.5133 0.0000
# 4 0.0000 0.0000 0.0000 30.6168 0.0000 6.4934
# 5 -9.5705 -7.3081 -12.5133 0.0000 32.5251 0.0000
# 6 0.0000 0.0000 0.0000 6.4934 0.0000 31.7427
#
#
#
# Elastic Compliance Matrix: (Units=1/GPa)
#
#
# Indices 1 2 3 4 5 6 
#
# 1 0.009058 -0.001559 -0.002908 0.000000 0.001196 0.000000
# 2 -0.001559 0.014490 -0.003855 0.000000 0.001314 0.000000
# 3 -0.002908 -0.003855 0.012013 0.000000 0.002900 0.000000
# 4 0.000000 0.000000 0.000000 0.034143 0.000000 -0.006984
# 5 0.001196 0.001314 0.002900 0.000000 0.032508 0.000000
# 6 0.000000 0.000000 0.000000 -0.006984 0.000000 0.032932
#
#
# Mechanical properties :
#
#
# Convention : Reuss Voigt Hill
#
# Bulk Modulus (GPa) = 52.86198 58.12964 55.49581
# Shear Modulus (GPa) = 31.62696 33.40193 32.51444
#
# Velocity S-wave (km/s) = 3.80828 3.91368 3.86134
# Velocity P-wave (km/s) = 6.60135 6.86139 6.73263
#
# Compressibility (1/GPa) = 0.01891719
#
# Stress axis : x y z
#
# Youngs Moduli (GPa) = 110.40070 69.01506 83.24394
#
# Poissons Ratio (x) = 0.10760 0.24205
# Poissons Ratio (y) = 0.17212 0.32090
# Poissons Ratio (z) = 0.32101 0.26605
#
# Static dielectric constant tensor:
#      x y z
#    x 3.978320 0.000000 0.061770 
#    y 0.000000 4.105740 0.000000 
#    z 0.061770 0.000000 3.940870 
# 
# 
# High freq. dielectric constant tensor:
#      x y z
#    x 1.861860 0.000000 0.006880 
#    y 0.000000 1.869390 0.000000 
#    z 0.006880 0.000000 1.860290 
# 
# From -- ./inp_files/51424.got.cif
#   From: 2010.06.25/outbox.cif.g09.slc.cpg/sg13_26_cif.got.tgz:51424.got - 2010.06.28 04:50:58.
