data_PCOD8122390
_publ_section_title
;
Structure prediction by ZEFSAII (Michael W. Deem and Ramdas Pophale) SiO2 
 PCOD8122390
Probable space group: P 2/C
;
_chemical_formula_sum "Si O2"
_cell_formula_units_Z 28
_cell_length_a 13.030405
_cell_length_b 8.999552
_cell_length_c 16.868675
_cell_angle_alpha 90.000000
_cell_angle_beta 137.557689
_cell_angle_gamma 90.000000
_cell_volume 1334.951345
_symmetry_space_group_name_H-M "P 2/C"
_symmetry_group_IT_number 13
_symmetry_cell_setting 'monoclinic'
loop_
_space_group_symop_operation_xyz
x,y,z
-x,y,1/2-z
-x,-y,-z
x,-y,1/2+z
loop_
_atom_site_type_symbol
_atom_site_label
_atom_site_fract_x
_atom_site_fract_y
_atom_site_fract_z
Si Si1 0.316376 0.666680 0.911486
Si Si2 0.967086 0.723042 0.942899
Si Si3 0.874761 0.507143 0.081801
Si Si4 0.101136 0.753015 0.189305
Si Si5 0.601288 0.584103 0.157360
Si Si6 0.107224 0.913605 0.740052
Si Si7 0.661021 0.601529 0.833610
O O1 0.164437 0.586016 0.861369
O O2 0.391748 0.574479 0.883333
O O3 0.266739 0.827539 0.848657
O O4 0.445967 0.677090 0.053107
O O5 0.970781 0.861769 0.886077
O O6 0.791812 0.697753 0.866854
O O7 0.028569 0.578399 0.931193
O O8 0.068526 0.763242 0.076496
O O9 0.969844 0.655420 0.157252
O O10 0.713627 0.553697 0.951433
O O11 0.262726 0.681976 0.298104
O O12 0.119927 0.910640 0.242115
O O13 0.621657 0.548381 0.261692
O O14 0.000000 0.866965 0.750000
O O15 0.500000 0.691270 0.750000
#
# Coordination Sequence:
#
# PCOD8122390 Si02
#       7
#     4   4   4   4   4   4   4
#     4  11  24  39  63  94 129 166 202 265 320 384
#     4  11  21  42  65  92 120 165 213 264 312 372
#     4  11  20  37  68  95 118 155 225 268 309 373
#     4  11  24  39  64  93 124 168 214 264 309 382
#     4  11  22  40  64  93 126 164 209 259 320 373
#     4  12  25  40  62  93 133 168 207 255 327 383
#     4  11  19  35  65  97 120 157 210 269 315 367
#
# _framework density 20.974546
#
# number of rings (size 3 to 8) (size 9 to 14) (size 15 to 20)
#    0.000    0.857    7.143    1.286    2.000    0.571 
#    0.000    0.000    6.286    0.000    0.000    0.000 
#    0.000    0.000    0.000    0.000    0.000    0.000 
#
# Total GULP energy -347127.170229 kJ/mol
# GULP energy per Si atom -12397.398937 kJ/mol
# Density = 2.092681 g / cm^3
# Si number density = 20.974546 Si / 1000 Ang^3
#
#
#
# Elastic Constant Matrix: (Units=GPa)
#
#
# Indices 1 2 3 4 5 6 
#
# 1 67.4417 13.7397 19.7161 0.0000 10.4706 0.0000
# 2 13.7397 105.4312 48.9003 0.0000 14.1511 0.0000
# 3 19.7161 48.9003 90.0081 0.0000 14.3292 0.0000
# 4 0.0000 0.0000 0.0000 23.2729 0.0000 -4.4928
# 5 10.4706 14.1511 14.3292 0.0000 35.7030 0.0000
# 6 0.0000 0.0000 0.0000 -4.4928 0.0000 20.0490
#
#
#
# Elastic Compliance Matrix: (Units=1/GPa)
#
#
# Indices 1 2 3 4 5 6 
#
# 1 0.016265 -0.000342 -0.002820 0.000000 -0.003503 0.000000
# 2 -0.000342 0.012885 -0.006547 0.000000 -0.002379 0.000000
# 3 -0.002820 -0.006547 0.015746 0.000000 -0.002898 0.000000
# 4 0.000000 0.000000 0.000000 0.044911 0.000000 0.010064
# 5 -0.003503 -0.002379 -0.002898 0.000000 0.031142 0.000000
# 6 0.000000 0.000000 0.000000 0.010064 0.000000 0.052133
#
#
# Mechanical properties :
#
#
# Convention : Reuss Voigt Hill
#
# Bulk Modulus (GPa) = 39.24591 47.51036 43.37813
# Shear Modulus (GPa) = 24.87654 27.83997 26.35825
#
# Velocity S-wave (km/s) = 3.44762 3.64720 3.54881
# Velocity P-wave (km/s) = 5.88217 6.35898 6.12522
#
# Compressibility (1/GPa) = 0.02548036
#
# Stress axis : x y z
#
# Youngs Moduli (GPa) = 61.48019 77.60828 63.50894
#
# Poissons Ratio (x) = 0.02652 0.17907
# Poissons Ratio (y) = 0.02101 0.41578
# Poissons Ratio (z) = 0.17335 0.50808
#
# Static dielectric constant tensor:
#      x y z
#    x 3.828670 0.000000 0.002140 
#    y 0.000000 3.431560 0.000000 
#    z 0.002140 0.000000 4.137970 
# 
# 
# High freq. dielectric constant tensor:
#      x y z
#    x 1.829510 0.000000 -0.005320 
#    y 0.000000 1.779960 0.000000 
#    z -0.005320 0.000000 1.841140 
# 
# From -- ./inp_files/68238.got.cif
#   From: 2010.06.25/outbox.cif.g09.slc.cpg/sg13_35_cif.got.tgz:68238.got - 2010.06.28 04:50:58.
