data_PCOD8122293
_publ_section_title
;
Structure prediction by ZEFSAII (Michael W. Deem and Ramdas Pophale) SiO2 
 PCOD8122293
Probable space group: P 2/C
;
_chemical_formula_sum "Si O2"
_cell_formula_units_Z 28
_cell_length_a 26.146591
_cell_length_b 9.377505
_cell_length_c 9.241362
_cell_angle_alpha 90.000000
_cell_angle_beta 143.937722
_cell_angle_gamma 90.000000
_cell_volume 1333.847065
_symmetry_space_group_name_H-M "P 2/C"
_symmetry_group_IT_number 13
_symmetry_cell_setting 'monoclinic'
loop_
_space_group_symop_operation_xyz
x,y,z
-x,y,1/2-z
-x,-y,-z
x,-y,1/2+z
loop_
_atom_site_type_symbol
_atom_site_label
_atom_site_fract_x
_atom_site_fract_y
_atom_site_fract_z
Si Si1 0.436156 0.519625 0.984479
Si Si2 0.011595 0.647743 0.442202
Si Si3 0.144726 0.856547 0.391668
Si Si4 0.663721 0.763246 0.162519
Si Si5 0.303755 0.754071 0.589665
Si Si6 0.439894 0.972875 0.996479
Si Si7 0.169157 0.846097 0.788167
O O1 0.391289 0.376247 0.933066
O O2 0.357231 0.619721 0.763601
O O3 0.500000 0.586170 0.250000
O O4 0.500000 0.500000 0.000000
O O5 0.106234 0.715253 0.686207
O O6 0.000000 0.605425 0.250000
O O7 0.000000 0.500000 0.500000
O O8 0.945062 0.772689 0.334662
O O9 0.213265 0.755310 0.466995
O O10 0.168405 0.877373 0.614669
O O11 0.139938 0.011227 0.305621
O O12 0.734657 0.795145 0.448287
O O13 0.591191 0.884950 0.993660
O O14 0.711902 0.751646 0.118192
O O15 0.353621 0.895220 0.749962
O O16 0.500000 0.887719 0.250000
O O17 0.500000 0.000000 0.000000
#
# Coordination Sequence:
#
# PCOD8122293 Si02
#       7
#     4   4   4   4   4   4   4
#     4  12  26  47  67  91 135 186 234 284 345 401
#     4  10  25  48  74 106 139 178 222 269 334 408
#     4  11  25  45  72 105 138 178 225 275 339 404
#     4  12  26  45  65 100 138 176 229 283 339 401
#     4  12  26  44  67  99 135 180 228 281 342 399
#     4  12  24  41  67  93 133 176 226 279 332 391
#     4  11  25  45  72 104 140 177 223 279 336 405
#
# _framework density 20.991911999999999
#
# number of rings (size 3 to 8) (size 9 to 14) (size 15 to 20)
#    0.000    0.571    4.286    3.000    6.000    2.286 
#    0.000    0.000    0.000    0.000    0.000    0.000 
#    0.000    0.000    0.000    0.000    0.000    0.000 
#
# Total GULP energy -347195.611997 kJ/mol
# GULP energy per Si atom -12399.843286 kJ/mol
# Density = 2.094413 g / cm^3
# Si number density = 20.991912 Si / 1000 Ang^3
#
#
#
# Elastic Constant Matrix: (Units=GPa)
#
#
# Indices 1 2 3 4 5 6 
#
# 1 134.9264 34.4807 36.9513 0.0000 -12.8028 0.0000
# 2 34.4807 108.6889 22.9364 0.0000 -5.7784 0.0000
# 3 36.9513 22.9364 101.6153 0.0000 -9.0161 0.0000
# 4 0.0000 0.0000 0.0000 32.1348 0.0000 6.0720
# 5 -12.8028 -5.7784 -9.0161 0.0000 38.0218 0.0000
# 6 0.0000 0.0000 0.0000 6.0720 0.0000 40.7063
#
#
#
# Elastic Compliance Matrix: (Units=1/GPa)
#
#
# Indices 1 2 3 4 5 6 
#
# 1 0.008857 -0.002163 -0.002551 0.000000 0.002049 0.000000
# 2 -0.002163 0.010224 -0.001479 0.000000 0.000475 0.000000
# 3 -0.002551 -0.001479 0.011243 0.000000 0.001582 0.000000
# 4 0.000000 0.000000 0.000000 0.032022 0.000000 -0.004777
# 5 0.002049 0.000475 0.001582 0.000000 0.027438 0.000000
# 6 0.000000 0.000000 0.000000 -0.004777 0.000000 0.025279
#
#
# Mechanical properties :
#
#
# Convention : Reuss Voigt Hill
#
# Bulk Modulus (GPa) = 55.74542 59.32970 57.53756
# Shear Modulus (GPa) = 37.47362 38.89671 38.18516
#
# Velocity S-wave (km/s) = 4.22968 4.30925 4.26965
# Velocity P-wave (km/s) = 7.10401 7.28587 7.19552
#
# Compressibility (1/GPa) = 0.01793869
#
# Stress axis : x y z
#
# Youngs Moduli (GPa) = 112.90365 97.80868 88.94492
#
# Poissons Ratio (x) = 0.21152 0.22689
# Poissons Ratio (y) = 0.24417 0.13157
# Poissons Ratio (z) = 0.28800 0.14468
#
# Static dielectric constant tensor:
#      x y z
#    x 3.938370 0.000000 -0.159360 
#    y 0.000000 3.835850 0.000000 
#    z -0.159360 0.000000 3.705350 
# 
# 
# High freq. dielectric constant tensor:
#      x y z
#    x 1.839110 0.000000 -0.000880 
#    y 0.000000 1.827290 0.000000 
#    z -0.000880 0.000000 1.836260 
# 
# From -- ./inp_files/24601.got.cif
#   From: 2010.06.25/outbox.cif.g09.slc.cpg/sg13_13_cif.got.tgz:24601.got - 2010.06.28 04:50:58.
