data_PCOD8122981
_publ_section_title
;
Structure prediction by ZEFSAII (Michael W. Deem and Ramdas Pophale) SiO2 
 PCOD8122981
Probable space group: P 2/C
;
_chemical_formula_sum "Si O2"
_cell_formula_units_Z 20
_cell_length_a 9.824182
_cell_length_b 5.662262
_cell_length_c 17.615370
_cell_angle_alpha 90.000000
_cell_angle_beta 54.730933
_cell_angle_gamma 90.000000
_cell_volume 800.032130
_symmetry_space_group_name_H-M "P 2/C"
_symmetry_group_IT_number 13
_symmetry_cell_setting 'monoclinic'
loop_
_space_group_symop_operation_xyz
x,y,z
-x,y,1/2-z
-x,-y,-z
x,-y,1/2+z
loop_
_atom_site_type_symbol
_atom_site_label
_atom_site_fract_x
_atom_site_fract_y
_atom_site_fract_z
Si Si1 0.725773 0.998748 0.576964
Si Si2 0.992960 0.853907 0.613631
Si Si3 0.500000 0.304164 0.750000
Si Si4 0.000000 0.810098 0.250000
Si Si5 0.762587 0.538425 0.769760
Si Si6 0.496291 0.248882 0.046606
O O1 0.571786 0.147007 0.658675
O O2 0.834096 0.173066 0.487601
O O3 0.840151 0.910287 0.607614
O O4 0.652270 0.772259 0.554739
O O5 0.938664 0.620995 0.676215
O O6 0.018681 0.056511 0.665729
O O7 0.641454 0.465774 0.740714
O O8 0.177043 0.672504 0.196002
O O9 0.675287 0.741001 0.849083
O O10 0.500000 0.500000 0.000000
O O11 0.500000 0.000000 0.000000
#
# Coordination Sequence:
#
# PCOD8122981 Si02
#       6
#     4   4   2   2   4   4
#     4  11  25  49  79 113 162 207 274 339 419 489
#     4  11  26  48  76 113 155 211 269 342 413 504
#     4  12  24  52  80 120 162 216 280 350 412 506
#     4  12  26  50  76 114 160 206 276 344 410 504
#     4  12  27  47  80 108 159 214 274 335 421 488
#     4  12  28  48  79 118 162 213 272 342 408 496
#
# _framework density 24.998998
#
# number of rings (size 3 to 8) (size 9 to 14) (size 15 to 20)
#    0.000    0.400    2.000    5.400    8.400    0.800 
#    3.600    0.000    0.000    0.000    0.000    0.000 
#    0.000    0.000    0.000    0.000    0.000    0.000 
#
# Total GULP energy -247919.928143 kJ/mol
# GULP energy per Si atom -12395.996407 kJ/mol
# Density = 2.494210 g / cm^3
# Si number density = 24.998998 Si / 1000 Ang^3
#
#
#
# Elastic Constant Matrix: (Units=GPa)
#
#
# Indices 1 2 3 4 5 6 
#
# 1 148.8702 65.6885 52.5523 0.0000 20.3442 0.0000
# 2 65.6885 138.6362 63.8593 0.0000 11.1574 0.0000
# 3 52.5523 63.8593 160.5766 0.0000 -5.6491 0.0000
# 4 0.0000 0.0000 0.0000 39.3880 0.0000 -2.7577
# 5 20.3442 11.1574 -5.6491 0.0000 45.1355 0.0000
# 6 0.0000 0.0000 0.0000 -2.7577 0.0000 49.5877
#
#
#
# Elastic Compliance Matrix: (Units=1/GPa)
#
#
# Indices 1 2 3 4 5 6 
#
# 1 0.009313 -0.003254 -0.001882 0.000000 -0.003629 0.000000
# 2 -0.003254 0.010291 -0.003079 0.000000 -0.001463 0.000000
# 3 -0.001882 -0.003079 0.008160 0.000000 0.002631 0.000000
# 4 0.000000 0.000000 0.000000 0.025488 0.000000 0.001417
# 5 -0.003629 -0.001463 0.002631 0.000000 0.024482 0.000000
# 6 0.000000 0.000000 0.000000 0.001417 0.000000 0.020245
#
#
# Mechanical properties :
#
#
# Convention : Reuss Voigt Hill
#
# Bulk Modulus (GPa) = 88.22041 90.25370 89.23705
# Shear Modulus (GPa) = 42.30581 44.55442 43.43012
#
# Velocity S-wave (km/s) = 4.11822 4.22625 4.17258
# Velocity P-wave (km/s) = 7.61441 7.74572 7.68034
#
# Compressibility (1/GPa) = 0.01133525
#
# Stress axis : x y z
#
# Youngs Moduli (GPa) = 107.37435 97.17262 122.54326
#
# Poissons Ratio (x) = 0.31620 0.23057
# Poissons Ratio (y) = 0.34940 0.37732
# Poissons Ratio (z) = 0.20203 0.29920
#
# Static dielectric constant tensor:
#      x y z
#    x 4.911120 0.000000 0.018270 
#    y 0.000000 4.404760 0.000000 
#    z 0.018270 0.000000 4.889460 
# 
# 
# High freq. dielectric constant tensor:
#      x y z
#    x 2.025920 0.000000 0.007450 
#    y 0.000000 1.980530 0.000000 
#    z 0.007450 0.000000 2.012860 
# 
# From -- ./inp_files/65263.got.cif
#   From: 2010.06.25/outbox.cif.g09.slc.cpg/sg13_33_cif.got.tgz:65263.got - 2010.06.28 04:50:58.
