data_PCOD8122079
_publ_section_title
;
Structure prediction by ZEFSAII (Michael W. Deem and Ramdas Pophale) SiO2 
 PCOD8122079
Probable space group: P 2/C
;
_chemical_formula_sum "Si O2"
_cell_formula_units_Z 16
_cell_length_a 31.470750
_cell_length_b 5.153137
_cell_length_c 9.499944
_cell_angle_alpha 90.000000
_cell_angle_beta 26.543127
_cell_angle_gamma 90.000000
_cell_volume 688.465688
_symmetry_space_group_name_H-M "P 2/C"
_symmetry_group_IT_number 13
_symmetry_cell_setting 'monoclinic'
loop_
_space_group_symop_operation_xyz
x,y,z
-x,y,1/2-z
-x,-y,-z
x,-y,1/2+z
loop_
_atom_site_type_symbol
_atom_site_label
_atom_site_fract_x
_atom_site_fract_y
_atom_site_fract_z
Si Si1 0.592276 0.513350 0.132407
Si Si2 0.345283 0.975803 0.187462
Si Si3 0.966510 0.749043 0.686376
Si Si4 0.249771 0.793058 0.224969
O O1 0.500000 0.500000 0.500000
O O2 0.589630 0.280367 0.023882
O O3 0.688487 0.473198 0.942252
O O4 0.592754 0.781356 0.047982
O O5 0.248708 0.941498 0.378305
O O6 0.310459 0.011932 0.447983
O O7 0.000000 0.749519 0.750000
O O8 0.000000 0.500000 0.500000
O O9 0.852966 0.733295 0.031055
O O10 0.000000 0.000000 0.500000
#
# Coordination Sequence:
#
# PCOD8122079 Si02
#       4
#     4   4   4   4
#     4  10  24  43  67  99 139 178 231 278 350 412
#     4  10  24  42  69  97 137 179 225 285 342 411
#     4  12  28  47  75 107 147 189 246 301 368 435
#     4  10  26  43  74  95 145 174 239 280 357 409
#
# _framework density 23.240081
#
# number of rings (size 3 to 8) (size 9 to 14) (size 15 to 20)
#    1.500    0.000    0.000    3.000   10.500    1.000 
#    0.000    0.000    0.000    0.000    0.000    0.000 
#    0.000    0.000    0.000    0.000    0.000    0.000 
#
# Total GULP energy -198212.233949 kJ/mol
# GULP energy per Si atom -12388.264622 kJ/mol
# Density = 2.318719 g / cm^3
# Si number density = 23.240081 Si / 1000 Ang^3
#
#
#
# Elastic Constant Matrix: (Units=GPa)
#
#
# Indices 1 2 3 4 5 6 
#
# 1 105.4722 8.3553 13.2572 0.0000 3.9038 0.0000
# 2 8.3553 136.5139 17.0579 0.0000 4.6927 0.0000
# 3 13.2572 17.0579 105.1984 0.0000 -14.0114 0.0000
# 4 0.0000 0.0000 0.0000 35.8769 0.0000 26.7973
# 5 3.9038 4.6927 -14.0114 0.0000 38.1543 0.0000
# 6 0.0000 0.0000 0.0000 26.7973 0.0000 7.5243
#
#
#
# Elastic Compliance Matrix: (Units=1/GPa)
#
#
# Indices 1 2 3 4 5 6 
#
# 1 0.009735 -0.000376 -0.001359 0.000000 -0.001449 0.000000
# 2 -0.000376 0.007567 -0.001365 0.000000 -0.001393 0.000000
# 3 -0.001359 -0.001365 0.010450 0.000000 0.004145 0.000000
# 4 0.000000 0.000000 0.000000 -0.016790 0.000000 0.059796
# 5 -0.001449 -0.001393 0.004145 0.000000 0.028051 0.000000
# 6 0.000000 0.000000 0.000000 0.059796 0.000000 -0.080056
#
#
# Mechanical properties :
#
#
# Convention : Reuss Voigt Hill
#
# Bulk Modulus (GPa) = 46.39894 47.16948 46.78421
# Shear Modulus (GPa) = -180.78008 36.87871 -71.95068
#
# Velocity S-wave (km/s) = -8.82932 3.98786 -5.57018
# Velocity P-wave (km/s) = 9.16156 6.44552 4.60377
#
# Compressibility (1/GPa) = 0.02155222
#
# Stress axis : x y z
#
# Youngs Moduli (GPa) = 102.71792 132.15683 95.68946
#
# Poissons Ratio (x) = 0.04973 0.13002
# Poissons Ratio (y) = 0.03865 0.13063
# Poissons Ratio (z) = 0.13957 0.18041
#
# Static dielectric constant tensor:
#      x y z
#    x 4.337660 0.000000 0.086180 
#    y 0.000000 4.233520 0.000000 
#    z 0.086180 0.000000 3.927730 
# 
# 
# High freq. dielectric constant tensor:
#      x y z
#    x 1.933560 0.000000 0.003760 
#    y 0.000000 1.926470 0.000000 
#    z 0.003760 0.000000 1.911460 
# 
# From -- ./inp_files/24285.got.cif
#   From: 2010.06.25/outbox.cif.g09.slc.cpg/sg13_13_cif.got.tgz:24285.got - 2010.06.28 04:50:58.
