data_PCOD8122598
_publ_section_title
;
Structure prediction by ZEFSAII (Michael W. Deem and Ramdas Pophale) SiO2 
 PCOD8122598
Probable space group: P 2/C
;
_chemical_formula_sum "Si O2"
_cell_formula_units_Z 20
_cell_length_a 21.526660
_cell_length_b 9.347675
_cell_length_c 13.622029
_cell_angle_alpha 90.000000
_cell_angle_beta 159.547385
_cell_angle_gamma 90.000000
_cell_volume 957.823503
_symmetry_space_group_name_H-M "P 2/C"
_symmetry_group_IT_number 13
_symmetry_cell_setting 'monoclinic'
loop_
_space_group_symop_operation_xyz
x,y,z
-x,y,1/2-z
-x,-y,-z
x,-y,1/2+z
loop_
_atom_site_type_symbol
_atom_site_label
_atom_site_fract_x
_atom_site_fract_y
_atom_site_fract_z
Si Si1 0.971136 0.280771 0.435120
Si Si2 0.427584 0.655638 0.873425
Si Si3 0.353625 0.840684 0.954570
Si Si4 0.639178 0.168496 0.541310
Si Si5 0.903102 0.533548 0.208273
O O1 0.835000 0.158700 0.267764
O O2 0.879995 0.369126 0.210488
O O3 0.160489 0.212289 0.689096
O O4 0.976266 0.388519 0.533860
O O5 0.358357 0.734120 0.868873
O O6 0.272479 0.629852 0.564294
O O7 0.500000 0.500000 0.000000
O O8 0.585296 0.747197 0.059365
O O9 0.379285 0.002672 0.957260
O O10 0.500000 0.791400 0.250000
O O11 0.500000 0.207953 0.250000
O O12 0.000000 0.525107 0.250000
#
# Coordination Sequence:
#
# PCOD8122598 Si02
#       5
#     4   4   4   4   4
#     4  11  23  42  69  96 131 169 222 271 323 388
#     4  12  24  41  69  96 136 172 219 275 333 385
#     4  11  25  44  66  97 134 176 224 269 327 393
#     4  11  24  43  67  99 134 175 219 271 331 393
#     4  11  22  40  66 100 128 168 221 270 327 391
#
# _framework density 20.880673000000002
#
# number of rings (size 3 to 8) (size 9 to 14) (size 15 to 20)
#    0.000    0.800    4.000    3.600    2.800    0.800 
#    0.000    0.000    4.400    0.000    0.000    0.000 
#    0.000    0.000    0.000    0.000    0.000    0.000 
#
# Total GULP energy -247959.079410 kJ/mol
# GULP energy per Si atom -12397.953970 kJ/mol
# Density = 2.083315 g / cm^3
# Si number density = 20.880673 Si / 1000 Ang^3
#
#
#
# Elastic Constant Matrix: (Units=GPa)
#
#
# Indices 1 2 3 4 5 6 
#
# 1 111.2805 47.5792 57.8841 0.0000 25.1423 0.0000
# 2 47.5792 109.8343 39.7399 0.0000 5.1212 0.0000
# 3 57.8841 39.7399 112.6748 0.0000 14.4204 0.0000
# 4 0.0000 0.0000 0.0000 21.9829 0.0000 6.3765
# 5 25.1423 5.1212 14.4204 0.0000 36.8804 0.0000
# 6 0.0000 0.0000 0.0000 6.3765 0.0000 40.0000
#
#
#
# Elastic Compliance Matrix: (Units=1/GPa)
#
#
# Indices 1 2 3 4 5 6 
#
# 1 0.015414 -0.004367 -0.005380 0.000000 -0.007798 0.000000
# 2 -0.004367 0.011674 -0.002155 0.000000 0.002199 0.000000
# 3 -0.005380 -0.002155 0.012518 0.000000 -0.000927 0.000000
# 4 0.000000 0.000000 0.000000 0.047695 0.000000 -0.007603
# 5 -0.007798 0.002199 -0.000927 0.000000 0.032488 0.000000
# 6 0.000000 0.000000 0.000000 -0.007603 0.000000 0.026212
#
#
# Mechanical properties :
#
#
# Convention : Reuss Voigt Hill
#
# Bulk Modulus (GPa) = 63.28908 69.35512 66.32210
# Shear Modulus (GPa) = 28.55957 32.34508 30.45233
#
# Velocity S-wave (km/s) = 3.70232 3.94006 3.82304
# Velocity P-wave (km/s) = 6.97510 7.34751 7.16372
#
# Compressibility (1/GPa) = 0.01580051
#
# Stress axis : x y z
#
# Youngs Moduli (GPa) = 64.87648 85.66347 79.88508
#
# Poissons Ratio (x) = 0.37408 0.42981
# Poissons Ratio (y) = 0.28331 0.17217
# Poissons Ratio (z) = 0.34906 0.18463
#
# Static dielectric constant tensor:
#      x y z
#    x 3.772600 0.000000 0.037400 
#    y 0.000000 4.063000 0.000000 
#    z 0.037400 0.000000 3.439820 
# 
# 
# High freq. dielectric constant tensor:
#      x y z
#    x 1.828990 0.000000 0.003750 
#    y 0.000000 1.821580 0.000000 
#    z 0.003750 0.000000 1.822870 
# 
# From -- ./inp_files/58558.got.cif
#   From: 2010.06.25/outbox.cif.g09.slc.cpg/sg13_30_cif.got.tgz:58558.got - 2010.06.28 04:50:58.
