data_PCOD8122785
_publ_section_title
;
Structure prediction by ZEFSAII (Michael W. Deem and Ramdas Pophale) SiO2 
 PCOD8122785
Probable space group: P 2/C
;
_chemical_formula_sum "Si O2"
_cell_formula_units_Z 22
_cell_length_a 22.634733
_cell_length_b 6.130056
_cell_length_c 13.275188
_cell_angle_alpha 90.000000
_cell_angle_beta 147.965836
_cell_angle_gamma 90.000000
_cell_volume 977.022019
_symmetry_space_group_name_H-M "P 2/C"
_symmetry_group_IT_number 13
_symmetry_cell_setting 'monoclinic'
loop_
_space_group_symop_operation_xyz
x,y,z
-x,y,1/2-z
-x,-y,-z
x,-y,1/2+z
loop_
_atom_site_type_symbol
_atom_site_label
_atom_site_fract_x
_atom_site_fract_y
_atom_site_fract_z
Si Si1 0.216544 0.325014 0.622905
Si Si2 0.767472 0.634080 0.015706
Si Si3 0.295155 0.653301 0.898434
Si Si4 0.386442 0.014840 0.275395
Si Si5 0.873440 0.943567 0.334149
Si Si6 0.500000 0.122918 0.750000
O O1 0.158621 0.481638 0.454259
O O2 0.280775 0.475330 0.793421
O O3 0.306426 0.175977 0.696806
O O4 0.129884 0.184799 0.563805
O O5 0.700592 0.465507 0.987980
O O6 0.839645 0.797717 0.188405
O O7 0.682144 0.759527 0.816955
O O8 0.201083 0.841027 0.763087
O O9 0.419045 0.744753 0.057878
O O10 0.414909 0.009921 0.197208
O O11 0.500000 0.000000 0.500000
O O12 0.000000 0.000000 0.500000
#
# Coordination Sequence:
#
# PCOD8122785 Si02
#       6
#     4   4   4   4   4   2
#     4  11  24  45  69 102 144 180 241 289 356 427
#     4  11  23  45  69 103 146 181 238 289 356 420
#     4  11  25  43  69 103 136 190 235 289 354 425
#     4  12  26  41  68 107 146 191 236 289 351 430
#     4  11  25  50  75 102 142 185 241 300 349 419
#     4  12  22  42  70  98 146 182 234 292 350 418
#
# _framework density 22.517405
#
# number of rings (size 3 to 8) (size 9 to 14) (size 15 to 20)
#    0.000    0.727    3.636    3.273    5.091    4.364 
#    0.000   13.636    0.000    0.000    0.000    0.000 
#    0.000    0.000    0.000    0.000    0.000    0.000 
#
# Total GULP energy -272594.656157 kJ/mol
# GULP energy per Si atom -12390.666189 kJ/mol
# Density = 2.246615 g / cm^3
# Si number density = 22.517405 Si / 1000 Ang^3
#
#
#
# Elastic Constant Matrix: (Units=GPa)
#
#
# Indices 1 2 3 4 5 6 
#
# 1 145.8426 68.5408 41.8567 0.0000 -0.7045 0.0000
# 2 68.5408 131.9382 39.1849 0.0000 2.6873 0.0000
# 3 41.8567 39.1849 80.5604 0.0000 17.6789 0.0000
# 4 0.0000 0.0000 0.0000 22.0151 0.0000 -11.8654
# 5 -0.7045 2.6873 17.6789 0.0000 37.8333 0.0000
# 6 0.0000 0.0000 0.0000 -11.8654 0.0000 48.0282
#
#
#
# Elastic Compliance Matrix: (Units=1/GPa)
#
#
# Indices 1 2 3 4 5 6 
#
# 1 0.009812 -0.004076 -0.003587 0.000000 0.002148 0.000000
# 2 -0.004076 0.010634 -0.003200 0.000000 0.000664 0.000000
# 3 -0.003587 -0.003200 0.017603 0.000000 -0.008065 0.000000
# 4 0.000000 0.000000 0.000000 0.052401 0.000000 0.012946
# 5 0.002148 0.000664 -0.008065 0.000000 0.030193 0.000000
# 6 0.000000 0.000000 0.000000 0.012946 0.000000 0.024019
#
#
# Mechanical properties :
#
#
# Convention : Reuss Voigt Hill
#
# Bulk Modulus (GPa) = 61.26439 73.05623 67.16031
# Shear Modulus (GPa) = 29.09865 35.49257 32.29561
#
# Velocity S-wave (km/s) = 3.59872 3.97448 3.79126
# Velocity P-wave (km/s) = 6.67341 7.31962 7.00397
#
# Compressibility (1/GPa) = 0.01632270
#
# Stress axis : x y z
#
# Youngs Moduli (GPa) = 101.91616 94.04202 56.80733
#
# Poissons Ratio (x) = 0.38328 0.20377
# Poissons Ratio (y) = 0.41538 0.18181
# Poissons Ratio (z) = 0.36558 0.30097
#
# Static dielectric constant tensor:
#      x y z
#    x 4.593540 0.000000 -0.380000 
#    y 0.000000 4.455850 0.000000 
#    z -0.380000 0.000000 3.715800 
# 
# 
# High freq. dielectric constant tensor:
#      x y z
#    x 1.910820 0.000000 -0.022100 
#    y 0.000000 1.906390 0.000000 
#    z -0.022100 0.000000 1.862800 
# 
# From -- ./inp_files/52097.got.cif
#   From: 2010.06.25/outbox.cif.g09.slc.cpg/sg13_27_cif.got.tgz:52097.got - 2010.06.28 04:50:58.
