data_PCOD8122546
_publ_section_title
;
Structure prediction by ZEFSAII (Michael W. Deem and Ramdas Pophale) SiO2 
 PCOD8122546
Probable space group: P 2/C
;
_chemical_formula_sum "Si O2"
_cell_formula_units_Z 16
_cell_length_a 15.901223
_cell_length_b 10.184326
_cell_length_c 18.775468
_cell_angle_alpha 90.000000
_cell_angle_beta 166.031240
_cell_angle_gamma 90.000000
_cell_volume 733.969361
_symmetry_space_group_name_H-M "P 2/C"
_symmetry_group_IT_number 13
_symmetry_cell_setting 'monoclinic'
loop_
_space_group_symop_operation_xyz
x,y,z
-x,y,1/2-z
-x,-y,-z
x,-y,1/2+z
loop_
_atom_site_type_symbol
_atom_site_label
_atom_site_fract_x
_atom_site_fract_y
_atom_site_fract_z
Si Si1 0.889097 0.383829 0.307232
Si Si2 0.527866 0.500034 0.645150
Si Si3 0.437325 0.145129 0.974705
Si Si4 0.650249 0.782881 0.799927
O O1 0.733154 0.480667 0.239300
O O2 0.300462 0.386460 0.664131
O O3 0.842322 0.445101 0.188844
O O4 0.735383 0.237812 0.186408
O O5 0.515816 0.633823 0.680032
O O6 0.068186 0.203958 0.645696
O O7 0.480525 0.137034 0.095500
O O8 0.500000 0.000000 0.000000
O O9 0.500000 0.839906 0.750000
#
# Coordination Sequence:
#
# PCOD8122546 Si02
#       4
#     4   4   4   4
#     4   9  16  29  51  77 103 128 167 219 259 305
#     4   9  16  29  51  78 102 129 164 213 274 315
#     4  11  22  36  56  82 109 148 195 224 260 328
#     4  11  22  36  56  81 110 141 180 236 288 328
#
# _framework density 21.799275000000002
#
# number of rings (size 3 to 8) (size 9 to 14) (size 15 to 20)
#    0.000    2.000    0.000    9.000    0.000    0.000 
#    0.000    0.000    0.000    9.000    0.000    0.000 
#    0.000    0.000    0.000    0.000    0.000    0.000 
#
# Total GULP energy -198245.853172 kJ/mol
# GULP energy per Si atom -12390.365823 kJ/mol
# Density = 2.174966 g / cm^3
# Si number density = 21.799275 Si / 1000 Ang^3
#
#
#
# Elastic Constant Matrix: (Units=GPa)
#
#
# Indices 1 2 3 4 5 6 
#
# 1 80.9438 43.6510 26.5412 0.0000 -36.1690 0.0000
# 2 43.6510 144.3160 50.4684 0.0000 -23.2291 0.0000
# 3 26.5412 50.4684 115.4473 0.0000 -52.1664 0.0000
# 4 0.0000 0.0000 0.0000 22.4025 0.0000 -11.7985
# 5 -36.1690 -23.2291 -52.1664 0.0000 37.6731 0.0000
# 6 0.0000 0.0000 0.0000 -11.7985 0.0000 21.4732
#
#
#
# Elastic Compliance Matrix: (Units=1/GPa)
#
#
# Indices 1 2 3 4 5 6 
#
# 1 0.039421 -0.010101 0.025755 0.000000 0.067282 0.000000
# 2 -0.010101 0.010769 -0.010064 0.000000 -0.016993 0.000000
# 3 0.025755 -0.010064 0.041436 0.000000 0.075899 0.000000
# 4 0.000000 0.000000 0.000000 0.062815 0.000000 0.034514
# 5 0.067282 -0.016993 0.075899 0.000000 0.185760 0.000000
# 6 0.000000 0.000000 0.000000 0.034514 0.000000 0.065533
#
#
# Mechanical properties :
#
#
# Convention : Reuss Voigt Hill
#
# Bulk Modulus (GPa) = 9.72700 64.66981 37.19841
# Shear Modulus (GPa) = 11.65985 30.97952 21.31968
#
# Velocity S-wave (km/s) = 2.31524 3.77387 3.13069
# Velocity P-wave (km/s) = 3.40865 6.97997 5.49267
#
# Compressibility (1/GPa) = 0.10280658
#
# Stress axis : x y z
#
# Youngs Moduli (GPa) = 25.36742 92.86279 24.13345
#
# Poissons Ratio (x) = 0.93796 -0.62156
# Poissons Ratio (y) = 0.25622 0.24288
# Poissons Ratio (z) = -0.65334 0.93457
#
# Static dielectric constant tensor:
#      x y z
#    x 3.821790 0.000000 -0.683300 
#    y 0.000000 3.467910 0.000000 
#    z -0.683300 0.000000 4.556330 
# 
# 
# High freq. dielectric constant tensor:
#      x y z
#    x 1.840480 0.000000 -0.047270 
#    y 0.000000 1.818100 0.000000 
#    z -0.047270 0.000000 1.874970 
# 
# From -- ./inp_files/88446.got.cif
#   From: 2010.06.25/outbox.cif.g09.slc.cpg/sg13_45_cif.got.tgz:88446.got - 2010.06.28 04:50:58.
