data_PCOD8122914
_publ_section_title
;
Structure prediction by ZEFSAII (Michael W. Deem and Ramdas Pophale) SiO2 
 PCOD8122914
Probable space group: P 2/C
;
_chemical_formula_sum "Si O2"
_cell_formula_units_Z 16
_cell_length_a 19.583728
_cell_length_b 6.120105
_cell_length_c 10.211451
_cell_angle_alpha 90.000000
_cell_angle_beta 33.775873
_cell_angle_gamma 90.000000
_cell_volume 680.415236
_symmetry_space_group_name_H-M "P 2/C"
_symmetry_group_IT_number 13
_symmetry_cell_setting 'monoclinic'
loop_
_space_group_symop_operation_xyz
x,y,z
-x,y,1/2-z
-x,-y,-z
x,-y,1/2+z
loop_
_atom_site_type_symbol
_atom_site_label
_atom_site_fract_x
_atom_site_fract_y
_atom_site_fract_z
Si Si1 0.765527 0.589239 0.097705
Si Si2 0.644004 0.666269 0.015751
Si Si3 0.952318 0.307538 0.667726
Si Si4 0.169152 0.017355 0.846652
O O1 0.692577 0.589511 0.078705
O O2 0.676842 0.518868 0.357182
O O3 0.819139 0.830031 0.043381
O O4 0.879552 0.419622 0.904963
O O5 0.500000 0.700954 0.250000
O O6 0.702198 0.896637 0.881724
O O7 0.857501 0.160264 0.738591
O O8 0.000000 0.500000 0.500000
O O9 0.062612 0.157781 0.544964
#
# Coordination Sequence:
#
# PCOD8122914 Si02
#       4
#     4   4   4   4
#     4  12  26  51  77 115 153 201 254 320 387 457
#     4  12  29  51  77 108 152 206 263 319 377 453
#     4  11  24  49  74 114 156 198 245 319 386 462
#     4  11  26  47  77 111 156 197 257 303 397 456
#
# _framework density 23.515052000000001
#
# number of rings (size 3 to 8) (size 9 to 14) (size 15 to 20)
#    0.000    0.500    5.000    0.750    3.500    8.000 
#    0.000    0.000    0.000    0.000    0.000    0.000 
#    0.000    0.000    0.000    0.000    0.000    0.000 
#
# Total GULP energy -198505.512773 kJ/mol
# GULP energy per Si atom -12406.594548 kJ/mol
# Density = 2.346153 g / cm^3
# Si number density = 23.515052 Si / 1000 Ang^3
#
#
#
# Elastic Constant Matrix: (Units=GPa)
#
#
# Indices 1 2 3 4 5 6 
#
# 1 146.5430 79.9186 79.3717 0.0000 15.8270 0.0000
# 2 79.9186 158.7574 82.2320 0.0000 -7.6535 0.0000
# 3 79.3717 82.2320 178.0168 0.0000 -16.8131 0.0000
# 4 0.0000 0.0000 0.0000 46.9175 0.0000 12.2329
# 5 15.8270 -7.6535 -16.8131 0.0000 37.7313 0.0000
# 6 0.0000 0.0000 0.0000 12.2329 0.0000 60.1513
#
#
#
# Elastic Compliance Matrix: (Units=1/GPa)
#
#
# Indices 1 2 3 4 5 6 
#
# 1 0.012397 -0.004433 -0.004234 0.000000 -0.007986 0.000000
# 2 -0.004433 0.009865 -0.002313 0.000000 0.002829 0.000000
# 3 -0.004234 -0.002313 0.009080 0.000000 0.005353 0.000000
# 4 0.000000 0.000000 0.000000 0.022507 0.000000 -0.004577
# 5 -0.007986 0.002829 0.005353 0.000000 0.032812 0.000000
# 6 0.000000 0.000000 0.000000 -0.004577 0.000000 0.017556
#
#
# Mechanical properties :
#
#
# Convention : Reuss Voigt Hill
#
# Bulk Modulus (GPa) = 106.59445 107.37353 106.98399
# Shear Modulus (GPa) = 38.66853 45.07968 41.87410
#
# Velocity S-wave (km/s) = 4.05954 4.38317 4.22445
# Velocity P-wave (km/s) = 8.20986 8.44849 8.33003
#
# Compressibility (1/GPa) = 0.00938135
#
# Stress axis : x y z
#
# Youngs Moduli (GPa) = 80.66395 101.36904 110.13814
#
# Poissons Ratio (x) = 0.44932 0.46634
# Poissons Ratio (y) = 0.35755 0.25479
# Poissons Ratio (z) = 0.34155 0.23451
#
# Static dielectric constant tensor:
#      x y z
#    x 4.353660 0.000000 0.060270 
#    y 0.000000 4.685080 0.000000 
#    z 0.060270 0.000000 4.361410 
# 
# 
# High freq. dielectric constant tensor:
#      x y z
#    x 1.953640 0.000000 0.013830 
#    y 0.000000 1.955170 0.000000 
#    z 0.013830 0.000000 1.921530 
# 
# From -- ./inp_files/31131.got.cif
#   From: 2010.06.25/outbox.cif.g09.slc.cpg/sg13_16_cif.got.tgz:31131.got - 2010.06.28 04:50:58.
