data_PCOD8122003
_publ_section_title
;
Structure prediction by ZEFSAII (Michael W. Deem and Ramdas Pophale) SiO2 
 PCOD8122003
Probable space group: P 2/C
;
_chemical_formula_sum "Si O2"
_cell_formula_units_Z 22
_cell_length_a 21.098833
_cell_length_b 4.896139
_cell_length_c 8.953274
_cell_angle_alpha 90.000000
_cell_angle_beta 69.528267
_cell_angle_gamma 90.000000
_cell_volume 866.486345
_symmetry_space_group_name_H-M "P 2/C"
_symmetry_group_IT_number 13
_symmetry_cell_setting 'monoclinic'
loop_
_space_group_symop_operation_xyz
x,y,z
-x,y,1/2-z
-x,-y,-z
x,-y,1/2+z
loop_
_atom_site_type_symbol
_atom_site_label
_atom_site_fract_x
_atom_site_fract_y
_atom_site_fract_z
Si Si1 0.131731 0.702830 0.793337
Si Si2 0.500000 0.978602 0.750000
Si Si3 0.956707 0.194586 0.642643
Si Si4 0.223141 0.449562 0.472723
Si Si5 0.407808 0.833623 0.575070
Si Si6 0.314049 0.667666 0.157467
O O1 0.071931 0.486999 0.894786
O O2 0.166669 0.601513 0.614689
O O3 0.185042 0.742157 0.883895
O O4 0.106913 0.002760 0.766079
O O5 0.455106 0.781368 0.680791
O O6 0.546866 0.176098 0.611061
O O7 0.000000 0.272056 0.750000
O O8 0.000000 0.000000 0.500000
O O9 0.267059 0.671661 0.343441
O O10 0.270608 0.270008 0.543280
O O11 0.345247 0.632693 0.615229
O O12 0.376452 0.132488 0.621884
#
# Coordination Sequence:
#
# PCOD8122003 Si02
#       6
#     4   2   4   4   4   4
#     4  11  24  41  62  91 122 157 202 247 300 357
#     4  10  24  40  64  90 124 160 200 250 300 354
#     4  12  24  41  64  90 122 160 200 247 300 357
#     4  10  24  41  64  90 122 160 200 250 300 354
#     4  11  24  41  62  91 122 160 202 247 300 357
#     4  11  24  41  64  90 122 160 202 247 300 357
#
# _framework density 25.389900999999998
#
# number of rings (size 3 to 8) (size 9 to 14) (size 15 to 20)
#    0.000    1.091    0.000    5.455    0.000   13.091 
#    0.000    0.000    0.000    0.000    0.000    0.000 
#    0.000    0.000    0.000    0.000    0.000    0.000 
#
# Total GULP energy -272832.681644 kJ/mol
# GULP energy per Si atom -12401.485529 kJ/mol
# Density = 2.533211 g / cm^3
# Si number density = 25.389901 Si / 1000 Ang^3
#
#
#
# Elastic Constant Matrix: (Units=GPa)
#
#
# Indices 1 2 3 4 5 6 
#
# 1 101.5142 1.8108 18.2870 0.0000 16.6302 0.0000
# 2 1.8108 58.3386 -18.1894 0.0000 15.7577 0.0000
# 3 18.2870 -18.1894 104.9039 0.0000 13.1249 0.0000
# 4 0.0000 0.0000 0.0000 8.5614 0.0000 2.2924
# 5 16.6302 15.7577 13.1249 0.0000 35.2373 0.0000
# 6 0.0000 0.0000 0.0000 2.2924 0.0000 10.9244
#
#
#
# Elastic Compliance Matrix: (Units=1/GPa)
#
#
# Indices 1 2 3 4 5 6 
#
# 1 0.010865 0.000649 -0.001158 0.000000 -0.004987 0.000000
# 2 0.000649 0.022015 0.005217 0.000000 -0.012094 0.000000
# 3 -0.001158 0.005217 0.011393 0.000000 -0.006030 0.000000
# 4 0.000000 0.000000 0.000000 0.123758 0.000000 -0.025970
# 5 -0.004987 -0.012094 -0.006030 0.000000 0.038387 0.000000
# 6 0.000000 0.000000 0.000000 -0.025970 0.000000 0.096988
#
#
# Mechanical properties :
#
#
# Convention : Reuss Voigt Hill
#
# Bulk Modulus (GPa) = 18.62568 29.84151 24.23359
# Shear Modulus (GPa) = 16.03156 28.46784 22.24970
#
# Velocity S-wave (km/s) = 2.51552 3.35211 2.96348
# Velocity P-wave (km/s) = 3.97353 5.17310 4.61248
#
# Compressibility (1/GPa) = 0.05368931
#
# Stress axis : x y z
#
# Youngs Moduli (GPa) = 92.04126 45.42453 87.76995
#
# Poissons Ratio (x) = -0.02947 0.10160
# Poissons Ratio (y) = -0.05971 -0.45791
# Poissons Ratio (z) = 0.10655 -0.23699
#
# Static dielectric constant tensor:
#      x y z
#    x 4.848630 0.000000 -0.140000 
#    y 0.000000 4.205530 0.000000 
#    z -0.140000 0.000000 4.762320 
# 
# 
# High freq. dielectric constant tensor:
#      x y z
#    x 2.039270 0.000000 -0.004850 
#    y 0.000000 1.986040 0.000000 
#    z -0.004850 0.000000 2.027250 
# 
# From -- ./inp_files/22219.got.cif
#   From: 2010.06.25/outbox.cif.g09.slc.cpg/sg13_12_cif.got.tgz:22219.got - 2010.06.28 04:50:58.
