data_PCOD8122706
_publ_section_title
;
Structure prediction by ZEFSAII (Michael W. Deem and Ramdas Pophale) SiO2 
 PCOD8122706
Probable space group: P 2/C
;
_chemical_formula_sum "Si O2"
_cell_formula_units_Z 18
_cell_length_a 11.119636
_cell_length_b 11.165018
_cell_length_c 11.379836
_cell_angle_alpha 90.000000
_cell_angle_beta 142.192363
_cell_angle_gamma 90.000000
_cell_volume 866.074475
_symmetry_space_group_name_H-M "P 2/C"
_symmetry_group_IT_number 13
_symmetry_cell_setting 'monoclinic'
loop_
_space_group_symop_operation_xyz
x,y,z
-x,y,1/2-z
-x,-y,-z
x,-y,1/2+z
loop_
_atom_site_type_symbol
_atom_site_label
_atom_site_fract_x
_atom_site_fract_y
_atom_site_fract_z
Si Si1 0.500000 0.874691 0.750000
Si Si2 0.896480 0.021488 0.047181
Si Si3 0.631528 0.582102 0.246912
Si Si4 0.407666 0.679084 0.853085
Si Si5 0.017786 0.711550 0.891172
O O1 0.312646 0.958314 0.617591
O O2 0.523454 0.785765 0.878754
O O3 0.000000 0.976691 0.250000
O O4 0.867227 0.163495 0.034724
O O5 0.000000 0.000000 0.000000
O O6 0.500000 0.634680 0.250000
O O7 0.631687 0.438382 0.255268
O O8 0.856464 0.624333 0.429366
O O9 0.545583 0.637518 0.063634
O O10 0.197930 0.733652 0.725360
O O11 0.000000 0.648710 0.750000
#
# Coordination Sequence:
#
# PCOD8122706 Si02
#       5
#     2   4   4   4   4
#     4  12  26  44  70  96 134 174 222 272 336 392
#     4  11  27  46  68 100 134 176 228 275 332 396
#     4  11  23  41  68  97 129 172 216 268 333 389
#     4  11  24  43  65  98 133 168 219 271 328 398
#     4  11  23  43  66  95 131 171 220 272 327 394
#
# _framework density 20.783432000000001
#
# number of rings (size 3 to 8) (size 9 to 14) (size 15 to 20)
#    0.000    0.889    5.556    0.667    4.667    0.889 
#    0.000    1.111    0.000    0.000    0.000    0.000 
#    0.000    0.000    0.000    0.000    0.000    0.000 
#
# Total GULP energy -223117.086944 kJ/mol
# GULP energy per Si atom -12395.393719 kJ/mol
# Density = 2.073613 g / cm^3
# Si number density = 20.783432 Si / 1000 Ang^3
#
#
#
# Elastic Constant Matrix: (Units=GPa)
#
#
# Indices 1 2 3 4 5 6 
#
# 1 123.9691 36.6666 49.0573 0.0000 3.7102 0.0000
# 2 36.6666 112.5893 65.2198 0.0000 7.3727 0.0000
# 3 49.0573 65.2198 117.5386 0.0000 5.2133 0.0000
# 4 0.0000 0.0000 0.0000 33.5937 0.0000 5.1726
# 5 3.7102 7.3727 5.2133 0.0000 33.9897 0.0000
# 6 0.0000 0.0000 0.0000 5.1726 0.0000 35.4607
#
#
#
# Elastic Compliance Matrix: (Units=1/GPa)
#
#
# Indices 1 2 3 4 5 6 
#
# 1 0.009775 -0.001192 -0.003406 0.000000 -0.000286 0.000000
# 2 -0.001192 0.013337 -0.006827 0.000000 -0.001716 0.000000
# 3 -0.003406 -0.006827 0.013729 0.000000 -0.000253 0.000000
# 4 0.000000 0.000000 0.000000 0.030451 0.000000 -0.004442
# 5 -0.000286 -0.001716 -0.000253 0.000000 0.029863 0.000000
# 6 0.000000 0.000000 0.000000 -0.004442 0.000000 0.028848
#
#
# Mechanical properties :
#
#
# Convention : Reuss Voigt Hill
#
# Bulk Modulus (GPa) = 71.47063 72.88714 72.17888
# Shear Modulus (GPa) = 32.56973 34.15237 33.36105
#
# Velocity S-wave (km/s) = 3.96296 4.05810 4.01081
# Velocity P-wave (km/s) = 7.44332 7.55669 7.50022
#
# Compressibility (1/GPa) = 0.01399176
#
# Stress axis : x y z
#
# Youngs Moduli (GPa) = 102.29743 74.97974 72.83993
#
# Poissons Ratio (x) = 0.08936 0.24809
# Poissons Ratio (y) = 0.12192 0.49727
# Poissons Ratio (z) = 0.34842 0.51188
#
# Static dielectric constant tensor:
#      x y z
#    x 4.030910 0.000000 -0.121550 
#    y 0.000000 3.821690 0.000000 
#    z -0.121550 0.000000 3.810920 
# 
# 
# High freq. dielectric constant tensor:
#      x y z
#    x 1.823020 0.000000 -0.005440 
#    y 0.000000 1.819060 0.000000 
#    z -0.005440 0.000000 1.814990 
# 
# From -- ./inp_files/25669.got.cif
#   From: 2010.06.25/outbox.cif.g09.slc.cpg/sg13_13_cif.got.tgz:25669.got - 2010.06.28 04:50:58.
