data_PCOD8122114
_publ_section_title
;
Structure prediction by ZEFSAII (Michael W. Deem and Ramdas Pophale) SiO2 
 PCOD8122114
Probable space group: P 2/C
;
_chemical_formula_sum "Si O2"
_cell_formula_units_Z 30
_cell_length_a 30.912249
_cell_length_b 5.512265
_cell_length_c 9.059980
_cell_angle_alpha 90.000000
_cell_angle_beta 122.285742
_cell_angle_gamma 90.000000
_cell_volume 1305.111126
_symmetry_space_group_name_H-M "P 2/C"
_symmetry_group_IT_number 13
_symmetry_cell_setting 'monoclinic'
loop_
_space_group_symop_operation_xyz
x,y,z
-x,y,1/2-z
-x,-y,-z
x,-y,1/2+z
loop_
_atom_site_type_symbol
_atom_site_label
_atom_site_fract_x
_atom_site_fract_y
_atom_site_fract_z
Si Si1 0.654746 0.795229 0.230080
Si Si2 0.940134 0.227167 0.643872
Si Si3 0.258909 0.100748 0.193063
Si Si4 0.905690 0.725872 0.421167
Si Si5 0.543969 0.806310 0.079487
Si Si6 0.211390 0.257045 0.827803
Si Si7 0.500000 0.515893 0.250000
Si Si8 0.688495 0.486008 0.047419
O O1 0.600346 0.925836 0.163019
O O2 0.658171 0.708492 0.066423
O O3 0.657819 0.560478 0.341856
O O4 0.707253 0.938118 0.359553
O O5 0.929804 0.483706 0.540163
O O6 0.922877 0.248805 0.782581
O O7 0.000000 0.180524 0.750000
O O8 0.916300 0.982686 0.524767
O O9 0.307597 0.254931 0.339294
O O10 0.227456 0.979619 0.266167
O O11 0.215687 0.221804 0.012231
O O12 0.845571 0.668765 0.317316
O O13 0.540659 0.671313 0.230165
O O14 0.535842 0.633225 0.925194
O O15 0.500000 0.000000 0.000000
O O16 0.250632 0.469302 0.860264
#
# Coordination Sequence:
#
# PCOD8122114 Si02
#       8
#     4   4   4   4   4   4   2   4
#     4  11  24  40  68  91 125 172 216 264 345 402
#     4  12  26  50  74 111 151 201 259 315 375 442
#     4  11  23  42  63  96 132 176 212 281 330 424
#     4  12  27  44  78 109 148 204 248 318 377 444
#     4  11  24  44  66  95 128 167 217 282 330 409
#     4  11  25  41  66  98 139 172 232 274 349 414
#     4  10  24  44  64  94 122 166 210 276 336 388
#     4  11  23  42  63  95 129 170 215 275 325 419
#
# _framework density 22.986552
#
# number of rings (size 3 to 8) (size 9 to 14) (size 15 to 20)
#    0.000    0.800    2.667    4.000    3.733    4.267 
#    0.000    0.000    0.000    0.000    0.000    0.000 
#    0.000    0.000    0.000    0.000    0.000    0.000 
#
# Total GULP energy -371678.932206 kJ/mol
# GULP energy per Si atom -12389.297740 kJ/mol
# Density = 2.293423 g / cm^3
# Si number density = 22.986552 Si / 1000 Ang^3
#
#
#
# Elastic Constant Matrix: (Units=GPa)
#
#
# Indices 1 2 3 4 5 6 
#
# 1 133.7484 17.4686 39.2762 0.0000 9.0701 0.0000
# 2 17.4686 86.5302 21.5760 0.0000 -9.4221 0.0000
# 3 39.2762 21.5760 90.0044 0.0000 -19.4947 0.0000
# 4 0.0000 0.0000 0.0000 27.8339 0.0000 9.0146
# 5 9.0701 -9.4221 -19.4947 0.0000 44.7410 0.0000
# 6 0.0000 0.0000 0.0000 9.0146 0.0000 22.2970
#
#
#
# Elastic Compliance Matrix: (Units=1/GPa)
#
#
# Indices 1 2 3 4 5 6 
#
# 1 0.009283 -0.001162 -0.004674 0.000000 -0.004163 0.000000
# 2 -0.001162 0.012521 -0.002068 0.000000 0.001972 0.000000
# 3 -0.004674 -0.002068 0.015191 0.000000 0.007131 0.000000
# 4 0.000000 0.000000 0.000000 0.041341 0.000000 -0.016714
# 5 -0.004163 0.001972 0.007131 0.000000 0.026717 0.000000
# 6 0.000000 0.000000 0.000000 -0.016714 0.000000 0.051606
#
#
# Mechanical properties :
#
#
# Convention : Reuss Voigt Hill
#
# Bulk Modulus (GPa) = 47.19712 51.88053 49.53882
# Shear Modulus (GPa) = 27.85045 34.43851 31.14448
#
# Velocity S-wave (km/s) = 3.48458 3.87486 3.68489
# Velocity P-wave (km/s) = 6.06356 6.52980 6.30100
#
# Compressibility (1/GPa) = 0.02118773
#
# Stress axis : x y z
#
# Youngs Moduli (GPa) = 107.71802 79.86291 65.83010
#
# Poissons Ratio (x) = 0.09280 0.30772
# Poissons Ratio (y) = 0.12516 0.13611
# Poissons Ratio (z) = 0.50352 0.16512
#
# Static dielectric constant tensor:
#      x y z
#    x 4.215400 0.000000 -0.158430 
#    y 0.000000 0.191670 0.000000 
#    z -0.158430 0.000000 4.215800 
# 
# 
# High freq. dielectric constant tensor:
#      x y z
#    x 1.918940 0.000000 -0.012240 
#    y 0.000000 1.906110 0.000000 
#    z -0.012240 0.000000 1.921220 
# 
# From -- ./inp_files/24800.got.cif
#   From: 2010.06.25/outbox.cif.g09.slc.cpg/sg13_13_cif.got.tgz:24800.got - 2010.06.28 04:50:58.
