data_PCOD8122653
_publ_section_title
;
Structure prediction by ZEFSAII (Michael W. Deem and Ramdas Pophale) SiO2 
 PCOD8122653
Probable space group: P 2/C
;
_chemical_formula_sum "Si O2"
_cell_formula_units_Z 14
_cell_length_a 6.582703
_cell_length_b 8.196038
_cell_length_c 13.833064
_cell_angle_alpha 90.000000
_cell_angle_beta 125.544425
_cell_angle_gamma 90.000000
_cell_volume 607.256616
_symmetry_space_group_name_H-M "P 2/C"
_symmetry_group_IT_number 13
_symmetry_cell_setting 'monoclinic'
loop_
_space_group_symop_operation_xyz
x,y,z
-x,y,1/2-z
-x,-y,-z
x,-y,1/2+z
loop_
_atom_site_type_symbol
_atom_site_label
_atom_site_fract_x
_atom_site_fract_y
_atom_site_fract_z
Si Si1 0.840159 0.757241 0.474498
Si Si2 0.274588 0.175881 0.355575
Si Si3 0.500000 0.048241 0.750000
Si Si4 0.645502 0.404428 0.389862
O O1 0.749628 0.875729 0.538014
O O2 0.734173 0.840226 0.348101
O O3 0.741502 0.573572 0.457629
O O4 0.139994 0.736886 0.558360
O O5 0.443763 0.336854 0.408998
O O6 0.000000 0.230726 0.250000
O O7 0.394204 0.050103 0.312560
O O8 0.500000 0.426965 0.250000
#
# Coordination Sequence:
#
# PCOD8122653 Si02
#       4
#     4   4   2   4
#     4  11  25  44  73  98 134 175 224 281 330 393
#     4  12  24  44  68  98 138 179 217 276 334 396
#     4  12  26  42  66 104 140 174 220 268 340 406
#     4  11  22  47  71  98 131 173 230 281 326 389
#
# _framework density 23.054504000000001
#
# number of rings (size 3 to 8) (size 9 to 14) (size 15 to 20)
#    0.000    0.571    5.714    1.714    0.000    6.857 
#    0.000    1.429    0.000    0.000    0.000    0.000 
#    0.000    0.000    0.000    0.000    0.000    0.000 
#
# Total GULP energy -173443.228291 kJ/mol
# GULP energy per Si atom -12388.802021 kJ/mol
# Density = 2.300203 g / cm^3
# Si number density = 23.054504 Si / 1000 Ang^3
#
#
#
# Elastic Constant Matrix: (Units=GPa)
#
#
# Indices 1 2 3 4 5 6 
#
# 1 115.4668 48.9160 64.2076 0.0000 10.0458 0.0000
# 2 48.9160 80.1606 23.1473 0.0000 2.7949 0.0000
# 3 64.2076 23.1473 129.0524 0.0000 5.8205 0.0000
# 4 0.0000 0.0000 0.0000 31.3411 0.0000 5.5810
# 5 10.0458 2.7949 5.8205 0.0000 40.9386 0.0000
# 6 0.0000 0.0000 0.0000 5.5810 0.0000 11.7108
#
#
#
# Elastic Compliance Matrix: (Units=1/GPa)
#
#
# Indices 1 2 3 4 5 6 
#
# 1 0.015589 -0.007615 -0.006282 0.000000 -0.002412 0.000000
# 2 -0.007615 0.016889 0.000732 0.000000 0.000612 0.000000
# 3 -0.006282 0.000732 0.010744 0.000000 -0.000036 0.000000
# 4 0.000000 0.000000 0.000000 0.034866 0.000000 -0.016616
# 5 -0.002412 0.000612 -0.000036 0.000000 0.024982 0.000000
# 6 0.000000 0.000000 0.000000 -0.016616 0.000000 0.093310
#
#
# Mechanical properties :
#
#
# Convention : Reuss Voigt Hill
#
# Bulk Modulus (GPa) = 59.19433 66.35794 62.77614
# Shear Modulus (GPa) = 21.89699 29.35870 25.62784
#
# Velocity S-wave (km/s) = 3.08521 3.57241 3.33771
# Velocity P-wave (km/s) = 6.19862 6.77213 6.49171
#
# Compressibility (1/GPa) = 0.01689351
#
# Stress axis : x y z
#
# Youngs Moduli (GPa) = 64.14633 59.20942 93.07163
#
# Poissons Ratio (x) = 0.45088 0.58463
# Poissons Ratio (y) = 0.48848 -0.06811
# Poissons Ratio (z) = 0.40294 -0.04333
#
# Static dielectric constant tensor:
#      x y z
#    x 4.411820 0.000000 0.150010 
#    y 0.000000 3.980310 0.000000 
#    z 0.150010 0.000000 4.347110 
# 
# 
# High freq. dielectric constant tensor:
#      x y z
#    x 1.916770 0.000000 0.010690 
#    y 0.000000 1.896940 0.000000 
#    z 0.010690 0.000000 1.934330 
# 
# From -- ./inp_files/25236.got.cif
#   From: 2010.06.25/outbox.cif.g09.slc.cpg/sg13_13_cif.got.tgz:25236.got - 2010.06.28 04:50:58.
