data_PCOD8122976
_publ_section_title
;
Structure prediction by ZEFSAII (Michael W. Deem and Ramdas Pophale) SiO2 
 PCOD8122976
Probable space group: P 2/C
;
_chemical_formula_sum "Si O2"
_cell_formula_units_Z 18
_cell_length_a 8.878207
_cell_length_b 11.236743
_cell_length_c 8.949060
_cell_angle_alpha 90.000000
_cell_angle_beta 53.213932
_cell_angle_gamma 90.000000
_cell_volume 715.004803
_symmetry_space_group_name_H-M "P 2/C"
_symmetry_group_IT_number 13
_symmetry_cell_setting 'monoclinic'
loop_
_space_group_symop_operation_xyz
x,y,z
-x,y,1/2-z
-x,-y,-z
x,-y,1/2+z
loop_
_atom_site_type_symbol
_atom_site_label
_atom_site_fract_x
_atom_site_fract_y
_atom_site_fract_z
Si Si1 0.324395 0.899807 0.260354
Si Si2 0.818023 0.913321 0.459823
Si Si3 0.209039 0.697870 0.801357
Si Si4 0.789709 0.672477 0.024399
Si Si5 0.500000 0.476765 0.250000
O O1 0.500000 0.947756 0.250000
O O2 0.343451 0.928255 0.072519
O O3 0.292037 0.758298 0.298172
O O4 0.156923 0.972800 0.444891
O O5 0.766366 0.800688 0.592076
O O6 0.000000 0.888609 0.250000
O O7 0.217307 0.747702 0.626764
O O8 0.380680 0.604912 0.708769
O O9 0.003182 0.635305 0.941498
O O10 0.659324 0.557242 0.076567
#
# Coordination Sequence:
#
# PCOD8122976 Si02
#       5
#     4   4   4   4   2
#     4  12  26  44  75 105 151 185 241 292 365 427
#     4  12  26  47  73 109 146 191 238 295 359 436
#     4  11  27  46  75 107 147 190 245 295 367 423
#     4  11  25  49  72 108 147 192 239 303 359 433
#     4  12  26  48  78 104 142 194 248 304 354 430
#
# _framework density 25.174657
#
# number of rings (size 3 to 8) (size 9 to 14) (size 15 to 20)
#    0.000    0.444    3.333    4.000    7.778    1.778 
#    4.000    0.000    0.000    0.000    0.000    0.000 
#    0.000    0.000    0.000    0.000    0.000    0.000 
#
# Total GULP energy -223045.014441 kJ/mol
# GULP energy per Si atom -12391.389691 kJ/mol
# Density = 2.511736 g / cm^3
# Si number density = 25.174657 Si / 1000 Ang^3
#
#
#
# Elastic Constant Matrix: (Units=GPa)
#
#
# Indices 1 2 3 4 5 6 
#
# 1 134.5866 25.0885 18.1353 0.0000 5.6745 0.0000
# 2 25.0885 104.4100 19.2793 0.0000 6.0550 0.0000
# 3 18.1353 19.2793 54.6526 0.0000 20.7149 0.0000
# 4 0.0000 0.0000 0.0000 29.3965 0.0000 -5.0873
# 5 5.6745 6.0550 20.7149 0.0000 42.5864 0.0000
# 6 0.0000 0.0000 0.0000 -5.0873 0.0000 27.8285
#
#
#
# Elastic Compliance Matrix: (Units=1/GPa)
#
#
# Indices 1 2 3 4 5 6 
#
# 1 0.008002 -0.001530 -0.002200 0.000000 0.000221 0.000000
# 2 -0.001530 0.010542 -0.003335 0.000000 0.000327 0.000000
# 3 -0.002200 -0.003335 0.024414 0.000000 -0.011108 0.000000
# 4 0.000000 0.000000 0.000000 0.035129 0.000000 0.006422
# 5 0.000221 0.000327 -0.011108 0.000000 0.028809 0.000000
# 6 0.000000 0.000000 0.000000 0.006422 0.000000 0.037108
#
#
# Mechanical properties :
#
#
# Convention : Reuss Voigt Hill
#
# Bulk Modulus (GPa) = 34.68663 46.51728 40.60195
# Shear Modulus (GPa) = 29.80735 35.37202 32.58969
#
# Velocity S-wave (km/s) = 3.44470 3.75249 3.60188
# Velocity P-wave (km/s) = 5.44330 6.10678 5.78456
#
# Compressibility (1/GPa) = 0.02882955
#
# Stress axis : x y z
#
# Youngs Moduli (GPa) = 124.96316 94.85832 40.95970
#
# Poissons Ratio (x) = 0.14509 0.09010
# Poissons Ratio (y) = 0.19113 0.13661
# Poissons Ratio (z) = 0.27488 0.31638
#
# Static dielectric constant tensor:
#      x y z
#    x 5.301970 0.000000 0.176740 
#    y 0.000000 4.101430 0.000000 
#    z 0.176740 0.000000 4.650070 
# 
# 
# High freq. dielectric constant tensor:
#      x y z
#    x 2.036530 0.000000 0.000350 
#    y 0.000000 1.979960 0.000000 
#    z 0.000350 0.000000 2.002330 
# 
# From -- ./inp_files/11581.got.cif
#   From: 2010.06.25/outbox.cif.g09.slc.cpg/sg13_6_cif.got.tgz:11581.got - 2010.06.28 04:50:58.
