data_PCOD8122097
_publ_section_title
;
Structure prediction by ZEFSAII (Michael W. Deem and Ramdas Pophale) SiO2 
 PCOD8122097
Probable space group: P 2/C
;
_chemical_formula_sum "Si O2"
_cell_formula_units_Z 18
_cell_length_a 7.030266
_cell_length_b 10.283197
_cell_length_c 12.035825
_cell_angle_alpha 90.000000
_cell_angle_beta 107.926115
_cell_angle_gamma 90.000000
_cell_volume 827.872910
_symmetry_space_group_name_H-M "P 2/C"
_symmetry_group_IT_number 13
_symmetry_cell_setting 'monoclinic'
loop_
_space_group_symop_operation_xyz
x,y,z
-x,y,1/2-z
-x,-y,-z
x,-y,1/2+z
loop_
_atom_site_type_symbol
_atom_site_label
_atom_site_fract_x
_atom_site_fract_y
_atom_site_fract_z
Si Si1 0.000000 0.091895 0.750000
Si Si2 0.449035 0.346170 0.364848
Si Si3 0.298564 0.229031 0.650192
Si Si4 0.773163 0.523265 0.491950
Si Si5 0.319274 0.086010 0.430672
O O1 0.115316 0.194347 0.695255
O O2 0.144808 0.997666 0.844631
O O3 0.500000 0.390652 0.250000
O O4 0.648545 0.387941 0.469066
O O5 0.257704 0.418170 0.388667
O O6 0.405872 0.192573 0.359814
O O7 0.500000 0.184953 0.750000
O O8 0.314788 0.380015 0.618593
O O9 0.242774 0.153280 0.528090
O O10 0.000000 0.500000 0.500000
O O11 0.500000 0.000000 0.500000
#
# Coordination Sequence:
#
# PCOD8122097 Si02
#       5
#     2   4   4   4   4
#     4  12  26  42  74 100 140 196 230 294 364 432
#     4  10  24  43  67  96 139 180 228 293 352 418
#     4  11  24  44  68 101 137 184 238 292 358 424
#     4  10  24  43  69 101 136 183 237 294 358 426
#     4  11  25  44  67 100 140 180 236 291 353 420
#
# _framework density 21.742467999999999
#
# number of rings (size 3 to 8) (size 9 to 14) (size 15 to 20)
#    0.000    1.333    2.222    1.333    6.222    8.000 
#    0.000    0.000    0.000    0.000    0.000    0.000 
#    0.000    0.000    0.000    0.000    0.000    0.000 
#
# Total GULP energy -223065.600112 kJ/mol
# GULP energy per Si atom -12392.533340 kJ/mol
# Density = 2.169298 g / cm^3
# Si number density = 21.742468 Si / 1000 Ang^3
#
#
#
# Elastic Constant Matrix: (Units=GPa)
#
#
# Indices 1 2 3 4 5 6 
#
# 1 162.6213 40.3273 53.3798 0.0000 -21.3474 0.0000
# 2 40.3273 67.0430 25.0378 0.0000 -10.7927 0.0000
# 3 53.3798 25.0378 115.8332 0.0000 -18.8588 0.0000
# 4 0.0000 0.0000 0.0000 22.3473 0.0000 1.7572
# 5 -21.3474 -10.7927 -18.8588 0.0000 48.0138 0.0000
# 6 0.0000 0.0000 0.0000 1.7572 0.0000 35.7762
#
#
#
# Elastic Compliance Matrix: (Units=1/GPa)
#
#
# Indices 1 2 3 4 5 6 
#
# 1 0.008162 -0.003621 -0.002692 0.000000 0.001757 0.000000
# 2 -0.003621 0.018101 -0.001970 0.000000 0.001685 0.000000
# 3 -0.002692 -0.001970 0.010718 0.000000 0.002570 0.000000
# 4 0.000000 0.000000 0.000000 0.044922 0.000000 -0.002206
# 5 0.001757 0.001685 0.002570 0.000000 0.022997 0.000000
# 6 0.000000 0.000000 0.000000 -0.002206 0.000000 0.028060
#
#
# Mechanical properties :
#
#
# Convention : Reuss Voigt Hill
#
# Bulk Modulus (GPa) = 48.98441 64.77636 56.88039
# Shear Modulus (GPa) = 31.98375 36.34428 34.16401
#
# Velocity S-wave (km/s) = 3.83956 4.09293 3.96827
# Velocity P-wave (km/s) = 6.49881 7.22450 6.87124
#
# Compressibility (1/GPa) = 0.02041466
#
# Stress axis : x y z
#
# Youngs Moduli (GPa) = 122.52450 55.24652 93.30116
#
# Poissons Ratio (x) = 0.20005 0.25120
# Poissons Ratio (y) = 0.44366 0.18376
# Poissons Ratio (z) = 0.32988 0.10881
#
# Static dielectric constant tensor:
#      x y z
#    x 3.913340 0.000000 -0.266310 
#    y 0.000000 4.045920 0.000000 
#    z -0.266310 0.000000 3.845330 
# 
# 
# High freq. dielectric constant tensor:
#      x y z
#    x 1.859810 0.000000 -0.020120 
#    y 0.000000 1.862820 0.000000 
#    z -0.020120 0.000000 1.854010 
# 
# From -- ./inp_files/25868.got.cif
#   From: 2010.06.25/outbox.cif.g09.slc.cpg/sg13_13_cif.got.tgz:25868.got - 2010.06.28 04:50:58.
