data_PCOD8122246
_publ_section_title
;
Structure prediction by ZEFSAII (Michael W. Deem and Ramdas Pophale) SiO2 
 PCOD8122246
Probable space group: P 2/C
;
_chemical_formula_sum "Si O2"
_cell_formula_units_Z 28
_cell_length_a 14.633001
_cell_length_b 9.237939
_cell_length_c 11.606279
_cell_angle_alpha 90.000000
_cell_angle_beta 59.217762
_cell_angle_gamma 90.000000
_cell_volume 1347.890512
_symmetry_space_group_name_H-M "P 2/C"
_symmetry_group_IT_number 13
_symmetry_cell_setting 'monoclinic'
loop_
_space_group_symop_operation_xyz
x,y,z
-x,y,1/2-z
-x,-y,-z
x,-y,1/2+z
loop_
_atom_site_type_symbol
_atom_site_label
_atom_site_fract_x
_atom_site_fract_y
_atom_site_fract_z
Si Si1 0.459145 0.920851 0.645946
Si Si2 0.243154 0.982731 0.359822
Si Si3 0.748800 0.492649 0.656512
Si Si4 0.423160 0.629517 0.585564
Si Si5 0.384215 0.258278 0.872632
Si Si6 0.891925 0.248296 0.671544
Si Si7 0.132737 0.251757 0.542416
O O1 0.500000 0.973333 0.750000
O O2 0.482099 0.746699 0.630459
O O3 0.500000 0.000000 0.500000
O O4 0.332611 0.946770 0.721098
O O5 0.297931 0.864205 0.405176
O O6 0.154200 0.905537 0.339400
O O7 0.190617 0.103637 0.473114
O O8 0.689605 0.570866 0.799090
O O9 0.654231 0.412291 0.650499
O O10 0.837409 0.382571 0.643476
O O11 0.802764 0.609395 0.540259
O O12 0.500000 0.500000 0.500000
O O13 0.393313 0.734163 0.501613
O O14 0.500000 0.219586 0.750000
O O15 0.872753 0.263525 0.818177
O O16 0.016285 0.252737 0.560345
#
# Coordination Sequence:
#
# PCOD8122246 Si02
#       7
#     4   4   4   4   4   4   4
#     4  12  28  44  68 102 141 185 229 282 337 414
#     4  11  24  42  67  94 136 174 224 272 342 402
#     4  11  23  42  66  95 131 172 219 276 335 404
#     4  12  25  39  65  97 135 179 227 271 331 408
#     4  11  23  42  59  95 139 178 216 272 332 395
#     4  10  25  43  69  95 129 171 216 291 341 396
#     4  11  23  45  68  97 127 168 231 276 342 404
#
# _framework density 20.773199000000002
#
# number of rings (size 3 to 8) (size 9 to 14) (size 15 to 20)
#    0.000    0.857    2.857    3.857    8.000    0.000 
#    0.000    0.000    0.000    6.857    0.000    0.000 
#    0.000    0.000    0.000    0.000    0.000    0.000 
#
# Total GULP energy -347032.038430 kJ/mol
# GULP energy per Si atom -12394.001372 kJ/mol
# Density = 2.072592 g / cm^3
# Si number density = 20.773199 Si / 1000 Ang^3
#
#
#
# Elastic Constant Matrix: (Units=GPa)
#
#
# Indices 1 2 3 4 5 6 
#
# 1 93.8170 42.4874 30.1165 0.0000 -5.8723 0.0000
# 2 42.4874 144.8051 41.8815 0.0000 -10.3066 0.0000
# 3 30.1165 41.8815 104.3246 0.0000 -8.3894 0.0000
# 4 0.0000 0.0000 0.0000 29.0763 0.0000 13.0830
# 5 -5.8723 -10.3066 -8.3894 0.0000 34.5904 0.0000
# 6 0.0000 0.0000 0.0000 13.0830 0.0000 42.5537
#
#
#
# Elastic Compliance Matrix: (Units=1/GPa)
#
#
# Indices 1 2 3 4 5 6 
#
# 1 0.012852 -0.003015 -0.002444 0.000000 0.000691 0.000000
# 2 -0.003015 0.008608 -0.002468 0.000000 0.001454 0.000000
# 3 -0.002444 -0.002468 0.011412 0.000000 0.001617 0.000000
# 4 0.000000 0.000000 0.000000 0.039914 0.000000 -0.012271
# 5 0.000691 0.001454 0.001617 0.000000 0.029853 0.000000
# 6 0.000000 0.000000 0.000000 -0.012271 0.000000 0.027273
#
#
# Mechanical properties :
#
#
# Convention : Reuss Voigt Hill
#
# Bulk Modulus (GPa) = 58.76440 63.54640 61.15540
# Shear Modulus (GPa) = 33.01665 36.47484 34.74575
#
# Velocity S-wave (km/s) = 3.99104 4.19484 4.09421
# Velocity P-wave (km/s) = 7.04186 7.35658 7.20094
#
# Compressibility (1/GPa) = 0.01701711
#
# Stress axis : x y z
#
# Youngs Moduli (GPa) = 77.80703 116.17293 87.62632
#
# Poissons Ratio (x) = 0.35025 0.21419
# Poissons Ratio (y) = 0.23458 0.21629
# Poissons Ratio (z) = 0.19019 0.28676
#
# Static dielectric constant tensor:
#      x y z
#    x 3.973070 0.000000 0.002030 
#    y 0.000000 4.145580 0.000000 
#    z 0.002030 0.000000 3.892330 
# 
# 
# High freq. dielectric constant tensor:
#      x y z
#    x 1.814070 0.000000 -0.001650 
#    y 0.000000 1.840520 0.000000 
#    z -0.001650 0.000000 1.818050 
# 
# From -- ./inp_files/36348.got.cif
#   From: 2010.06.25/outbox.cif.g09.slc.cpg/sg13_19_cif.got.tgz:36348.got - 2010.06.28 04:50:58.
