data_PCOD8122190
_publ_section_title
;
Structure prediction by ZEFSAII (Michael W. Deem and Ramdas Pophale) SiO2 
 PCOD8122190
Probable space group: P 2/C
;
_chemical_formula_sum "Si O2"
_cell_formula_units_Z 20
_cell_length_a 11.165664
_cell_length_b 8.592628
_cell_length_c 9.041582
_cell_angle_alpha 90.000000
_cell_angle_beta 78.283699
_cell_angle_gamma 90.000000
_cell_volume 849.397358
_symmetry_space_group_name_H-M "P 2/C"
_symmetry_group_IT_number 13
_symmetry_cell_setting 'monoclinic'
loop_
_space_group_symop_operation_xyz
x,y,z
-x,y,1/2-z
-x,-y,-z
x,-y,1/2+z
loop_
_atom_site_type_symbol
_atom_site_label
_atom_site_fract_x
_atom_site_fract_y
_atom_site_fract_z
Si Si1 0.153883 0.138622 0.937090
Si Si2 0.706276 0.387694 0.280557
Si Si3 0.399083 0.133097 0.001655
Si Si4 0.857161 0.475602 0.516467
Si Si5 0.000000 0.955076 0.750000
Si Si6 0.500000 0.620784 0.250000
O O1 0.178335 0.317110 0.886714
O O2 0.101372 0.059677 0.804541
O O3 0.282762 0.056201 0.947116
O O4 0.063796 0.143584 0.103727
O O5 0.651753 0.216841 0.335566
O O6 0.812938 0.451029 0.361134
O O7 0.778846 0.380988 0.105976
O O8 0.599200 0.512217 0.301468
O O9 0.451266 0.273522 0.893565
O O10 0.500000 0.000000 0.000000
O O11 0.000000 0.500000 0.500000
#
# Coordination Sequence:
#
# PCOD8122190 Si02
#       6
#     4   4   4   4   2   2
#     4  10  24  46  69 104 140 190 241 298 369 449
#     4  11  24  48  72 104 147 186 246 306 362 446
#     4  11  27  46  72 106 144 193 251 304 367 439
#     4  11  25  43  75 109 139 187 244 298 373 444
#     4  10  24  46  68  98 150 186 230 310 374 438
#     4  12  24  50  66 106 140 190 250 300 368 430
#
# _framework density 23.546106000000002
#
# number of rings (size 3 to 8) (size 9 to 14) (size 15 to 20)
#    0.000    1.200    4.000    1.200   11.200    0.800 
#    7.200    0.000    0.000    0.000    0.000    0.000 
#    0.000    0.000    0.000    0.000    0.000    0.000 
#
# Total GULP energy -247846.733105 kJ/mol
# GULP energy per Si atom -12392.336655 kJ/mol
# Density = 2.349251 g / cm^3
# Si number density = 23.546106 Si / 1000 Ang^3
#
#
#
# Elastic Constant Matrix: (Units=GPa)
#
#
# Indices 1 2 3 4 5 6 
#
# 1 180.4103 59.5169 10.5089 0.0000 19.9267 0.0000
# 2 59.5169 94.3384 25.1040 0.0000 13.7986 0.0000
# 3 10.5089 25.1040 55.4278 0.0000 -1.7233 0.0000
# 4 0.0000 0.0000 0.0000 26.3721 0.0000 -5.0822
# 5 19.9267 13.7986 -1.7233 0.0000 41.6277 0.0000
# 6 0.0000 0.0000 0.0000 -5.0822 0.0000 46.2030
#
#
#
# Elastic Compliance Matrix: (Units=1/GPa)
#
#
# Indices 1 2 3 4 5 6 
#
# 1 0.007175 -0.004391 0.000568 0.000000 -0.001955 0.000000
# 2 -0.004391 0.015532 -0.006305 0.000000 -0.003307 0.000000
# 3 0.000568 -0.006305 0.020873 0.000000 0.002682 0.000000
# 4 0.000000 0.000000 0.000000 0.038740 0.000000 0.004261
# 5 -0.001955 -0.003307 0.002682 0.000000 0.026166 0.000000
# 6 0.000000 0.000000 0.000000 0.004261 0.000000 0.022112
#
#
# Mechanical properties :
#
#
# Convention : Reuss Voigt Hill
#
# Bulk Modulus (GPa) = 42.87708 57.82622 50.35165
# Shear Modulus (GPa) = 31.52011 38.51035 35.01523
#
# Velocity S-wave (km/s) = 3.66273 4.04856 3.86047
# Velocity P-wave (km/s) = 6.01139 6.81663 6.42664
#
# Compressibility (1/GPa) = 0.02332248
#
# Stress axis : x y z
#
# Youngs Moduli (GPa) = 139.38201 64.38238 47.90925
#
# Poissons Ratio (x) = 0.28273 -0.02721
# Poissons Ratio (y) = 0.61209 0.30207
# Poissons Ratio (z) = -0.07915 0.40593
#
# Static dielectric constant tensor:
#      x y z
#    x 22.275620 0.000000 -4.640320 
#    y 0.000000 4.287550 0.000000 
#    z -4.640320 0.000000 5.502900 
# 
# 
# High freq. dielectric constant tensor:
#      x y z
#    x 1.961890 0.000000 -0.000750 
#    y 0.000000 1.918360 0.000000 
#    z -0.000750 0.000000 1.926830 
# 
# From -- ./inp_files/14857.got.cif
#   From: 2010.06.25/outbox.cif.g09.slc.cpg/sg13_8_cif.got.tgz:14857.got - 2010.06.28 04:50:58.
