data_PCOD8122462
_publ_section_title
;
Structure prediction by ZEFSAII (Michael W. Deem and Ramdas Pophale) SiO2 
 PCOD8122462
Probable space group: P 2/C
;
_chemical_formula_sum "Si O2"
_cell_formula_units_Z 22
_cell_length_a 14.387212
_cell_length_b 8.650606
_cell_length_c 24.715662
_cell_angle_alpha 90.000000
_cell_angle_beta 20.717444
_cell_angle_gamma 90.000000
_cell_volume 1088.187396
_symmetry_space_group_name_H-M "P 2/C"
_symmetry_group_IT_number 13
_symmetry_cell_setting 'monoclinic'
loop_
_space_group_symop_operation_xyz
x,y,z
-x,y,1/2-z
-x,-y,-z
x,-y,1/2+z
loop_
_atom_site_type_symbol
_atom_site_label
_atom_site_fract_x
_atom_site_fract_y
_atom_site_fract_z
Si Si1 0.024599 0.039570 0.550283
Si Si2 0.500000 0.186271 0.250000
Si Si3 0.828855 0.423134 0.136909
Si Si4 0.348445 0.305234 0.703760
Si Si5 0.209221 0.498649 0.181521
Si Si6 0.936651 0.253751 0.398534
O O1 0.826700 0.177325 0.671601
O O2 0.330211 0.088745 0.385952
O O3 0.000000 0.000000 0.500000
O O4 0.974421 0.910217 0.623870
O O5 0.679502 0.280144 0.193053
O O6 0.621450 0.544693 0.274233
O O7 0.048034 0.372893 0.060681
O O8 0.000000 0.500000 0.000000
O O9 0.203135 0.362220 0.728468
O O10 0.644089 0.243458 0.532759
O O11 0.000000 0.546053 0.250000
O O12 0.135563 0.326596 0.245088
O O13 0.500000 0.500000 0.000000
#
# Coordination Sequence:
#
# PCOD8122462 Si02
#       6
#     4   2   4   4   4   4
#     4  12  24  42  62 101 147 186 211 269 339 430
#     4  12  22  36  62  90 144 184 228 264 330 396
#     4  11  21  37  60  94 129 177 229 273 322 397
#     4  11  24  41  68  97 132 178 232 279 348 404
#     4  11  24  49  76 100 128 171 236 305 346 396
#     4  11  24  41  66  96 133 178 222 280 351 411
#
# _framework density 20.217106999999999
#
# number of rings (size 3 to 8) (size 9 to 14) (size 15 to 20)
#    0.000    0.727    5.455    2.182    2.545    1.455 
#    0.000    1.818    0.000    0.000    0.000    0.000 
#    0.000    0.000    0.000    0.000    0.000    0.000 
#
# Total GULP energy -272549.439251 kJ/mol
# GULP energy per Si atom -12388.610875 kJ/mol
# Density = 2.017109 g / cm^3
# Si number density = 20.217107 Si / 1000 Ang^3
#
#
#
# Elastic Constant Matrix: (Units=GPa)
#
#
# Indices 1 2 3 4 5 6 
#
# 1 121.1615 42.8933 44.9752 0.0000 -4.9603 0.0000
# 2 42.8933 103.7099 48.0416 0.0000 5.3724 0.0000
# 3 44.9752 48.0416 141.0578 0.0000 0.4906 0.0000
# 4 0.0000 0.0000 0.0000 38.2853 0.0000 7.2932
# 5 -4.9603 5.3724 0.4906 0.0000 33.1971 0.0000
# 6 0.0000 0.0000 0.0000 7.2932 0.0000 38.1738
#
#
#
# Elastic Compliance Matrix: (Units=1/GPa)
#
#
# Indices 1 2 3 4 5 6 
#
# 1 0.010338 -0.003390 -0.002149 0.000000 0.002125 0.000000
# 2 -0.003390 0.012668 -0.003225 0.000000 -0.002509 0.000000
# 3 -0.002149 -0.003225 0.008873 0.000000 0.000070 0.000000
# 4 0.000000 0.000000 0.000000 0.027106 0.000000 -0.005179
# 5 0.002125 -0.002509 0.000070 0.000000 0.030846 0.000000
# 6 0.000000 0.000000 0.000000 -0.005179 0.000000 0.027185
#
#
# Mechanical properties :
#
#
# Convention : Reuss Voigt Hill
#
# Bulk Modulus (GPa) = 69.68283 70.86103 70.27193
# Shear Modulus (GPa) = 35.88629 37.26583 36.57606
#
# Velocity S-wave (km/s) = 4.21770 4.29800 4.25804
# Velocity P-wave (km/s) = 7.63287 7.73024 7.68171
#
# Compressibility (1/GPa) = 0.01435074
#
# Stress axis : x y z
#
# Youngs Moduli (GPa) = 96.72634 78.93670 112.70709
#
# Poissons Ratio (x) = 0.26763 0.24221
# Poissons Ratio (y) = 0.32795 0.36346
# Poissons Ratio (z) = 0.20786 0.25456
#
# Static dielectric constant tensor:
#      x y z
#    x 3.595370 0.000000 0.300500 
#    y 0.000000 3.746800 0.000000 
#    z 0.300500 0.000000 3.470610 
# 
# 
# High freq. dielectric constant tensor:
#      x y z
#    x 1.792600 0.000000 -0.007210 
#    y 0.000000 1.787720 0.000000 
#    z -0.007210 0.000000 1.794740 
# 
# From -- ./inp_files/87361.got.cif
#   From: 2010.06.25/outbox.cif.g09.slc.cpg/sg13_44_cif.got.tgz:87361.got - 2010.06.28 04:50:58.
