data_PCOD8122201
_publ_section_title
;
Structure prediction by ZEFSAII (Michael W. Deem and Ramdas Pophale) SiO2 
 PCOD8122201
Probable space group: P 2/C
;
_chemical_formula_sum "Si O2"
_cell_formula_units_Z 18
_cell_length_a 8.921977
_cell_length_b 12.313527
_cell_length_c 9.391148
_cell_angle_alpha 90.000000
_cell_angle_beta 47.414485
_cell_angle_gamma 90.000000
_cell_volume 759.623315
_symmetry_space_group_name_H-M "P 2/C"
_symmetry_group_IT_number 13
_symmetry_cell_setting 'monoclinic'
loop_
_space_group_symop_operation_xyz
x,y,z
-x,y,1/2-z
-x,-y,-z
x,-y,1/2+z
loop_
_atom_site_type_symbol
_atom_site_label
_atom_site_fract_x
_atom_site_fract_y
_atom_site_fract_z
Si Si1 0.500000 0.009514 0.250000
Si Si2 0.129324 0.320808 0.297268
Si Si3 0.647776 0.473020 0.781238
Si Si4 0.568386 0.855405 0.973824
Si Si5 0.858783 0.747939 0.206311
O O1 0.643019 0.932041 0.057515
O O2 0.612386 0.086223 0.293322
O O3 0.215316 0.419553 0.338870
O O4 0.000000 0.371231 0.250000
O O5 0.997570 0.235548 0.475775
O O6 0.313570 0.257114 0.103142
O O7 0.500000 0.437856 0.750000
O O8 0.791435 0.376289 0.736603
O O9 0.500000 0.500000 0.000000
O O10 0.329299 0.831117 0.158585
O O11 0.000000 0.767433 0.250000
#
# Coordination Sequence:
#
# PCOD8122201 Si02
#       5
#     2   4   4   4   4
#     4  10  24  46  72  96 128 180 214 304 334 392
#     4  12  25  43  70 102 138 182 222 270 333 404
#     4  12  24  42  68 101 143 182 218 269 328 396
#     4  11  24  47  70  96 138 169 232 275 350 386
#     4  12  25  43  70 102 138 182 222 270 333 404
#
# _framework density 23.695954
#
# number of rings (size 3 to 8) (size 9 to 14) (size 15 to 20)
#    0.000    0.444    2.222    6.667    3.111    0.000 
#    0.000   22.222    0.000    0.000    0.000    0.000 
#    0.000    0.000    0.000    0.000    0.000    0.000 
#
# Total GULP energy -223076.454763 kJ/mol
# GULP energy per Si atom -12393.136376 kJ/mol
# Density = 2.364202 g / cm^3
# Si number density = 23.695954 Si / 1000 Ang^3
#
#
#
# Elastic Constant Matrix: (Units=GPa)
#
#
# Indices 1 2 3 4 5 6 
#
# 1 98.9301 18.8793 36.8041 0.0000 1.5566 0.0000
# 2 18.8793 98.0314 9.6059 0.0000 -7.7503 0.0000
# 3 36.8041 9.6059 112.5771 0.0000 6.7422 0.0000
# 4 0.0000 0.0000 0.0000 37.3093 0.0000 4.6648
# 5 1.5566 -7.7503 6.7422 0.0000 45.3551 0.0000
# 6 0.0000 0.0000 0.0000 4.6648 0.0000 34.8279
#
#
#
# Elastic Compliance Matrix: (Units=1/GPa)
#
#
# Indices 1 2 3 4 5 6 
#
# 1 0.011857 -0.001936 -0.003700 0.000000 -0.000188 0.000000
# 2 -0.001936 0.010769 -0.000404 0.000000 0.001967 0.000000
# 3 -0.003700 -0.000404 0.010214 0.000000 -0.001460 0.000000
# 4 0.000000 0.000000 0.000000 0.027259 0.000000 -0.003651
# 5 -0.000188 0.001967 -0.001460 0.000000 0.022608 0.000000
# 6 0.000000 0.000000 0.000000 -0.003651 0.000000 0.029202
#
#
# Mechanical properties :
#
#
# Convention : Reuss Voigt Hill
#
# Bulk Modulus (GPa) = 48.16721 48.90190 48.53455
# Shear Modulus (GPa) = 38.19476 39.78176 38.98826
#
# Velocity S-wave (km/s) = 4.01916 4.10181 4.06070
# Velocity P-wave (km/s) = 6.47376 6.56622 6.52015
#
# Compressibility (1/GPa) = 0.02076101
#
# Stress axis : x y z
#
# Youngs Moduli (GPa) = 84.33874 92.86208 97.90193
#
# Poissons Ratio (x) = 0.17976 0.36223
# Poissons Ratio (y) = 0.16326 0.03953
# Poissons Ratio (z) = 0.31204 0.03750
#
# Static dielectric constant tensor:
#      x y z
#    x 4.124600 0.000000 -0.025390 
#    y 0.000000 4.613320 0.000000 
#    z -0.025390 0.000000 4.364740 
# 
# 
# High freq. dielectric constant tensor:
#      x y z
#    x 1.928820 0.000000 0.009790 
#    y 0.000000 1.938800 0.000000 
#    z 0.009790 0.000000 1.955620 
# 
# From -- ./inp_files/11615.got.cif
#   From: 2010.06.25/outbox.cif.g09.slc.cpg/sg13_6_cif.got.tgz:11615.got - 2010.06.28 04:50:58.
