data_PCOD8122512
_publ_section_title
;
Structure prediction by ZEFSAII (Michael W. Deem and Ramdas Pophale) SiO2 
 PCOD8122512
Probable space group: P 2/C
;
_chemical_formula_sum "Si O2"
_cell_formula_units_Z 22
_cell_length_a 16.798961
_cell_length_b 9.439673
_cell_length_c 18.720485
_cell_angle_alpha 90.000000
_cell_angle_beta 22.284057
_cell_angle_gamma 90.000000
_cell_volume 1125.701657
_symmetry_space_group_name_H-M "P 2/C"
_symmetry_group_IT_number 13
_symmetry_cell_setting 'monoclinic'
loop_
_space_group_symop_operation_xyz
x,y,z
-x,y,1/2-z
-x,-y,-z
x,-y,1/2+z
loop_
_atom_site_type_symbol
_atom_site_label
_atom_site_fract_x
_atom_site_fract_y
_atom_site_fract_z
Si Si1 0.252088 0.079627 0.775792
Si Si2 0.274808 0.909290 0.902475
Si Si3 0.277401 0.152500 0.135973
Si Si4 0.057950 0.676478 0.008697
Si Si5 0.000000 0.034813 0.250000
Si Si6 0.260601 0.453415 0.208153
O O1 0.259537 0.015665 0.848581
O O2 0.471754 0.150729 0.574248
O O3 0.071978 0.198849 0.923675
O O4 0.197527 0.957737 0.762841
O O5 0.500000 0.921346 0.750000
O O6 0.100661 0.939926 0.105694
O O7 0.229092 0.748060 0.917944
O O8 0.206823 0.311521 0.210499
O O9 0.181682 0.125308 0.137299
O O10 0.893074 0.580106 0.190289
O O11 0.200532 0.576793 0.840215
O O12 0.500000 0.500000 0.000000
#
# Coordination Sequence:
#
# PCOD8122512 Si02
#       6
#     4   4   4   4   2   4
#     4  11  21  41  71  98 124 167 225 269 317 378
#     4  12  24  40  63 103 133 162 214 277 327 380
#     4  11  22  40  70  98 126 170 214 267 324 384
#     4  11  23  41  68  94 126 177 214 266 321 383
#     4  12  24  40  66 100 130 164 210 278 334 370
#     4  11  23  41  66  95 131 168 221 258 317 394
#
# _framework density 19.543365000000001
#
# number of rings (size 3 to 8) (size 9 to 14) (size 15 to 20)
#    0.000    0.727    7.273    1.636    0.000    1.455 
#    0.000    2.727    0.000    0.000    0.000    0.000 
#    0.000    0.000    0.000    0.000    0.000    0.000 
#
# Total GULP energy -272731.439185 kJ/mol
# GULP energy per Si atom -12396.883599 kJ/mol
# Density = 1.949888 g / cm^3
# Si number density = 19.543365 Si / 1000 Ang^3
#
#
#
# Elastic Constant Matrix: (Units=GPa)
#
#
# Indices 1 2 3 4 5 6 
#
# 1 93.5816 28.4681 22.6540 0.0000 -1.5810 0.0000
# 2 28.4681 106.7466 34.7877 0.0000 -0.1367 0.0000
# 3 22.6540 34.7877 108.3103 0.0000 3.2917 0.0000
# 4 0.0000 0.0000 0.0000 40.3949 0.0000 -11.4835
# 5 -1.5810 -0.1367 3.2917 0.0000 32.6688 0.0000
# 6 0.0000 0.0000 0.0000 -11.4835 0.0000 78.4782
#
#
#
# Elastic Compliance Matrix: (Units=1/GPa)
#
#
# Indices 1 2 3 4 5 6 
#
# 1 0.011902 -0.002630 -0.001667 0.000000 0.000733 0.000000
# 2 -0.002630 0.011049 -0.003005 0.000000 0.000222 0.000000
# 3 -0.001667 -0.003005 0.010582 0.000000 -0.001159 0.000000
# 4 0.000000 0.000000 0.000000 0.025830 0.000000 0.003780
# 5 0.000733 0.000222 -0.001159 0.000000 0.030763 0.000000
# 6 0.000000 0.000000 0.000000 0.003780 0.000000 0.013295
#
#
# Mechanical properties :
#
#
# Convention : Reuss Voigt Hill
#
# Bulk Modulus (GPa) = 52.83129 53.38424 53.10776
# Shear Modulus (GPa) = 40.21365 45.15697 42.68531
#
# Velocity S-wave (km/s) = 4.54107 4.81209 4.67854
# Velocity P-wave (km/s) = 7.38827 7.63217 7.51121
#
# Compressibility (1/GPa) = 0.01892818
#
# Stress axis : x y z
#
# Youngs Moduli (GPa) = 84.02089 90.50524 94.50056
#
# Poissons Ratio (x) = 0.23802 0.15753
# Poissons Ratio (y) = 0.22097 0.28402
# Poissons Ratio (z) = 0.14006 0.27201
#
# Static dielectric constant tensor:
#      x y z
#    x 3.622490 0.000000 0.031930 
#    y 0.000000 3.726900 0.000000 
#    z 0.031930 0.000000 3.906920 
# 
# 
# High freq. dielectric constant tensor:
#      x y z
#    x 1.740420 0.000000 -0.001580 
#    y 0.000000 1.762420 0.000000 
#    z -0.001580 0.000000 1.790520 
# 
# From -- ./inp_files/68079.got.cif
#   From: 2010.06.25/outbox.cif.g09.slc.cpg/sg13_35_cif.got.tgz:68079.got - 2010.06.28 04:50:58.
