data_PCOD8122870
_publ_section_title
;
Structure prediction by ZEFSAII (Michael W. Deem and Ramdas Pophale) SiO2 
 PCOD8122870
Probable space group: P 2/C
;
_chemical_formula_sum "Si O2"
_cell_formula_units_Z 28
_cell_length_a 11.994035
_cell_length_b 8.433217
_cell_length_c 14.043354
_cell_angle_alpha 90.000000
_cell_angle_beta 120.622387
_cell_angle_gamma 90.000000
_cell_volume 1222.368191
_symmetry_space_group_name_H-M "P 2/C"
_symmetry_group_IT_number 13
_symmetry_cell_setting 'monoclinic'
loop_
_space_group_symop_operation_xyz
x,y,z
-x,y,1/2-z
-x,-y,-z
x,-y,1/2+z
loop_
_atom_site_type_symbol
_atom_site_label
_atom_site_fract_x
_atom_site_fract_y
_atom_site_fract_z
Si Si1 0.581909 0.380655 0.095769
Si Si2 0.842927 0.312875 0.435672
Si Si3 0.588136 0.879191 0.877413
Si Si4 0.950548 0.211262 0.834219
Si Si5 0.994459 0.139342 0.135767
Si Si6 0.279216 0.603818 0.190744
Si Si7 0.700272 0.797315 0.477213
O O1 0.490500 0.240602 0.091018
O O2 0.637364 0.481803 0.208920
O O3 0.500000 0.500000 0.000000
O O4 0.685927 0.303285 0.068618
O O5 0.720329 0.202464 0.402456
O O6 0.809516 0.496669 0.415097
O O7 0.948009 0.314031 0.563802
O O8 0.904420 0.263577 0.361944
O O9 0.500000 0.927214 0.750000
O O10 0.621222 0.038074 0.951296
O O11 0.805380 0.281385 0.778278
O O12 0.000000 0.215132 0.750000
O O13 0.953961 0.032550 0.874796
O O14 0.000000 0.160473 0.250000
O O15 0.852220 0.166136 0.030066
O O16 0.353870 0.708434 0.142508
#
# Coordination Sequence:
#
# PCOD8122870 Si02
#       7
#     4   4   4   4   4   4   4
#     4  12  30  49  75 110 153 197 255 306 371 448
#     4  12  23  48  73 105 152 185 241 307 376 436
#     4  12  27  50  78 105 150 203 253 304 366 452
#     4  11  25  42  71 109 146 188 241 301 374 441
#     4  11  24  44  73 112 145 188 247 309 369 444
#     4  12  27  46  74 110 145 195 243 310 377 442
#     4  12  27  50  79 107 148 200 251 311 377 447
#
# _framework density 22.906355999999999
#
# number of rings (size 3 to 8) (size 9 to 14) (size 15 to 20)
#    0.000    0.286    4.286    3.857    6.000    0.571 
#    0.000    0.000    0.000    0.000    0.000    0.000 
#    0.000    0.000    0.000    0.000    0.000    0.000 
#
# Total GULP energy -347194.743531 kJ/mol
# GULP energy per Si atom -12399.812269 kJ/mol
# Density = 2.285422 g / cm^3
# Si number density = 22.906356 Si / 1000 Ang^3
#
#
#
# Elastic Constant Matrix: (Units=GPa)
#
#
# Indices 1 2 3 4 5 6 
#
# 1 109.5634 47.4690 25.6671 0.0000 -5.7833 0.0000
# 2 47.4690 135.0809 39.0008 0.0000 -7.1352 0.0000
# 3 25.6671 39.0008 80.1793 0.0000 -9.7165 0.0000
# 4 0.0000 0.0000 0.0000 48.4904 0.0000 -11.8685
# 5 -5.7833 -7.1352 -9.7165 0.0000 24.5836 0.0000
# 6 0.0000 0.0000 0.0000 -11.8685 0.0000 42.2481
#
#
#
# Elastic Compliance Matrix: (Units=1/GPa)
#
#
# Indices 1 2 3 4 5 6 
#
# 1 0.011032 -0.003305 -0.001813 0.000000 0.000920 0.000000
# 2 -0.003305 0.009621 -0.003548 0.000000 0.000613 0.000000
# 3 -0.001813 -0.003548 0.015336 0.000000 0.004605 0.000000
# 4 0.000000 0.000000 0.000000 0.022145 0.000000 0.006221
# 5 0.000920 0.000613 0.004605 0.000000 0.042892 0.000000
# 6 0.000000 0.000000 0.000000 0.006221 0.000000 0.025417
#
#
# Mechanical properties :
#
#
# Convention : Reuss Voigt Hill
#
# Bulk Modulus (GPa) = 53.59362 61.01082 57.30222
# Shear Modulus (GPa) = 33.33471 37.24353 35.28912
#
# Velocity S-wave (km/s) = 3.81893 4.03662 3.92928
# Velocity P-wave (km/s) = 6.54929 6.95834 6.75691
#
# Compressibility (1/GPa) = 0.01865894
#
# Stress axis : x y z
#
# Youngs Moduli (GPa) = 90.64373 103.93928 65.20595
#
# Poissons Ratio (x) = 0.34351 0.11819
# Poissons Ratio (y) = 0.29957 0.23132
# Poissons Ratio (z) = 0.16430 0.36874
#
# Static dielectric constant tensor:
#      x y z
#    x 4.359700 0.000000 -0.306890 
#    y 0.000000 4.525720 0.000000 
#    z -0.306890 0.000000 4.605000 
# 
# 
# High freq. dielectric constant tensor:
#      x y z
#    x 1.909610 0.000000 -0.007100 
#    y 0.000000 1.924180 0.000000 
#    z -0.007100 0.000000 1.910380 
# 
# From -- ./inp_files/50461.got.cif
#   From: 2010.06.25/outbox.cif.g09.slc.cpg/sg13_26_cif.got.tgz:50461.got - 2010.06.28 04:50:58.
