data_PCOD8122401
_publ_section_title
;
Structure prediction by ZEFSAII (Michael W. Deem and Ramdas Pophale) SiO2 
 PCOD8122401
Probable space group: P 2/C
;
_chemical_formula_sum "Si O2"
_cell_formula_units_Z 30
_cell_length_a 8.614116
_cell_length_b 12.730163
_cell_length_c 14.296277
_cell_angle_alpha 90.000000
_cell_angle_beta 62.561049
_cell_angle_gamma 90.000000
_cell_volume 1391.352377
_symmetry_space_group_name_H-M "P 2/C"
_symmetry_group_IT_number 13
_symmetry_cell_setting 'monoclinic'
loop_
_space_group_symop_operation_xyz
x,y,z
-x,y,1/2-z
-x,-y,-z
x,-y,1/2+z
loop_
_atom_site_type_symbol
_atom_site_label
_atom_site_fract_x
_atom_site_fract_y
_atom_site_fract_z
Si Si1 0.791609 0.230824 0.530649
Si Si2 0.826192 0.229931 0.083250
Si Si3 0.600662 0.611077 0.952782
Si Si4 0.298231 0.345352 0.775647
Si Si5 0.706218 0.745760 0.419179
Si Si6 0.487182 0.066537 0.594374
Si Si7 0.500000 0.907302 0.750000
Si Si8 0.302080 0.579932 0.776516
O O1 0.720626 0.339474 0.501796
O O2 0.814956 0.263617 0.632944
O O3 0.665533 0.130794 0.560248
O O4 0.979920 0.191051 0.439506
O O5 0.666953 0.160064 0.168254
O O6 0.818476 0.345900 0.128192
O O7 0.841888 0.234692 0.965259
O O8 0.719668 0.602172 0.827899
O O9 0.500000 0.500000 0.000000
O O10 0.456781 0.701141 0.975638
O O11 0.500000 0.324414 0.750000
O O12 0.252913 0.334621 0.677115
O O13 0.242846 0.462808 0.817272
O O14 0.671565 0.853093 0.373299
O O15 0.500000 0.000000 0.500000
O O16 0.434166 0.984685 0.688300
O O17 0.500000 0.600229 0.750000
#
# Coordination Sequence:
#
# PCOD8122401 Si02
#       8
#     4   4   4   4   4   4   2   4
#     4  11  27  43  67 105 138 173 233 291 332 406
#     4  12  26  44  67 103 145 174 226 288 344 407
#     4  11  19  40  68  97 133 185 231 270 328 404
#     4  11  20  39  69  97 133 187 232 269 331 405
#     4  11  21  41  68  96 135 179 224 279 342 411
#     4  11  23  45  72  95 121 173 236 280 349 413
#     4  12  24  48  76  92 134 186 220 284 364 414
#     4  11  21  36  66 100 135 187 227 258 331 407
#
# _framework density 21.561755000000002
#
# number of rings (size 3 to 8) (size 9 to 14) (size 15 to 20)
#    0.000    0.800    7.333    1.600    1.867    2.133 
#    0.000    1.333    0.000    0.000    0.000    0.000 
#    0.000    0.000    0.000    0.000    0.000    0.000 
#
# Total GULP energy -371650.198510 kJ/mol
# GULP energy per Si atom -12388.339950 kJ/mol
# Density = 2.151268 g / cm^3
# Si number density = 21.561755 Si / 1000 Ang^3
#
#
#
# Elastic Constant Matrix: (Units=GPa)
#
#
# Indices 1 2 3 4 5 6 
#
# 1 74.1860 36.4550 43.5142 0.0000 -1.5756 0.0000
# 2 36.4550 114.6583 49.1983 0.0000 -0.4704 0.0000
# 3 43.5142 49.1983 114.0828 0.0000 20.2182 0.0000
# 4 0.0000 0.0000 0.0000 38.2885 0.0000 11.9471
# 5 -1.5756 -0.4704 20.2182 0.0000 30.1824 0.0000
# 6 0.0000 0.0000 0.0000 11.9471 0.0000 17.6240
#
#
#
# Elastic Compliance Matrix: (Units=1/GPa)
#
#
# Indices 1 2 3 4 5 6 
#
# 1 0.019222 -0.003084 -0.007003 0.000000 0.005646 0.000000
# 2 -0.003084 0.011573 -0.004332 0.000000 0.002922 0.000000
# 3 -0.007003 -0.004332 0.015184 0.000000 -0.010605 0.000000
# 4 0.000000 0.000000 0.000000 0.033124 0.000000 -0.022454
# 5 0.005646 0.002922 -0.010605 0.000000 0.040576 0.000000
# 6 0.000000 0.000000 0.000000 -0.022454 0.000000 0.071962
#
#
# Mechanical properties :
#
#
# Convention : Reuss Voigt Hill
#
# Bulk Modulus (GPa) = 58.33633 62.36246 60.34940
# Shear Modulus (GPa) = 22.10496 28.80295 25.45396
#
# Velocity S-wave (km/s) = 3.20534 3.65887 3.43959
# Velocity P-wave (km/s) = 6.38851 6.84363 6.61999
#
# Compressibility (1/GPa) = 0.01714198
#
# Stress axis : x y z
#
# Youngs Moduli (GPa) = 52.02268 86.40812 65.85739
#
# Poissons Ratio (x) = 0.26646 0.46118
# Poissons Ratio (y) = 0.16042 0.28532
# Poissons Ratio (z) = 0.36430 0.37436
#
# Static dielectric constant tensor:
#      x y z
#    x 3.724760 0.000000 0.195940 
#    y 0.000000 4.076940 0.000000 
#    z 0.195940 0.000000 4.067130 
# 
# 
# High freq. dielectric constant tensor:
#      x y z
#    x 1.819830 0.000000 0.020220 
#    y 0.000000 1.852760 0.000000 
#    z 0.020220 0.000000 1.854560 
# 
# From -- ./inp_files/47206.got.cif
#   From: 2010.06.25/outbox.cif.g09.slc.cpg/sg13_24_cif.got.tgz:47206.got - 2010.06.28 04:50:58.
