data_PCOD8122060
_publ_section_title
;
Structure prediction by ZEFSAII (Michael W. Deem and Ramdas Pophale) SiO2 
 PCOD8122060
Probable space group: P 2/C
;
_chemical_formula_sum "Si O2"
_cell_formula_units_Z 18
_cell_length_a 12.536892
_cell_length_b 9.210049
_cell_length_c 8.564772
_cell_angle_alpha 90.000000
_cell_angle_beta 128.239664
_cell_angle_gamma 90.000000
_cell_volume 776.737626
_symmetry_space_group_name_H-M "P 2/C"
_symmetry_group_IT_number 13
_symmetry_cell_setting 'monoclinic'
loop_
_space_group_symop_operation_xyz
x,y,z
-x,y,1/2-z
-x,-y,-z
x,-y,1/2+z
loop_
_atom_site_type_symbol
_atom_site_label
_atom_site_fract_x
_atom_site_fract_y
_atom_site_fract_z
Si Si1 0.978336 0.159042 0.545414
Si Si2 0.253819 0.324951 0.291842
Si Si3 0.500000 0.007543 0.250000
Si Si4 0.559617 0.787960 0.055501
Si Si5 0.800287 0.626649 0.393644
O O1 0.824023 0.188769 0.352713
O O2 0.000000 0.165162 0.750000
O O3 0.072194 0.279808 0.546823
O O4 0.000000 0.000000 0.500000
O O5 0.413021 0.289290 0.415644
O O6 0.190183 0.456379 0.132571
O O7 0.221573 0.348767 0.443601
O O8 0.594598 0.115250 0.435779
O O9 0.586895 0.900743 0.220922
O O10 0.669128 0.663736 0.170136
#
# Coordination Sequence:
#
# PCOD8122060 Si02
#       5
#     4   4   2   4   4
#     4  12  29  48  73 102 138 182 232 284 343 410
#     4  12  26  47  71 103 141 184 230 284 345 411
#     4  10  24  42  66 106 144 178 224 292 340 406
#     4  11  25  42  73 102 143 177 234 279 352 402
#     4  12  26  47  71 103 141 184 230 284 345 411
#
# _framework density 23.173846999999999
#
# number of rings (size 3 to 8) (size 9 to 14) (size 15 to 20)
#    0.000    0.444    2.222    4.667   12.444    0.000 
#    0.000    0.000    0.000    0.000    0.000    0.000 
#    0.000    0.000    0.000    0.000    0.000    0.000 
#
# Total GULP energy -223114.040232 kJ/mol
# GULP energy per Si atom -12395.224457 kJ/mol
# Density = 2.312110 g / cm^3
# Si number density = 23.173847 Si / 1000 Ang^3
#
#
#
# Elastic Constant Matrix: (Units=GPa)
#
#
# Indices 1 2 3 4 5 6 
#
# 1 58.6711 12.3641 18.8352 0.0000 13.6990 0.0000
# 2 12.3641 120.7659 24.4975 0.0000 5.8610 0.0000
# 3 18.8352 24.4975 95.1033 0.0000 4.6386 0.0000
# 4 0.0000 0.0000 0.0000 67.9301 0.0000 -21.1579
# 5 13.6990 5.8610 4.6386 0.0000 43.9081 0.0000
# 6 0.0000 0.0000 0.0000 -21.1579 0.0000 37.9580
#
#
#
# Elastic Compliance Matrix: (Units=1/GPa)
#
#
# Indices 1 2 3 4 5 6 
#
# 1 0.019658 -0.001060 -0.003345 0.000000 -0.005638 0.000000
# 2 -0.001060 0.008832 -0.002034 0.000000 -0.000633 0.000000
# 3 -0.003345 -0.002034 0.011698 0.000000 0.000079 0.000000
# 4 0.000000 0.000000 0.000000 0.017814 0.000000 0.009929
# 5 -0.005638 -0.000633 0.000079 0.000000 0.024610 0.000000
# 6 0.000000 0.000000 0.000000 0.009929 0.000000 0.031880
#
#
# Mechanical properties :
#
#
# Convention : Reuss Voigt Hill
#
# Bulk Modulus (GPa) = 36.61877 42.88156 39.75016
# Shear Modulus (GPa) = 36.63711 44.54879 40.59295
#
# Velocity S-wave (km/s) = 3.98045 4.38924 4.18984
# Velocity P-wave (km/s) = 6.07959 6.65070 6.37154
#
# Compressibility (1/GPa) = 0.02730840
#
# Stress axis : x y z
#
# Youngs Moduli (GPa) = 50.86990 113.21919 85.48834
#
# Poissons Ratio (x) = 0.12006 0.28597
# Poissons Ratio (y) = 0.05394 0.17390
# Poissons Ratio (z) = 0.17017 0.23031
#
# Static dielectric constant tensor:
#      x y z
#    x 4.132110 0.000000 -0.231270 
#    y 0.000000 4.426630 0.000000 
#    z -0.231270 0.000000 4.536480 
# 
# 
# High freq. dielectric constant tensor:
#      x y z
#    x 1.908340 0.000000 -0.010510 
#    y 0.000000 1.937580 0.000000 
#    z -0.010510 0.000000 1.938690 
# 
# From -- ./inp_files/14909.got.cif
#   From: 2010.06.25/outbox.cif.g09.slc.cpg/sg13_8_cif.got.tgz:14909.got - 2010.06.28 04:50:58.
