data_PCOD8122459
_publ_section_title
;
Structure prediction by ZEFSAII (Michael W. Deem and Ramdas Pophale) SiO2 
 PCOD8122459
Probable space group: P 2/C
;
_chemical_formula_sum "Si O2"
_cell_formula_units_Z 28
_cell_length_a 18.087468
_cell_length_b 14.466485
_cell_length_c 8.578067
_cell_angle_alpha 90.000000
_cell_angle_beta 44.652358
_cell_angle_gamma 90.000000
_cell_volume 1577.480861
_symmetry_space_group_name_H-M "P 2/C"
_symmetry_group_IT_number 13
_symmetry_cell_setting 'monoclinic'
loop_
_space_group_symop_operation_xyz
x,y,z
-x,y,1/2-z
-x,-y,-z
x,-y,1/2+z
loop_
_atom_site_type_symbol
_atom_site_label
_atom_site_fract_x
_atom_site_fract_y
_atom_site_fract_z
Si Si1 0.301489 0.289759 0.232647
Si Si2 0.885917 0.598529 0.986314
Si Si3 0.500000 0.602314 0.935043
Si Si4 0.885917 0.598528 0.355937
Si Si5 0.381616 0.094064 0.744270
Si Si6 0.618384 0.094065 0.389117
Si Si7 0.301490 0.710242 0.362884
O O1 0.397070 0.346997 0.158690
O O2 0.192879 0.322579 0.469916
O O3 0.313200 0.182473 0.263835
O O4 0.300372 0.303245 0.049443
O O5 0.890076 0.593259 0.164886
O O6 0.807120 0.677421 0.048554
O O7 0.846959 0.500001 0.979561
O O8 0.000000 0.624183 0.750000
O O9 0.500000 0.600430 0.750000
O O10 0.500000 0.500000 0.000000
O O11 0.397071 0.653004 0.150099
O O12 0.000000 0.624181 0.250000
O O13 0.500000 0.106144 0.499519
O O14 0.313200 0.182473 0.796566
O O15 0.329970 0.000000 0.755045
O O16 0.385629 0.086081 0.921557
#
# Coordination Sequence:
#
# PCOD8122459 Si02
#       7
#     4   4   4   4   4   4   4
#     4  11  21  37  56  79 111 145 180 223 272 323
#     4  11  22  38  58  82 108 143 185 227 271 319
#     4  12  24  36  51  76 109 146 181 220 268 326
#     4  11  22  38  58  82 108 143 185 227 271 319
#     4   9  18  33  53  78 108 143 179 220 267 319
#     4   9  18  33  53  78 108 143 179 220 267 319
#     4  11  21  37  56  79 111 145 180 223 272 323
#
# _framework density 17.749818999999999
#
# number of rings (size 3 to 8) (size 9 to 14) (size 15 to 20)
#    0.000    1.429    1.429    6.429    0.000    2.286 
#    0.000    0.000    0.000    0.857    0.000    6.000 
#    0.000    0.000    0.000    0.000    0.000    0.000 
#
# Total GULP energy -347265.620396 kJ/mol
# GULP energy per Si atom -12402.343586 kJ/mol
# Density = 1.770942 g / cm^3
# Si number density = 17.749819 Si / 1000 Ang^3
#
#
#
# Elastic Constant Matrix: (Units=GPa)
#
#
# Indices 1 2 3 4 5 6 
#
# 1 111.5495 72.2111 49.8562 0.0000 5.5545 0.0000
# 2 72.2111 171.8388 74.7322 0.0000 -8.2688 0.0000
# 3 49.8562 74.7322 108.4192 0.0000 4.7106 0.0000
# 4 0.0000 0.0000 0.0000 74.3487 0.0000 -36.6126
# 5 5.5545 -8.2688 4.7106 0.0000 32.7668 0.0000
# 6 0.0000 0.0000 0.0000 -36.6126 0.0000 63.1780
#
#
#
# Elastic Compliance Matrix: (Units=1/GPa)
#
#
# Indices 1 2 3 4 5 6 
#
# 1 0.013305 -0.004469 -0.002909 0.000000 -0.002965 0.000000
# 2 -0.004469 0.010103 -0.005084 0.000000 0.004038 0.000000
# 3 -0.002909 -0.005084 0.014189 0.000000 -0.002830 0.000000
# 4 0.000000 0.000000 0.000000 0.018821 0.000000 0.010907
# 5 -0.002965 0.004038 -0.002830 0.000000 0.032447 0.000000
# 6 0.000000 0.000000 0.000000 0.010907 0.000000 0.022149
#
#
# Mechanical properties :
#
#
# Convention : Reuss Voigt Hill
#
# Bulk Modulus (GPa) = 78.91246 87.26740 83.08993
# Shear Modulus (GPa) = 35.67274 47.05922 41.36598
#
# Velocity S-wave (km/s) = 4.48789 5.15462 4.83276
# Velocity P-wave (km/s) = 8.45042 9.20319 8.83483
#
# Compressibility (1/GPa) = 0.01267227
#
# Stress axis : x y z
#
# Youngs Moduli (GPa) = 75.15773 98.98407 70.47821
#
# Poissons Ratio (x) = 0.44232 0.20505
# Poissons Ratio (y) = 0.33585 0.35833
# Poissons Ratio (z) = 0.21867 0.50325
#
# Static dielectric constant tensor:
#      x y z
#    x 3.273030 0.000000 0.174130 
#    y 0.000000 3.535190 0.000000 
#    z 0.174130 0.000000 3.219900 
# 
# 
# High freq. dielectric constant tensor:
#      x y z
#    x 1.688380 0.000000 0.015960 
#    y 0.000000 1.693080 0.000000 
#    z 0.015960 0.000000 1.683510 
# 
# From -- ./inp_files/21954.got.cif
#   From: 2010.06.25/outbox.cif.g09.slc.cpg/sg13_11_cif.got.tgz:21954.got - 2010.06.28 04:50:58.
