data_PCOD8122386
_publ_section_title
;
Structure prediction by ZEFSAII (Michael W. Deem and Ramdas Pophale) SiO2 
 PCOD8122386
Probable space group: P 2/C
;
_chemical_formula_sum "Si O2"
_cell_formula_units_Z 32
_cell_length_a 17.387852
_cell_length_b 11.147173
_cell_length_c 23.490509
_cell_angle_alpha 90.000000
_cell_angle_beta 20.954738
_cell_angle_gamma 90.000000
_cell_volume 1628.311367
_symmetry_space_group_name_H-M "P 2/C"
_symmetry_group_IT_number 13
_symmetry_cell_setting 'monoclinic'
loop_
_space_group_symop_operation_xyz
x,y,z
-x,y,1/2-z
-x,-y,-z
x,-y,1/2+z
loop_
_atom_site_type_symbol
_atom_site_label
_atom_site_fract_x
_atom_site_fract_y
_atom_site_fract_z
Si Si1 0.082838 0.133398 0.930938
Si Si2 0.933198 0.790991 0.187202
Si Si3 0.451473 0.120268 0.845474
Si Si4 0.510395 0.358795 0.991368
Si Si5 0.730051 0.794873 0.749800
Si Si6 0.232025 0.758065 0.592400
Si Si7 0.256000 0.032402 0.161747
Si Si8 0.394805 0.844841 0.882368
O O1 0.045687 0.181282 0.893715
O O2 0.334905 0.126521 0.765220
O O3 0.952489 0.229018 0.061407
O O4 0.000000 0.000000 0.000000
O O5 0.758491 0.687327 0.322782
O O6 0.867437 0.910682 0.265763
O O7 0.176008 0.765834 0.041635
O O8 0.500000 0.172801 0.750000
O O9 0.347848 0.987737 0.912238
O O10 0.288280 0.211796 0.988272
O O11 0.500000 0.500000 0.000000
O O12 0.358652 0.309329 0.147268
O O13 0.411020 0.322507 0.999189
O O14 0.803244 0.908149 0.737079
O O15 0.545275 0.821250 0.831977
O O16 0.210213 0.883479 0.640245
O O17 0.000000 0.692255 0.750000
O O18 0.500000 0.000000 0.000000
O O19 0.500000 0.804126 0.750000
#
# Coordination Sequence:
#
# PCOD8122386 Si02
#       8
#     4   4   4   4   4   4   4   4
#     4  12  19  34  61  92 134 170 192 241 325 398
#     4  12  21  38  64  88 132 168 200 260 319 375
#     4  11  22  34  56  97 138 163 193 234 318 408
#     4  11  27  49  66  85 117 173 236 273 312 359
#     4  11  22  37  63  91 126 165 209 257 315 381
#     4  11  23  40  64  90 128 159 210 270 316 381
#     4  11  19  34  58  93 125 165 203 245 323 388
#     4  11  21  34  56 100 135 159 190 245 315 398
#
# _framework density 19.652259999999998
#
# number of rings (size 3 to 8) (size 9 to 14) (size 15 to 20)
#    0.000    0.750    7.500    2.250    3.500    0.500 
#    2.250    0.625    0.000    0.750    0.000    0.000 
#    0.000    0.000    0.000    0.000    0.000    0.000 
#
# Total GULP energy -396569.365910 kJ/mol
# GULP energy per Si atom -12392.792685 kJ/mol
# Density = 1.960753 g / cm^3
# Si number density = 19.652260 Si / 1000 Ang^3
#
#
#
# Elastic Constant Matrix: (Units=GPa)
#
#
# Indices 1 2 3 4 5 6 
#
# 1 73.1790 15.9780 8.5524 0.0000 8.0658 0.0000
# 2 15.9780 90.5804 33.1806 0.0000 7.4142 0.0000
# 3 8.5524 33.1806 110.4577 0.0000 -4.7589 0.0000
# 4 0.0000 0.0000 0.0000 15.8335 0.0000 0.7807
# 5 8.0658 7.4142 -4.7589 0.0000 42.2895 0.0000
# 6 0.0000 0.0000 0.0000 0.7807 0.0000 11.4609
#
#
#
# Elastic Compliance Matrix: (Units=1/GPa)
#
#
# Indices 1 2 3 4 5 6 
#
# 1 0.014470 -0.002138 -0.000584 0.000000 -0.002451 0.000000
# 2 -0.002138 0.013014 -0.003843 0.000000 -0.002306 0.000000
# 3 -0.000584 -0.003843 0.010337 0.000000 0.001948 0.000000
# 4 0.000000 0.000000 0.000000 0.063370 0.000000 -0.004316
# 5 -0.002451 -0.002306 0.001948 0.000000 0.024738 0.000000
# 6 0.000000 0.000000 0.000000 -0.004316 0.000000 0.087547
#
#
# Mechanical properties :
#
#
# Convention : Reuss Voigt Hill
#
# Bulk Modulus (GPa) = 40.50048 43.29324 41.89686
# Shear Modulus (GPa) = 21.29152 28.35052 24.82102
#
# Velocity S-wave (km/s) = 3.29509 3.80229 3.55774
# Velocity P-wave (km/s) = 5.92707 6.43071 6.18402
#
# Compressibility (1/GPa) = 0.02469107
#
# Stress axis : x y z
#
# Youngs Moduli (GPa) = 69.10716 76.84291 96.74200
#
# Poissons Ratio (x) = 0.16430 0.05647
# Poissons Ratio (y) = 0.14776 0.37178
# Poissons Ratio (z) = 0.04034 0.29531
#
# Static dielectric constant tensor:
#      x y z
#    x 3.678930 0.000000 -0.041160 
#    y 0.000000 3.037220 0.000000 
#    z -0.041160 0.000000 4.044450 
# 
# 
# High freq. dielectric constant tensor:
#      x y z
#    x 1.783000 0.000000 0.003080 
#    y 0.000000 1.691720 0.000000 
#    z 0.003080 0.000000 1.791440 
# 
# From -- ./inp_files/88164.got.cif
#   From: 2010.06.25/outbox.cif.g09.slc.cpg/sg13_45_cif.got.tgz:88164.got - 2010.06.28 04:50:58.
