data_PCOD8122905
_publ_section_title
;
Structure prediction by ZEFSAII (Michael W. Deem and Ramdas Pophale) SiO2 
 PCOD8122905
Probable space group: P 2/C
;
_chemical_formula_sum "Si O2"
_cell_formula_units_Z 22
_cell_length_a 11.757028
_cell_length_b 12.815202
_cell_length_c 14.573156
_cell_angle_alpha 90.000000
_cell_angle_beta 153.147265
_cell_angle_gamma 90.000000
_cell_volume 991.803510
_symmetry_space_group_name_H-M "P 2/C"
_symmetry_group_IT_number 13
_symmetry_cell_setting 'monoclinic'
loop_
_space_group_symop_operation_xyz
x,y,z
-x,y,1/2-z
-x,-y,-z
x,-y,1/2+z
loop_
_atom_site_type_symbol
_atom_site_label
_atom_site_fract_x
_atom_site_fract_y
_atom_site_fract_z
Si Si1 0.422644 0.686768 0.093699
Si Si2 0.243700 0.216669 0.119426
Si Si3 0.000000 0.468943 0.250000
Si Si4 0.113322 0.933517 0.234457
Si Si5 0.916770 0.413301 0.867708
Si Si6 0.328028 0.150769 0.377599
O O1 0.500000 0.727504 0.250000
O O2 0.662484 0.643244 0.213298
O O3 0.297561 0.781206 0.947470
O O4 0.213856 0.597697 0.955030
O O5 0.500000 0.195790 0.250000
O O6 0.282313 0.222834 0.256348
O O7 0.059489 0.118912 0.967528
O O8 0.133716 0.327541 0.010155
O O9 0.132856 0.537587 0.267571
O O10 0.393015 0.892721 0.425788
O O11 0.000000 0.899183 0.250000
O O12 0.120133 0.058789 0.229609
O O13 0.000000 0.500000 0.000000
#
# Coordination Sequence:
#
# PCOD8122905 Si02
#       6
#     4   4   2   4   4   4
#     4  12  27  50  73 108 146 191 246 297 364 434
#     4  12  26  45  75 105 146 191 244 299 363 435
#     4  12  28  46  76 102 146 198 238 300 366 426
#     4  11  24  48  69 107 141 186 239 297 367 432
#     4  12  27  47  72 107 148 191 244 298 359 431
#     4  11  26  46  74 101 144 187 238 301 362 434
#
# _framework density 22.181812999999998
#
# number of rings (size 3 to 8) (size 9 to 14) (size 15 to 20)
#    0.000    0.364    5.455    2.182    7.636    0.000 
#    6.545    0.000    0.000    0.000    0.000    0.000 
#    0.000    0.000    0.000    0.000    0.000    0.000 
#
# Total GULP energy -272959.920799 kJ/mol
# GULP energy per Si atom -12407.269127 kJ/mol
# Density = 2.213133 g / cm^3
# Si number density = 22.181813 Si / 1000 Ang^3
#
#
#
# Elastic Constant Matrix: (Units=GPa)
#
#
# Indices 1 2 3 4 5 6 
#
# 1 115.1685 42.7845 37.3860 0.0000 -27.3974 0.0000
# 2 42.7845 132.7069 50.4127 0.0000 -10.4281 0.0000
# 3 37.3860 50.4127 101.6026 0.0000 -12.2877 0.0000
# 4 0.0000 0.0000 0.0000 27.6731 0.0000 -4.5991
# 5 -27.3974 -10.4281 -12.2877 0.0000 49.5174 0.0000
# 6 0.0000 0.0000 0.0000 -4.5991 0.0000 35.7255
#
#
#
# Elastic Compliance Matrix: (Units=1/GPa)
#
#
# Indices 1 2 3 4 5 6 
#
# 1 0.011637 -0.002404 -0.002445 0.000000 0.005325 0.000000
# 2 -0.002404 0.009816 -0.004017 0.000000 -0.000260 0.000000
# 3 -0.002445 -0.004017 0.012855 0.000000 0.000991 0.000000
# 4 0.000000 0.000000 0.000000 0.036926 0.000000 0.004754
# 5 0.005325 -0.000260 0.000991 0.000000 0.023333 0.000000
# 6 0.000000 0.000000 0.000000 0.004754 0.000000 0.028603
#
#
# Mechanical properties :
#
#
# Convention : Reuss Voigt Hill
#
# Bulk Modulus (GPa) = 60.33221 67.84939 64.09080
# Shear Modulus (GPa) = 34.14650 37.17618 35.66134
#
# Velocity S-wave (km/s) = 3.92776 4.09831 4.01394
# Velocity P-wave (km/s) = 6.91576 7.28348 7.10200
#
# Compressibility (1/GPa) = 0.01657489
#
# Stress axis : x y z
#
# Youngs Moduli (GPa) = 85.93536 101.87195 77.79061
#
# Poissons Ratio (x) = 0.24495 0.19018
# Poissons Ratio (y) = 0.20663 0.31251
# Poissons Ratio (z) = 0.21009 0.40925
#
# Static dielectric constant tensor:
#      x y z
#    x 3.920440 0.000000 0.162270 
#    y 0.000000 4.222230 0.000000 
#    z 0.162270 0.000000 3.822300 
# 
# 
# High freq. dielectric constant tensor:
#      x y z
#    x 1.886010 0.000000 0.001830 
#    y 0.000000 1.879150 0.000000 
#    z 0.001830 0.000000 1.881510 
# 
# From -- ./inp_files/51257.got.cif
#   From: 2010.06.25/outbox.cif.g09.slc.cpg/sg13_26_cif.got.tgz:51257.got - 2010.06.28 04:50:58.
