data_PCOD8122613
_publ_section_title
;
Structure prediction by ZEFSAII (Michael W. Deem and Ramdas Pophale) SiO2 
 PCOD8122613
Probable space group: P 2/C
;
_chemical_formula_sum "Si O2"
_cell_formula_units_Z 30
_cell_length_a 8.016513
_cell_length_b 14.785997
_cell_length_c 11.993880
_cell_angle_alpha 90.000000
_cell_angle_beta 86.047991
_cell_angle_gamma 90.000000
_cell_volume 1418.279704
_symmetry_space_group_name_H-M "P 2/C"
_symmetry_group_IT_number 13
_symmetry_cell_setting 'monoclinic'
loop_
_space_group_symop_operation_xyz
x,y,z
-x,y,1/2-z
-x,-y,-z
x,-y,1/2+z
loop_
_atom_site_type_symbol
_atom_site_label
_atom_site_fract_x
_atom_site_fract_y
_atom_site_fract_z
Si Si1 0.137660 0.119075 0.534639
Si Si2 0.155887 0.378220 0.996810
Si Si3 0.893847 0.060048 0.359392
Si Si4 0.688014 0.671645 0.228859
Si Si5 0.202753 0.581299 0.065150
Si Si6 0.724326 0.243507 0.331716
Si Si7 0.000000 0.203897 0.750000
Si Si8 0.344690 0.729329 0.912231
O O1 0.281910 0.191270 0.498600
O O2 0.030382 0.105706 0.430635
O O3 0.007574 0.149260 0.635391
O O4 0.208000 0.022079 0.576187
O O5 0.298461 0.360862 0.898965
O O6 0.979457 0.372000 0.939843
O O7 0.190403 0.475438 0.046547
O O8 0.154825 0.303488 0.095038
O O9 0.761940 0.137064 0.333388
O O10 0.000000 0.022917 0.250000
O O11 0.500000 0.710036 0.250000
O O12 0.723736 0.589846 0.313576
O O13 0.823586 0.745825 0.253168
O O14 0.322114 0.631699 0.971212
O O15 0.749909 0.273734 0.202347
O O16 0.538610 0.256409 0.383762
#
# Coordination Sequence:
#
# PCOD8122613 Si02
#       8
#     4   4   4   4   4   4   2   4
#     4  11  23  40  69  92 128 164 217 273 326 393
#     4  11  25  43  65  97 128 173 225 273 324 399
#     4  11  22  41  67  95 121 170 220 267 329 397
#     4  12  24  41  67  94 134 174 217 275 330 395
#     4  11  24  43  67  93 132 171 222 274 329 392
#     4  11  25  41  67  95 132 171 221 268 334 395
#     4  12  22  44  66  98 130 172 218 270 330 404
#     4  11  23  43  65  97 133 171 212 278 332 395
#
# _framework density 21.152384000000001
#
# number of rings (size 3 to 8) (size 9 to 14) (size 15 to 20)
#    0.000    0.800    4.667    2.400    1.867    2.667 
#    0.000    0.000    2.933    0.000    0.000    0.000 
#    0.000    0.000    0.000    0.000    0.000    0.000 
#
# Total GULP energy -371975.678562 kJ/mol
# GULP energy per Si atom -12399.189285 kJ/mol
# Density = 2.110424 g / cm^3
# Si number density = 21.152384 Si / 1000 Ang^3
#
#
#
# Elastic Constant Matrix: (Units=GPa)
#
#
# Indices 1 2 3 4 5 6 
#
# 1 81.7012 25.2421 18.9680 0.0000 -7.3326 0.0000
# 2 25.2421 76.4466 21.1351 0.0000 -2.3935 0.0000
# 3 18.9680 21.1351 121.6701 0.0000 -4.3992 0.0000
# 4 0.0000 0.0000 0.0000 -67.3079 0.0000 -39.0862
# 5 -7.3326 -2.3935 -4.3992 0.0000 34.5042 0.0000
# 6 0.0000 0.0000 0.0000 -39.0862 0.0000 3.0921
#
#
#
# Elastic Compliance Matrix: (Units=1/GPa)
#
#
# Indices 1 2 3 4 5 6 
#
# 1 0.014080 -0.004190 -0.001376 0.000000 0.002526 0.000000
# 2 -0.004190 0.015002 -0.001956 0.000000 -0.000099 0.000000
# 3 -0.001376 -0.001956 0.008798 0.000000 0.000694 0.000000
# 4 0.000000 0.000000 0.000000 -0.001781 0.000000 -0.022517
# 5 0.002526 -0.000099 0.000694 0.000000 0.029600 0.000000
# 6 0.000000 0.000000 0.000000 -0.022517 0.000000 0.038775
#
#
# Mechanical properties :
#
#
# Convention : Reuss Voigt Hill
#
# Bulk Modulus (GPa) = 43.78908 45.61202 44.70055
# Shear Modulus (GPa) = 39.32939 8.35588 23.84263
#
# Velocity S-wave (km/s) = 4.31668 1.98970 3.36100
# Velocity P-wave (km/s) = 6.75216 5.18545 6.01999
#
# Compressibility (1/GPa) = 0.02283674
#
# Stress axis : x y z
#
# Youngs Moduli (GPa) = 71.02105 66.65674 113.65726
#
# Poissons Ratio (x) = 0.27927 0.15639
# Poissons Ratio (y) = 0.29756 0.22236
# Poissons Ratio (z) = 0.09772 0.13041
#
# Static dielectric constant tensor:
#      x y z
#    x 3.235520 0.000000 0.278830 
#    y 0.000000 3.839250 0.000000 
#    z 0.278830 0.000000 4.090180 
# 
# 
# High freq. dielectric constant tensor:
#      x y z
#    x 1.814380 0.000000 -0.002190 
#    y 0.000000 1.828780 0.000000 
#    z -0.002190 0.000000 1.855700 
# 
# From -- ./inp_files/30148.got.cif
#   From: 2010.06.25/outbox.cif.g09.slc.cpg/sg13_16_cif.got.tgz:30148.got - 2010.06.28 04:50:58.
