data_PCOD8122000
_publ_section_title
;
Structure prediction by ZEFSAII (Michael W. Deem and Ramdas Pophale) SiO2 
 PCOD8122000
Probable space group: P 2/C
;
_chemical_formula_sum "Si O2"
_cell_formula_units_Z 28
_cell_length_a 28.217693
_cell_length_b 4.644182
_cell_length_c 8.361230
_cell_angle_alpha 90.000000
_cell_angle_beta 60.037025
_cell_angle_gamma 90.000000
_cell_volume 949.278066
_symmetry_space_group_name_H-M "P 2/C"
_symmetry_group_IT_number 13
_symmetry_cell_setting 'monoclinic'
loop_
_space_group_symop_operation_xyz
x,y,z
-x,y,1/2-z
-x,-y,-z
x,-y,1/2+z
loop_
_atom_site_type_symbol
_atom_site_label
_atom_site_fract_x
_atom_site_fract_y
_atom_site_fract_z
Si Si1 0.929574 0.278948 0.596318
Si Si2 0.215308 0.558275 0.898100
Si Si3 0.284729 0.793462 0.055650
Si Si4 0.576247 0.134674 0.375401
Si Si5 0.000000 0.057146 0.750000
Si Si6 0.640914 0.299582 0.556042
Si Si7 0.855575 0.778246 0.754073
Si Si8 0.500000 0.837436 0.750000
O O1 0.910460 0.607105 0.603672
O O2 0.950991 0.149623 0.393089
O O3 0.977763 0.263111 0.646695
O O4 0.874744 0.106575 0.746750
O O5 0.262709 0.344771 0.756611
O O6 0.192470 0.765024 0.796877
O O7 0.239242 0.768072 0.994402
O O8 0.166016 0.355908 0.044036
O O9 0.342396 0.624069 0.917437
O O10 0.301006 0.124847 0.055482
O O11 0.617142 0.318632 0.416246
O O12 0.546946 0.328096 0.279170
O O13 0.528993 0.042523 0.575456
O O14 0.603509 0.849485 0.253089
#
# Coordination Sequence:
#
# PCOD8122000 Si02
#       8
#     4   4   4   4   2   4   4   2
#     4  11  24  41  62  90 120 154 196 239 292 349
#     4  10  24  40  62  87 120 157 196 244 292 344
#     4  11  24  40  60  90 120 154 200 244 292 349
#     4   9  18  34  62  87 120 157 196 244 296 349
#     4  10  24  40  64  90 120 154 192 244 292 344
#     4  11  22  38  62  87 118 157 196 242 296 349
#     4  11  24  41  62  87 118 157 196 239 292 349
#     4   8  16  34  60  90 120 154 200 244 292 354
#
# _framework density 29.496096000000001
#
# number of rings (size 3 to 8) (size 9 to 14) (size 15 to 20)
#    0.000    1.714    0.000    3.429    0.000   10.286 
#    0.000    0.000    0.000   60.000    0.000    0.000 
#    0.000    0.000    0.000    0.000    0.000    0.000 
#
# Total GULP energy -347342.194967 kJ/mol
# GULP energy per Si atom -12405.078392 kJ/mol
# Density = 2.942896 g / cm^3
# Si number density = 29.496096 Si / 1000 Ang^3
#
#
#
# Elastic Constant Matrix: (Units=GPa)
#
#
# Indices 1 2 3 4 5 6 
#
# 1 129.3298 7.0410 12.0073 0.0000 7.9862 0.0000
# 2 7.0410 72.3946 -5.0182 0.0000 6.8629 0.0000
# 3 12.0073 -5.0182 84.3282 0.0000 10.4312 0.0000
# 4 0.0000 0.0000 0.0000 16.4131 0.0000 10.7378
# 5 7.9862 6.8629 10.4312 0.0000 42.5697 0.0000
# 6 0.0000 0.0000 0.0000 10.7378 0.0000 1.0396
#
#
#
# Elastic Compliance Matrix: (Units=1/GPa)
#
#
# Indices 1 2 3 4 5 6 
#
# 1 0.007937 -0.000738 -0.001036 0.000000 -0.001116 0.000000
# 2 -0.000738 0.014205 0.001255 0.000000 -0.002459 0.000000
# 3 -0.001036 0.001255 0.012459 0.000000 -0.003061 0.000000
# 4 0.000000 0.000000 0.000000 -0.010582 0.000000 0.109304
# 5 -0.001116 -0.002459 -0.003061 0.000000 0.024847 0.000000
# 6 0.000000 0.000000 0.000000 0.109304 0.000000 -0.167076
#
#
# Mechanical properties :
#
#
# Convention : Reuss Voigt Hill
#
# Bulk Modulus (GPa) = 29.79486 34.90143 32.34815
# Shear Modulus (GPa) = -47.17727 30.13931 -8.51898
#
# Velocity S-wave (km/s) = -4.00364 3.20004 -1.70131
# Velocity P-wave (km/s) = 3.35395 5.05093 2.67048
#
# Compressibility (1/GPa) = 0.03356283
#
# Stress axis : x y z
#
# Youngs Moduli (GPa) = 125.98483 70.39751 80.26183
#
# Poissons Ratio (x) = 0.05195 0.08315
# Poissons Ratio (y) = 0.09297 -0.10069
# Poissons Ratio (z) = 0.13052 -0.08832
#
# Static dielectric constant tensor:
#      x y z
#    x 5.826500 0.000000 -0.050070 
#    y 0.000000 4.755640 0.000000 
#    z -0.050070 0.000000 5.649130 
# 
# 
# High freq. dielectric constant tensor:
#      x y z
#    x 2.224580 0.000000 -0.012060 
#    y 0.000000 2.171730 0.000000 
#    z -0.012060 0.000000 2.225700 
# 
# From -- ./inp_files/24317.got.cif
#   From: 2010.06.25/outbox.cif.g09.slc.cpg/sg13_13_cif.got.tgz:24317.got - 2010.06.28 04:50:58.
