data_PCOD8122821
_publ_section_title
;
Structure prediction by ZEFSAII (Michael W. Deem and Ramdas Pophale) SiO2 
 PCOD8122821
Probable space group: P 2/C
;
_chemical_formula_sum "Si O2"
_cell_formula_units_Z 22
_cell_length_a 21.106995
_cell_length_b 6.349388
_cell_length_c 21.910888
_cell_angle_alpha 90.000000
_cell_angle_beta 18.765784
_cell_angle_gamma 90.000000
_cell_volume 944.647415
_symmetry_space_group_name_H-M "P 2/C"
_symmetry_group_IT_number 13
_symmetry_cell_setting 'monoclinic'
loop_
_space_group_symop_operation_xyz
x,y,z
-x,y,1/2-z
-x,-y,-z
x,-y,1/2+z
loop_
_atom_site_type_symbol
_atom_site_label
_atom_site_fract_x
_atom_site_fract_y
_atom_site_fract_z
Si Si1 0.500000 0.612027 0.750000
Si Si2 0.457522 0.735629 0.389885
Si Si3 0.317445 0.583224 0.204165
Si Si4 0.741457 0.035050 0.075052
Si Si5 0.017404 0.660391 0.799888
Si Si6 0.048094 0.670330 0.033658
O O1 0.516512 0.475364 0.673825
O O2 0.304942 0.758992 0.923393
O O3 0.601330 0.731719 0.316763
O O4 0.233009 0.754800 0.616467
O O5 0.526260 0.943215 0.290786
O O6 0.171503 0.710152 0.292067
O O7 0.194184 0.391059 0.345560
O O8 0.500000 0.500000 0.000000
O O9 0.876022 0.108854 0.009088
O O10 0.860222 0.850027 0.933412
O O11 0.952973 0.511978 0.913771
O O12 0.000000 0.541881 0.750000
#
# Coordination Sequence:
#
# PCOD8122821 Si02
#       6
#     2   4   4   4   4   4
#     4  12  24  48  74  96 148 186 230 288 362 414
#     4  12  25  46  73 103 141 185 233 292 349 422
#     4  11  23  48  74  98 139 194 234 283 355 412
#     4  12  25  45  70 109 138 181 235 294 348 414
#     4  12  25  44  70 106 143 182 232 289 352 420
#     4  11  25  46  74 101 142 186 234 288 349 416
#
# _framework density 23.289114000000001
#
# number of rings (size 3 to 8) (size 9 to 14) (size 15 to 20)
#    0.000    0.364    5.455    3.818    0.000    5.818 
#    0.000    3.636    0.000    0.000    0.000    0.000 
#    0.000    0.000    0.000    0.000    0.000    0.000 
#
# Total GULP energy -272804.594117 kJ/mol
# GULP energy per Si atom -12400.208824 kJ/mol
# Density = 2.323611 g / cm^3
# Si number density = 23.289114 Si / 1000 Ang^3
#
#
#
# Elastic Constant Matrix: (Units=GPa)
#
#
# Indices 1 2 3 4 5 6 
#
# 1 117.8245 31.9763 28.9953 0.0000 -6.5671 0.0000
# 2 31.9763 81.0738 33.9517 0.0000 2.4674 0.0000
# 3 28.9953 33.9517 151.2533 0.0000 -8.1060 0.0000
# 4 0.0000 0.0000 0.0000 25.2708 0.0000 -18.9339
# 5 -6.5671 2.4674 -8.1060 0.0000 43.3215 0.0000
# 6 0.0000 0.0000 0.0000 -18.9339 0.0000 32.3112
#
#
#
# Elastic Compliance Matrix: (Units=1/GPa)
#
#
# Indices 1 2 3 4 5 6 
#
# 1 0.009761 -0.003471 -0.001012 0.000000 0.001488 0.000000
# 2 -0.003471 0.014929 -0.002787 0.000000 -0.001898 0.000000
# 3 -0.001012 -0.002787 0.007507 0.000000 0.001410 0.000000
# 4 0.000000 0.000000 0.000000 0.070542 0.000000 0.041337
# 5 0.001488 -0.001898 0.001410 0.000000 0.023681 0.000000
# 6 0.000000 0.000000 0.000000 0.041337 0.000000 0.055172
#
#
# Mechanical properties :
#
#
# Convention : Reuss Voigt Hill
#
# Bulk Modulus (GPa) = 56.64178 59.99981 58.32079
# Shear Modulus (GPa) = 24.75025 37.19593 30.97309
#
# Velocity S-wave (km/s) = 3.26350 4.00076 3.65079
# Velocity P-wave (km/s) = 6.21084 6.86734 6.54732
#
# Compressibility (1/GPa) = 0.01765481
#
# Stress axis : x y z
#
# Youngs Moduli (GPa) = 102.44498 66.98565 133.21442
#
# Poissons Ratio (x) = 0.23253 0.13485
# Poissons Ratio (y) = 0.35562 0.37130
# Poissons Ratio (z) = 0.10371 0.18671
#
# Static dielectric constant tensor:
#      x y z
#    x 4.742320 0.000000 -0.223040 
#    y 0.000000 3.872350 0.000000 
#    z -0.223040 0.000000 4.408570 
# 
# 
# High freq. dielectric constant tensor:
#      x y z
#    x 1.944190 0.000000 -0.021070 
#    y 0.000000 1.893450 0.000000 
#    z -0.021070 0.000000 1.933180 
# 
# From -- ./inp_files/88685.got.cif
#   From: 2010.06.25/outbox.cif.g09.slc.cpg/sg13_45_cif.got.tgz:88685.got - 2010.06.28 04:50:58.
