data_PCOD8122487
_publ_section_title
;
Structure prediction by ZEFSAII (Michael W. Deem and Ramdas Pophale) SiO2 
 PCOD8122487
Probable space group: P 2/C
;
_chemical_formula_sum "Si O2"
_cell_formula_units_Z 30
_cell_length_a 23.162285
_cell_length_b 8.873355
_cell_length_c 15.399221
_cell_angle_alpha 90.000000
_cell_angle_beta 152.444214
_cell_angle_gamma 90.000000
_cell_volume 1464.147848
_symmetry_space_group_name_H-M "P 2/C"
_symmetry_group_IT_number 13
_symmetry_cell_setting 'monoclinic'
loop_
_space_group_symop_operation_xyz
x,y,z
-x,y,1/2-z
-x,-y,-z
x,-y,1/2+z
loop_
_atom_site_type_symbol
_atom_site_label
_atom_site_fract_x
_atom_site_fract_y
_atom_site_fract_z
Si Si1 0.732372 0.810187 0.728589
Si Si2 0.998196 0.120059 0.920326
Si Si3 0.637645 0.858316 0.104563
Si Si4 0.252172 0.311758 0.904683
Si Si5 0.735497 0.169353 0.917367
Si Si6 0.000000 0.922803 0.750000
Si Si7 0.352779 0.843784 0.700034
Si Si8 0.356498 0.371849 0.548070
O O1 0.694518 0.761659 0.775503
O O2 0.649179 0.721246 0.548774
O O3 0.714427 0.989197 0.693317
O O4 0.878285 0.776752 0.907390
O O5 0.884763 0.239136 0.772484
O O6 0.002024 0.030287 0.835887
O O7 0.000000 0.000000 0.000000
O O8 0.681236 0.735495 0.094651
O O9 0.659078 0.789589 0.228777
O O10 0.493759 0.896658 0.900437
O O11 0.337491 0.268779 0.100326
O O12 0.256105 0.492850 0.909787
O O13 0.683756 0.266909 0.926462
O O14 0.724789 0.992820 0.926507
O O15 0.882929 0.191815 0.097385
O O16 0.500000 0.426429 0.750000
#
# Coordination Sequence:
#
# PCOD8122487 Si02
#       8
#     4   4   4   4   4   2   4   4
#     4  11  22  40  66  94 122 168 218 273 320 366
#     4  12  21  42  67  93 125 161 222 275 315 376
#     4  11  21  39  64  96 123 165 223 268 317 375
#     4  12  25  41  63  93 131 176 209 259 327 385
#     4  11  22  40  67  94 124 168 216 272 323 373
#     4  12  20  42  68  96 122 158 220 282 320 372
#     4  11  21  39  65  94 124 165 221 272 316 374
#     4  12  26  43  61  95 140 175 209 257 325 400
#
# _framework density 20.489733999999999
#
# number of rings (size 3 to 8) (size 9 to 14) (size 15 to 20)
#    0.000    0.533    5.333    6.000    0.000    1.600 
#    0.000    4.667    0.000    0.000    0.000    0.000 
#    0.000    0.000    0.000    0.000    0.000    0.000 
#
# Total GULP energy -372079.175320 kJ/mol
# GULP energy per Si atom -12402.639177 kJ/mol
# Density = 2.044310 g / cm^3
# Si number density = 20.489734 Si / 1000 Ang^3
#
#
#
# Elastic Constant Matrix: (Units=GPa)
#
#
# Indices 1 2 3 4 5 6 
#
# 1 104.6750 47.7828 21.4712 0.0000 -12.9934 0.0000
# 2 47.7828 76.8494 28.5817 0.0000 -19.1942 0.0000
# 3 21.4712 28.5817 91.0321 0.0000 9.2261 0.0000
# 4 0.0000 0.0000 0.0000 13.6981 0.0000 27.2326
# 5 -12.9934 -19.1942 9.2261 0.0000 55.2320 0.0000
# 6 0.0000 0.0000 0.0000 27.2326 0.0000 -13.5334
#
#
#
# Elastic Compliance Matrix: (Units=1/GPa)
#
#
# Indices 1 2 3 4 5 6 
#
# 1 0.013382 -0.007924 -0.000721 0.000000 0.000515 0.000000
# 2 -0.007924 0.021674 -0.005605 0.000000 0.006604 0.000000
# 3 -0.000721 -0.005605 0.013356 0.000000 -0.004348 0.000000
# 4 0.000000 0.000000 0.000000 0.014599 0.000000 0.029377
# 5 0.000515 0.006604 -0.004348 0.000000 0.021248 0.000000
# 6 0.000000 0.000000 0.000000 0.029377 0.000000 -0.014777
#
#
# Mechanical properties :
#
#
# Convention : Reuss Voigt Hill
#
# Bulk Modulus (GPa) = 50.22189 52.02533 51.12361
# Shear Modulus (GPa) = 47.79216 22.72738 35.25977
#
# Velocity S-wave (km/s) = 4.83483 3.33409 4.15281
# Velocity P-wave (km/s) = 7.46535 6.34568 6.92817
#
# Compressibility (1/GPa) = 0.01991164
#
# Stress axis : x y z
#
# Youngs Moduli (GPa) = 74.72505 46.13882 74.87423
#
# Poissons Ratio (x) = 0.36561 0.05395
# Poissons Ratio (y) = 0.59214 0.41969
# Poissons Ratio (z) = 0.05385 0.25862
#
# Static dielectric constant tensor:
#      x y z
#    x 3.955070 0.000000 0.094330 
#    y 0.000000 3.355170 0.000000 
#    z 0.094330 0.000000 4.146200 
# 
# 
# High freq. dielectric constant tensor:
#      x y z
#    x 1.822200 0.000000 -0.002210 
#    y 0.000000 1.764350 0.000000 
#    z -0.002210 0.000000 1.823230 
# 
# From -- ./inp_files/58701.got.cif
#   From: 2010.06.25/outbox.cif.g09.slc.cpg/sg13_30_cif.got.tgz:58701.got - 2010.06.28 04:50:58.
