data_PCOD8122286
_publ_section_title
;
Structure prediction by ZEFSAII (Michael W. Deem and Ramdas Pophale) SiO2 
 PCOD8122286
Probable space group: P 2/C
;
_chemical_formula_sum "Si O2"
_cell_formula_units_Z 20
_cell_length_a 8.478165
_cell_length_b 20.905398
_cell_length_c 5.324883
_cell_angle_alpha 90.000000
_cell_angle_beta 65.201191
_cell_angle_gamma 90.000000
_cell_volume 856.749677
_symmetry_space_group_name_H-M "P 2/C"
_symmetry_group_IT_number 13
_symmetry_cell_setting 'monoclinic'
loop_
_space_group_symop_operation_xyz
x,y,z
-x,y,1/2-z
-x,-y,-z
x,-y,1/2+z
loop_
_atom_site_type_symbol
_atom_site_label
_atom_site_fract_x
_atom_site_fract_y
_atom_site_fract_z
Si Si1 0.294956 0.537018 0.398601
Si Si2 0.823211 0.133132 0.978663
Si Si3 0.000000 0.222232 0.250000
Si Si4 0.152851 0.665241 0.328411
Si Si5 0.500000 0.958439 0.750000
Si Si6 0.605876 0.763817 0.433625
O O1 0.500000 0.546619 0.250000
O O2 0.233709 0.500490 0.689734
O O3 0.203466 0.605972 0.470617
O O4 0.752265 0.180556 0.808447
O O5 0.000000 0.100503 0.750000
O O6 0.678370 0.081457 0.146635
O O7 0.866989 0.177942 0.186704
O O8 0.886474 0.271156 0.489292
O O9 0.317553 0.692175 0.060020
O O10 0.000000 0.642371 0.250000
O O11 0.500000 0.000000 0.500000
O O12 0.500000 0.763195 0.250000
O O13 0.500000 0.784732 0.750000
#
# Coordination Sequence:
#
# PCOD8122286 Si02
#       6
#     4   4   2   4   2   4
#     4  10  25  47  68  95 141 203 259 316 382 462
#     4  12  27  48  83 112 162 204 250 324 384 459
#     4  12  24  48  74 120 160 196 246 328 406 456
#     4  12  26  42  70 112 150 192 259 320 393 474
#     4  12  34  56  82 122 158 214 270 302 366 468
#     4  12  25  43  74 112 149 197 248 317 390 455
#
# _framework density 23.34404
#
# number of rings (size 3 to 8) (size 9 to 14) (size 15 to 20)
#    0.000    0.400    5.000    1.800    7.000    4.000 
#    0.000    0.000    0.000    0.000    0.000    0.000 
#    0.000    0.000    0.000    0.000    0.000    0.000 
#
# Total GULP energy -247947.395933 kJ/mol
# GULP energy per Si atom -12397.369797 kJ/mol
# Density = 2.329091 g / cm^3
# Si number density = 23.344040 Si / 1000 Ang^3
#
#
#
# Elastic Constant Matrix: (Units=GPa)
#
#
# Indices 1 2 3 4 5 6 
#
# 1 143.2512 80.5067 61.1553 0.0000 7.0253 0.0000
# 2 80.5067 163.8791 64.1413 0.0000 5.9527 0.0000
# 3 61.1553 64.1413 121.4627 0.0000 14.5796 0.0000
# 4 0.0000 0.0000 0.0000 34.4283 0.0000 3.6745
# 5 7.0253 5.9527 14.5796 0.0000 41.7830 0.0000
# 6 0.0000 0.0000 0.0000 3.6745 0.0000 54.7963
#
#
#
# Elastic Compliance Matrix: (Units=1/GPa)
#
#
# Indices 1 2 3 4 5 6 
#
# 1 0.010573 -0.003922 -0.003242 0.000000 -0.000088 0.000000
# 2 -0.003922 0.009151 -0.002902 0.000000 0.000368 0.000000
# 3 -0.003242 -0.002902 0.011776 0.000000 -0.003151 0.000000
# 4 0.000000 0.000000 0.000000 0.029255 0.000000 -0.001962
# 5 -0.000088 0.000368 -0.003151 0.000000 0.024995 0.000000
# 6 0.000000 0.000000 0.000000 -0.001962 0.000000 0.018381
#
#
# Mechanical properties :
#
#
# Convention : Reuss Voigt Hill
#
# Bulk Modulus (GPa) = 87.96272 93.35551 90.65912
# Shear Modulus (GPa) = 39.04641 41.05418 40.05029
#
# Velocity S-wave (km/s) = 4.09424 4.19818 4.14654
# Velocity P-wave (km/s) = 7.75327 7.97356 7.86419
#
# Compressibility (1/GPa) = 0.01136845
#
# Stress axis : x y z
#
# Youngs Moduli (GPa) = 94.57828 109.27411 84.91975
#
# Poissons Ratio (x) = 0.42859 0.27529
# Poissons Ratio (y) = 0.37095 0.24644
# Poissons Ratio (z) = 0.30660 0.31711
#
# Static dielectric constant tensor:
#      x y z
#    x 4.664230 0.000000 -0.247080 
#    y 0.000000 4.081920 0.000000 
#    z -0.247080 0.000000 4.461680 
# 
# 
# High freq. dielectric constant tensor:
#      x y z
#    x 1.945760 0.000000 -0.005450 
#    y 0.000000 1.917360 0.000000 
#    z -0.005450 0.000000 1.928830 
# 
# From -- ./inp_files/2046.got.cif
#   From: 2010.06.25/outbox.cif.g09.slc.cpg/sg13_2_cif.got.tgz:2046.got - 2010.06.28 04:50:58.
