data_PCOD8122217
_publ_section_title
;
Structure prediction by ZEFSAII (Michael W. Deem and Ramdas Pophale) SiO2 
 PCOD8122217
Probable space group: P 2/C
;
_chemical_formula_sum "Si O2"
_cell_formula_units_Z 30
_cell_length_a 20.199673
_cell_length_b 6.615274
_cell_length_c 22.587025
_cell_angle_alpha 90.000000
_cell_angle_beta 152.323336
_cell_angle_gamma 90.000000
_cell_volume 1401.908057
_symmetry_space_group_name_H-M "P 2/C"
_symmetry_group_IT_number 13
_symmetry_cell_setting 'monoclinic'
loop_
_space_group_symop_operation_xyz
x,y,z
-x,y,1/2-z
-x,-y,-z
x,-y,1/2+z
loop_
_atom_site_type_symbol
_atom_site_label
_atom_site_fract_x
_atom_site_fract_y
_atom_site_fract_z
Si Si1 0.881991 0.463017 0.200842
Si Si2 0.966502 0.151527 0.359139
Si Si3 0.752517 0.044921 0.372933
Si Si4 0.260688 0.147002 0.864637
Si Si5 0.354490 0.745558 0.312608
Si Si6 0.145838 0.382943 0.124231
Si Si7 0.370215 0.191041 0.530261
Si Si8 0.500000 0.952470 0.250000
O O1 0.969098 0.353696 0.322013
O O2 0.780050 0.634747 0.144197
O O3 0.000000 0.552631 0.250000
O O4 0.780709 0.302394 0.087929
O O5 0.878529 0.203775 0.348406
O O6 0.126668 0.083373 0.498411
O O7 0.886305 0.969334 0.263675
O O8 0.703728 0.916450 0.277710
O O9 0.622024 0.085834 0.314875
O O10 0.807945 0.267392 0.399004
O O11 0.353216 0.168921 0.878215
O O12 0.352187 0.033091 0.987490
O O13 0.265648 0.538863 0.239592
O O14 0.516268 0.692287 0.421838
O O15 0.000000 0.500000 0.000000
O O16 0.426211 0.186094 0.641718
#
# Coordination Sequence:
#
# PCOD8122217 Si02
#       8
#     4   4   4   4   4   4   4   2
#     4  11  25  43  65  95 131 175 220 268 324 397
#     4  11  22  40  66  98 135 167 216 279 318 382
#     4  11  23  40  68  98 137 173 215 272 326 392
#     4  11  23  42  65  97 129 173 217 265 332 387
#     4  11  22  41  66  98 134 171 215 272 325 384
#     4  12  22  38  67 103 129 172 223 270 329 376
#     4  10  25  45  67  94 130 172 217 270 329 395
#     4  10  24  48  66  92 130 178 210 264 342 394
#
# _framework density 21.399405999999999
#
# number of rings (size 3 to 8) (size 9 to 14) (size 15 to 20)
#    0.000    1.067    4.000    2.400    0.000    5.867 
#    0.000    3.333    0.000    0.000    0.000    0.000 
#    0.000    0.000    0.000    0.000    0.000    0.000 
#
# Total GULP energy -372063.766444 kJ/mol
# GULP energy per Si atom -12402.125548 kJ/mol
# Density = 2.135070 g / cm^3
# Si number density = 21.399406 Si / 1000 Ang^3
#
#
#
# Elastic Constant Matrix: (Units=GPa)
#
#
# Indices 1 2 3 4 5 6 
#
# 1 137.4697 34.2544 50.4083 0.0000 6.3265 0.0000
# 2 34.2544 85.9436 32.4092 0.0000 0.6512 0.0000
# 3 50.4083 32.4092 102.5661 0.0000 -1.3406 0.0000
# 4 0.0000 0.0000 0.0000 23.1160 0.0000 1.0938
# 5 6.3265 0.6512 -1.3406 0.0000 39.7809 0.0000
# 6 0.0000 0.0000 0.0000 1.0938 0.0000 27.7936
#
#
#
# Elastic Compliance Matrix: (Units=1/GPa)
#
#
# Indices 1 2 3 4 5 6 
#
# 1 0.009335 -0.002237 -0.003902 0.000000 -0.001579 0.000000
# 2 -0.002237 0.013751 -0.003245 0.000000 0.000021 0.000000
# 3 -0.003902 -0.003245 0.012707 0.000000 0.001102 0.000000
# 4 0.000000 0.000000 0.000000 0.043341 0.000000 -0.001706
# 5 -0.001579 0.000021 0.001102 0.000000 0.025426 0.000000
# 6 0.000000 0.000000 0.000000 -0.001706 0.000000 0.036047
#
#
# Mechanical properties :
#
#
# Convention : Reuss Voigt Hill
#
# Bulk Modulus (GPa) = 58.73776 62.23591 60.48684
# Shear Modulus (GPa) = 30.29390 32.06527 31.17958
#
# Velocity S-wave (km/s) = 3.76658 3.87514 3.82125
# Velocity P-wave (km/s) = 6.81352 7.01202 6.91348
#
# Compressibility (1/GPa) = 0.01702482
#
# Stress axis : x y z
#
# Youngs Moduli (GPa) = 107.12117 72.72260 78.69580
#
# Poissons Ratio (x) = 0.16271 0.30704
# Poissons Ratio (y) = 0.23968 0.25538
# Poissons Ratio (z) = 0.41795 0.23599
#
# Static dielectric constant tensor:
#      x y z
#    x 4.084020 0.000000 -0.006660 
#    y 0.000000 3.689730 0.000000 
#    z -0.006660 0.000000 3.973840 
# 
# 
# High freq. dielectric constant tensor:
#      x y z
#    x 1.847870 0.000000 0.003590 
#    y 0.000000 1.828590 0.000000 
#    z 0.003590 0.000000 1.848280 
# 
# From -- ./inp_files/88374.got.cif
#   From: 2010.06.25/outbox.cif.g09.slc.cpg/sg13_45_cif.got.tgz:88374.got - 2010.06.28 04:50:58.
