data_PCOD8122529
_publ_section_title
;
Structure prediction by ZEFSAII (Michael W. Deem and Ramdas Pophale) SiO2 
 PCOD8122529
Probable space group: P 2/C
;
_chemical_formula_sum "Si O2"
_cell_formula_units_Z 24
_cell_length_a 24.937896
_cell_length_b 7.453017
_cell_length_c 19.147299
_cell_angle_alpha 90.000000
_cell_angle_beta 160.643442
_cell_angle_gamma 90.000000
_cell_volume 1179.538348
_symmetry_space_group_name_H-M "P 2/C"
_symmetry_group_IT_number 13
_symmetry_cell_setting 'monoclinic'
loop_
_space_group_symop_operation_xyz
x,y,z
-x,y,1/2-z
-x,-y,-z
x,-y,1/2+z
loop_
_atom_site_type_symbol
_atom_site_label
_atom_site_fract_x
_atom_site_fract_y
_atom_site_fract_z
Si Si1 0.671765 0.606209 0.075708
Si Si2 0.857462 0.963500 0.626366
Si Si3 0.942715 0.138725 0.873022
Si Si4 0.701554 0.309225 0.380038
Si Si5 0.845061 0.448476 0.414482
Si Si6 0.173928 0.587762 0.858821
O O1 0.764377 0.790639 0.172621
O O2 0.710577 0.546176 0.202361
O O3 0.720639 0.451356 0.080643
O O4 0.484364 0.646253 0.837691
O O5 0.768091 0.778588 0.538664
O O6 0.000000 0.909445 0.750000
O O7 0.941245 0.051611 0.795731
O O8 0.732275 0.099774 0.435483
O O9 0.067020 0.303331 0.026437
O O10 0.000000 0.000000 0.000000
O O11 0.755640 0.352139 0.368283
O O12 0.805794 0.427959 0.561035
O O13 0.981153 0.592577 0.605576
#
# Coordination Sequence:
#
# PCOD8122529 Si02
#       6
#     4   4   4   4   4   4
#     4  11  24  42  64  98 140 170 216 281 338 390
#     4  12  22  41  70  98 128 176 228 277 322 401
#     4  11  22  40  67  96 127 172 230 265 324 396
#     4  12  23  44  64 101 135 172 216 282 338 390
#     4  11  21  43  68  92 135 178 222 273 327 402
#     4  11  23  42  71  94 127 178 229 262 328 403
#
# _framework density 20.346944000000001
#
# number of rings (size 3 to 8) (size 9 to 14) (size 15 to 20)
#    0.000    0.667    5.000    6.500    0.000    0.000 
#    9.000    0.833    0.000    0.000    0.000    0.000 
#    0.000    0.000    0.000    0.000    0.000    0.000 
#
# Total GULP energy -297699.409592 kJ/mol
# GULP energy per Si atom -12404.142066 kJ/mol
# Density = 2.030063 g / cm^3
# Si number density = 20.346944 Si / 1000 Ang^3
#
#
#
# Elastic Constant Matrix: (Units=GPa)
#
#
# Indices 1 2 3 4 5 6 
#
# 1 111.3340 43.7871 49.4411 0.0000 -5.1052 0.0000
# 2 43.7871 127.1804 39.0941 0.0000 -0.5326 0.0000
# 3 49.4411 39.0941 91.0539 0.0000 6.7548 0.0000
# 4 0.0000 0.0000 0.0000 28.5965 0.0000 -13.3507
# 5 -5.1052 -0.5326 6.7548 0.0000 34.1888 0.0000
# 6 0.0000 0.0000 0.0000 -13.3507 0.0000 35.5677
#
#
#
# Elastic Compliance Matrix: (Units=1/GPa)
#
#
# Indices 1 2 3 4 5 6 
#
# 1 0.012831 -0.002526 -0.006111 0.000000 0.003084 0.000000
# 2 -0.002526 0.009584 -0.002767 0.000000 0.000319 0.000000
# 3 -0.006111 -0.002767 0.015791 0.000000 -0.004076 0.000000
# 4 0.000000 0.000000 0.000000 0.042399 0.000000 0.015915
# 5 0.003084 0.000319 -0.004076 0.000000 0.030520 0.000000
# 6 0.000000 0.000000 0.000000 0.015915 0.000000 0.034089
#
#
# Mechanical properties :
#
#
# Convention : Reuss Voigt Hill
#
# Bulk Modulus (GPa) = 64.94474 66.02367 65.48420
# Shear Modulus (GPa) = 28.87563 32.82033 30.84798
#
# Velocity S-wave (km/s) = 3.77127 4.02062 3.89794
# Velocity P-wave (km/s) = 7.13801 7.35345 7.24653
#
# Compressibility (1/GPa) = 0.01539771
#
# Stress axis : x y z
#
# Youngs Moduli (GPa) = 77.93804 104.33531 63.32654
#
# Poissons Ratio (x) = 0.26356 0.38700
# Poissons Ratio (y) = 0.19688 0.17523
# Poissons Ratio (z) = 0.47629 0.28871
#
# Static dielectric constant tensor:
#      x y z
#    x 3.927110 0.000000 -0.140450 
#    y 0.000000 4.471770 0.000000 
#    z -0.140450 0.000000 3.584530 
# 
# 
# High freq. dielectric constant tensor:
#      x y z
#    x 1.813590 0.000000 -0.011920 
#    y 0.000000 1.796150 0.000000 
#    z -0.011920 0.000000 1.782110 
# 
# From -- ./inp_files/71329.got.cif
#   From: 2010.06.25/outbox.cif.g09.slc.cpg/sg13_36_cif.got.tgz:71329.got - 2010.06.28 04:50:58.
