data_PCOD8122307
_publ_section_title
;
Structure prediction by ZEFSAII (Michael W. Deem and Ramdas Pophale) SiO2 
 PCOD8122307
Probable space group: P 2/C
;
_chemical_formula_sum "Si O2"
_cell_formula_units_Z 26
_cell_length_a 15.994652
_cell_length_b 5.044814
_cell_length_c 16.562025
_cell_angle_alpha 90.000000
_cell_angle_beta 55.681159
_cell_angle_gamma 90.000000
_cell_volume 1103.742235
_symmetry_space_group_name_H-M "P 2/C"
_symmetry_group_IT_number 13
_symmetry_cell_setting 'monoclinic'
loop_
_space_group_symop_operation_xyz
x,y,z
-x,y,1/2-z
-x,-y,-z
x,-y,1/2+z
loop_
_atom_site_type_symbol
_atom_site_label
_atom_site_fract_x
_atom_site_fract_y
_atom_site_fract_z
Si Si1 0.930583 0.055395 0.460541
Si Si2 0.530077 0.977741 0.594814
Si Si3 0.587545 0.533383 0.148322
Si Si4 0.199478 0.553019 0.976365
Si Si5 0.000000 0.215791 0.250000
Si Si6 0.335472 0.090380 0.625297
Si Si7 0.783991 0.428439 0.352179
O O1 0.838203 0.850846 0.516353
O O2 0.890167 0.352042 0.495660
O O3 0.979544 0.038978 0.343017
O O4 0.000000 0.000000 0.500000
O O5 0.552151 0.764065 0.650883
O O6 0.578594 0.848370 0.488207
O O7 0.589475 0.256586 0.573463
O O8 0.407171 0.016365 0.661835
O O9 0.500000 0.667058 0.250000
O O10 0.698790 0.510635 0.130286
O O11 0.241551 0.526808 0.044271
O O12 0.905951 0.406886 0.278993
O O13 0.265346 0.350095 0.679886
O O14 0.258717 0.858248 0.644787
#
# Coordination Sequence:
#
# PCOD8122307 Si02
#       7
#     4   4   4   4   2   4   4
#     4  11  25  47  72 101 140 180 230 292 350 411
#     4  11  22  40  63  97 126 173 226 273 342 405
#     4  12  24  42  65  93 134 181 232 272 337 425
#     4  11  22  43  71  91 131 184 228 276 357 411
#     4  10  26  44  74 106 136 184 238 290 340 420
#     4  11  21  38  67  93 133 169 217 283 343 406
#     4  11  21  40  66  96 130 176 225 281 346 409
#
# _framework density 23.556227
#
# number of rings (size 3 to 8) (size 9 to 14) (size 15 to 20)
#    0.000    0.923    3.077    4.615    0.000    8.000 
#    8.308    0.000    0.000    0.000    0.000    0.000 
#    0.000    0.000    0.000    0.000    0.000    0.000 
#
# Total GULP energy -322189.560945 kJ/mol
# GULP energy per Si atom -12391.906190 kJ/mol
# Density = 2.350261 g / cm^3
# Si number density = 23.556227 Si / 1000 Ang^3
#
#
#
# Elastic Constant Matrix: (Units=GPa)
#
#
# Indices 1 2 3 4 5 6 
#
# 1 124.4737 32.4801 32.0081 0.0000 -18.0924 0.0000
# 2 32.4801 107.4840 6.0139 0.0000 -5.0053 0.0000
# 3 32.0081 6.0139 82.4559 0.0000 -13.4818 0.0000
# 4 0.0000 0.0000 0.0000 20.0670 0.0000 -13.1619
# 5 -18.0924 -5.0053 -13.4818 0.0000 33.3961 0.0000
# 6 0.0000 0.0000 0.0000 -13.1619 0.0000 42.8081
#
#
#
# Elastic Compliance Matrix: (Units=1/GPa)
#
#
# Indices 1 2 3 4 5 6 
#
# 1 0.010088 -0.002698 -0.003096 0.000000 0.003811 0.000000
# 2 -0.002698 0.010109 0.000341 0.000000 0.000191 0.000000
# 3 -0.003096 0.000341 0.013960 0.000000 0.004009 0.000000
# 4 0.000000 0.000000 0.000000 0.062421 0.000000 0.019192
# 5 0.003811 0.000191 0.004009 0.000000 0.033655 0.000000
# 6 0.000000 0.000000 0.000000 0.019192 0.000000 0.029261
#
#
# Mechanical properties :
#
#
# Convention : Reuss Voigt Hill
#
# Bulk Modulus (GPa) = 43.00770 50.60197 46.80484
# Shear Modulus (GPa) = 28.06627 35.51501 31.79064
#
# Velocity S-wave (km/s) = 3.45550 3.88708 3.67763
# Velocity P-wave (km/s) = 5.84959 6.45553 6.16002
#
# Compressibility (1/GPa) = 0.02325165
#
# Stress axis : x y z
#
# Youngs Moduli (GPa) = 99.12926 98.92434 71.63204
#
# Poissons Ratio (x) = 0.26687 0.22178
# Poissons Ratio (y) = 0.26742 -0.02444
# Poissons Ratio (z) = 0.30691 -0.03375
#
# Static dielectric constant tensor:
#      x y z
#    x 4.323590 0.000000 -0.219360 
#    y 0.000000 4.150030 0.000000 
#    z -0.219360 0.000000 4.310330 
# 
# 
# High freq. dielectric constant tensor:
#      x y z
#    x 1.935210 0.000000 -0.029060 
#    y 0.000000 1.940210 0.000000 
#    z -0.029060 0.000000 1.913030 
# 
# From -- ./inp_files/79267.got.cif
#   From: 2010.06.25/outbox.cif.g09.slc.cpg/sg13_40_cif.got.tgz:79267.got - 2010.06.28 04:50:58.
