data_PCOD8122857
_publ_section_title
;
Structure prediction by ZEFSAII (Michael W. Deem and Ramdas Pophale) SiO2 
 PCOD8122857
Probable space group: P 2/C
;
_chemical_formula_sum "Si O2"
_cell_formula_units_Z 24
_cell_length_a 14.931029
_cell_length_b 5.085060
_cell_length_c 29.070015
_cell_angle_alpha 90.000000
_cell_angle_beta 152.798161
_cell_angle_gamma 90.000000
_cell_volume 1008.944902
_symmetry_space_group_name_H-M "P 2/C"
_symmetry_group_IT_number 13
_symmetry_cell_setting 'monoclinic'
loop_
_space_group_symop_operation_xyz
x,y,z
-x,y,1/2-z
-x,-y,-z
x,-y,1/2+z
loop_
_atom_site_type_symbol
_atom_site_label
_atom_site_fract_x
_atom_site_fract_y
_atom_site_fract_z
Si Si1 0.619280 0.096631 0.125124
Si Si2 0.998332 0.238845 0.149480
Si Si3 0.554909 0.372482 0.374414
Si Si4 0.018017 0.258135 0.914106
Si Si5 0.624973 0.712899 0.530778
Si Si6 0.399080 0.131656 0.752588
O O1 0.822764 0.087226 0.244631
O O2 0.487779 0.327604 0.089835
O O3 0.668967 0.095619 0.093616
O O4 0.489713 0.830000 0.066358
O O5 0.070509 0.491977 0.154093
O O6 0.839272 0.369119 0.110933
O O7 0.905333 0.998137 0.078545
O O8 0.485697 0.659161 0.327890
O O9 0.788094 0.353732 0.470150
O O10 0.436393 0.154573 0.291224
O O11 0.835132 0.166464 0.862156
O O12 0.500000 0.500000 0.500000
O O13 0.500000 0.164460 0.750000
#
# Coordination Sequence:
#
# PCOD8122857 Si02
#       6
#     4   4   4   4   4   4
#     4  11  24  44  66 102 139 191 231 295 345 414
#     4  12  25  44  71 102 142 192 240 287 356 422
#     4  12  25  46  76 102 149 189 234 300 370 427
#     4  12  25  45  74 106 140 189 243 293 366 438
#     4  11  26  43  68 104 146 185 248 289 344 422
#     4  12  27  48  75 108 141 185 243 304 366 447
#
# _framework density 23.787227000000001
#
# number of rings (size 3 to 8) (size 9 to 14) (size 15 to 20)
#    0.000    0.333    5.000    3.000    7.000    1.333 
#    0.000    0.000    0.000    0.000    0.000    0.000 
#    0.000    0.000    0.000    0.000    0.000    0.000 
#
# Total GULP energy -297322.247505 kJ/mol
# GULP energy per Si atom -12388.426979 kJ/mol
# Density = 2.373309 g / cm^3
# Si number density = 23.787227 Si / 1000 Ang^3
#
#
#
# Elastic Constant Matrix: (Units=GPa)
#
#
# Indices 1 2 3 4 5 6 
#
# 1 107.3628 6.4631 21.2009 0.0000 13.5329 0.0000
# 2 6.4631 82.6132 -8.6633 0.0000 -11.9296 0.0000
# 3 21.2009 -8.6633 92.7442 0.0000 29.7274 0.0000
# 4 0.0000 0.0000 0.0000 29.9102 0.0000 6.0858
# 5 13.5329 -11.9296 29.7274 0.0000 33.2896 0.0000
# 6 0.0000 0.0000 0.0000 6.0858 0.0000 25.0647
#
#
#
# Elastic Compliance Matrix: (Units=1/GPa)
#
#
# Indices 1 2 3 4 5 6 
#
# 1 0.010096 -0.001424 -0.001348 0.000000 -0.003411 0.000000
# 2 -0.001424 0.012976 -0.000194 0.000000 0.005402 0.000000
# 3 -0.001348 -0.000194 0.015298 0.000000 -0.013182 0.000000
# 4 0.000000 0.000000 0.000000 0.035171 0.000000 -0.008540
# 5 -0.003411 0.005402 -0.013182 0.000000 0.045134 0.000000
# 6 0.000000 0.000000 0.000000 -0.008540 0.000000 0.041970
#
#
# Mechanical properties :
#
#
# Convention : Reuss Voigt Hill
#
# Bulk Modulus (GPa) = 30.82719 35.63574 33.23146
# Shear Modulus (GPa) = 28.18692 35.23422 31.71057
#
# Velocity S-wave (km/s) = 3.44606 3.85284 3.65511
# Velocity P-wave (km/s) = 5.36856 5.89967 5.64037
#
# Compressibility (1/GPa) = 0.03243890
#
# Stress axis : x y z
#
# Youngs Moduli (GPa) = 99.04930 77.06715 65.36965
#
# Poissons Ratio (x) = 0.10972 0.08809
# Poissons Ratio (y) = 0.14102 0.01268
# Poissons Ratio (z) = 0.13347 0.01495
#
# Static dielectric constant tensor:
#      x y z
#    x 3.016730 0.000000 0.527030 
#    y 0.000000 4.141900 0.000000 
#    z 0.527030 0.000000 4.257520 
# 
# 
# High freq. dielectric constant tensor:
#      x y z
#    x 1.936300 0.000000 0.023250 
#    y 0.000000 1.951270 0.000000 
#    z 0.023250 0.000000 1.947050 
# 
# From -- ./inp_files/96887.got.cif
#   From: 2010.06.25/outbox.cif.g09.slc.cpg/sg13_49_cif.got.tgz:96887.got - 2010.06.28 04:50:58.
