data_PCOD8122338
_publ_section_title
;
Structure prediction by ZEFSAII (Michael W. Deem and Ramdas Pophale) SiO2 
 PCOD8122338
Probable space group: P 2/C
;
_chemical_formula_sum "Si O2"
_cell_formula_units_Z 18
_cell_length_a 9.520408
_cell_length_b 8.060751
_cell_length_c 19.414976
_cell_angle_alpha 90.000000
_cell_angle_beta 147.120465
_cell_angle_gamma 90.000000
_cell_volume 808.848867
_symmetry_space_group_name_H-M "P 2/C"
_symmetry_group_IT_number 13
_symmetry_cell_setting 'monoclinic'
loop_
_space_group_symop_operation_xyz
x,y,z
-x,y,1/2-z
-x,-y,-z
x,-y,1/2+z
loop_
_atom_site_type_symbol
_atom_site_label
_atom_site_fract_x
_atom_site_fract_y
_atom_site_fract_z
Si Si1 0.794213 0.551162 0.611361
Si Si2 0.724657 0.907223 0.633364
Si Si3 0.500000 0.196247 0.750000
Si Si4 0.001111 0.378985 0.564085
Si Si5 0.417495 0.120819 0.142691
O O1 0.500000 0.500000 0.500000
O O2 0.801051 0.748883 0.619099
O O3 0.886107 0.491627 0.575728
O O4 0.000000 0.472083 0.750000
O O5 0.634694 0.857013 0.673154
O O6 0.000000 0.009507 0.750000
O O7 0.500000 0.000000 0.500000
O O8 0.710523 0.315327 0.801379
O O9 0.625167 0.077333 0.861139
O O10 0.840235 0.209982 0.488384
O O11 0.000000 0.500000 0.500000
O O12 0.500000 0.204458 0.250000
#
# Coordination Sequence:
#
# PCOD8122338 Si02
#       5
#     4   4   2   4   4
#     4  11  27  47  72 107 150 190 248 310 376 443
#     4  11  27  45  75 107 148 199 246 310 376 456
#     4  10  28  44  78 104 152 192 252 308 384 446
#     4  12  28  45  78 107 147 198 254 311 376 457
#     4  10  26  48  73 103 153 189 255 299 385 451
#
# _framework density 22.253848999999999
#
# number of rings (size 3 to 8) (size 9 to 14) (size 15 to 20)
#    0.667    0.444    2.222    0.667   17.111    0.889 
#    0.000    0.000    0.000    0.000    0.000    0.000 
#    0.000    0.000    0.000    0.000    0.000    0.000 
#
# Total GULP energy -223070.527938 kJ/mol
# GULP energy per Si atom -12392.807108 kJ/mol
# Density = 2.220320 g / cm^3
# Si number density = 22.253849 Si / 1000 Ang^3
#
#
#
# Elastic Constant Matrix: (Units=GPa)
#
#
# Indices 1 2 3 4 5 6 
#
# 1 200.1051 62.6330 81.1630 0.0000 9.8967 0.0000
# 2 62.6330 103.0876 44.7277 0.0000 7.7778 0.0000
# 3 81.1630 44.7277 176.2751 0.0000 22.3492 0.0000
# 4 0.0000 0.0000 0.0000 35.4940 0.0000 5.0710
# 5 9.8967 7.7778 22.3492 0.0000 43.6762 0.0000
# 6 0.0000 0.0000 0.0000 5.0710 0.0000 35.0146
#
#
#
# Elastic Compliance Matrix: (Units=1/GPa)
#
#
# Indices 1 2 3 4 5 6 
#
# 1 0.006972 -0.003200 -0.002428 0.000000 0.000232 0.000000
# 2 -0.003200 0.012382 -0.001583 0.000000 -0.000670 0.000000
# 3 -0.002428 -0.001583 0.007579 0.000000 -0.003046 0.000000
# 4 0.000000 0.000000 0.000000 0.028769 0.000000 -0.004166
# 5 0.000232 -0.000670 -0.003046 0.000000 0.024521 0.000000
# 6 0.000000 0.000000 0.000000 -0.004166 0.000000 0.029163
#
#
# Mechanical properties :
#
#
# Convention : Reuss Voigt Hill
#
# Bulk Modulus (GPa) = 79.93291 95.16834 87.55063
# Shear Modulus (GPa) = 39.06876 42.23324 40.65100
#
# Velocity S-wave (km/s) = 4.19453 4.36109 4.27862
# Velocity P-wave (km/s) = 7.71073 8.25933 7.98974
#
# Compressibility (1/GPa) = 0.01251049
#
# Stress axis : x y z
#
# Youngs Moduli (GPa) = 143.42554 80.75923 131.94876
#
# Poissons Ratio (x) = 0.25846 0.32033
# Poissons Ratio (y) = 0.45901 0.20894
# Poissons Ratio (z) = 0.34819 0.12788
#
# Static dielectric constant tensor:
#      x y z
#    x 3.966320 0.000000 -0.051630 
#    y 0.000000 3.997370 0.000000 
#    z -0.051630 0.000000 3.816210 
# 
# 
# High freq. dielectric constant tensor:
#      x y z
#    x 1.889180 0.000000 0.013510 
#    y 0.000000 1.867870 0.000000 
#    z 0.013510 0.000000 1.884320 
# 
# From -- ./inp_files/75900.got.cif
#   From: 2010.06.25/outbox.cif.g09.slc.cpg/sg13_38_cif.got.tgz:75900.got - 2010.06.28 04:50:58.
