data_PCOD8122142
_publ_section_title
;
Structure prediction by ZEFSAII (Michael W. Deem and Ramdas Pophale) SiO2 
 PCOD8122142
Probable space group: P 2/C
;
_chemical_formula_sum "Si O2"
_cell_formula_units_Z 20
_cell_length_a 11.026075
_cell_length_b 9.499517
_cell_length_c 8.538338
_cell_angle_alpha 90.000000
_cell_angle_beta 95.457503
_cell_angle_gamma 90.000000
_cell_volume 890.271936
_symmetry_space_group_name_H-M "P 2/C"
_symmetry_group_IT_number 13
_symmetry_cell_setting 'monoclinic'
loop_
_space_group_symop_operation_xyz
x,y,z
-x,y,1/2-z
-x,-y,-z
x,-y,1/2+z
loop_
_atom_site_type_symbol
_atom_site_label
_atom_site_fract_x
_atom_site_fract_y
_atom_site_fract_z
Si Si1 0.000000 0.762433 0.250000
Si Si2 0.127686 0.077513 0.524550
Si Si3 0.658112 0.126287 0.539921
Si Si4 0.811227 0.622980 0.022796
Si Si5 0.500000 0.963554 0.750000
Si Si6 0.864597 0.654266 0.685388
O O1 0.883570 0.850047 0.304215
O O2 0.946008 0.671352 0.099696
O O3 0.143228 0.191574 0.389195
O O4 0.234609 0.966041 0.525457
O O5 0.000000 0.000000 0.500000
O O6 0.704952 0.283024 0.588387
O O7 0.607485 0.061805 0.694509
O O8 0.551076 0.133300 0.396454
O O9 0.800687 0.458143 0.061358
O O10 0.790345 0.651382 0.837369
O O11 0.000000 0.608076 0.750000
#
# Coordination Sequence:
#
# PCOD8122142 Si02
#       6
#     2   4   4   4   2   4
#     4  12  22  36  58  98 138 174 206 262 324 402
#     4  12  25  38  67 103 141 172 216 268 338 407
#     4  11  23  45  69  98 127 175 222 283 329 395
#     4  12  24  39  65  90 137 176 219 263 329 398
#     4  10  24  44  72  94 128 170 234 282 334 384
#     4  12  23  40  58  96 142 186 208 259 330 416
#
# _framework density 22.465046000000001
#
# number of rings (size 3 to 8) (size 9 to 14) (size 15 to 20)
#    0.000    0.400    5.000    4.200    4.200    0.000 
#    0.000    0.000    0.000   20.400    0.000    0.000 
#    0.000    0.000    0.000    0.000    0.000    0.000 
#
# Total GULP energy -247993.079507 kJ/mol
# GULP energy per Si atom -12399.653975 kJ/mol
# Density = 2.241391 g / cm^3
# Si number density = 22.465046 Si / 1000 Ang^3
#
#
#
# Elastic Constant Matrix: (Units=GPa)
#
#
# Indices 1 2 3 4 5 6 
#
# 1 68.9194 19.3339 -5.2011 0.0000 -9.2290 0.0000
# 2 19.3339 120.2804 20.6881 0.0000 8.6266 0.0000
# 3 -5.2011 20.6881 88.5400 0.0000 -10.0125 0.0000
# 4 0.0000 0.0000 0.0000 20.7194 0.0000 -3.5990
# 5 -9.2290 8.6266 -10.0125 0.0000 28.3679 0.0000
# 6 0.0000 0.0000 0.0000 -3.5990 0.0000 18.0977
#
#
#
# Elastic Compliance Matrix: (Units=1/GPa)
#
#
# Indices 1 2 3 4 5 6 
#
# 1 0.016759 -0.003698 0.002700 0.000000 0.007530 0.000000
# 2 -0.003698 0.009823 -0.003110 0.000000 -0.005288 0.000000
# 3 0.002700 -0.003110 0.012901 0.000000 0.006378 0.000000
# 4 0.000000 0.000000 0.000000 0.049991 0.000000 0.009941
# 5 0.007530 -0.005288 0.006378 0.000000 0.041560 0.000000
# 6 0.000000 0.000000 0.000000 0.009941 0.000000 0.057233
#
#
# Mechanical properties :
#
#
# Convention : Reuss Voigt Hill
#
# Bulk Modulus (GPa) = 31.98391 38.59795 35.29093
# Shear Modulus (GPa) = 24.16563 29.63159 26.89861
#
# Velocity S-wave (km/s) = 3.28334 3.63576 3.46403
# Velocity P-wave (km/s) = 5.35181 5.90285 5.63407
#
# Compressibility (1/GPa) = 0.03126572
#
# Stress axis : x y z
#
# Youngs Moduli (GPa) = 59.66825 101.80561 77.51368
#
# Poissons Ratio (x) = 0.37652 -0.20930
# Poissons Ratio (y) = 0.22068 0.24110
# Poissons Ratio (z) = -0.16112 0.31666
#
# Static dielectric constant tensor:
#      x y z
#    x 23.208590 0.000000 -15.237740 
#    y 0.000000 4.103000 0.000000 
#    z -15.237740 0.000000 16.064350 
# 
# 
# High freq. dielectric constant tensor:
#      x y z
#    x 1.853280 0.000000 -0.009450 
#    y 0.000000 1.879320 0.000000 
#    z -0.009450 0.000000 1.905320 
# 
# From -- ./inp_files/14891.got.cif
#   From: 2010.06.25/outbox.cif.g09.slc.cpg/sg13_8_cif.got.tgz:14891.got - 2010.06.28 04:50:58.
