data_PCOD8122542
_publ_section_title
;
Structure prediction by ZEFSAII (Michael W. Deem and Ramdas Pophale) SiO2 
 PCOD8122542
Probable space group: P 2/C
;
_chemical_formula_sum "Si O2"
_cell_formula_units_Z 20
_cell_length_a 8.842056
_cell_length_b 10.327728
_cell_length_c 11.794823
_cell_angle_alpha 90.000000
_cell_angle_beta 43.780174
_cell_angle_gamma 90.000000
_cell_volume 745.227131
_symmetry_space_group_name_H-M "P 2/C"
_symmetry_group_IT_number 13
_symmetry_cell_setting 'monoclinic'
loop_
_space_group_symop_operation_xyz
x,y,z
-x,y,1/2-z
-x,-y,-z
x,-y,1/2+z
loop_
_atom_site_type_symbol
_atom_site_label
_atom_site_fract_x
_atom_site_fract_y
_atom_site_fract_z
Si Si1 0.429531 0.763366 0.051241
Si Si2 0.267726 0.092031 0.423094
Si Si3 0.253377 0.611650 0.343382
Si Si4 0.155927 0.831598 0.558843
Si Si5 0.290712 0.332353 0.284680
O O1 0.254785 0.682438 0.220190
O O2 0.291816 0.846747 0.036445
O O3 0.586392 0.849509 0.047084
O O4 0.611875 0.667885 0.894716
O O5 0.500000 0.045474 0.250000
O O6 0.159428 0.198365 0.392438
O O7 0.109515 0.966328 0.517398
O O8 0.500000 0.593129 0.250000
O O9 0.120469 0.697527 0.506140
O O10 0.157235 0.464217 0.383668
O O11 0.000000 0.813330 0.750000
O O12 0.500000 0.314471 0.250000
#
# Coordination Sequence:
#
# PCOD8122542 Si02
#       5
#     4   4   4   4   4
#     4   9  17  32  57  78  97 130 170 210 251 298
#     4   9  18  35  55  76  99 131 172 211 248 297
#     4   9  17  32  54  77 101 130 166 208 251 298
#     4  11  22  34  48  74 107 137 168 207 251 299
#     4   8  16  31  55  81  98 122 169 216 247 290
#
# _framework density 26.837453
#
# number of rings (size 3 to 8) (size 9 to 14) (size 15 to 20)
#    0.000    3.200    0.000    3.000    0.000    3.200 
#    0.000   11.000    0.000    0.000    0.000    0.000 
#    0.000    0.000    0.000    0.000    0.000    0.000 
#
# Total GULP energy -247866.933739 kJ/mol
# GULP energy per Si atom -12393.346687 kJ/mol
# Density = 2.677637 g / cm^3
# Si number density = 26.837453 Si / 1000 Ang^3
#
#
#
# Elastic Constant Matrix: (Units=GPa)
#
#
# Indices 1 2 3 4 5 6 
#
# 1 18.1141 29.1519 16.8547 0.0000 3.3865 0.0000
# 2 29.1519 257.4657 130.9556 0.0000 13.7991 0.0000
# 3 16.8547 130.9556 162.0529 0.0000 31.6140 0.0000
# 4 0.0000 0.0000 0.0000 41.3176 0.0000 -0.1687
# 5 3.3865 13.7991 31.6140 0.0000 40.3066 0.0000
# 6 0.0000 0.0000 0.0000 -0.1687 0.0000 18.9162
#
#
#
# Elastic Compliance Matrix: (Units=1/GPa)
#
#
# Indices 1 2 3 4 5 6 
#
# 1 0.067938 -0.007165 -0.000757 0.000000 -0.002661 0.000000
# 2 -0.007165 0.007531 -0.005850 0.000000 0.002612 0.000000
# 3 -0.000757 -0.005850 0.012484 0.000000 -0.007725 0.000000
# 4 0.000000 0.000000 0.000000 0.024204 0.000000 0.000216
# 5 -0.002661 0.002612 -0.007725 0.000000 0.030198 0.000000
# 6 0.000000 0.000000 0.000000 0.000216 0.000000 0.052867
#
#
# Mechanical properties :
#
#
# Convention : Reuss Voigt Hill
#
# Bulk Modulus (GPa) = 16.55374 87.95080 52.25227
# Shear Modulus (GPa) = 20.58446 37.48611 29.03529
#
# Velocity S-wave (km/s) = 2.77249 3.74141 3.29278
# Velocity P-wave (km/s) = 4.05345 7.17684 5.82827
#
# Compressibility (1/GPa) = 0.06040930
#
# Stress axis : x y z
#
# Youngs Moduli (GPa) = 14.71930 132.78837 80.10168
#
# Poissons Ratio (x) = 0.95138 0.06064
# Poissons Ratio (y) = 0.10546 0.46860
# Poissons Ratio (z) = 0.01114 0.77682
#
# Static dielectric constant tensor:
#      x y z
#    x 5.030950 0.000000 0.319550 
#    y 0.000000 5.301390 0.000000 
#    z 0.319550 0.000000 4.895690 
# 
# 
# High freq. dielectric constant tensor:
#      x y z
#    x 2.099900 0.000000 -0.007550 
#    y 0.000000 2.091030 0.000000 
#    z -0.007550 0.000000 2.076470 
# 
# From -- ./inp_files/33021.got.cif
#   From: 2010.06.25/outbox.cif.g09.slc.cpg/sg13_17_cif.got.tgz:33021.got - 2010.06.28 04:50:58.
