data_PCOD8122226
_publ_section_title
;
Structure prediction by ZEFSAII (Michael W. Deem and Ramdas Pophale) SiO2 
 PCOD8122226
Probable space group: P 2/C
;
_chemical_formula_sum "Si O2"
_cell_formula_units_Z 18
_cell_length_a 5.224877
_cell_length_b 15.395361
_cell_length_c 9.201341
_cell_angle_alpha 90.000000
_cell_angle_beta 99.999774
_cell_angle_gamma 90.000000
_cell_volume 728.901485
_symmetry_space_group_name_H-M "P 2/C"
_symmetry_group_IT_number 13
_symmetry_cell_setting 'monoclinic'
loop_
_space_group_symop_operation_xyz
x,y,z
-x,y,1/2-z
-x,-y,-z
x,-y,1/2+z
loop_
_atom_site_type_symbol
_atom_site_label
_atom_site_fract_x
_atom_site_fract_y
_atom_site_fract_z
Si Si1 0.667069 0.453170 0.394779
Si Si2 0.089730 0.629366 0.108360
Si Si3 0.000000 0.010149 0.250000
Si Si4 0.159733 0.884781 0.505686
Si Si5 0.387837 0.210078 0.582476
O O1 0.500000 0.409642 0.250000
O O2 0.500000 0.500000 0.500000
O O3 0.828802 0.532146 0.339783
O O4 0.851284 0.376540 0.471837
O O5 0.325092 0.686293 0.063625
O O6 0.000000 0.676312 0.250000
O O7 0.184993 0.068625 0.164698
O O8 0.183028 0.953469 0.375106
O O9 0.396720 0.816384 0.515603
O O10 0.881191 0.838946 0.469882
O O11 0.500000 0.185847 0.750000
#
# Coordination Sequence:
#
# PCOD8122226 Si02
#       5
#     4   4   2   4   4
#     4  11  23  43  71 109 144 197 250 309 374 446
#     4  11  24  41  73 106 147 198 256 311 372 451
#     4  10  24  48  74 112 150 198 248 314 368 468
#     4  11  25  44  76 109 148 195 254 305 380 443
#     4  12  24  44  72 112 144 199 252 312 369 450
#
# _framework density 24.694694999999999
#
# number of rings (size 3 to 8) (size 9 to 14) (size 15 to 20)
#    0.000    0.889    4.444    2.000    3.111    6.222 
#    0.000    2.222    0.000    0.000    0.000    0.000 
#    0.000    0.000    0.000    0.000    0.000    0.000 
#
# Total GULP energy -223205.409384 kJ/mol
# GULP energy per Si atom -12400.300521 kJ/mol
# Density = 2.463849 g / cm^3
# Si number density = 24.694695 Si / 1000 Ang^3
#
#
#
# Elastic Constant Matrix: (Units=GPa)
#
#
# Indices 1 2 3 4 5 6 
#
# 1 166.8058 54.8967 60.8398 0.0000 2.4257 0.0000
# 2 54.8967 105.8765 48.4891 0.0000 -1.4466 0.0000
# 3 60.8398 48.4891 152.3255 0.0000 1.1071 0.0000
# 4 0.0000 0.0000 0.0000 13.3542 0.0000 -12.6189
# 5 2.4257 -1.4466 1.1071 0.0000 37.0571 0.0000
# 6 0.0000 0.0000 0.0000 -12.6189 0.0000 45.4244
#
#
#
# Elastic Compliance Matrix: (Units=1/GPa)
#
#
# Indices 1 2 3 4 5 6 
#
# 1 0.007791 -0.003072 -0.002130 0.000000 -0.000566 0.000000
# 2 -0.003072 0.012279 -0.002687 0.000000 0.000761 0.000000
# 3 -0.002130 -0.002687 0.008273 0.000000 -0.000213 0.000000
# 4 0.000000 0.000000 0.000000 0.101536 0.000000 0.028207
# 5 -0.000566 0.000761 -0.000213 0.000000 0.027059 0.000000
# 6 0.000000 0.000000 0.000000 0.028207 0.000000 0.029850
#
#
# Mechanical properties :
#
#
# Convention : Reuss Voigt Hill
#
# Bulk Modulus (GPa) = 79.58992 83.71766 81.65379
# Shear Modulus (GPa) = 24.18337 36.55262 30.36799
#
# Velocity S-wave (km/s) = 3.13276 3.85149 3.51057
# Velocity P-wave (km/s) = 6.73685 7.33166 7.04054
#
# Compressibility (1/GPa) = 0.01256441
#
# Stress axis : x y z
#
# Youngs Moduli (GPa) = 128.35257 81.44075 120.88234
#
# Poissons Ratio (x) = 0.25018 0.25745
# Poissons Ratio (y) = 0.39430 0.32484
# Poissons Ratio (z) = 0.27336 0.21885
#
# Static dielectric constant tensor:
#      x y z
#    x 4.700170 0.000000 0.062230 
#    y 0.000000 4.570190 0.000000 
#    z 0.062230 0.000000 4.455650 
# 
# 
# High freq. dielectric constant tensor:
#      x y z
#    x 1.988890 0.000000 -0.002390 
#    y 0.000000 1.972620 0.000000 
#    z -0.002390 0.000000 1.974750 
# 
# From -- ./inp_files/9562.got.cif
#   From: 2010.06.25/outbox.cif.g09.slc.cpg/sg13_5_cif.got.tgz:9562.got - 2010.06.28 04:50:58.
