data_PCOD8122930
_publ_section_title
;
Structure prediction by ZEFSAII (Michael W. Deem and Ramdas Pophale) SiO2 
 PCOD8122930
Probable space group: P 2/C
;
_chemical_formula_sum "Si O2"
_cell_formula_units_Z 28
_cell_length_a 20.101122
_cell_length_b 6.537991
_cell_length_c 13.085783
_cell_angle_alpha 90.000000
_cell_angle_beta 133.393063
_cell_angle_gamma 90.000000
_cell_volume 1249.667006
_symmetry_space_group_name_H-M "P 2/C"
_symmetry_group_IT_number 13
_symmetry_cell_setting 'monoclinic'
loop_
_space_group_symop_operation_xyz
x,y,z
-x,y,1/2-z
-x,-y,-z
x,-y,1/2+z
loop_
_atom_site_type_symbol
_atom_site_label
_atom_site_fract_x
_atom_site_fract_y
_atom_site_fract_z
Si Si1 0.631165 0.517919 0.542767
Si Si2 0.218391 0.791407 0.879116
Si Si3 0.109207 0.125924 0.458273
Si Si4 0.500000 0.288866 0.250000
Si Si5 0.956007 0.430920 0.350046
Si Si6 0.000000 0.230365 0.750000
Si Si7 0.740433 0.126827 0.724863
Si Si8 0.420050 0.130690 0.363453
O O1 0.690195 0.659621 0.530852
O O2 0.556436 0.423630 0.389219
O O3 0.694177 0.345759 0.661314
O O4 0.584536 0.648976 0.584641
O O5 0.185748 0.798025 0.960386
O O6 0.139578 0.682518 0.727724
O O7 0.241618 0.019131 0.864817
O O8 0.158827 0.139080 0.619499
O O9 0.022811 0.274458 0.363004
O O10 0.072267 0.900850 0.392072
O O11 0.437021 0.151285 0.258919
O O12 0.940008 0.629868 0.262728
O O13 0.000000 0.500000 0.500000
O O14 0.676320 0.984183 0.727570
O O15 0.500000 0.000000 0.500000
#
# Coordination Sequence:
#
# PCOD8122930 Si02
#       8
#     4   4   4   2   4   2   4   4
#     4  11  27  47  71 107 141 186 236 293 359 440
#     4  11  25  45  66 104 139 180 245 284 351 426
#     4  12  26  43  70 104 140 190 242 295 353 424
#     4  12  26  46  82 100 140 196 224 294 378 416
#     4  12  25  45  70 100 141 189 236 297 353 417
#     4  12  24  44  68 100 140 186 248 288 352 420
#     4  11  27  45  69 104 145 182 232 299 352 426
#     4  11  26  49  71 109 143 178 241 291 357 437
#
# _framework density 22.405968999999999
#
# number of rings (size 3 to 8) (size 9 to 14) (size 15 to 20)
#    0.000    0.571    4.286    2.143    8.000    2.857 
#    0.000    0.000    0.000    0.000    0.000    0.000 
#    0.000    0.000    0.000    0.000    0.000    0.000 
#
# Total GULP energy -347272.581982 kJ/mol
# GULP energy per Si atom -12402.592214 kJ/mol
# Density = 2.235497 g / cm^3
# Si number density = 22.405969 Si / 1000 Ang^3
#
#
#
# Elastic Constant Matrix: (Units=GPa)
#
#
# Indices 1 2 3 4 5 6 
#
# 1 95.4102 20.6390 -10.6331 0.0000 -9.9541 0.0000
# 2 20.6390 123.2124 27.4836 0.0000 -3.4876 0.0000
# 3 -10.6331 27.4836 78.7086 0.0000 7.7380 0.0000
# 4 0.0000 0.0000 0.0000 40.4780 0.0000 10.1925
# 5 -9.9541 -3.4876 7.7380 0.0000 33.9856 0.0000
# 6 0.0000 0.0000 0.0000 10.1925 0.0000 34.1244
#
#
#
# Elastic Compliance Matrix: (Units=1/GPa)
#
#
# Indices 1 2 3 4 5 6 
#
# 1 0.011493 -0.002319 0.002102 0.000000 0.002650 0.000000
# 2 -0.002319 0.009360 -0.003692 0.000000 0.001122 0.000000
# 3 0.002102 -0.003692 0.014581 0.000000 -0.003083 0.000000
# 4 0.000000 0.000000 0.000000 0.026714 0.000000 -0.007979
# 5 0.002650 0.001122 -0.003083 0.000000 0.031017 0.000000
# 6 0.000000 0.000000 0.000000 -0.007979 0.000000 0.031688
#
#
# Mechanical properties :
#
#
# Convention : Reuss Voigt Hill
#
# Bulk Modulus (GPa) = 36.21013 41.36779 38.78896
# Shear Modulus (GPa) = 35.24177 39.04039 37.14108
#
# Velocity S-wave (km/s) = 3.97025 4.17875 4.07583
# Velocity P-wave (km/s) = 6.10026 6.46417 6.28485
#
# Compressibility (1/GPa) = 0.02761658
#
# Stress axis : x y z
#
# Youngs Moduli (GPa) = 87.00618 106.83999 68.58101
#
# Poissons Ratio (x) = 0.24777 -0.14416
# Poissons Ratio (y) = 0.20178 0.25319
# Poissons Ratio (z) = -0.18289 0.39444
#
# Static dielectric constant tensor:
#      x y z
#    x 7.544310 0.000000 -1.249900 
#    y 0.000000 4.315920 0.000000 
#    z -1.249900 0.000000 4.454770 
# 
# 
# High freq. dielectric constant tensor:
#      x y z
#    x 1.896790 0.000000 0.004280 
#    y 0.000000 1.894370 0.000000 
#    z 0.004280 0.000000 1.879160 
# 
# From -- ./inp_files/56604.got.cif
#   From: 2010.06.25/outbox.cif.g09.slc.cpg/sg13_29_cif.got.tgz:56604.got - 2010.06.28 04:50:58.
