data_PCOD8122715
_publ_section_title
;
Structure prediction by ZEFSAII (Michael W. Deem and Ramdas Pophale) SiO2 
 PCOD8122715
Probable space group: P 2/C
;
_chemical_formula_sum "Si O2"
_cell_formula_units_Z 20
_cell_length_a 4.909626
_cell_length_b 11.260582
_cell_length_c 16.932920
_cell_angle_alpha 90.000000
_cell_angle_beta 70.162630
_cell_angle_gamma 90.000000
_cell_volume 880.589722
_symmetry_space_group_name_H-M "P 2/C"
_symmetry_group_IT_number 13
_symmetry_cell_setting 'monoclinic'
loop_
_space_group_symop_operation_xyz
x,y,z
-x,y,1/2-z
-x,-y,-z
x,-y,1/2+z
loop_
_atom_site_type_symbol
_atom_site_label
_atom_site_fract_x
_atom_site_fract_y
_atom_site_fract_z
Si Si1 0.454281 0.210134 0.402977
Si Si2 0.956898 0.169947 0.909811
Si Si3 0.011953 0.656595 0.841764
Si Si4 0.827662 0.395880 0.690752
Si Si5 0.478537 0.045664 0.659047
O O1 0.254689 0.182362 0.496386
O O2 0.281566 0.272856 0.350001
O O3 0.712425 0.295234 0.408115
O O4 0.594108 0.090063 0.354454
O O5 0.775831 0.126846 0.851504
O O6 0.124608 0.293899 0.878490
O O7 0.207024 0.076337 0.908483
O O8 0.048442 0.517827 0.858180
O O9 0.000000 0.679227 0.750000
O O10 0.500000 0.414158 0.750000
O O11 0.000000 0.355716 0.750000
O O12 0.500000 0.071238 0.750000
#
# Coordination Sequence:
#
# PCOD8122715 Si02
#       5
#     4   4   4   4   4
#     4  12  25  42  66  97 132 166 210 268 324 375
#     4  12  25  42  65  97 133 167 211 266 323 375
#     4  11  23  42  66  93 126 170 217 261 314 379
#     4  11  23  42  67  93 127 170 216 261 310 378
#     4  12  24  42  66  93 129 173 217 258 313 383
#
# _framework density 22.712052
#
# number of rings (size 3 to 8) (size 9 to 14) (size 15 to 20)
#    0.000    0.400    0.000   11.400    0.000    1.600 
#    0.000    0.000    0.000    0.000    0.000    0.000 
#    0.000    0.000    0.000    0.000    0.000    0.000 
#
# Total GULP energy -248134.227302 kJ/mol
# GULP energy per Si atom -12406.711365 kJ/mol
# Density = 2.266036 g / cm^3
# Si number density = 22.712052 Si / 1000 Ang^3
#
#
#
# Elastic Constant Matrix: (Units=GPa)
#
#
# Indices 1 2 3 4 5 6 
#
# 1 120.4311 46.7133 -3.9280 0.0000 -13.6826 0.0000
# 2 46.7133 138.7075 31.2826 0.0000 1.3566 0.0000
# 3 -3.9280 31.2826 39.0947 0.0000 -2.5689 0.0000
# 4 0.0000 0.0000 0.0000 28.4193 0.0000 -8.1199
# 5 -13.6826 1.3566 -2.5689 0.0000 36.9136 0.0000
# 6 0.0000 0.0000 0.0000 -8.1199 0.0000 35.3999
#
#
#
# Elastic Compliance Matrix: (Units=1/GPa)
#
#
# Indices 1 2 3 4 5 6 
#
# 1 0.010909 -0.004922 0.005337 0.000000 0.004596 0.000000
# 2 -0.004922 0.011043 -0.009521 0.000000 -0.002893 0.000000
# 3 0.005337 -0.009521 0.034042 0.000000 0.004697 0.000000
# 4 0.000000 0.000000 0.000000 0.037655 0.000000 0.008637
# 5 0.004596 -0.002893 0.004697 0.000000 0.029227 0.000000
# 6 0.000000 0.000000 0.000000 0.008637 0.000000 0.030230
#
#
# Mechanical properties :
#
#
# Convention : Reuss Voigt Hill
#
# Bulk Modulus (GPa) = 26.46821 49.59656 38.03238
# Shear Modulus (GPa) = 27.18687 35.09091 31.13889
#
# Velocity S-wave (km/s) = 3.46356 3.93496 3.70676
# Velocity P-wave (km/s) = 5.26062 6.52148 5.92468
#
# Compressibility (1/GPa) = 0.03778117
#
# Stress axis : x y z
#
# Youngs Moduli (GPa) = 91.66665 90.55765 29.37545
#
# Poissons Ratio (x) = 0.44577 -0.15677
# Poissons Ratio (y) = 0.45123 0.27968
# Poissons Ratio (z) = -0.48922 0.86218
#
# Static dielectric constant tensor:
#      x y z
#    x 4.324560 0.000000 -0.087150 
#    y 0.000000 4.274690 0.000000 
#    z -0.087150 0.000000 3.882280 
# 
# 
# High freq. dielectric constant tensor:
#      x y z
#    x 1.915350 0.000000 -0.007330 
#    y 0.000000 1.911340 0.000000 
#    z -0.007330 0.000000 1.885720 
# 
# From -- ./inp_files/60896.got.cif
#   From: 2010.06.25/outbox.cif.g09.slc.cpg/sg13_31_cif.got.tgz:60896.got - 2010.06.28 04:50:58.
