data_PCOD8122227
_publ_section_title
;
Structure prediction by ZEFSAII (Michael W. Deem and Ramdas Pophale) SiO2 
 PCOD8122227
Probable space group: P 2/C
;
_chemical_formula_sum "Si O2"
_cell_formula_units_Z 18
_cell_length_a 5.319630
_cell_length_b 15.400818
_cell_length_c 9.142481
_cell_angle_alpha 90.000000
_cell_angle_beta 100.838292
_cell_angle_gamma 90.000000
_cell_volume 735.651832
_symmetry_space_group_name_H-M "P 2/C"
_symmetry_group_IT_number 13
_symmetry_cell_setting 'monoclinic'
loop_
_space_group_symop_operation_xyz
x,y,z
-x,y,1/2-z
-x,-y,-z
x,-y,1/2+z
loop_
_atom_site_type_symbol
_atom_site_label
_atom_site_fract_x
_atom_site_fract_y
_atom_site_fract_z
Si Si1 0.000000 0.976648 0.750000
Si Si2 0.637814 0.785777 0.417401
Si Si3 0.568237 0.364188 0.102281
Si Si4 0.833762 0.887124 0.012847
Si Si5 0.165693 0.459673 0.894669
O O1 0.166734 0.917875 0.656591
O O2 0.188789 0.033535 0.873779
O O3 0.500000 0.761722 0.250000
O O4 0.735531 0.701103 0.520710
O O5 0.421286 0.830591 0.495114
O O6 0.893506 0.841269 0.419384
O O7 0.500000 0.319852 0.250000
O O8 0.683057 0.458201 0.155178
O O9 0.324206 0.379820 0.973090
O O10 0.000000 0.415736 0.750000
O O11 0.000000 0.500000 0.000000
#
# Coordination Sequence:
#
# PCOD8122227 Si02
#       5
#     2   4   4   4   4
#     4  10  24  48  76 102 138 186 236 296 342 434
#     4  12  27  46  69 107 147 185 231 292 360 422
#     4  11  27  43  68 104 139 183 242 291 350 427
#     4  11  26  46  73 104 141 185 238 286 359 418
#     4  11  24  45  71  98 135 186 234 292 349 415
#
# _framework density 24.468097
#
# number of rings (size 3 to 8) (size 9 to 14) (size 15 to 20)
#    0.000    0.889    4.444    0.000    9.333    5.333 
#    0.000    0.000    0.000    0.000    0.000    0.000 
#    0.000    0.000    0.000    0.000    0.000    0.000 
#
# Total GULP energy -223104.190359 kJ/mol
# GULP energy per Si atom -12394.677242 kJ/mol
# Density = 2.441241 g / cm^3
# Si number density = 24.468097 Si / 1000 Ang^3
#
#
#
# Elastic Constant Matrix: (Units=GPa)
#
#
# Indices 1 2 3 4 5 6 
#
# 1 96.0694 7.7051 17.5498 0.0000 1.3550 0.0000
# 2 7.7051 68.0158 32.2452 0.0000 -1.8141 0.0000
# 3 17.5498 32.2452 162.1305 0.0000 -7.8475 0.0000
# 4 0.0000 0.0000 0.0000 36.9396 0.0000 -49.5306
# 5 1.3550 -1.8141 -7.8475 0.0000 42.7391 0.0000
# 6 0.0000 0.0000 0.0000 -49.5306 0.0000 -170.4686
#
#
#
# Elastic Compliance Matrix: (Units=1/GPa)
#
#
# Indices 1 2 3 4 5 6 
#
# 1 0.010665 -0.000732 -0.001036 0.000000 -0.000559 0.000000
# 2 -0.000732 0.016284 -0.003153 0.000000 0.000135 0.000000
# 3 -0.001036 -0.003153 0.006964 0.000000 0.001178 0.000000
# 4 0.000000 0.000000 0.000000 0.019481 0.000000 -0.005660
# 5 -0.000559 0.000135 0.001178 0.000000 0.023638 0.000000
# 6 0.000000 0.000000 0.000000 -0.005660 0.000000 -0.004222
#
#
# Mechanical properties :
#
#
# Convention : Reuss Voigt Hill
#
# Bulk Modulus (GPa) = 41.54317 49.02399 45.28358
# Shear Modulus (GPa) = 55.14181 -0.24361 27.44910
#
# Velocity S-wave (km/s) = 4.75238 -0.31588 3.35301
# Velocity P-wave (km/s) = 6.86505 4.46613 5.79117
#
# Compressibility (1/GPa) = 0.02407135
#
# Stress axis : x y z
#
# Youngs Moduli (GPa) = 93.76477 61.41113 143.59462
#
# Poissons Ratio (x) = 0.04495 0.14875
# Poissons Ratio (y) = 0.06863 0.45272
# Poissons Ratio (z) = 0.09713 0.19362
#
# Static dielectric constant tensor:
#      x y z
#    x 4.222930 0.000000 -0.137280 
#    y 0.000000 1.834820 0.000000 
#    z -0.137280 0.000000 4.506370 
# 
# 
# High freq. dielectric constant tensor:
#      x y z
#    x 1.958210 0.000000 -0.011720 
#    y 0.000000 1.965680 0.000000 
#    z -0.011720 0.000000 1.998030 
# 
# From -- ./inp_files/9578.got.cif
#   From: 2010.06.25/outbox.cif.g09.slc.cpg/sg13_5_cif.got.tgz:9578.got - 2010.06.28 04:50:58.
