data_PCOD8122528
_publ_section_title
;
Structure prediction by ZEFSAII (Michael W. Deem and Ramdas Pophale) SiO2 
 PCOD8122528
Probable space group: P 2/C
;
_chemical_formula_sum "Si O2"
_cell_formula_units_Z 22
_cell_length_a 16.391965
_cell_length_b 11.187413
_cell_length_c 13.230130
_cell_angle_alpha 90.000000
_cell_angle_beta 24.548651
_cell_angle_gamma 90.000000
_cell_volume 1007.998853
_symmetry_space_group_name_H-M "P 2/C"
_symmetry_group_IT_number 13
_symmetry_cell_setting 'monoclinic'
loop_
_space_group_symop_operation_xyz
x,y,z
-x,y,1/2-z
-x,-y,-z
x,-y,1/2+z
loop_
_atom_site_type_symbol
_atom_site_label
_atom_site_fract_x
_atom_site_fract_y
_atom_site_fract_z
Si Si1 0.296985 0.100719 0.542338
Si Si2 0.581648 0.753164 0.405574
Si Si3 0.382068 0.606222 0.787762
Si Si4 0.000000 0.747084 0.250000
Si Si5 0.676353 0.837248 0.975639
Si Si6 0.211361 0.641138 0.505661
O O1 0.338250 0.148207 0.608066
O O2 0.112298 0.171803 0.704917
O O3 0.214331 0.964995 0.647028
O O4 0.500000 0.109074 0.250000
O O5 0.512429 0.633307 0.542293
O O6 0.395441 0.807774 0.556382
O O7 0.755039 0.720624 0.132236
O O8 0.500000 0.664781 0.750000
O O9 0.370863 0.464675 0.822788
O O10 0.167847 0.664082 0.011144
O O11 0.500000 0.855281 0.250000
O O12 0.792164 0.723568 0.889834
O O13 0.000000 0.579038 0.750000
#
# Coordination Sequence:
#
# PCOD8122528 Si02
#       6
#     4   4   4   2   4   4
#     4  11  22  43  68  98 138 172 219 275 325 391
#     4  11  21  43  67  99 128 178 220 266 335 384
#     4  12  23  45  68  95 139 171 217 275 330 395
#     4  12  22  40  66 102 128 168 224 266 332 376
#     4   9  22  42  66  92 137 181 212 267 335 386
#     4  11  25  43  65  99 134 175 223 272 326 393
#
# _framework density 21.825422
#
# number of rings (size 3 to 8) (size 9 to 14) (size 15 to 20)
#    0.000    1.091    4.545    2.727    1.273    1.455 
#    0.000    4.545    0.000    0.000    0.000    0.000 
#    0.000    0.000    0.000    0.000    0.000    0.000 
#
# Total GULP energy -272619.603171 kJ/mol
# GULP energy per Si atom -12391.800144 kJ/mol
# Density = 2.177575 g / cm^3
# Si number density = 21.825422 Si / 1000 Ang^3
#
#
#
# Elastic Constant Matrix: (Units=GPa)
#
#
# Indices 1 2 3 4 5 6 
#
# 1 147.8625 48.5034 35.5752 0.0000 7.8356 0.0000
# 2 48.5034 129.1953 13.8323 0.0000 -5.7273 0.0000
# 3 35.5752 13.8323 59.7885 0.0000 -11.0304 0.0000
# 4 0.0000 0.0000 0.0000 15.7558 0.0000 -7.1844
# 5 7.8356 -5.7273 -11.0304 0.0000 24.3378 0.0000
# 6 0.0000 0.0000 0.0000 -7.1844 0.0000 29.6393
#
#
#
# Elastic Compliance Matrix: (Units=1/GPa)
#
#
# Indices 1 2 3 4 5 6 
#
# 1 0.009696 -0.003269 -0.006254 0.000000 -0.006726 0.000000
# 2 -0.003269 0.009067 0.000475 0.000000 0.003401 0.000000
# 3 -0.006254 0.000475 0.022621 0.000000 0.012377 0.000000
# 4 0.000000 0.000000 0.000000 0.071355 0.000000 0.017296
# 5 -0.006726 0.003401 0.012377 0.000000 0.049664 0.000000
# 6 0.000000 0.000000 0.000000 0.017296 0.000000 0.037932
#
#
# Mechanical properties :
#
#
# Convention : Reuss Voigt Hill
#
# Bulk Modulus (GPa) = 42.94042 59.18535 51.06288
# Shear Modulus (GPa) = 22.10490 29.87560 25.99025
#
# Velocity S-wave (km/s) = 3.18591 3.70380 3.45458
# Velocity P-wave (km/s) = 5.76633 6.74295 6.27367
#
# Compressibility (1/GPa) = 0.02328808
#
# Stress axis : x y z
#
# Youngs Moduli (GPa) = 103.13063 110.28527 44.20754
#
# Poissons Ratio (x) = 0.36051 0.27648
# Poissons Ratio (y) = 0.33712 -0.02099
# Poissons Ratio (z) = 0.64499 -0.05236
#
# Static dielectric constant tensor:
#      x y z
#    x 4.112160 0.000000 -0.057820 
#    y 0.000000 4.489780 0.000000 
#    z -0.057820 0.000000 3.707020 
# 
# 
# High freq. dielectric constant tensor:
#      x y z
#    x 1.858950 0.000000 0.001000 
#    y 0.000000 1.876240 0.000000 
#    z 0.001000 0.000000 1.835540 
# 
# From -- ./inp_files/37121.got.cif
#   From: 2010.06.25/outbox.cif.g09.slc.cpg/sg13_19_cif.got.tgz:37121.got - 2010.06.28 04:50:58.
