data_PCOD8122292
_publ_section_title
;
Structure prediction by ZEFSAII (Michael W. Deem and Ramdas Pophale) SiO2 
 PCOD8122292
Probable space group: P 2/C
;
_chemical_formula_sum "Si O2"
_cell_formula_units_Z 20
_cell_length_a 7.210017
_cell_length_b 6.247793
_cell_length_c 21.622402
_cell_angle_alpha 90.000000
_cell_angle_beta 119.059619
_cell_angle_gamma 90.000000
_cell_volume 851.403272
_symmetry_space_group_name_H-M "P 2/C"
_symmetry_group_IT_number 13
_symmetry_cell_setting 'monoclinic'
loop_
_space_group_symop_operation_xyz
x,y,z
-x,y,1/2-z
-x,-y,-z
x,-y,1/2+z
loop_
_atom_site_type_symbol
_atom_site_label
_atom_site_fract_x
_atom_site_fract_y
_atom_site_fract_z
Si Si1 0.949665 0.289860 0.847169
Si Si2 0.334593 0.414281 0.276325
Si Si3 0.256968 0.935295 0.857898
Si Si4 0.614142 0.256198 0.891381
Si Si5 0.733216 0.407792 0.035560
O O1 0.105128 0.405825 0.920327
O O2 0.864696 0.459453 0.783735
O O3 0.752402 0.192728 0.853833
O O4 0.064145 0.102846 0.827999
O O5 0.500000 0.347368 0.250000
O O6 0.239495 0.203025 0.292533
O O7 0.448175 0.555590 0.347497
O O8 0.240312 0.795704 0.916514
O O9 0.484799 0.051315 0.893851
O O10 0.772482 0.333364 0.971307
O O11 0.500000 0.500000 0.000000
#
# Coordination Sequence:
#
# PCOD8122292 Si02
#       5
#     4   4   4   4   4
#     4  11  27  46  74 107 140 187 237 290 354 419
#     4  10  25  48  71 100 144 186 230 295 355 417
#     4  12  25  46  74 101 141 182 242 284 356 417
#     4  11  25  47  71 103 145 184 236 289 350 424
#     4  12  24  46  71 106 146 188 228 294 353 413
#
# _framework density 23.490629999999999
#
# number of rings (size 3 to 8) (size 9 to 14) (size 15 to 20)
#    0.000    0.800    4.000    1.200    0.000   12.800 
#    0.000    2.000    0.000    0.000    0.000    0.000 
#    0.000    0.000    0.000    0.000    0.000    0.000 
#
# Total GULP energy -248145.124551 kJ/mol
# GULP energy per Si atom -12407.256228 kJ/mol
# Density = 2.343716 g / cm^3
# Si number density = 23.490630 Si / 1000 Ang^3
#
#
#
# Elastic Constant Matrix: (Units=GPa)
#
#
# Indices 1 2 3 4 5 6 
#
# 1 96.0758 53.9495 30.0192 0.0000 5.9151 0.0000
# 2 53.9495 107.9921 38.7101 0.0000 -0.0630 0.0000
# 3 30.0192 38.7101 119.8752 0.0000 -4.9500 0.0000
# 4 0.0000 0.0000 0.0000 41.6265 0.0000 -5.3483
# 5 5.9151 -0.0630 -4.9500 0.0000 38.5087 0.0000
# 6 0.0000 0.0000 0.0000 -5.3483 0.0000 27.4893
#
#
#
# Elastic Compliance Matrix: (Units=1/GPa)
#
#
# Indices 1 2 3 4 5 6 
#
# 1 0.014934 -0.006881 -0.001622 0.000000 -0.002514 0.000000
# 2 -0.006881 0.013649 -0.002654 0.000000 0.000738 0.000000
# 3 -0.001622 -0.002654 0.009667 0.000000 0.001487 0.000000
# 4 0.000000 0.000000 0.000000 0.024639 0.000000 0.004794
# 5 -0.002514 0.000738 0.001487 0.000000 0.026547 0.000000
# 6 0.000000 0.000000 0.000000 0.004794 0.000000 0.037310
#
#
# Mechanical properties :
#
#
# Convention : Reuss Voigt Hill
#
# Bulk Modulus (GPa) = 62.74798 63.25561 63.00180
# Shear Modulus (GPa) = 32.38978 34.94253 33.66615
#
# Velocity S-wave (km/s) = 3.71730 3.86101 3.78984
# Velocity P-wave (km/s) = 6.72267 6.84565 6.78444
#
# Compressibility (1/GPa) = 0.01593677
#
# Stress axis : x y z
#
# Youngs Moduli (GPa) = 66.96353 73.26535 103.44959
#
# Poissons Ratio (x) = 0.50410 0.16775
# Poissons Ratio (y) = 0.46074 0.27456
# Poissons Ratio (z) = 0.10859 0.19445
#
# Static dielectric constant tensor:
#      x y z
#    x 4.404890 0.000000 -0.094760 
#    y 0.000000 4.406710 0.000000 
#    z -0.094760 0.000000 4.586450 
# 
# 
# High freq. dielectric constant tensor:
#      x y z
#    x 1.943490 0.000000 -0.007040 
#    y 0.000000 1.925450 0.000000 
#    z -0.007040 0.000000 1.942850 
# 
# From -- ./inp_files/90904.got.cif
#   From: 2010.06.25/outbox.cif.g09.slc.cpg/sg13_46_cif.got.tgz:90904.got - 2010.06.28 04:50:58.
