data_PCOD8122950
_publ_section_title
;
Structure prediction by ZEFSAII (Michael W. Deem and Ramdas Pophale) SiO2 
 PCOD8122950
Probable space group: P 2/C
;
_chemical_formula_sum "Si O2"
_cell_formula_units_Z 16
_cell_length_a 9.885807
_cell_length_b 7.276817
_cell_length_c 11.752287
_cell_angle_alpha 90.000000
_cell_angle_beta 129.326166
_cell_angle_gamma 90.000000
_cell_volume 653.980579
_symmetry_space_group_name_H-M "P 2/C"
_symmetry_group_IT_number 13
_symmetry_cell_setting 'monoclinic'
loop_
_space_group_symop_operation_xyz
x,y,z
-x,y,1/2-z
-x,-y,-z
x,-y,1/2+z
loop_
_atom_site_type_symbol
_atom_site_label
_atom_site_fract_x
_atom_site_fract_y
_atom_site_fract_z
Si Si1 0.824718 0.283299 0.191955
Si Si2 0.307966 0.782587 0.648929
Si Si3 0.033951 0.327417 0.647067
Si Si4 0.310584 0.806270 0.112280
O O1 0.724645 0.171306 0.235301
O O2 0.881888 0.477535 0.277219
O O3 0.000000 0.172636 0.250000
O O4 0.715326 0.306607 0.018211
O O5 0.500000 0.686431 0.750000
O O6 0.156393 0.651416 0.516315
O O7 0.311367 0.976176 0.584375
O O8 0.163885 0.224320 0.630712
O O9 0.000000 0.222360 0.750000
O O10 0.500000 0.736944 0.250000
#
# Coordination Sequence:
#
# PCOD8122950 Si02
#       4
#     4   4   4   4
#     4  11  25  46  70 101 143 185 236 282 345 421
#     4  11  26  45  73 106 141 181 236 289 352 411
#     4  11  26  45  70 103 143 186 231 287 348 413
#     4  11  27  45  72 109 139 183 236 285 352 420
#
# _framework density 24.465557
#
# number of rings (size 3 to 8) (size 9 to 14) (size 15 to 20)
#    0.000    1.000    2.500    1.500   10.500    4.000 
#    0.000    0.000    0.000    0.000    0.000    0.000 
#    0.000    0.000    0.000    0.000    0.000    0.000 
#
# Total GULP energy -198250.259502 kJ/mol
# GULP energy per Si atom -12390.641219 kJ/mol
# Density = 2.440987 g / cm^3
# Si number density = 24.465557 Si / 1000 Ang^3
#
#
#
# Elastic Constant Matrix: (Units=GPa)
#
#
# Indices 1 2 3 4 5 6 
#
# 1 144.3878 3.2472 89.7842 0.0000 -2.1258 0.0000
# 2 3.2472 70.7445 37.1593 0.0000 2.4440 0.0000
# 3 89.7842 37.1593 226.1957 0.0000 8.6471 0.0000
# 4 0.0000 0.0000 0.0000 30.3160 0.0000 -9.1847
# 5 -2.1258 2.4440 8.6471 0.0000 59.9441 0.0000
# 6 0.0000 0.0000 0.0000 -9.1847 0.0000 44.6067
#
#
#
# Elastic Compliance Matrix: (Units=1/GPa)
#
#
# Indices 1 2 3 4 5 6 
#
# 1 0.009415 0.001662 -0.004042 0.000000 0.000849 0.000000
# 2 0.001662 0.015768 -0.003246 0.000000 -0.000116 0.000000
# 3 -0.004042 -0.003246 0.006595 0.000000 -0.000962 0.000000
# 4 0.000000 0.000000 0.000000 0.035181 0.000000 0.007244
# 5 0.000849 -0.000116 -0.000962 0.000000 0.016856 0.000000
# 6 0.000000 0.000000 0.000000 0.007244 0.000000 0.023910
#
#
# Mechanical properties :
#
#
# Convention : Reuss Voigt Hill
#
# Bulk Modulus (GPa) = 48.71942 77.96770 63.34356
# Shear Modulus (GPa) = 39.73987 47.71584 43.72785
#
# Velocity S-wave (km/s) = 4.03466 4.42104 4.23226
# Velocity P-wave (km/s) = 6.45456 7.61566 7.05902
#
# Compressibility (1/GPa) = 0.02052569
#
# Stress axis : x y z
#
# Youngs Moduli (GPa) = 106.21793 63.42021 151.61886
#
# Poissons Ratio (x) = -0.10539 0.61291
# Poissons Ratio (y) = -0.17652 0.49209
# Poissons Ratio (z) = 0.42938 0.20583
#
# Static dielectric constant tensor:
#      x y z
#    x 5.048770 0.000000 -0.199470 
#    y 0.000000 3.900160 0.000000 
#    z -0.199470 0.000000 4.736500 
# 
# 
# High freq. dielectric constant tensor:
#      x y z
#    x 1.991610 0.000000 -0.006540 
#    y 0.000000 1.947450 0.000000 
#    z -0.006540 0.000000 1.984970 
# 
# From -- ./inp_files/28012.got.cif
#   From: 2010.06.25/outbox.cif.g09.slc.cpg/sg13_15_cif.got.tgz:28012.got - 2010.06.28 04:50:58.
