data_PCOD8122790
_publ_section_title
;
Structure prediction by ZEFSAII (Michael W. Deem and Ramdas Pophale) SiO2 
 PCOD8122790
Probable space group: P 2/C
;
_chemical_formula_sum "Si O2"
_cell_formula_units_Z 20
_cell_length_a 20.988870
_cell_length_b 5.740595
_cell_length_c 13.716851
_cell_angle_alpha 90.000000
_cell_angle_beta 31.372399
_cell_angle_gamma 90.000000
_cell_volume 860.405562
_symmetry_space_group_name_H-M "P 2/C"
_symmetry_group_IT_number 13
_symmetry_cell_setting 'monoclinic'
loop_
_space_group_symop_operation_xyz
x,y,z
-x,y,1/2-z
-x,-y,-z
x,-y,1/2+z
loop_
_atom_site_type_symbol
_atom_site_label
_atom_site_fract_x
_atom_site_fract_y
_atom_site_fract_z
Si Si1 0.660974 0.688246 0.446508
Si Si2 0.434701 0.048235 0.185977
Si Si3 0.138144 0.921910 0.824209
Si Si4 0.748287 0.614414 0.668722
Si Si5 0.267767 0.336688 0.986994
O O1 0.535561 0.829515 0.622442
O O2 0.652352 0.504481 0.368946
O O3 0.680835 0.559721 0.522461
O O4 0.773517 0.859807 0.274443
O O5 0.318676 0.206012 0.314320
O O6 0.385657 0.820307 0.305827
O O7 0.500000 0.000000 0.000000
O O8 0.148093 0.741049 0.901966
O O9 0.170211 0.799510 0.680049
O O10 0.000000 0.000000 0.000000
O O11 0.800026 0.421627 0.524435
#
# Coordination Sequence:
#
# PCOD8122790 Si02
#       5
#     4   4   4   4   4
#     4  11  25  45  70 105 145 186 235 295 355 422
#     4  12  23  45  72 104 150 183 230 295 356 433
#     4  11  26  50  71 100 145 188 243 299 344 420
#     4  11  23  45  71 103 142 187 236 292 359 419
#     4  11  26  43  71 110 141 192 237 287 366 424
#
# _framework density 23.244854
#
# number of rings (size 3 to 8) (size 9 to 14) (size 15 to 20)
#    0.000    0.800    4.000    1.800    0.000    8.000 
#    0.000   15.000    0.000    0.000    0.000    0.000 
#    0.000    0.000    0.000    0.000    0.000    0.000 
#
# Total GULP energy -247979.885124 kJ/mol
# GULP energy per Si atom -12398.994256 kJ/mol
# Density = 2.319195 g / cm^3
# Si number density = 23.244854 Si / 1000 Ang^3
#
#
#
# Elastic Constant Matrix: (Units=GPa)
#
#
# Indices 1 2 3 4 5 6 
#
# 1 129.3520 69.1392 82.3561 0.0000 12.6323 0.0000
# 2 69.1392 116.9143 51.6504 0.0000 2.9340 0.0000
# 3 82.3561 51.6504 119.7751 0.0000 -0.7102 0.0000
# 4 0.0000 0.0000 0.0000 28.9030 0.0000 5.1777
# 5 12.6323 2.9340 -0.7102 0.0000 44.0005 0.0000
# 6 0.0000 0.0000 0.0000 5.1777 0.0000 52.5432
#
#
#
# Elastic Compliance Matrix: (Units=1/GPa)
#
#
# Indices 1 2 3 4 5 6 
#
# 1 0.017387 -0.006015 -0.009389 0.000000 -0.004742 0.000000
# 2 -0.006015 0.012674 -0.001324 0.000000 0.000860 0.000000
# 3 -0.009389 -0.001324 0.015394 0.000000 0.003032 0.000000
# 4 0.000000 0.000000 0.000000 0.035220 0.000000 -0.003471
# 5 -0.004742 0.000860 0.003032 0.000000 0.024080 0.000000
# 6 0.000000 0.000000 0.000000 -0.003471 0.000000 0.019374
#
#
# Mechanical properties :
#
#
# Convention : Reuss Voigt Hill
#
# Bulk Modulus (GPa) = 83.35126 85.81475 84.58301
# Shear Modulus (GPa) = 30.94321 35.94904 33.44612
#
# Velocity S-wave (km/s) = 3.65250 3.93687 3.79735
# Velocity P-wave (km/s) = 7.32963 7.59363 7.46279
#
# Compressibility (1/GPa) = 0.01199742
#
# Stress axis : x y z
#
# Youngs Moduli (GPa) = 57.51366 78.90256 64.95969
#
# Poissons Ratio (x) = 0.47461 0.60994
# Poissons Ratio (y) = 0.34595 0.08603
# Poissons Ratio (z) = 0.54002 0.10449
#
# Static dielectric constant tensor:
#      x y z
#    x 4.357950 0.000000 0.286160 
#    y 0.000000 4.683820 0.000000 
#    z 0.286160 0.000000 3.695820 
# 
# 
# High freq. dielectric constant tensor:
#      x y z
#    x 1.935920 0.000000 0.035900 
#    y 0.000000 1.940510 0.000000 
#    z 0.035900 0.000000 1.891730 
# 
# From -- ./inp_files/48815.got.cif
#   From: 2010.06.25/outbox.cif.g09.slc.cpg/sg13_25_cif.got.tgz:48815.got - 2010.06.28 04:50:58.
