data_PCOD8122888
_publ_section_title
;
Structure prediction by ZEFSAII (Michael W. Deem and Ramdas Pophale) SiO2 
 PCOD8122888
Probable space group: P 2/C
;
_chemical_formula_sum "Si O2"
_cell_formula_units_Z 22
_cell_length_a 26.432289
_cell_length_b 7.040247
_cell_length_c 16.182707
_cell_angle_alpha 90.000000
_cell_angle_beta 20.180252
_cell_angle_gamma 90.000000
_cell_volume 1038.869748
_symmetry_space_group_name_H-M "P 2/C"
_symmetry_group_IT_number 13
_symmetry_cell_setting 'monoclinic'
loop_
_space_group_symop_operation_xyz
x,y,z
-x,y,1/2-z
-x,-y,-z
x,-y,1/2+z
loop_
_atom_site_type_symbol
_atom_site_label
_atom_site_fract_x
_atom_site_fract_y
_atom_site_fract_z
Si Si1 0.894069 0.093861 0.284651
Si Si2 0.584101 0.265444 0.045848
Si Si3 0.380110 0.880058 0.730526
Si Si4 0.726541 0.394111 0.235780
Si Si5 0.000000 0.598067 0.750000
Si Si6 0.807936 0.070329 0.232031
O O1 0.830782 0.144295 0.290822
O O2 0.929423 0.279878 0.283991
O O3 0.776048 0.982578 0.520812
O O4 0.038423 0.966738 0.049976
O O5 0.500000 0.367623 0.250000
O O6 0.448945 0.151658 0.213985
O O7 0.641463 0.420410 0.895149
O O8 0.713670 0.122998 0.874562
O O9 0.355379 0.685179 0.718962
O O10 0.500000 0.000000 0.500000
O O11 0.726324 0.237092 0.308320
O O12 0.888121 0.457015 0.964722
#
# Coordination Sequence:
#
# PCOD8122888 Si02
#       6
#     4   4   4   4   2   4
#     4  11  24  45  76  96 139 187 234 282 350 413
#     4  12  25  46  69 103 139 180 233 285 346 418
#     4  12  24  43  71 101 139 180 225 283 354 406
#     4  12  26  43  72 103 141 179 232 285 350 411
#     4  12  24  44  70 110 140 178 240 292 340 416
#     4  11  24  48  71  97 138 190 229 286 344 416
#
# _framework density 21.176862
#
# number of rings (size 3 to 8) (size 9 to 14) (size 15 to 20)
#    0.000    0.364    5.455    3.818    0.000    4.364 
#    0.000    0.000    0.000    0.000    0.000    0.000 
#    0.000    0.000    0.000    0.000    0.000    0.000 
#
# Total GULP energy -272801.467884 kJ/mol
# GULP energy per Si atom -12400.066722 kJ/mol
# Density = 2.112866 g / cm^3
# Si number density = 21.176862 Si / 1000 Ang^3
#
#
#
# Elastic Constant Matrix: (Units=GPa)
#
#
# Indices 1 2 3 4 5 6 
#
# 1 90.7592 11.5467 32.1041 0.0000 -0.5067 0.0000
# 2 11.5467 72.7518 48.4171 0.0000 4.1709 0.0000
# 3 32.1041 48.4171 145.3014 0.0000 7.8428 0.0000
# 4 0.0000 0.0000 0.0000 221.0861 0.0000 36.7812
# 5 -0.5067 4.1709 7.8428 0.0000 35.1851 0.0000
# 6 0.0000 0.0000 0.0000 36.7812 0.0000 49.8093
#
#
#
# Elastic Compliance Matrix: (Units=1/GPa)
#
#
# Indices 1 2 3 4 5 6 
#
# 1 0.011975 -0.000201 -0.002621 0.000000 0.000781 0.000000
# 2 -0.000201 0.017687 -0.005806 0.000000 -0.000805 0.000000
# 3 -0.002621 -0.005806 0.009475 0.000000 -0.001461 0.000000
# 4 0.000000 0.000000 0.000000 0.005157 0.000000 -0.003808
# 5 0.000781 -0.000805 -0.001461 0.000000 0.028854 0.000000
# 6 0.000000 0.000000 0.000000 -0.003808 0.000000 0.022888
#
#
# Mechanical properties :
#
#
# Convention : Reuss Voigt Hill
#
# Bulk Modulus (GPa) = 45.70062 54.77201 50.23632
# Shear Modulus (GPa) = 41.46426 75.66572 58.56499
#
# Velocity S-wave (km/s) = 4.42973 5.98397 5.26452
# Velocity P-wave (km/s) = 6.91308 8.58278 7.79278
#
# Compressibility (1/GPa) = 0.02188154
#
# Stress axis : x y z
#
# Youngs Moduli (GPa) = 83.50562 56.53777 105.54252
#
# Poissons Ratio (x) = 0.01137 0.27663
# Poissons Ratio (y) = 0.01679 0.61276
# Poissons Ratio (z) = 0.21887 0.32825
#
# Static dielectric constant tensor:
#      x y z
#    x 3.888640 0.000000 -0.024620 
#    y 0.000000 3.641630 0.000000 
#    z -0.024620 0.000000 3.978050 
# 
# 
# High freq. dielectric constant tensor:
#      x y z
#    x 1.847880 0.000000 0.002990 
#    y 0.000000 1.820390 0.000000 
#    z 0.002990 0.000000 1.851900 
# 
# From -- ./inp_files/72094.got.cif
#   From: 2010.06.25/outbox.cif.g09.slc.cpg/sg13_37_cif.got.tgz:72094.got - 2010.06.28 04:50:58.
