data_PCOD8122044
_publ_section_title
;
Structure prediction by ZEFSAII (Michael W. Deem and Ramdas Pophale) SiO2 
 PCOD8122044
Probable space group: P 2/C
;
_chemical_formula_sum "Si O2"
_cell_formula_units_Z 22
_cell_length_a 21.516590
_cell_length_b 5.558148
_cell_length_c 8.925529
_cell_angle_alpha 90.000000
_cell_angle_beta 114.767653
_cell_angle_gamma 90.000000
_cell_volume 969.237321
_symmetry_space_group_name_H-M "P 2/C"
_symmetry_group_IT_number 13
_symmetry_cell_setting 'monoclinic'
loop_
_space_group_symop_operation_xyz
x,y,z
-x,y,1/2-z
-x,-y,-z
x,-y,1/2+z
loop_
_atom_site_type_symbol
_atom_site_label
_atom_site_fract_x
_atom_site_fract_y
_atom_site_fract_z
Si Si1 0.559233 0.310804 0.058651
Si Si2 0.706943 0.679252 0.664917
Si Si3 0.248906 0.983241 0.046891
Si Si4 0.976136 0.253835 0.896907
Si Si5 0.500000 0.014412 0.250000
Si Si6 0.182668 0.716255 0.222805
O O1 0.632940 0.446700 0.113417
O O2 0.554284 0.170529 0.210382
O O3 0.500000 0.500000 0.000000
O O4 0.549024 0.137062 0.907395
O O5 0.702880 0.897137 0.780061
O O6 0.775897 0.529493 0.769220
O O7 0.709983 0.774482 0.497634
O O8 0.184746 0.870684 0.072493
O O9 0.222085 0.172930 0.901748
O O10 0.895542 0.300497 0.812431
O O11 0.000000 0.243675 0.750000
O O12 0.000000 0.500000 0.000000
O O13 0.000000 0.000000 0.000000
#
# Coordination Sequence:
#
# PCOD8122044 Si02
#       6
#     4   4   4   4   2   4
#     4  11  24  42  65  95 134 177 232 288 348 426
#     4  11  24  42  68  99 133 181 229 290 355 418
#     4  10  24  42  68  95 137 173 228 283 347 421
#     4  12  29  49  79 111 154 199 251 310 381 453
#     4  10  24  42  64  90 136 178 234 282 360 418
#     4  11  25  43  71  98 137 176 233 280 355 421
#
# _framework density 22.698260999999999
#
# number of rings (size 3 to 8) (size 9 to 14) (size 15 to 20)
#    0.000    1.091    0.000    4.364   10.182   11.636 
#    0.000    0.000    0.000    0.000    0.000    0.000 
#    0.000    0.000    0.000    0.000    0.000    0.000 
#
# Total GULP energy -272603.221795 kJ/mol
# GULP energy per Si atom -12391.055536 kJ/mol
# Density = 2.264660 g / cm^3
# Si number density = 22.698261 Si / 1000 Ang^3
#
#
#
# Elastic Constant Matrix: (Units=GPa)
#
#
# Indices 1 2 3 4 5 6 
#
# 1 202.4143 52.5228 53.7560 0.0000 7.8535 0.0000
# 2 52.5228 113.1343 38.5839 0.0000 -9.3607 0.0000
# 3 53.7560 38.5839 110.2819 0.0000 -35.5097 0.0000
# 4 0.0000 0.0000 0.0000 3.6418 0.0000 3.6076
# 5 7.8535 -9.3607 -35.5097 0.0000 39.4657 0.0000
# 6 0.0000 0.0000 0.0000 3.6076 0.0000 34.8939
#
#
#
# Elastic Compliance Matrix: (Units=1/GPa)
#
#
# Indices 1 2 3 4 5 6 
#
# 1 0.006946 -0.002166 -0.004559 0.000000 -0.005998 0.000000
# 2 -0.002166 0.010746 -0.002456 0.000000 0.000770 0.000000
# 3 -0.004559 -0.002456 0.017252 0.000000 0.015847 0.000000
# 4 0.000000 0.000000 0.000000 0.305922 0.000000 -0.031629
# 5 -0.005998 0.000770 0.015847 0.000000 0.040974 0.000000
# 6 0.000000 0.000000 0.000000 -0.031629 0.000000 0.031928
#
#
# Mechanical properties :
#
#
# Convention : Reuss Voigt Hill
#
# Bulk Modulus (GPa) = 60.30811 79.50621 69.90716
# Shear Modulus (GPa) = 11.42446 34.33148 22.87797
#
# Velocity S-wave (km/s) = 2.24591 3.89333 3.17822
# Velocity P-wave (km/s) = 5.77518 7.43735 6.65833
#
# Compressibility (1/GPa) = 0.01658152
#
# Stress axis : x y z
#
# Youngs Moduli (GPa) = 143.96829 93.05862 57.96437
#
# Poissons Ratio (x) = 0.20157 0.26428
# Poissons Ratio (y) = 0.31184 0.14235
# Poissons Ratio (z) = 0.65640 0.22854
#
# Static dielectric constant tensor:
#      x y z
#    x 4.352690 0.000000 -0.347520 
#    y 0.000000 3.974660 0.000000 
#    z -0.347520 0.000000 4.186710 
# 
# 
# High freq. dielectric constant tensor:
#      x y z
#    x 1.910490 0.000000 -0.022010 
#    y 0.000000 1.893200 0.000000 
#    z -0.022010 0.000000 1.909710 
# 
# From -- ./inp_files/22295.got.cif
#   From: 2010.06.25/outbox.cif.g09.slc.cpg/sg13_12_cif.got.tgz:22295.got - 2010.06.28 04:50:58.
