data_PCOD8122378
_publ_section_title
;
Structure prediction by ZEFSAII (Michael W. Deem and Ramdas Pophale) SiO2 
 PCOD8122378
Probable space group: P 2/C
;
_chemical_formula_sum "Si O2"
_cell_formula_units_Z 32
_cell_length_a 18.131432
_cell_length_b 15.255890
_cell_length_c 11.954268
_cell_angle_alpha 90.000000
_cell_angle_beta 27.543634
_cell_angle_gamma 90.000000
_cell_volume 1529.089822
_symmetry_space_group_name_H-M "P 2/C"
_symmetry_group_IT_number 13
_symmetry_cell_setting 'monoclinic'
loop_
_space_group_symop_operation_xyz
x,y,z
-x,y,1/2-z
-x,-y,-z
x,-y,1/2+z
loop_
_atom_site_type_symbol
_atom_site_label
_atom_site_fract_x
_atom_site_fract_y
_atom_site_fract_z
Si Si1 0.260900 0.239451 0.845196
Si Si2 0.831332 0.882965 0.413389
Si Si3 0.162540 0.078160 0.098053
Si Si4 0.761397 0.590232 0.528264
Si Si5 0.439535 0.751948 0.714129
Si Si6 0.011361 0.813247 0.502755
Si Si7 0.074369 0.362475 0.472994
Si Si8 0.845540 0.593990 0.883100
O O1 0.420907 0.254825 0.562874
O O2 0.101654 0.237742 0.982494
O O3 0.282335 0.146535 0.878821
O O4 0.237904 0.315508 0.968283
O O5 0.702874 0.815497 0.638425
O O6 0.856369 0.861315 0.249325
O O7 0.000000 0.874439 0.250000
O O8 0.759723 0.981686 0.508756
O O9 0.000000 0.072068 0.250000
O O10 0.116864 0.114838 0.282505
O O11 0.617044 0.652578 0.686034
O O12 0.792342 0.612142 0.616716
O O13 0.722149 0.486714 0.569708
O O14 0.904715 0.610373 0.250624
O O15 0.500000 0.791761 0.750000
O O16 0.919098 0.742260 0.552367
O O17 0.106913 0.408316 0.310791
O O18 0.000000 0.572729 0.750000
#
# Coordination Sequence:
#
# PCOD8122378 Si02
#       8
#     4   4   4   4   4   4   4   4
#     4  11  22  40  62  91 130 173 212 254 323 389
#     4  11  22  39  67  97 123 163 215 270 321 376
#     4   9  20  37  63  97 124 159 213 271 315 380
#     4  11  25  38  63  98 128 164 219 267 320 369
#     4  12  25  43  65  90 134 177 212 262 323 395
#     4  11  18  36  65  91 129 163 209 262 321 374
#     4  11  20  38  65  95 128 161 213 275 315 362
#     4  12  22  39  68  99 129 171 219 268 315 382
#
# _framework density 20.927484
#
# number of rings (size 3 to 8) (size 9 to 14) (size 15 to 20)
#    0.000    1.000    6.250    1.875    0.000    1.000 
#    0.000    0.625    2.750    0.000    0.000    0.000 
#    0.000    0.000    0.000    0.000    0.000    0.000 
#
# Total GULP energy -396755.672627 kJ/mol
# GULP energy per Si atom -12398.614770 kJ/mol
# Density = 2.087985 g / cm^3
# Si number density = 20.927484 Si / 1000 Ang^3
#
#
#
# Elastic Constant Matrix: (Units=GPa)
#
#
# Indices 1 2 3 4 5 6 
#
# 1 78.3773 34.1785 33.7384 0.0000 23.1783 0.0000
# 2 34.1785 159.1022 33.6563 0.0000 6.2585 0.0000
# 3 33.7384 33.6563 90.1651 0.0000 15.4606 0.0000
# 4 0.0000 0.0000 0.0000 24.3898 0.0000 7.4140
# 5 23.1783 6.2585 15.4606 0.0000 33.5063 0.0000
# 6 0.0000 0.0000 0.0000 7.4140 0.0000 23.9771
#
#
#
# Elastic Compliance Matrix: (Units=1/GPa)
#
#
# Indices 1 2 3 4 5 6 
#
# 1 0.018922 -0.002752 -0.004232 0.000000 -0.010623 0.000000
# 2 -0.002752 0.007225 -0.001914 0.000000 0.001437 0.000000
# 3 -0.004232 -0.001914 0.013927 0.000000 -0.003142 0.000000
# 4 0.000000 0.000000 0.000000 0.045254 0.000000 -0.013993
# 5 -0.010623 0.001437 -0.003142 0.000000 0.038375 0.000000
# 6 0.000000 0.000000 0.000000 -0.013993 0.000000 0.046033
#
#
# Mechanical properties :
#
#
# Convention : Reuss Voigt Hill
#
# Bulk Modulus (GPa) = 44.88375 58.97679 51.93027
# Shear Modulus (GPa) = 25.64678 31.44607 28.54642
#
# Velocity S-wave (km/s) = 3.50452 3.88057 3.69733
# Velocity P-wave (km/s) = 6.15381 6.95134 6.56470
#
# Compressibility (1/GPa) = 0.02227978
#
# Stress axis : x y z
#
# Youngs Moduli (GPa) = 52.84924 138.41471 71.80227
#
# Poissons Ratio (x) = 0.38089 0.30384
# Poissons Ratio (y) = 0.14543 0.13740
# Poissons Ratio (z) = 0.22364 0.26486
#
# Static dielectric constant tensor:
#      x y z
#    x 3.767920 0.000000 0.278700 
#    y 0.000000 4.208540 0.000000 
#    z 0.278700 0.000000 3.538010 
# 
# 
# High freq. dielectric constant tensor:
#      x y z
#    x 1.803820 0.000000 0.032150 
#    y 0.000000 1.838170 0.000000 
#    z 0.032150 0.000000 1.796200 
# 
# From -- ./inp_files/39453.got.cif
#   From: 2010.06.25/outbox.cif.g09.slc.cpg/sg13_20_cif.got.tgz:39453.got - 2010.06.28 04:50:58.
