data_PCOD8122061
_publ_section_title
;
Structure prediction by ZEFSAII (Michael W. Deem and Ramdas Pophale) SiO2 
 PCOD8122061
Probable space group: P 2/C
;
_chemical_formula_sum "Si O2"
_cell_formula_units_Z 28
_cell_length_a 14.675183
_cell_length_b 8.001122
_cell_length_c 12.910739
_cell_angle_alpha 90.000000
_cell_angle_beta 62.671679
_cell_angle_gamma 90.000000
_cell_volume 1346.757443
_symmetry_space_group_name_H-M "P 2/C"
_symmetry_group_IT_number 13
_symmetry_cell_setting 'monoclinic'
loop_
_space_group_symop_operation_xyz
x,y,z
-x,y,1/2-z
-x,-y,-z
x,-y,1/2+z
loop_
_atom_site_type_symbol
_atom_site_label
_atom_site_fract_x
_atom_site_fract_y
_atom_site_fract_z
Si Si1 0.755047 0.215691 0.869584
Si Si2 0.662576 0.907028 0.222406
Si Si3 0.151913 0.007775 0.999855
Si Si4 0.500000 0.345688 0.750000
Si Si5 0.434683 0.587413 0.945423
Si Si6 0.067155 0.580206 0.315960
Si Si7 0.500000 0.834048 0.750000
Si Si8 0.028550 0.760127 0.937286
O O1 0.703560 0.080746 0.818735
O O2 0.819479 0.106337 0.916963
O O3 0.822695 0.341029 0.764913
O O4 0.674887 0.340927 0.964783
O O5 0.579296 0.760471 0.275787
O O6 0.605480 0.067575 0.207455
O O7 0.753787 0.880363 0.091660
O O8 0.059898 0.135291 0.077265
O O9 0.118882 0.886809 0.922159
O O10 0.422126 0.449199 0.862745
O O11 0.498680 0.734958 0.858614
O O12 0.500000 0.500000 0.000000
O O13 0.016864 0.681107 0.435220
O O14 0.000000 0.604100 0.250000
O O15 0.075534 0.383342 0.339363
#
# Coordination Sequence:
#
# PCOD8122061 Si02
#       8
#     4   4   4   2   4   4   2   4
#     4  12  24  40  71  97 135 174 221 273 331 405
#     4  11  23  41  65  96 128 171 220 273 325 389
#     4  11  23  43  67 100 130 172 221 273 328 393
#     4  10  24  42  66  90 134 170 222 272 324 386
#     4  11  23  42  65  96 128 175 220 274 325 391
#     4  11  23  43  66  99 130 170 220 272 331 396
#     4  10  24  42  66  94 130 172 222 274 332 384
#     4  10  24  43  70  93 135 171 215 278 330 389
#
# _framework density 20.790676999999999
#
# number of rings (size 3 to 8) (size 9 to 14) (size 15 to 20)
#    0.000    1.143    5.714    0.000    0.000    6.286 
#    0.000    0.000    0.000    0.000    0.000    0.000 
#    0.000    0.000    0.000    0.000    0.000    0.000 
#
# Total GULP energy -347065.537817 kJ/mol
# GULP energy per Si atom -12395.197779 kJ/mol
# Density = 2.074336 g / cm^3
# Si number density = 20.790677 Si / 1000 Ang^3
#
#
#
# Elastic Constant Matrix: (Units=GPa)
#
#
# Indices 1 2 3 4 5 6 
#
# 1 115.5517 47.5973 39.8145 0.0000 14.0753 0.0000
# 2 47.5973 105.0189 39.0930 0.0000 7.5668 0.0000
# 3 39.8145 39.0930 98.0053 0.0000 0.4974 0.0000
# 4 0.0000 0.0000 0.0000 54.7521 0.0000 -6.3874
# 5 14.0753 7.5668 0.4974 0.0000 30.7555 0.0000
# 6 0.0000 0.0000 0.0000 -6.3874 0.0000 34.9825
#
#
#
# Elastic Compliance Matrix: (Units=1/GPa)
#
#
# Indices 1 2 3 4 5 6 
#
# 1 0.011916 -0.003859 -0.003279 0.000000 -0.004451 0.000000
# 2 -0.003859 0.012658 -0.003475 0.000000 -0.001292 0.000000
# 3 -0.003279 -0.003475 0.012911 0.000000 0.002147 0.000000
# 4 0.000000 0.000000 0.000000 0.018662 0.000000 0.003407
# 5 -0.004451 -0.001292 0.002147 0.000000 0.034834 0.000000
# 6 0.000000 0.000000 0.000000 0.003407 0.000000 0.029208
#
#
# Mechanical properties :
#
#
# Convention : Reuss Voigt Hill
#
# Bulk Modulus (GPa) = 61.50541 63.50948 62.50744
# Shear Modulus (GPa) = 34.05235 36.90277 35.47756
#
# Velocity S-wave (km/s) = 4.05145 4.21761 4.13536
# Velocity P-wave (km/s) = 7.17865 7.37096 7.27544
#
# Compressibility (1/GPa) = 0.01625873
#
# Stress axis : x y z
#
# Youngs Moduli (GPa) = 83.92292 79.00316 77.45593
#
# Poissons Ratio (x) = 0.30490 0.25395
# Poissons Ratio (y) = 0.32389 0.26913
# Poissons Ratio (z) = 0.27516 0.27450
#
# Static dielectric constant tensor:
#      x y z
#    x 3.813360 0.000000 0.031580 
#    y 0.000000 3.984880 0.000000 
#    z 0.031580 0.000000 3.893380 
# 
# 
# High freq. dielectric constant tensor:
#      x y z
#    x 1.819210 0.000000 0.001420 
#    y 0.000000 1.818720 0.000000 
#    z 0.001420 0.000000 1.815380 
# 
# From -- ./inp_files/36127.got.cif
#   From: 2010.06.25/outbox.cif.g09.slc.cpg/sg13_19_cif.got.tgz:36127.got - 2010.06.28 04:50:58.
