data_PCOD8122901
_publ_section_title
;
Structure prediction by ZEFSAII (Michael W. Deem and Ramdas Pophale) SiO2 
 PCOD8122901
Probable space group: P 2/C
;
_chemical_formula_sum "Si O2"
_cell_formula_units_Z 26
_cell_length_a 6.372834
_cell_length_b 10.746223
_cell_length_c 19.130117
_cell_angle_alpha 90.000000
_cell_angle_beta 61.771044
_cell_angle_gamma 90.000000
_cell_volume 1154.286975
_symmetry_space_group_name_H-M "P 2/C"
_symmetry_group_IT_number 13
_symmetry_cell_setting 'monoclinic'
loop_
_space_group_symop_operation_xyz
x,y,z
-x,y,1/2-z
-x,-y,-z
x,-y,1/2+z
loop_
_atom_site_type_symbol
_atom_site_label
_atom_site_fract_x
_atom_site_fract_y
_atom_site_fract_z
Si Si1 0.982216 0.527387 0.170333
Si Si2 0.711041 0.272358 0.953961
Si Si3 0.736481 0.846814 0.311034
Si Si4 0.582845 0.118502 0.312199
Si Si5 0.910433 0.871723 0.541989
Si Si6 0.208445 0.272462 0.103671
Si Si7 0.500000 0.658312 0.250000
O O1 0.187289 0.610186 0.103304
O O2 0.030690 0.388640 0.135660
O O3 0.000000 0.534856 0.250000
O O4 0.717496 0.570782 0.190355
O O5 0.689276 0.157954 0.901942
O O6 0.902439 0.233390 0.982983
O O7 0.457306 0.307791 0.027575
O O8 0.556168 0.748329 0.305768
O O9 0.000000 0.799217 0.250000
O O10 0.709749 0.985058 0.284179
O O11 0.500000 0.171035 0.250000
O O12 0.357036 0.097969 0.395565
O O13 0.752870 0.218386 0.324004
O O14 0.073680 0.831926 0.580587
O O15 0.000000 0.000000 0.500000
#
# Coordination Sequence:
#
# PCOD8122901 Si02
#       7
#     4   4   4   4   4   4   2
#     4  12  27  47  74 106 145 190 249 299 359 437
#     4  11  24  47  70 105 146 191 242 294 368 427
#     4  12  24  43  75 111 144 187 247 305 361 430
#     4  11  27  43  72 108 143 192 241 303 366 432
#     4  11  26  45  71 107 145 192 238 297 368 434
#     4  11  28  48  72 103 151 194 239 301 366 438
#     4  12  24  44  72 114 140 190 244 310 356 434
#
# _framework density 22.524730000000002
#
# number of rings (size 3 to 8) (size 9 to 14) (size 15 to 20)
#    0.000    0.615    3.846    2.308   10.769    5.538 
#    0.000    0.000    0.000    0.000    0.000    0.000 
#    0.000    0.000    0.000    0.000    0.000    0.000 
#
# Total GULP energy -322511.442320 kJ/mol
# GULP energy per Si atom -12404.286243 kJ/mol
# Density = 2.247346 g / cm^3
# Si number density = 22.524730 Si / 1000 Ang^3
#
#
#
# Elastic Constant Matrix: (Units=GPa)
#
#
# Indices 1 2 3 4 5 6 
#
# 1 121.9236 44.3209 42.9593 0.0000 7.4211 0.0000
# 2 44.3209 117.1426 48.7729 0.0000 -7.4230 0.0000
# 3 42.9593 48.7729 94.1603 0.0000 8.5833 0.0000
# 4 0.0000 0.0000 0.0000 39.6861 0.0000 -1.2521
# 5 7.4211 -7.4230 8.5833 0.0000 47.2525 0.0000
# 6 0.0000 0.0000 0.0000 -1.2521 0.0000 31.9643
#
#
#
# Elastic Compliance Matrix: (Units=1/GPa)
#
#
# Indices 1 2 3 4 5 6 
#
# 1 0.010403 -0.002689 -0.003219 0.000000 -0.001471 0.000000
# 2 -0.002689 0.011950 -0.005260 0.000000 0.003255 0.000000
# 3 -0.003219 -0.005260 0.015093 0.000000 -0.003062 0.000000
# 4 0.000000 0.000000 0.000000 0.025229 0.000000 0.000988
# 5 -0.001471 0.003255 -0.003062 0.000000 0.022462 0.000000
# 6 0.000000 0.000000 0.000000 0.000988 0.000000 0.031324
#
#
# Mechanical properties :
#
#
# Convention : Reuss Voigt Hill
#
# Bulk Modulus (GPa) = 66.18266 67.25919 66.72092
# Shear Modulus (GPa) = 34.76254 36.92548 35.84401
#
# Velocity S-wave (km/s) = 3.93275 4.05326 3.99346
# Velocity P-wave (km/s) = 7.07588 7.19932 7.13787
#
# Compressibility (1/GPa) = 0.01510970
#
# Stress axis : x y z
#
# Youngs Moduli (GPa) = 96.12415 83.68075 66.25751
#
# Poissons Ratio (x) = 0.22501 0.21331
# Poissons Ratio (y) = 0.25847 0.34851
# Poissons Ratio (z) = 0.30946 0.44015
#
# Static dielectric constant tensor:
#      x y z
#    x 4.232470 0.000000 0.121320 
#    y 0.000000 3.905780 0.000000 
#    z 0.121320 0.000000 4.242670 
# 
# 
# High freq. dielectric constant tensor:
#      x y z
#    x 1.898260 0.000000 -0.000740 
#    y 0.000000 1.886110 0.000000 
#    z -0.000740 0.000000 1.898960 
# 
# From -- ./inp_files/73346.got.cif
#   From: 2010.06.25/outbox.cif.g09.slc.cpg/sg13_37_cif.got.tgz:73346.got - 2010.06.28 04:50:58.
