data_PCOD8122721
_publ_section_title
;
Structure prediction by ZEFSAII (Michael W. Deem and Ramdas Pophale) SiO2 
 PCOD8122721
Probable space group: P 2/C
;
_chemical_formula_sum "Si O2"
_cell_formula_units_Z 26
_cell_length_a 18.514605
_cell_length_b 9.468690
_cell_length_c 8.123786
_cell_angle_alpha 90.000000
_cell_angle_beta 53.457494
_cell_angle_gamma 90.000000
_cell_volume 1144.202661
_symmetry_space_group_name_H-M "P 2/C"
_symmetry_group_IT_number 13
_symmetry_cell_setting 'monoclinic'
loop_
_space_group_symop_operation_xyz
x,y,z
-x,y,1/2-z
-x,-y,-z
x,-y,1/2+z
loop_
_atom_site_type_symbol
_atom_site_label
_atom_site_fract_x
_atom_site_fract_y
_atom_site_fract_z
Si Si1 0.500000 0.671001 0.250000
Si Si2 0.543987 0.859858 0.510880
Si Si3 0.203247 0.809210 0.628752
Si Si4 0.679668 0.413250 0.394473
Si Si5 0.066963 0.576905 0.791228
Si Si6 0.222060 0.365731 0.559386
Si Si7 0.243475 0.102587 0.724741
O O1 0.529996 0.754279 0.375212
O O2 0.424234 0.565341 0.422561
O O3 0.649471 0.885711 0.401007
O O4 0.500000 0.000000 0.500000
O O5 0.500000 0.817051 0.750000
O O6 0.291325 0.711608 0.520349
O O7 0.120726 0.708114 0.799869
O O8 0.190149 0.855458 0.460201
O O9 0.213608 0.943129 0.731544
O O10 0.732891 0.559481 0.343833
O O11 0.701049 0.361802 0.182742
O O12 0.134138 0.455914 0.625614
O O13 0.000000 0.644584 0.750000
O O14 0.000000 0.500000 0.000000
O O15 0.203884 0.204071 0.634993
#
# Coordination Sequence:
#
# PCOD8122721 Si02
#       7
#     2   4   4   4   4   4   4
#     4  12  24  42  64 100 144 190 260 302 342 426
#     4  12  23  40  65  98 145 197 252 302 359 409
#     4  11  23  42  68 100 138 179 230 286 354 428
#     4  11  23  43  64  96 137 188 238 292 350 417
#     4  11  23  45  74 103 133 174 226 289 360 446
#     4  11  24  44  70  96 139 186 232 287 366 432
#     4  12  23  43  67 100 139 190 232 288 359 415
#
# _framework density 22.723246
#
# number of rings (size 3 to 8) (size 9 to 14) (size 15 to 20)
#    0.000    0.615    2.308    8.308    0.000    0.615 
#    1.385    3.846    0.000    0.000    0.000    0.000 
#    0.000    0.000    0.000    0.000    0.000    0.000 
#
# Total GULP energy -322132.431208 kJ/mol
# GULP energy per Si atom -12389.708893 kJ/mol
# Density = 2.267153 g / cm^3
# Si number density = 22.723246 Si / 1000 Ang^3
#
#
#
# Elastic Constant Matrix: (Units=GPa)
#
#
# Indices 1 2 3 4 5 6 
#
# 1 92.1425 46.9816 33.4188 0.0000 -8.9273 0.0000
# 2 46.9816 95.4391 28.0311 0.0000 -18.8516 0.0000
# 3 33.4188 28.0311 148.6126 0.0000 -0.9356 0.0000
# 4 0.0000 0.0000 0.0000 33.0155 0.0000 3.3369
# 5 -8.9273 -18.8516 -0.9356 0.0000 41.9651 0.0000
# 6 0.0000 0.0000 0.0000 3.3369 0.0000 33.0472
#
#
#
# Elastic Compliance Matrix: (Units=1/GPa)
#
#
# Indices 1 2 3 4 5 6 
#
# 1 0.015090 -0.006785 -0.002113 0.000000 0.000115 0.000000
# 2 -0.006785 0.015270 -0.001321 0.000000 0.005387 0.000000
# 3 -0.002113 -0.001321 0.007448 0.000000 -0.000877 0.000000
# 4 0.000000 0.000000 0.000000 0.030601 0.000000 -0.003090
# 5 0.000115 0.005387 -0.000877 0.000000 0.026254 0.000000
# 6 0.000000 0.000000 0.000000 -0.003090 0.000000 0.030572
#
#
# Mechanical properties :
#
#
# Convention : Reuss Voigt Hill
#
# Bulk Modulus (GPa) = 57.56852 61.45080 59.50966
# Shear Modulus (GPa) = 33.01194 36.78974 34.90084
#
# Velocity S-wave (km/s) = 3.81567 4.02809 3.92332
# Velocity P-wave (km/s) = 6.69344 6.98111 6.83879
#
# Compressibility (1/GPa) = 0.01737060
#
# Stress axis : x y z
#
# Youngs Moduli (GPa) = 66.27061 65.48908 134.27219
#
# Poissons Ratio (x) = 0.44434 0.28368
# Poissons Ratio (y) = 0.44964 0.17731
# Poissons Ratio (z) = 0.14001 0.08648
#
# Static dielectric constant tensor:
#      x y z
#    x 4.306610 0.000000 0.098770 
#    y 0.000000 4.234310 0.000000 
#    z 0.098770 0.000000 4.199690 
# 
# 
# High freq. dielectric constant tensor:
#      x y z
#    x 1.896830 0.000000 0.010290 
#    y 0.000000 1.895160 0.000000 
#    z 0.010290 0.000000 1.903760 
# 
# From -- ./inp_files/22962.got.cif
#   From: 2010.06.25/outbox.cif.g09.slc.cpg/sg13_12_cif.got.tgz:22962.got - 2010.06.28 04:50:58.
