data_PCOD8122133
_publ_section_title
;
Structure prediction by ZEFSAII (Michael W. Deem and Ramdas Pophale) SiO2 
 PCOD8122133
Probable space group: P 2/C
;
_chemical_formula_sum "Si O2"
_cell_formula_units_Z 8
_cell_length_a 9.270381
_cell_length_b 6.186821
_cell_length_c 9.612527
_cell_angle_alpha 90.000000
_cell_angle_beta 29.434739
_cell_angle_gamma 90.000000
_cell_volume 270.935580
_symmetry_space_group_name_H-M "P 2/C"
_symmetry_group_IT_number 13
_symmetry_cell_setting 'monoclinic'
loop_
_space_group_symop_operation_xyz
x,y,z
-x,y,1/2-z
-x,-y,-z
x,-y,1/2+z
loop_
_atom_site_type_symbol
_atom_site_label
_atom_site_fract_x
_atom_site_fract_y
_atom_site_fract_z
Si Si1 0.000000 0.482752 0.750000
Si Si2 0.804457 0.926363 0.288958
Si Si3 0.500000 0.223355 0.750000
O O1 0.215671 0.627330 0.474952
O O2 0.792627 0.333593 0.824023
O O3 0.503402 0.075730 0.598159
O O4 0.000000 0.025470 0.250000
O O5 0.000000 0.000000 0.000000
#
# Coordination Sequence:
#
# PCOD8122133 Si02
#       3
#     2   4   2
#     4  10  24  44  70 106 136 184 232 284 344 414
#     4  10  25  47  69 103 143 179 231 291 341 411
#     4  12  22  48  70 106 136 188 228 288 346 414
#
# _framework density 29.527314000000001
#
# number of rings (size 3 to 8) (size 9 to 14) (size 15 to 20)
#    1.500    0.000    2.500    1.500    0.000    6.000 
#    0.000    0.000    0.000    0.000    0.000    0.000 
#    0.000    0.000    0.000    0.000    0.000    0.000 
#
# Total GULP energy -99117.281556 kJ/mol
# GULP energy per Si atom -12389.660194 kJ/mol
# Density = 2.946011 g / cm^3
# Si number density = 29.527314 Si / 1000 Ang^3
#
#
#
# Elastic Constant Matrix: (Units=GPa)
#
#
# Indices 1 2 3 4 5 6 
#
# 1 169.9075 90.3856 145.7164 0.0000 4.6482 0.0000
# 2 90.3856 237.0267 139.4329 0.0000 2.4887 0.0000
# 3 145.7164 139.4329 299.0954 0.0000 15.5756 0.0000
# 4 0.0000 0.0000 0.0000 74.8697 0.0000 -12.9258
# 5 4.6482 2.4887 15.5756 0.0000 91.5319 0.0000
# 6 0.0000 0.0000 0.0000 -12.9258 0.0000 61.4604
#
#
#
# Elastic Compliance Matrix: (Units=1/GPa)
#
#
# Indices 1 2 3 4 5 6 
#
# 1 0.010425 -0.001353 -0.004462 0.000000 0.000267 0.000000
# 2 -0.001353 0.005997 -0.002151 0.000000 0.000272 0.000000
# 3 -0.004462 -0.002151 0.006563 0.000000 -0.000832 0.000000
# 4 0.000000 0.000000 0.000000 0.013860 0.000000 0.002915
# 5 0.000267 0.000272 -0.000832 0.000000 0.011046 0.000000
# 6 0.000000 0.000000 0.000000 0.002915 0.000000 0.016884
#
#
# Mechanical properties :
#
#
# Convention : Reuss Voigt Hill
#
# Bulk Modulus (GPa) = 141.77382 161.89994 151.83688
# Shear Modulus (GPa) = 60.19957 67.60540 63.90249
#
# Velocity S-wave (km/s) = 4.52018 4.79016 4.65712
# Velocity P-wave (km/s) = 8.68109 9.24898 8.96953
#
# Compressibility (1/GPa) = 0.00705349
#
# Stress axis : x y z
#
# Youngs Moduli (GPa) = 95.92540 166.74207 152.36803
#
# Poissons Ratio (x) = 0.22567 0.67984
# Poissons Ratio (y) = 0.12982 0.32768
# Poissons Ratio (z) = 0.42800 0.35860
#
# Static dielectric constant tensor:
#      x y z
#    x 7.574720 0.000000 -1.022350 
#    y 0.000000 6.119960 0.000000 
#    z -1.022350 0.000000 6.126680 
# 
# 
# High freq. dielectric constant tensor:
#      x y z
#    x 2.288820 0.000000 -0.005150 
#    y 0.000000 2.218400 0.000000 
#    z -0.005150 0.000000 2.247180 
# 
# From -- ./inp_files/8219.got.cif
#   From: 2010.06.25/outbox.cif.g09.slc.cpg/sg13_5_cif.got.tgz:8219.got - 2010.06.28 04:50:58.
