data_PCOD8122827
_publ_section_title
;
Structure prediction by ZEFSAII (Michael W. Deem and Ramdas Pophale) SiO2 
 PCOD8122827
Probable space group: P 2/C
;
_chemical_formula_sum "Si O2"
_cell_formula_units_Z 20
_cell_length_a 18.779328
_cell_length_b 6.434798
_cell_length_c 10.281104
_cell_angle_alpha 90.000000
_cell_angle_beta 136.332573
_cell_angle_gamma 90.000000
_cell_volume 857.828245
_symmetry_space_group_name_H-M "P 2/C"
_symmetry_group_IT_number 13
_symmetry_cell_setting 'monoclinic'
loop_
_space_group_symop_operation_xyz
x,y,z
-x,y,1/2-z
-x,-y,-z
x,-y,1/2+z
loop_
_atom_site_type_symbol
_atom_site_label
_atom_site_fract_x
_atom_site_fract_y
_atom_site_fract_z
Si Si1 0.879956 0.670155 0.092066
Si Si2 0.785332 0.588814 0.688609
Si Si3 0.642562 0.660700 0.160259
Si Si4 0.728429 0.973735 0.457876
Si Si5 0.432596 0.687432 0.775215
O O1 0.857405 0.488759 0.166911
O O2 0.000000 0.717476 0.250000
O O3 0.846978 0.596917 0.905151
O O4 0.827256 0.883300 0.068269
O O5 0.689793 0.424651 0.585170
O O6 0.743114 0.818661 0.599116
O O7 0.713081 0.847530 0.303472
O O8 0.652251 0.470366 0.277694
O O9 0.523073 0.733963 0.000765
O O10 0.624390 0.104705 0.348367
O O11 0.500000 0.584053 0.750000
#
# Coordination Sequence:
#
# PCOD8122827 Si02
#       5
#     4   4   4   4   4
#     4  12  29  50  79 110 144 196 251 314 381 441
#     4  12  26  51  78 106 156 193 246 312 372 447
#     4  11  24  46  70 107 152 198 239 302 369 435
#     4  12  25  45  73 109 148 192 253 300 368 440
#     4  11  24  40  69 108 149 196 244 295 360 444
#
# _framework density 23.314689000000001
#
# number of rings (size 3 to 8) (size 9 to 14) (size 15 to 20)
#    0.000    0.400    4.000    3.600    5.600    5.600 
#    0.000    0.000    0.000    0.000    0.000    0.000 
#    0.000    0.000    0.000    0.000    0.000    0.000 
#
# Total GULP energy -248062.055311 kJ/mol
# GULP energy per Si atom -12403.102766 kJ/mol
# Density = 2.326162 g / cm^3
# Si number density = 23.314689 Si / 1000 Ang^3
#
#
#
# Elastic Constant Matrix: (Units=GPa)
#
#
# Indices 1 2 3 4 5 6 
#
# 1 118.1087 47.9632 60.3473 0.0000 1.4195 0.0000
# 2 47.9632 111.6405 60.5995 0.0000 5.5616 0.0000
# 3 60.3473 60.5995 114.6302 0.0000 7.8223 0.0000
# 4 0.0000 0.0000 0.0000 39.3150 0.0000 -8.6142
# 5 1.4195 5.5616 7.8223 0.0000 47.6036 0.0000
# 6 0.0000 0.0000 0.0000 -8.6142 0.0000 40.6796
#
#
#
# Elastic Compliance Matrix: (Units=1/GPa)
#
#
# Indices 1 2 3 4 5 6 
#
# 1 0.012061 -0.002447 -0.005108 0.000000 0.000766 0.000000
# 2 -0.002447 0.013065 -0.005582 0.000000 -0.000536 0.000000
# 3 -0.005108 -0.005582 0.014471 0.000000 -0.001573 0.000000
# 4 0.000000 0.000000 0.000000 0.026673 0.000000 0.005648
# 5 0.000766 -0.000536 -0.001573 0.000000 0.021305 0.000000
# 6 0.000000 0.000000 0.000000 0.005648 0.000000 0.025778
#
#
# Mechanical properties :
#
#
# Convention : Reuss Voigt Hill
#
# Bulk Modulus (GPa) = 75.05833 75.79992 75.42912
# Shear Modulus (GPa) = 34.70504 37.21760 35.96132
#
# Velocity S-wave (km/s) = 3.86236 3.99973 3.93164
# Velocity P-wave (km/s) = 7.22176 7.34252 7.28239
#
# Compressibility (1/GPa) = 0.01332297
#
# Stress axis : x y z
#
# Youngs Moduli (GPa) = 82.90892 76.53771 69.10185
#
# Poissons Ratio (x) = 0.18730 0.35299
# Poissons Ratio (y) = 0.20289 0.38574
# Poissons Ratio (z) = 0.42352 0.42725
#
# Static dielectric constant tensor:
#      x y z
#    x 4.113860 0.000000 -0.017360 
#    y 0.000000 4.141130 0.000000 
#    z -0.017360 0.000000 4.473740 
# 
# 
# High freq. dielectric constant tensor:
#      x y z
#    x 1.919980 0.000000 -0.012280 
#    y 0.000000 1.917480 0.000000 
#    z -0.012280 0.000000 1.943320 
# 
# From -- ./inp_files/39950.got.cif
#   From: 2010.06.25/outbox.cif.g09.slc.cpg/sg13_20_cif.got.tgz:39950.got - 2010.06.28 04:50:58.
