data_PCOD8122887
_publ_section_title
;
Structure prediction by ZEFSAII (Michael W. Deem and Ramdas Pophale) SiO2 
 PCOD8122887
Probable space group: P 2/C
;
_chemical_formula_sum "Si O2"
_cell_formula_units_Z 28
_cell_length_a 20.792565
_cell_length_b 8.124542
_cell_length_c 14.480499
_cell_angle_alpha 90.000000
_cell_angle_beta 27.557015
_cell_angle_gamma 90.000000
_cell_volume 1131.684220
_symmetry_space_group_name_H-M "P 2/C"
_symmetry_group_IT_number 13
_symmetry_cell_setting 'monoclinic'
loop_
_space_group_symop_operation_xyz
x,y,z
-x,y,1/2-z
-x,-y,-z
x,-y,1/2+z
loop_
_atom_site_type_symbol
_atom_site_label
_atom_site_fract_x
_atom_site_fract_y
_atom_site_fract_z
Si Si1 0.336528 0.014936 0.718882
Si Si2 0.000000 0.447061 0.250000
Si Si3 0.309369 0.334343 0.227266
Si Si4 0.564175 0.442770 0.794717
Si Si5 0.767126 0.787170 0.975739
Si Si6 0.771987 0.903824 0.344698
Si Si7 0.500000 0.273960 0.250000
Si Si8 0.975919 0.642797 0.460559
O O1 0.294457 0.832332 0.806164
O O2 0.500000 0.000000 0.500000
O O3 0.282804 0.138023 0.863899
O O4 0.263126 0.071720 0.717284
O O5 0.898394 0.326610 0.324738
O O6 0.051780 0.574349 0.107108
O O7 0.316942 0.497720 0.282401
O O8 0.183446 0.310132 0.313520
O O9 0.450745 0.328337 0.987571
O O10 0.639093 0.339624 0.616350
O O11 0.495811 0.610835 0.845441
O O12 0.803916 0.919655 0.850879
O O13 0.639166 0.834145 0.569098
O O14 0.908224 0.786621 0.181687
O O15 0.000000 0.500000 0.500000
#
# Coordination Sequence:
#
# PCOD8122887 Si02
#       8
#     4   2   4   4   4   4   2   4
#     4  12  26  48  75 105 152 193 244 315 383 445
#     4  12  28  48  76 108 152 206 248 308 382 458
#     4  11  25  45  75 101 144 193 253 301 388 443
#     4  11  24  45  76 106 141 198 253 314 373 461
#     4  12  27  47  73 111 150 193 255 314 378 455
#     4  12  29  46  77 115 152 198 254 316 385 452
#     4  12  26  44  72 106 150 192 252 312 382 456
#     4  12  28  51  76 108 154 200 255 311 376 468
#
# _framework density 24.741886000000001
#
# number of rings (size 3 to 8) (size 9 to 14) (size 15 to 20)
#    0.000    0.286    2.857    5.143   10.000    0.571 
#    0.000    0.000    0.000    0.000    0.000    0.000 
#    0.000    0.000    0.000    0.000    0.000    0.000 
#
# Total GULP energy -346898.581123 kJ/mol
# GULP energy per Si atom -12389.235040 kJ/mol
# Density = 2.468557 g / cm^3
# Si number density = 24.741886 Si / 1000 Ang^3
#
#
#
# Elastic Constant Matrix: (Units=GPa)
#
#
# Indices 1 2 3 4 5 6 
#
# 1 94.3235 17.3364 24.7885 0.0000 -17.4922 0.0000
# 2 17.3364 112.3621 28.1262 0.0000 -20.8683 0.0000
# 3 24.7885 28.1262 75.1948 0.0000 -31.0773 0.0000
# 4 0.0000 0.0000 0.0000 37.9684 0.0000 -1.1269
# 5 -17.4922 -20.8683 -31.0773 0.0000 50.4485 0.0000
# 6 0.0000 0.0000 0.0000 -1.1269 0.0000 49.7435
#
#
#
# Elastic Compliance Matrix: (Units=1/GPa)
#
#
# Indices 1 2 3 4 5 6 
#
# 1 0.011854 -0.000748 -0.002760 0.000000 0.002101 0.000000
# 2 -0.000748 0.010090 -0.002562 0.000000 0.002336 0.000000
# 3 -0.002760 -0.002562 0.019229 0.000000 0.009829 0.000000
# 4 0.000000 0.000000 0.000000 0.026355 0.000000 0.000597
# 5 0.002101 0.002336 0.009829 0.000000 0.027572 0.000000
# 6 0.000000 0.000000 0.000000 0.000597 0.000000 0.020117
#
#
# Mechanical properties :
#
#
# Convention : Reuss Voigt Hill
#
# Bulk Modulus (GPa) = 34.44261 46.93140 40.68701
# Shear Modulus (GPa) = 36.48696 41.74070 39.11383
#
# Velocity S-wave (km/s) = 3.84435 4.11182 3.98034
# Velocity P-wave (km/s) = 5.80141 6.44611 6.13224
#
# Compressibility (1/GPa) = 0.02903380
#
# Stress axis : x y z
#
# Youngs Moduli (GPa) = 84.35860 99.10351 52.00467
#
# Poissons Ratio (x) = 0.07413 0.14352
# Poissons Ratio (y) = 0.06310 0.13324
# Poissons Ratio (z) = 0.23281 0.25392
#
# Static dielectric constant tensor:
#      x y z
#    x 4.603720 0.000000 -0.073650 
#    y 0.000000 4.528850 0.000000 
#    z -0.073650 0.000000 4.358760 
# 
# 
# High freq. dielectric constant tensor:
#      x y z
#    x 1.992530 0.000000 -0.009120 
#    y 0.000000 2.007310 0.000000 
#    z -0.009120 0.000000 1.988590 
# 
# From -- ./inp_files/57496.got.cif
#   From: 2010.06.25/outbox.cif.g09.slc.cpg/sg13_29_cif.got.tgz:57496.got - 2010.06.28 04:50:58.
