data_PCOD8122554
_publ_section_title
;
Structure prediction by ZEFSAII (Michael W. Deem and Ramdas Pophale) SiO2 
 PCOD8122554
Probable space group: P 2/C
;
_chemical_formula_sum "Si O2"
_cell_formula_units_Z 18
_cell_length_a 16.837768
_cell_length_b 7.030474
_cell_length_c 24.256303
_cell_angle_alpha 90.000000
_cell_angle_beta 159.852259
_cell_angle_gamma 90.000000
_cell_volume 989.031035
_symmetry_space_group_name_H-M "P 2/C"
_symmetry_group_IT_number 13
_symmetry_cell_setting 'monoclinic'
loop_
_space_group_symop_operation_xyz
x,y,z
-x,y,1/2-z
-x,-y,-z
x,-y,1/2+z
loop_
_atom_site_type_symbol
_atom_site_label
_atom_site_fract_x
_atom_site_fract_y
_atom_site_fract_z
Si Si1 0.415847 0.509449 0.568743
Si Si2 0.841450 0.799939 0.035419
Si Si3 0.000000 0.313233 0.750000
Si Si4 0.941104 0.502623 0.397621
Si Si5 0.707974 0.775227 0.426329
O O1 0.670330 0.524701 0.710576
O O2 0.365769 0.300920 0.561489
O O3 0.379230 0.665445 0.594212
O O4 0.229007 0.552683 0.398776
O O5 0.985202 0.705411 0.079533
O O6 0.000119 0.814955 0.194410
O O7 0.755725 0.002524 0.960078
O O8 0.000000 0.500000 0.500000
O O9 0.063148 0.329635 0.445696
O O10 0.500000 0.731594 0.250000
#
# Coordination Sequence:
#
# PCOD8122554 Si02
#       5
#     4   4   2   4   4
#     4   9  21  41  60  84 119 159 195 244 294 347
#     4   9  23  38  58  90 117 156 199 241 293 352
#     4   8  20  44  62  78 122 164 198 238 290 358
#     4  11  22  38  61  92 121 154 200 247 301 351
#     4  11  22  37  62  90 119 158 192 249 305 344
#
# _framework density 18.199629999999999
#
# number of rings (size 3 to 8) (size 9 to 14) (size 15 to 20)
#    1.333    0.889    2.222    0.000    3.111    4.444 
#    0.000    1.111    0.000    0.000    0.000    0.000 
#    0.000    0.000    0.000    0.000    0.000    0.000 
#
# Total GULP energy -223092.680600 kJ/mol
# GULP energy per Si atom -12394.037811 kJ/mol
# Density = 1.815821 g / cm^3
# Si number density = 18.199630 Si / 1000 Ang^3
#
#
#
# Elastic Constant Matrix: (Units=GPa)
#
#
# Indices 1 2 3 4 5 6 
#
# 1 75.5179 19.2288 27.4375 0.0000 9.7358 0.0000
# 2 19.2288 97.9796 25.6939 0.0000 20.7199 0.0000
# 3 27.4375 25.6939 121.9511 0.0000 24.7445 0.0000
# 4 0.0000 0.0000 0.0000 20.1480 0.0000 -3.4836
# 5 9.7358 20.7199 24.7445 0.0000 37.3712 0.0000
# 6 0.0000 0.0000 0.0000 -3.4836 0.0000 22.1581
#
#
#
# Elastic Compliance Matrix: (Units=1/GPa)
#
#
# Indices 1 2 3 4 5 6 
#
# 1 0.014866 -0.001999 -0.002729 0.000000 -0.000957 0.000000
# 2 -0.001999 0.012015 -0.000965 0.000000 -0.005502 0.000000
# 3 -0.002729 -0.000965 0.010125 0.000000 -0.005458 0.000000
# 4 0.000000 0.000000 0.000000 0.051020 0.000000 0.008021
# 5 -0.000957 -0.005502 -0.005458 0.000000 0.033672 0.000000
# 6 0.000000 0.000000 0.000000 0.008021 0.000000 0.046391
#
#
# Mechanical properties :
#
#
# Convention : Reuss Voigt Hill
#
# Bulk Modulus (GPa) = 39.03481 48.90766 43.97123
# Shear Modulus (GPa) = 26.59348 30.80801 28.70075
#
# Velocity S-wave (km/s) = 3.82672 4.11881 3.97545
# Velocity P-wave (km/s) = 6.40467 7.03922 6.72943
#
# Compressibility (1/GPa) = 0.02561816
#
# Stress axis : x y z
#
# Youngs Moduli (GPa) = 67.26777 83.22818 98.76699
#
# Poissons Ratio (x) = 0.16640 0.26955
# Poissons Ratio (y) = 0.13449 0.09534
# Poissons Ratio (z) = 0.18359 0.08034
#
# Static dielectric constant tensor:
#      x y z
#    x 3.277290 0.000000 0.055120 
#    y 0.000000 3.133800 0.000000 
#    z 0.055120 0.000000 3.344390 
# 
# 
# High freq. dielectric constant tensor:
#      x y z
#    x 1.699770 0.000000 -0.000120 
#    y 0.000000 1.693520 0.000000 
#    z -0.000120 0.000000 1.706600 
# 
# From -- ./inp_files/91884.got.cif
#   From: 2010.06.25/outbox.cif.g09.slc.cpg/sg13_46_cif.got.tgz:91884.got - 2010.06.28 04:50:58.
