data_PCOD8122882
_publ_section_title
;
Structure prediction by ZEFSAII (Michael W. Deem and Ramdas Pophale) SiO2 
 PCOD8122882
Probable space group: P 2/C
;
_chemical_formula_sum "Si O2"
_cell_formula_units_Z 16
_cell_length_a 7.634991
_cell_length_b 7.338263
_cell_length_c 11.620772
_cell_angle_alpha 90.000000
_cell_angle_beta 92.862769
_cell_angle_gamma 90.000000
_cell_volume 650.271101
_symmetry_space_group_name_H-M "P 2/C"
_symmetry_group_IT_number 13
_symmetry_cell_setting 'monoclinic'
loop_
_space_group_symop_operation_xyz
x,y,z
-x,y,1/2-z
-x,-y,-z
x,-y,1/2+z
loop_
_atom_site_type_symbol
_atom_site_label
_atom_site_fract_x
_atom_site_fract_y
_atom_site_fract_z
Si Si1 0.826001 0.280930 0.783573
Si Si2 0.316302 0.799000 0.988523
Si Si3 0.302498 0.210088 0.958323
Si Si4 0.978996 0.335844 0.371682
O O1 0.714867 0.173770 0.875007
O O2 0.715468 0.317117 0.663537
O O3 0.899461 0.466140 0.844401
O O4 0.000000 0.167510 0.750000
O O5 0.514401 0.723853 0.978093
O O6 0.175743 0.656114 0.932269
O O7 0.304207 0.995307 0.927792
O O8 0.144277 0.235284 0.041988
O O9 0.000000 0.230763 0.250000
#
# Coordination Sequence:
#
# PCOD8122882 Si02
#       4
#     4   4   4   4
#     4  11  24  45  72 103 141 183 233 286 349 418
#     4  11  25  46  73 103 141 182 237 288 353 412
#     4  11  26  46  72 106 140 182 235 293 346 415
#     4  11  26  45  69 102 143 187 230 282 352 417
#
# _framework density 24.605122999999999
#
# number of rings (size 3 to 8) (size 9 to 14) (size 15 to 20)
#    0.000    1.000    2.500    2.250    7.000    2.000 
#    9.000    0.000    0.000    0.000    0.000    0.000 
#    0.000    0.000    0.000    0.000    0.000    0.000 
#
# Total GULP energy -198266.551328 kJ/mol
# GULP energy per Si atom -12391.659458 kJ/mol
# Density = 2.454912 g / cm^3
# Si number density = 24.605123 Si / 1000 Ang^3
#
#
#
# Elastic Constant Matrix: (Units=GPa)
#
#
# Indices 1 2 3 4 5 6 
#
# 1 156.6430 19.6565 55.5685 0.0000 34.7511 0.0000
# 2 19.6565 63.4326 20.9247 0.0000 20.1372 0.0000
# 3 55.5685 20.9247 158.2780 0.0000 13.5164 0.0000
# 4 0.0000 0.0000 0.0000 28.5048 0.0000 5.6124
# 5 34.7511 20.1372 13.5164 0.0000 43.6719 0.0000
# 6 0.0000 0.0000 0.0000 5.6124 0.0000 22.1529
#
#
#
# Elastic Compliance Matrix: (Units=1/GPa)
#
#
# Indices 1 2 3 4 5 6 
#
# 1 0.008624 0.000105 -0.002518 0.000000 -0.006132 0.000000
# 2 0.000105 0.018960 -0.001838 0.000000 -0.008257 0.000000
# 3 -0.002518 -0.001838 0.007397 0.000000 0.000562 0.000000
# 4 0.000000 0.000000 0.000000 0.036924 0.000000 -0.009355
# 5 -0.006132 -0.008257 0.000562 0.000000 0.031410 0.000000
# 6 0.000000 0.000000 0.000000 -0.009355 0.000000 0.047511
#
#
# Mechanical properties :
#
#
# Convention : Reuss Voigt Hill
#
# Bulk Modulus (GPa) = 37.76705 63.40589 50.58647
# Shear Modulus (GPa) = 29.73441 37.67953 33.70697
#
# Velocity S-wave (km/s) = 3.48007 3.91752 3.70525
# Velocity P-wave (km/s) = 5.61520 6.80352 6.23772
#
# Compressibility (1/GPa) = 0.02647811
#
# Stress axis : x y z
#
# Youngs Moduli (GPa) = 115.95038 52.74297 135.18866
#
# Poissons Ratio (x) = -0.00552 0.34042
# Poissons Ratio (y) = -0.01213 0.24850
# Poissons Ratio (z) = 0.29197 0.09695
#
# Static dielectric constant tensor:
#      x y z
#    x 4.795770 0.000000 -0.157270 
#    y 0.000000 3.941700 0.000000 
#    z -0.157270 0.000000 5.063130 
# 
# 
# High freq. dielectric constant tensor:
#      x y z
#    x 1.991010 0.000000 -0.002690 
#    y 0.000000 1.949440 0.000000 
#    z -0.002690 0.000000 1.993600 
# 
# From -- ./inp_files/27733.got.cif
#   From: 2010.06.25/outbox.cif.g09.slc.cpg/sg13_14_cif.got.tgz:27733.got - 2010.06.28 04:50:58.
