data_PCOD8122607
_publ_section_title
;
Structure prediction by ZEFSAII (Michael W. Deem and Ramdas Pophale) SiO2 
 PCOD8122607
Probable space group: P 2/C
;
_chemical_formula_sum "Si O2"
_cell_formula_units_Z 22
_cell_length_a 22.141623
_cell_length_b 9.797340
_cell_length_c 14.384053
_cell_angle_alpha 90.000000
_cell_angle_beta 160.217874
_cell_angle_gamma 90.000000
_cell_volume 1056.054232
_symmetry_space_group_name_H-M "P 2/C"
_symmetry_group_IT_number 13
_symmetry_cell_setting 'monoclinic'
loop_
_space_group_symop_operation_xyz
x,y,z
-x,y,1/2-z
-x,-y,-z
x,-y,1/2+z
loop_
_atom_site_type_symbol
_atom_site_label
_atom_site_fract_x
_atom_site_fract_y
_atom_site_fract_z
Si Si1 0.494478 0.415605 0.397699
Si Si2 0.668577 0.143946 0.706061
Si Si3 0.781263 0.390615 0.250648
Si Si4 0.442785 0.117839 0.558663
Si Si5 0.871377 0.487588 0.188219
Si Si6 0.000000 0.270663 0.250000
O O1 0.500000 0.500000 0.500000
O O2 0.543544 0.258356 0.479984
O O3 0.634722 0.489534 0.533868
O O4 0.297714 0.413879 0.068038
O O5 0.611139 0.125387 0.731531
O O6 0.662780 0.013605 0.630493
O O7 0.878362 0.180056 0.006018
O O8 0.871545 0.395330 0.281061
O O9 0.944386 0.425587 0.557686
O O10 0.688295 0.247824 0.141907
O O11 0.500000 0.104198 0.750000
O O12 0.856605 0.368631 0.091287
#
# Coordination Sequence:
#
# PCOD8122607 Si02
#       6
#     4   4   4   4   4   2
#     4  12  20  40  67  92 128 167 214 275 325 384
#     4  11  25  42  69  95 127 181 218 262 342 390
#     4  11  22  41  65  98 127 170 220 271 331 388
#     4  11  24  47  65  93 135 175 218 271 327 399
#     4  11  23  36  69  99 127 168 222 274 330 389
#     4  12  20  44  62  94 132 166 212 280 320 398
#
# _framework density 20.832263000000001
#
# number of rings (size 3 to 8) (size 9 to 14) (size 15 to 20)
#    0.000    0.727    5.455    2.727    0.000    1.455 
#    6.545    1.818    0.000    0.000    0.000    0.000 
#    0.000    0.000    0.000    0.000    0.000    0.000 
#
# Total GULP energy -272669.563565 kJ/mol
# GULP energy per Si atom -12394.071071 kJ/mol
# Density = 2.078485 g / cm^3
# Si number density = 20.832263 Si / 1000 Ang^3
#
#
#
# Elastic Constant Matrix: (Units=GPa)
#
#
# Indices 1 2 3 4 5 6 
#
# 1 69.0317 40.2451 18.6068 0.0000 -2.7581 0.0000
# 2 40.2451 116.5622 52.0741 0.0000 -10.4757 0.0000
# 3 18.6068 52.0741 162.1686 0.0000 6.2548 0.0000
# 4 0.0000 0.0000 0.0000 34.2299 0.0000 -3.6499
# 5 -2.7581 -10.4757 6.2548 0.0000 25.7641 0.0000
# 6 0.0000 0.0000 0.0000 -3.6499 0.0000 24.2561
#
#
#
# Elastic Compliance Matrix: (Units=1/GPa)
#
#
# Indices 1 2 3 4 5 6 
#
# 1 0.018147 -0.006306 -0.000034 0.000000 -0.000613 0.000000
# 2 -0.006306 0.012859 -0.003615 0.000000 0.005431 0.000000
# 3 -0.000034 -0.003615 0.007458 0.000000 -0.003284 0.000000
# 4 0.000000 0.000000 0.000000 0.029691 0.000000 0.004468
# 5 -0.000613 0.005431 -0.003284 0.000000 0.041754 0.000000
# 6 0.000000 0.000000 0.000000 0.004468 0.000000 0.041899
#
#
# Mechanical properties :
#
#
# Convention : Reuss Voigt Hill
#
# Bulk Modulus (GPa) = 53.89375 63.29051 58.59213
# Shear Modulus (GPa) = 28.10541 32.63911 30.37226
#
# Velocity S-wave (km/s) = 3.67703 3.96252 3.82244
# Velocity P-wave (km/s) = 6.62978 7.16815 6.90421
#
# Compressibility (1/GPa) = 0.01855503
#
# Stress axis : x y z
#
# Youngs Moduli (GPa) = 55.10622 77.76363 134.08636
#
# Poissons Ratio (x) = 0.49034 0.00452
# Poissons Ratio (y) = 0.34747 0.48477
# Poissons Ratio (z) = 0.00186 0.28114
#
# Static dielectric constant tensor:
#      x y z
#    x 4.004460 0.000000 0.068090 
#    y 0.000000 3.764870 0.000000 
#    z 0.068090 0.000000 3.965540 
# 
# 
# High freq. dielectric constant tensor:
#      x y z
#    x 1.823000 0.000000 0.002380 
#    y 0.000000 1.805430 0.000000 
#    z 0.002380 0.000000 1.822740 
# 
# From -- ./inp_files/58744.got.cif
#   From: 2010.06.25/outbox.cif.g09.slc.cpg/sg13_30_cif.got.tgz:58744.got - 2010.06.28 04:50:58.
