data_PCOD8122419
_publ_section_title
;
Structure prediction by ZEFSAII (Michael W. Deem and Ramdas Pophale) SiO2 
 PCOD8122419
Probable space group: P 2/C
;
_chemical_formula_sum "Si O2"
_cell_formula_units_Z 30
_cell_length_a 19.681587
_cell_length_b 12.126179
_cell_length_c 25.311570
_cell_angle_alpha 90.000000
_cell_angle_beta 12.664398
_cell_angle_gamma 90.000000
_cell_volume 1324.411523
_symmetry_space_group_name_H-M "P 2/C"
_symmetry_group_IT_number 13
_symmetry_cell_setting 'monoclinic'
loop_
_space_group_symop_operation_xyz
x,y,z
-x,y,1/2-z
-x,-y,-z
x,-y,1/2+z
loop_
_atom_site_type_symbol
_atom_site_label
_atom_site_fract_x
_atom_site_fract_y
_atom_site_fract_z
Si Si1 0.339469 0.025601 0.763386
Si Si2 0.971255 0.232510 0.652303
Si Si3 0.834618 0.532084 0.509080
Si Si4 0.251076 0.542101 0.605063
Si Si5 0.321623 0.262074 0.738391
Si Si6 0.500000 0.063944 0.250000
Si Si7 0.338042 0.812566 0.014226
Si Si8 0.247314 0.618390 0.815702
O O1 0.438723 0.150928 0.676887
O O2 0.369122 0.013419 0.803479
O O3 0.568829 0.939714 0.561536
O O4 0.000000 0.000000 0.000000
O O5 0.865028 0.226921 0.672512
O O6 0.665542 0.217586 0.920640
O O7 0.138016 0.347937 0.538271
O O8 0.214289 0.138839 0.485892
O O9 0.866757 0.542250 0.548173
O O10 0.099366 0.460028 0.278879
O O11 0.500000 0.480337 0.750000
O O12 0.376160 0.665504 0.502801
O O13 0.539608 0.455520 0.384456
O O14 0.000000 0.513064 0.750000
O O15 0.079284 0.332555 0.959551
O O16 0.000000 0.788359 0.250000
O O17 0.565186 0.729434 0.810268
#
# Coordination Sequence:
#
# PCOD8122419 Si02
#       8
#     4   4   4   4   4   2   4   4
#     4  12  24  46  71 103 149 189 237 306 372 438
#     4  11  22  39  71 109 138 176 245 305 365 426
#     4  11  20  37  69 102 137 182 239 303 356 423
#     4  12  25  45  69  99 147 196 243 298 367 446
#     4  11  27  47  67 102 152 191 239 304 371 445
#     4  12  22  44  76 108 140 194 248 302 372 444
#     4  12  22  39  72 108 138 179 241 311 366 425
#     4  11  22  42  72 103 137 186 243 305 367 427
#
# _framework density 22.65157
#
# number of rings (size 3 to 8) (size 9 to 14) (size 15 to 20)
#    0.000    0.533    7.333    2.400    0.000    3.200 
#    2.400    1.333    0.000    0.000    0.000    0.000 
#    0.000    0.000    0.000    0.000    0.000    0.000 
#
# Total GULP energy -371893.555351 kJ/mol
# GULP energy per Si atom -12396.451845 kJ/mol
# Density = 2.260001 g / cm^3
# Si number density = 22.651570 Si / 1000 Ang^3
#
#
#
# Elastic Constant Matrix: (Units=GPa)
#
#
# Indices 1 2 3 4 5 6 
#
# 1 66.8952 16.6312 29.6122 0.0000 5.2058 0.0000
# 2 16.6312 141.2648 54.4283 0.0000 5.5912 0.0000
# 3 29.6122 54.4283 122.9175 0.0000 20.6682 0.0000
# 4 0.0000 0.0000 0.0000 37.9104 0.0000 6.7415
# 5 5.2058 5.5912 20.6682 0.0000 36.8209 0.0000
# 6 0.0000 0.0000 0.0000 6.7415 0.0000 23.9168
#
#
#
# Elastic Compliance Matrix: (Units=1/GPa)
#
#
# Indices 1 2 3 4 5 6 
#
# 1 0.016764 -0.000509 -0.003785 0.000000 -0.000168 0.000000
# 2 -0.000509 0.008578 -0.003831 0.000000 0.000919 0.000000
# 3 -0.003785 -0.003831 0.011656 0.000000 -0.005426 0.000000
# 4 0.000000 0.000000 0.000000 0.027770 0.000000 -0.007828
# 5 -0.000168 0.000919 -0.005426 0.000000 0.030088 0.000000
# 6 0.000000 0.000000 0.000000 -0.007828 0.000000 0.044018
#
#
# Mechanical properties :
#
#
# Convention : Reuss Voigt Hill
#
# Bulk Modulus (GPa) = 48.19385 59.15788 53.67587
# Shear Modulus (GPa) = 30.85672 35.09003 32.97338
#
# Velocity S-wave (km/s) = 3.69485 3.94016 3.81947
# Velocity P-wave (km/s) = 6.28688 6.84638 6.57259
#
# Compressibility (1/GPa) = 0.02074953
#
# Stress axis : x y z
#
# Youngs Moduli (GPa) = 59.65223 116.57354 85.79310
#
# Poissons Ratio (x) = 0.05929 0.32474
# Poissons Ratio (y) = 0.03034 0.32864
# Poissons Ratio (z) = 0.22579 0.44654
#
# Static dielectric constant tensor:
#      x y z
#    x 4.061260 0.000000 0.248800 
#    y 0.000000 4.266620 0.000000 
#    z 0.248800 0.000000 4.467150 
# 
# 
# High freq. dielectric constant tensor:
#      x y z
#    x 1.877430 0.000000 0.008870 
#    y 0.000000 1.886680 0.000000 
#    z 0.008870 0.000000 1.906900 
# 
# From -- ./inp_files/97740.got.cif
#   From: 2010.06.25/outbox.cif.g09.slc.cpg/sg13_49_cif.got.tgz:97740.got - 2010.06.28 04:50:58.
