data_PCOD8122565
_publ_section_title
;
Structure prediction by ZEFSAII (Michael W. Deem and Ramdas Pophale) SiO2 
 PCOD8122565
Probable space group: P 2/C
;
_chemical_formula_sum "Si O2"
_cell_formula_units_Z 24
_cell_length_a 17.751629
_cell_length_b 9.570217
_cell_length_c 19.269921
_cell_angle_alpha 90.000000
_cell_angle_beta 22.896472
_cell_angle_gamma 90.000000
_cell_volume 1273.692473
_symmetry_space_group_name_H-M "P 2/C"
_symmetry_group_IT_number 13
_symmetry_cell_setting 'monoclinic'
loop_
_space_group_symop_operation_xyz
x,y,z
-x,y,1/2-z
-x,-y,-z
x,-y,1/2+z
loop_
_atom_site_type_symbol
_atom_site_label
_atom_site_fract_x
_atom_site_fract_y
_atom_site_fract_z
Si Si1 0.089047 0.493505 0.749999
Si Si2 0.910525 0.819938 0.250000
Si Si3 0.208987 0.295876 0.953319
Si Si4 0.543819 0.994087 0.043453
Si Si5 0.130724 0.994088 0.456548
Si Si6 0.615620 0.295878 0.546685
O O1 0.122613 0.337682 0.749999
O O2 0.292173 0.576230 0.574331
O O3 0.000000 0.481907 0.750000
O O4 0.940841 0.576233 0.925663
O O5 0.000000 0.823667 0.250000
O O6 0.702360 0.892005 0.428727
O O7 0.059813 0.892003 0.071274
O O8 0.107626 0.158711 0.009062
O O9 0.396531 0.339005 0.750002
O O10 0.263113 0.263368 0.986887
O O11 0.353470 0.026899 0.250000
O O12 0.625748 0.841287 0.990939
O O13 0.500000 0.000000 0.000000
O O14 0.000000 0.000000 0.500000
#
# Coordination Sequence:
#
# PCOD8122565 Si02
#       6
#     4   4   4   4   4   4
#     4   9  19  35  57  85 117 149 188 239 290 344
#     4  11  23  39  61  91 120 151 194 243 295 350
#     4   9  18  34  58  83 108 148 198 239 284 346
#     4  11  22  38  61  85 121 156 196 245 295 342
#     4  11  22  38  61  85 121 156 196 245 295 342
#     4   9  18  34  58  83 108 148 198 239 284 346
#
# _framework density 18.842853999999999
#
# number of rings (size 3 to 8) (size 9 to 14) (size 15 to 20)
#    0.000    2.000    1.667    2.000    0.000    4.667 
#    0.000    5.000    0.000    0.000    0.000    0.000 
#    0.000    0.000    0.000    0.000    0.000    0.000 
#
# Total GULP energy -297659.743651 kJ/mol
# GULP energy per Si atom -12402.489319 kJ/mol
# Density = 1.879997 g / cm^3
# Si number density = 18.842854 Si / 1000 Ang^3
#
#
#
# Elastic Constant Matrix: (Units=GPa)
#
#
# Indices 1 2 3 4 5 6 
#
# 1 78.6950 54.3970 36.6681 0.0000 -0.5675 0.0000
# 2 54.3970 179.0016 102.6526 0.0000 -3.8301 0.0000
# 3 36.6681 102.6526 139.1362 0.0000 -4.2296 0.0000
# 4 0.0000 0.0000 0.0000 16.5943 0.0000 -1.3317
# 5 -0.5675 -3.8301 -4.2296 0.0000 24.8814 0.0000
# 6 0.0000 0.0000 0.0000 -1.3317 0.0000 -0.1690
#
#
#
# Elastic Compliance Matrix: (Units=1/GPa)
#
#
# Indices 1 2 3 4 5 6 
#
# 1 0.016189 -0.004290 -0.001116 0.000000 -0.000481 0.000000
# 2 -0.004290 0.010822 -0.006842 0.000000 0.000405 0.000000
# 3 -0.001116 -0.006842 0.012561 0.000000 0.001057 0.000000
# 4 0.000000 0.000000 0.000000 0.036922 0.000000 -0.290846
# 5 -0.000481 0.000405 0.001057 0.000000 0.040422 0.000000
# 6 0.000000 0.000000 0.000000 -0.290846 0.000000 -3.624352
#
#
# Mechanical properties :
#
#
# Convention : Reuss Voigt Hill
#
# Bulk Modulus (GPa) = 66.32491 87.14092 76.73291
# Shear Modulus (GPa) = -1.43764 21.80233 10.18234
#
# Velocity S-wave (km/s) = -0.87443 3.40525 2.32713
# Velocity P-wave (km/s) = 5.85285 7.86177 6.93049
#
# Compressibility (1/GPa) = 0.01507729
#
# Stress axis : x y z
#
# Youngs Moduli (GPa) = 61.76926 92.40031 79.61048
#
# Poissons Ratio (x) = 0.39640 0.08885
# Poissons Ratio (y) = 0.26499 0.54467
# Poissons Ratio (z) = 0.06894 0.63218
#
# Static dielectric constant tensor:
#      x y z
#    x 3.303710 0.000000 -0.029380 
#    y 0.000000 3.665980 0.000000 
#    z -0.029380 0.000000 3.673810 
# 
# 
# High freq. dielectric constant tensor:
#      x y z
#    x 1.717460 0.000000 -0.002550 
#    y 0.000000 1.732770 0.000000 
#    z -0.002550 0.000000 1.749580 
# 
# From -- ./inp_files/81650.got.cif
#   From: 2010.06.25/outbox.cif.g09.slc.cpg/sg13_41_cif.got.tgz:81650.got - 2010.06.28 04:50:58.
