data_PCOD8122704
_publ_section_title
;
Structure prediction by ZEFSAII (Michael W. Deem and Ramdas Pophale) SiO2 
 PCOD8122704
Probable space group: P 2/C
;
_chemical_formula_sum "Si O2"
_cell_formula_units_Z 26
_cell_length_a 8.452082
_cell_length_b 13.093000
_cell_length_c 12.770930
_cell_angle_alpha 90.000000
_cell_angle_beta 60.370048
_cell_angle_gamma 90.000000
_cell_volume 1228.466724
_symmetry_space_group_name_H-M "P 2/C"
_symmetry_group_IT_number 13
_symmetry_cell_setting 'monoclinic'
loop_
_space_group_symop_operation_xyz
x,y,z
-x,y,1/2-z
-x,-y,-z
x,-y,1/2+z
loop_
_atom_site_type_symbol
_atom_site_label
_atom_site_fract_x
_atom_site_fract_y
_atom_site_fract_z
Si Si1 0.615982 0.638234 0.558580
Si Si2 0.271125 0.157600 0.943656
Si Si3 0.500000 0.308391 0.750000
Si Si4 0.075993 0.735120 0.902457
Si Si5 0.000000 0.598946 0.750000
Si Si6 0.500000 0.999433 0.750000
Si Si7 0.339274 0.464680 0.674308
Si Si8 0.647391 0.167664 0.346542
O O1 0.798195 0.665027 0.564257
O O2 0.512071 0.539060 0.637868
O O3 0.666421 0.604473 0.426706
O O4 0.489053 0.737422 0.601655
O O5 0.420150 0.244901 0.872513
O O6 0.326354 0.065156 0.847816
O O7 0.279761 0.132647 0.064071
O O8 0.063962 0.194266 0.984867
O O9 0.334510 0.380327 0.766445
O O10 0.193662 0.804541 0.786062
O O11 0.945824 0.666377 0.869246
O O12 0.835596 0.533252 0.763340
O O13 0.450327 0.931853 0.666377
#
# Coordination Sequence:
#
# PCOD8122704 Si02
#       8
#     4   4   2   4   2   2   4   4
#     4  11  23  41  67  96 135 179 224 267 329 395
#     4  11  25  45  66 101 128 172 225 279 342 391
#     4  11  24  43  64  88 148 177 214 277 330 390
#     4  12  23  41  69  96 137 174 222 282 323 395
#     4  12  24  38  64 100 136 180 230 264 320 388
#     4  11  26  43  78  94 126 175 224 279 350 412
#     4  11  24  40  63  99 135 184 225 263 321 398
#     4  12  21  47  68  95 130 171 220 278 341 398
#
# _framework density 21.164594999999998
#
# number of rings (size 3 to 8) (size 9 to 14) (size 15 to 20)
#    0.000    0.615    6.154    1.385    4.308    1.231 
#    0.000    0.000    0.000    0.000    0.000    0.000 
#    0.000    0.000    0.000    0.000    0.000    0.000 
#
# Total GULP energy -322225.432306 kJ/mol
# GULP energy per Si atom -12393.285858 kJ/mol
# Density = 2.111642 g / cm^3
# Si number density = 21.164595 Si / 1000 Ang^3
#
#
#
# Elastic Constant Matrix: (Units=GPa)
#
#
# Indices 1 2 3 4 5 6 
#
# 1 89.2152 30.2458 28.2828 0.0000 2.9812 0.0000
# 2 30.2458 95.6446 46.1167 0.0000 8.8177 0.0000
# 3 28.2828 46.1167 92.0397 0.0000 -3.0196 0.0000
# 4 0.0000 0.0000 0.0000 19.7901 0.0000 19.9103
# 5 2.9812 8.8177 -3.0196 0.0000 27.9363 0.0000
# 6 0.0000 0.0000 0.0000 19.9103 0.0000 -33.3026
#
#
#
# Elastic Compliance Matrix: (Units=1/GPa)
#
#
# Indices 1 2 3 4 5 6 
#
# 1 0.013010 -0.002769 -0.002637 0.000000 -0.000799 0.000000
# 2 -0.002769 0.015145 -0.006909 0.000000 -0.005231 0.000000
# 3 -0.002637 -0.006909 0.015272 0.000000 0.004113 0.000000
# 4 0.000000 0.000000 0.000000 0.031552 0.000000 0.018864
# 5 -0.000799 -0.005231 0.004113 0.000000 0.037977 0.000000
# 6 0.000000 0.000000 0.000000 0.018864 0.000000 -0.018750
#
#
# Mechanical properties :
#
#
# Convention : Reuss Voigt Hill
#
# Bulk Modulus (GPa) = 53.19979 54.02113 53.61046
# Shear Modulus (GPa) = 39.96774 14.36838 27.16806
#
# Velocity S-wave (km/s) = 4.35032 2.60837 3.58670
# Velocity P-wave (km/s) = 7.10102 5.88653 6.52210
#
# Compressibility (1/GPa) = 0.01879707
#
# Stress axis : x y z
#
# Youngs Moduli (GPa) = 76.86249 66.02990 65.48045
#
# Poissons Ratio (x) = 0.18286 0.17264
# Poissons Ratio (y) = 0.21285 0.45240
# Poissons Ratio (z) = 0.20265 0.45620
#
# Static dielectric constant tensor:
#      x y z
#    x 3.830110 0.000000 0.085600 
#    y 0.000000 4.011100 0.000000 
#    z 0.085600 0.000000 3.875380 
# 
# 
# High freq. dielectric constant tensor:
#      x y z
#    x 1.825960 0.000000 0.010080 
#    y 0.000000 1.836080 0.000000 
#    z 0.010080 0.000000 1.830520 
# 
# From -- ./inp_files/46841.got.cif
#   From: 2010.06.25/outbox.cif.g09.slc.cpg/sg13_24_cif.got.tgz:46841.got - 2010.06.28 04:50:58.
