data_PCOD8122194
_publ_section_title
;
Structure prediction by ZEFSAII (Michael W. Deem and Ramdas Pophale) SiO2 
 PCOD8122194
Probable space group: P 2/C
;
_chemical_formula_sum "Si O2"
_cell_formula_units_Z 16
_cell_length_a 12.168485
_cell_length_b 12.664491
_cell_length_c 4.975525
_cell_angle_alpha 90.000000
_cell_angle_beta 103.031264
_cell_angle_gamma 90.000000
_cell_volume 747.020152
_symmetry_space_group_name_H-M "P 2/C"
_symmetry_group_IT_number 13
_symmetry_cell_setting 'monoclinic'
loop_
_space_group_symop_operation_xyz
x,y,z
-x,y,1/2-z
-x,-y,-z
x,-y,1/2+z
loop_
_atom_site_type_symbol
_atom_site_label
_atom_site_fract_x
_atom_site_fract_y
_atom_site_fract_z
Si Si1 0.316515 0.271396 0.804049
Si Si2 0.500000 0.175453 0.250000
Si Si3 0.348778 0.932244 0.018411
Si Si4 0.870303 0.430036 0.657931
Si Si5 0.500000 0.574771 0.250000
O O1 0.284663 0.170508 0.599112
O O2 0.201078 0.324189 0.836761
O O3 0.389172 0.352889 0.667943
O O4 0.389971 0.243691 0.112281
O O5 0.478619 0.105044 0.512257
O O6 0.318753 0.030636 0.195065
O O7 0.841371 0.477442 0.351955
O O8 0.000000 0.394937 0.750000
O O9 0.500000 0.500000 0.500000
#
# Coordination Sequence:
#
# PCOD8122194 Si02
#       5
#     4   2   4   4   2
#     4  12  25  39  65  94 132 166 213 256 323 376
#     4  12  23  39  58  96 132 170 207 253 318 378
#     4  12  25  40  61  91 132 173 215 257 307 384
#     4  10  24  46  70  94 123 168 220 264 310 375
#     4  12  25  37  54  88 130 160 191 247 320 376
#
# _framework density 21.418429
#
# number of rings (size 3 to 8) (size 9 to 14) (size 15 to 20)
#    0.000    0.500    5.000    3.000    3.500    0.000 
#    0.000    0.000    0.000    1.500    0.000    0.000 
#    0.000    0.000    0.000    0.000    0.000    0.000 
#
# Total GULP energy -198216.054509 kJ/mol
# GULP energy per Si atom -12388.503407 kJ/mol
# Density = 2.136968 g / cm^3
# Si number density = 21.418429 Si / 1000 Ang^3
#
#
#
# Elastic Constant Matrix: (Units=GPa)
#
#
# Indices 1 2 3 4 5 6 
#
# 1 110.7813 64.9104 38.1267 0.0000 -13.9626 0.0000
# 2 64.9104 135.0253 45.8551 0.0000 -14.7178 0.0000
# 3 38.1267 45.8551 113.9735 0.0000 -23.8069 0.0000
# 4 0.0000 0.0000 0.0000 17.2374 0.0000 -5.2934
# 5 -13.9626 -14.7178 -23.8069 0.0000 27.6741 0.0000
# 6 0.0000 0.0000 0.0000 -5.2934 0.0000 23.9089
#
#
#
# Elastic Compliance Matrix: (Units=1/GPa)
#
#
# Indices 1 2 3 4 5 6 
#
# 1 0.013106 -0.005475 -0.001717 0.000000 0.002224 0.000000
# 2 -0.005475 0.010952 -0.002359 0.000000 0.001033 0.000000
# 3 -0.001717 -0.002359 0.012013 0.000000 0.008214 0.000000
# 4 0.000000 0.000000 0.000000 0.062245 0.000000 0.013781
# 5 0.002224 0.001033 0.008214 0.000000 0.044872 0.000000
# 6 0.000000 0.000000 0.000000 0.013781 0.000000 0.044876
#
#
# Mechanical properties :
#
#
# Convention : Reuss Voigt Hill
#
# Bulk Modulus (GPa) = 58.93158 73.06270 65.99714
# Shear Modulus (GPa) = 23.49377 27.82327 25.65852
#
# Velocity S-wave (km/s) = 3.31553 3.60812 3.46492
# Velocity P-wave (km/s) = 6.49855 7.17943 6.84746
#
# Compressibility (1/GPa) = 0.01696883
#
# Stress axis : x y z
#
# Youngs Moduli (GPa) = 76.30146 91.31052 83.24240
#
# Poissons Ratio (x) = 0.49991 0.14293
# Poissons Ratio (y) = 0.41774 0.19637
# Poissons Ratio (z) = 0.13101 0.21540
#
# Static dielectric constant tensor:
#      x y z
#    x 3.581020 0.000000 -0.383940 
#    y 0.000000 5.034150 0.000000 
#    z -0.383940 0.000000 3.986600 
# 
# 
# High freq. dielectric constant tensor:
#      x y z
#    x 1.784350 0.000000 -0.040810 
#    y 0.000000 1.860230 0.000000 
#    z -0.040810 0.000000 1.862210 
# 
# From -- ./inp_files/3025.got.cif
#   From: 2010.06.25/outbox.cif.g09.slc.cpg/sg13_2_cif.got.tgz:3025.got - 2010.06.28 04:50:58.
