data_PCOD8122238
_publ_section_title
;
Structure prediction by ZEFSAII (Michael W. Deem and Ramdas Pophale) SiO2 
 PCOD8122238
Probable space group: P 2/C
;
_chemical_formula_sum "Si O2"
_cell_formula_units_Z 32
_cell_length_a 28.979616
_cell_length_b 5.472882
_cell_length_c 16.474779
_cell_angle_alpha 90.000000
_cell_angle_beta 147.195548
_cell_angle_gamma 90.000000
_cell_volume 1415.618028
_symmetry_space_group_name_H-M "P 2/C"
_symmetry_group_IT_number 13
_symmetry_cell_setting 'monoclinic'
loop_
_space_group_symop_operation_xyz
x,y,z
-x,y,1/2-z
-x,-y,-z
x,-y,1/2+z
loop_
_atom_site_type_symbol
_atom_site_label
_atom_site_fract_x
_atom_site_fract_y
_atom_site_fract_z
Si Si1 0.740545 0.945090 0.931803
Si Si2 0.849289 0.035768 0.335622
Si Si3 0.140975 0.304094 0.308756
Si Si4 0.967128 0.250139 0.120244
Si Si5 0.264122 0.318693 0.914278
Si Si6 0.191240 0.409946 0.091878
Si Si7 0.412737 0.986333 0.918299
Si Si8 0.359259 0.525640 0.411356
O O1 0.701898 0.845366 0.960376
O O2 0.797635 0.188818 0.030795
O O3 0.803975 0.749447 0.983302
O O4 0.663079 0.004659 0.758679
O O5 0.932455 0.944108 0.505513
O O6 0.774428 0.836790 0.217703
O O7 0.877380 0.100635 0.286440
O O8 0.808040 0.254694 0.324220
O O9 0.186452 0.528722 0.334651
O O10 0.048947 0.391405 0.204576
O O11 0.000000 0.111315 0.250000
O O12 0.894473 0.436967 0.040111
O O13 0.336850 0.477328 0.975879
O O14 0.277965 0.561867 0.231166
O O15 0.414055 0.228089 0.977196
O O16 0.406857 0.731101 0.960634
O O17 0.500000 0.000000 0.000000
#
# Coordination Sequence:
#
# PCOD8122238 Si02
#       8
#     4   4   4   4   4   4   4   4
#     4  10  25  40  71  94 141 175 237 285 356 416
#     4  11  22  41  59  89 133 179 241 282 352 401
#     4  11  24  40  62  94 135 183 232 296 343 411
#     4  12  25  36  59  89 137 177 248 294 339 391
#     4  11  22  42  68  99 131 185 232 276 356 418
#     4  11  23  41  63  93 129 190 229 287 342 409
#     4  11  26  48  79 109 139 180 231 288 356 432
#     4  11  23  44  77 100 142 182 231 278 352 433
#
# _framework density 22.604968
#
# number of rings (size 3 to 8) (size 9 to 14) (size 15 to 20)
#    0.000    1.000    2.500    3.750    7.000    5.500 
#    0.000    0.625    0.000    0.000    0.000    0.000 
#    0.000    0.000    0.000    0.000    0.000    0.000 
#
# Total GULP energy -396677.288299 kJ/mol
# GULP energy per Si atom -12396.165259 kJ/mol
# Density = 2.255352 g / cm^3
# Si number density = 22.604968 Si / 1000 Ang^3
#
#
#
# Elastic Constant Matrix: (Units=GPa)
#
#
# Indices 1 2 3 4 5 6 
#
# 1 67.8391 -5.4592 13.2084 0.0000 19.5871 0.0000
# 2 -5.4592 76.8121 7.3051 0.0000 14.6346 0.0000
# 3 13.2084 7.3051 41.7422 0.0000 6.8614 0.0000
# 4 0.0000 0.0000 0.0000 17.9260 0.0000 4.1032
# 5 19.5871 14.6346 6.8614 0.0000 41.2501 0.0000
# 6 0.0000 0.0000 0.0000 4.1032 0.0000 39.8910
#
#
#
# Elastic Compliance Matrix: (Units=1/GPa)
#
#
# Indices 1 2 3 4 5 6 
#
# 1 0.018693 0.003579 -0.005011 0.000000 -0.009313 0.000000
# 2 0.003579 0.014763 -0.002648 0.000000 -0.006497 0.000000
# 3 -0.005011 -0.002648 0.026176 0.000000 -0.001035 0.000000
# 4 0.000000 0.000000 0.000000 0.057130 0.000000 -0.005876
# 5 -0.009313 -0.006497 -0.001035 0.000000 0.031141 0.000000
# 6 0.000000 0.000000 0.000000 -0.005876 0.000000 0.025673
#
#
# Mechanical properties :
#
#
# Convention : Reuss Voigt Hill
#
# Bulk Modulus (GPa) = 19.42781 24.05577 21.74179
# Shear Modulus (GPa) = 25.13916 31.23601 28.18759
#
# Velocity S-wave (km/s) = 3.33845 3.72132 3.53507
# Velocity P-wave (km/s) = 4.84494 5.39715 5.12848
#
# Compressibility (1/GPa) = 0.05147260
#
# Stress axis : x y z
#
# Youngs Moduli (GPa) = 53.49526 67.73775 38.20338
#
# Poissons Ratio (x) = -0.24246 0.19143
# Poissons Ratio (y) = -0.19148 0.10117
# Poissons Ratio (z) = 0.26805 0.17939
#
# Static dielectric constant tensor:
#      x y z
#    x 4.404440 0.000000 -0.146410 
#    y 0.000000 4.128350 0.000000 
#    z -0.146410 0.000000 3.820860 
# 
# 
# High freq. dielectric constant tensor:
#      x y z
#    x 1.912630 0.000000 -0.012850 
#    y 0.000000 1.892200 0.000000 
#    z -0.012850 0.000000 1.863000 
# 
# From -- ./inp_files/72233.got.cif
#   From: 2010.06.25/outbox.cif.g09.slc.cpg/sg13_37_cif.got.tgz:72233.got - 2010.06.28 04:50:58.
