data_PCOD8122639
_publ_section_title
;
Structure prediction by ZEFSAII (Michael W. Deem and Ramdas Pophale) SiO2 
 PCOD8122639
Probable space group: P 2/C
;
_chemical_formula_sum "Si O2"
_cell_formula_units_Z 22
_cell_length_a 11.009834
_cell_length_b 6.343336
_cell_length_c 14.004857
_cell_angle_alpha 90.000000
_cell_angle_beta 77.433263
_cell_angle_gamma 90.000000
_cell_volume 954.654500
_symmetry_space_group_name_H-M "P 2/C"
_symmetry_group_IT_number 13
_symmetry_cell_setting 'monoclinic'
loop_
_space_group_symop_operation_xyz
x,y,z
-x,y,1/2-z
-x,-y,-z
x,-y,1/2+z
loop_
_atom_site_type_symbol
_atom_site_label
_atom_site_fract_x
_atom_site_fract_y
_atom_site_fract_z
Si Si1 0.871405 0.878062 0.518878
Si Si2 0.293058 0.267409 0.945771
Si Si3 0.500000 0.250373 0.250000
Si Si4 0.768085 0.579994 0.686816
Si Si5 0.458259 0.910023 0.107703
Si Si6 0.240434 0.408524 0.610610
O O1 0.845551 0.773801 0.627530
O O2 0.867992 0.702606 0.434454
O O3 0.763264 0.043836 0.512731
O O4 0.000000 0.000000 0.500000
O O5 0.203524 0.373377 0.882126
O O6 0.427608 0.232367 0.874652
O O7 0.309124 0.416349 0.035348
O O8 0.380950 0.386404 0.302814
O O9 0.437916 0.109480 0.178408
O O10 0.813114 0.530245 0.786908
O O11 0.335974 0.768313 0.128857
O O12 0.500000 0.000000 0.000000
#
# Coordination Sequence:
#
# PCOD8122639 Si02
#       6
#     4   4   2   4   4   4
#     4  11  26  49  71  95 139 189 234 293 342 396
#     4  11  22  44  65  98 142 179 221 290 347 406
#     4  12  22  38  68 104 146 176 220 292 350 418
#     4  11  24  42  68 104 137 182 231 283 351 414
#     4  12  20  37  67 101 141 178 220 275 360 415
#     4  11  24  40  71 103 135 182 234 281 346 427
#
# _framework density 23.044986999999999
#
# number of rings (size 3 to 8) (size 9 to 14) (size 15 to 20)
#    0.000    0.727    3.636    4.909    0.000    2.909 
#    0.000    5.455    0.000    0.000    0.000    0.000 
#    0.000    0.000    0.000    0.000    0.000    0.000 
#
# Total GULP energy -272755.640875 kJ/mol
# GULP energy per Si atom -12397.983676 kJ/mol
# Density = 2.299254 g / cm^3
# Si number density = 23.044987 Si / 1000 Ang^3
#
#
#
# Elastic Constant Matrix: (Units=GPa)
#
#
# Indices 1 2 3 4 5 6 
#
# 1 93.3594 28.2407 29.8992 0.0000 -4.1650 0.0000
# 2 28.2407 101.9388 43.2257 0.0000 3.1039 0.0000
# 3 29.8992 43.2257 119.4267 0.0000 7.0627 0.0000
# 4 0.0000 0.0000 0.0000 43.7787 0.0000 9.3916
# 5 -4.1650 3.1039 7.0627 0.0000 24.6835 0.0000
# 6 0.0000 0.0000 0.0000 9.3916 0.0000 32.7008
#
#
#
# Elastic Compliance Matrix: (Units=1/GPa)
#
#
# Indices 1 2 3 4 5 6 
#
# 1 0.012368 -0.002516 -0.002368 0.000000 0.003081 0.000000
# 2 -0.002516 0.012102 -0.003698 0.000000 -0.000888 0.000000
# 3 -0.002368 -0.003698 0.010478 0.000000 -0.002933 0.000000
# 4 0.000000 0.000000 0.000000 0.024342 0.000000 -0.006991
# 5 0.003081 -0.000888 -0.002933 0.000000 0.041984 0.000000
# 6 0.000000 0.000000 0.000000 -0.006991 0.000000 0.032588
#
#
# Mechanical properties :
#
#
# Convention : Reuss Voigt Hill
#
# Bulk Modulus (GPa) = 56.22901 57.49510 56.86205
# Shear Modulus (GPa) = 31.85660 34.45656 33.15658
#
# Velocity S-wave (km/s) = 3.72205 3.87096 3.79724
# Velocity P-wave (km/s) = 6.55166 6.70689 6.62973
#
# Compressibility (1/GPa) = 0.01778441
#
# Stress axis : x y z
#
# Youngs Moduli (GPa) = 80.85231 82.63172 95.43839
#
# Poissons Ratio (x) = 0.20791 0.22599
# Poissons Ratio (y) = 0.20344 0.35291
# Poissons Ratio (z) = 0.19145 0.30555
#
# Static dielectric constant tensor:
#      x y z
#    x 3.938250 0.000000 0.145310 
#    y 0.000000 4.515330 0.000000 
#    z 0.145310 0.000000 4.294570 
# 
# 
# High freq. dielectric constant tensor:
#      x y z
#    x 1.875190 0.000000 0.008680 
#    y 0.000000 1.934590 0.000000 
#    z 0.008680 0.000000 1.915370 
# 
# From -- ./inp_files/48892.got.cif
#   From: 2010.06.25/outbox.cif.g09.slc.cpg/sg13_25_cif.got.tgz:48892.got - 2010.06.28 04:50:58.
