data_PCOD8122719
_publ_section_title
;
Structure prediction by ZEFSAII (Michael W. Deem and Ramdas Pophale) SiO2 
 PCOD8122719
Probable space group: P 2/C
;
_chemical_formula_sum "Si O2"
_cell_formula_units_Z 16
_cell_length_a 9.135631
_cell_length_b 4.932586
_cell_length_c 16.336509
_cell_angle_alpha 90.000000
_cell_angle_beta 128.987830
_cell_angle_gamma 90.000000
_cell_volume 572.202499
_symmetry_space_group_name_H-M "P 2/C"
_symmetry_group_IT_number 13
_symmetry_cell_setting 'monoclinic'
loop_
_space_group_symop_operation_xyz
x,y,z
-x,y,1/2-z
-x,-y,-z
x,-y,1/2+z
loop_
_atom_site_type_symbol
_atom_site_label
_atom_site_fract_x
_atom_site_fract_y
_atom_site_fract_z
Si Si1 0.609394 0.396694 0.117153
Si Si2 0.936455 0.456417 0.839214
Si Si3 0.356440 0.299224 0.635457
Si Si4 0.190830 0.040601 0.424468
O O1 0.794518 0.567369 0.211995
O O2 0.458057 0.423075 0.137396
O O3 0.686656 0.100551 0.115577
O O4 0.500000 0.500000 0.000000
O O5 0.836977 0.388099 0.890106
O O6 0.011327 0.762606 0.868841
O O7 0.118936 0.265616 0.893403
O O8 0.500000 0.157030 0.750000
O O9 0.320195 0.082241 0.550537
#
# Coordination Sequence:
#
# PCOD8122719 Si02
#       4
#     4   4   4   4
#     4   9  21  43  66  97 137 182 232 289 352 421
#     4  11  23  42  68  98 133 180 232 290 351 419
#     4   9  20  43  67  98 136 180 231 290 354 422
#     4  11  23  42  67  99 135 178 230 291 353 420
#
# _framework density 27.962130999999999
#
# number of rings (size 3 to 8) (size 9 to 14) (size 15 to 20)
#    0.000    2.000    0.000    2.250    0.000    4.000 
#    0.000   50.000    0.000    3.000    0.000    5.250 
#    0.000    0.000    0.000    0.000    0.000    0.000 
#
# Total GULP energy -198216.646830 kJ/mol
# GULP energy per Si atom -12388.540427 kJ/mol
# Density = 2.789849 g / cm^3
# Si number density = 27.962131 Si / 1000 Ang^3
#
#
#
# Elastic Constant Matrix: (Units=GPa)
#
#
# Indices 1 2 3 4 5 6 
#
# 1 101.5373 22.2664 53.0168 0.0000 -3.3011 0.0000
# 2 22.2664 38.8108 28.9681 0.0000 8.7380 0.0000
# 3 53.0168 28.9681 208.1672 0.0000 10.3762 0.0000
# 4 0.0000 0.0000 0.0000 32.5938 0.0000 6.0517
# 5 -3.3011 8.7380 10.3762 0.0000 45.6933 0.0000
# 6 0.0000 0.0000 0.0000 6.0517 0.0000 18.9043
#
#
#
# Elastic Compliance Matrix: (Units=1/GPa)
#
#
# Indices 1 2 3 4 5 6 
#
# 1 0.012535 -0.005912 -0.002499 0.000000 0.002604 0.000000
# 2 -0.005912 0.032549 -0.002723 0.000000 -0.006033 0.000000
# 3 -0.002499 -0.002723 0.005869 0.000000 -0.000993 0.000000
# 4 0.000000 0.000000 0.000000 0.032620 0.000000 -0.010442
# 5 0.002604 -0.006033 -0.000993 0.000000 0.023452 0.000000
# 6 0.000000 0.000000 0.000000 -0.010442 0.000000 0.056241
#
#
# Mechanical properties :
#
#
# Convention : Reuss Voigt Hill
#
# Bulk Modulus (GPa) = 34.86362 61.89089 48.37726
# Shear Modulus (GPa) = 25.62855 35.72253 30.67554
#
# Velocity S-wave (km/s) = 3.03073 3.57814 3.31575
# Velocity P-wave (km/s) = 4.97417 6.26519 5.65663
#
# Compressibility (1/GPa) = 0.02868319
#
# Stress axis : x y z
#
# Youngs Moduli (GPa) = 79.77798 30.72334 170.39227
#
# Poissons Ratio (x) = 0.18164 0.42589
# Poissons Ratio (y) = 0.47165 0.46397
# Poissons Ratio (z) = 0.19940 0.08366
#
# Static dielectric constant tensor:
#      x y z
#    x 5.786530 0.000000 -0.080920 
#    y 0.000000 4.470320 0.000000 
#    z -0.080920 0.000000 5.654530 
# 
# 
# High freq. dielectric constant tensor:
#      x y z
#    x 2.152130 0.000000 0.005710 
#    y 0.000000 2.084810 0.000000 
#    z 0.005710 0.000000 2.162410 
# 
# From -- ./inp_files/62518.got.cif
#   From: 2010.06.25/outbox.cif.g09.slc.cpg/sg13_32_cif.got.tgz:62518.got - 2010.06.28 04:50:58.
