data_PCOD8122953
_publ_section_title
;
Structure prediction by ZEFSAII (Michael W. Deem and Ramdas Pophale) SiO2 
 PCOD8122953
Probable space group: P 2/C
;
_chemical_formula_sum "Si O2"
_cell_formula_units_Z 24
_cell_length_a 10.709435
_cell_length_b 11.804011
_cell_length_c 11.457815
_cell_angle_alpha 90.000000
_cell_angle_beta 51.912545
_cell_angle_gamma 90.000000
_cell_volume 1140.017156
_symmetry_space_group_name_H-M "P 2/C"
_symmetry_group_IT_number 13
_symmetry_cell_setting 'monoclinic'
loop_
_space_group_symop_operation_xyz
x,y,z
-x,y,1/2-z
-x,-y,-z
x,-y,1/2+z
loop_
_atom_site_type_symbol
_atom_site_label
_atom_site_fract_x
_atom_site_fract_y
_atom_site_fract_z
Si Si1 0.668787 0.629191 0.483029
Si Si2 0.904072 0.108933 0.599187
Si Si3 0.429941 0.612271 0.411972
Si Si4 0.655190 0.958306 0.845745
Si Si5 0.835094 0.787517 0.897942
Si Si6 0.500000 0.198520 0.250000
Si Si7 0.000000 0.737774 0.250000
O O1 0.574207 0.614933 0.418088
O O2 0.649636 0.510745 0.562584
O O3 0.604848 0.728043 0.602227
O O4 0.849056 0.655280 0.344242
O O5 0.861233 0.189978 0.518118
O O6 0.002671 0.182051 0.634920
O O7 0.739070 0.071461 0.752125
O O8 0.000000 0.000000 0.500000
O O9 0.500000 0.657700 0.250000
O O10 0.295498 0.691784 0.543070
O O11 0.776434 0.899514 0.865077
O O12 0.618574 0.878133 0.757282
O O13 0.500000 0.000000 0.000000
O O14 0.000000 0.743668 0.750000
#
# Coordination Sequence:
#
# PCOD8122953 Si02
#       7
#     4   4   4   4   4   2   2
#     4  11  25  46  71 101 135 178 226 289 346 417
#     4  12  24  45  65  98 143 178 227 284 335 411
#     4  11  25  48  71  99 135 177 233 286 350 410
#     4  12  25  43  69 102 136 185 230 279 344 410
#     4  12  26  44  68 101 137 182 229 286 343 408
#     4  12  22  46  70 100 138 180 232 280 344 408
#     4  12  26  44  70 102 136 182 226 282 354 404
#
# _framework density 21.052315
#
# number of rings (size 3 to 8) (size 9 to 14) (size 15 to 20)
#    0.000    0.333    4.167    5.000    3.500    0.000 
#    0.000    1.667    0.000    0.000    0.000    0.000 
#    0.000    0.000    0.000    0.000    0.000    0.000 
#
# Total GULP energy -297779.076863 kJ/mol
# GULP energy per Si atom -12407.461536 kJ/mol
# Density = 2.100440 g / cm^3
# Si number density = 21.052315 Si / 1000 Ang^3
#
#
#
# Elastic Constant Matrix: (Units=GPa)
#
#
# Indices 1 2 3 4 5 6 
#
# 1 109.7434 35.5103 46.4208 0.0000 -1.0524 0.0000
# 2 35.5103 79.4824 33.5197 0.0000 -7.9382 0.0000
# 3 46.4208 33.5197 127.1615 0.0000 -17.1509 0.0000
# 4 0.0000 0.0000 0.0000 17.1647 0.0000 -21.9311
# 5 -1.0524 -7.9382 -17.1509 0.0000 52.6678 0.0000
# 6 0.0000 0.0000 0.0000 -21.9311 0.0000 20.2353
#
#
#
# Elastic Compliance Matrix: (Units=1/GPa)
#
#
# Indices 1 2 3 4 5 6 
#
# 1 0.011858 -0.003979 -0.003482 0.000000 -0.001497 0.000000
# 2 -0.003979 0.015537 -0.002445 0.000000 0.001466 0.000000
# 3 -0.003482 -0.002445 0.010167 0.000000 0.002873 0.000000
# 4 0.000000 0.000000 0.000000 -0.151418 0.000000 -0.164107
# 5 -0.001497 0.001466 0.002873 0.000000 0.020113 0.000000
# 6 0.000000 0.000000 0.000000 -0.164107 0.000000 -0.128441
#
#
# Mechanical properties :
#
#
# Convention : Reuss Voigt Hill
#
# Bulk Modulus (GPa) = 56.33844 60.80990 58.57417
# Shear Modulus (GPa) = -25.45119 31.40932 2.97907
#
# Velocity S-wave (km/s) = -3.48077 3.86679 1.19086
# Velocity P-wave (km/s) = 3.26572 6.99170 5.45659
#
# Compressibility (1/GPa) = 0.01774987
#
# Stress axis : x y z
#
# Youngs Moduli (GPa) = 84.33049 64.36384 98.35651
#
# Poissons Ratio (x) = 0.25610 0.34246
# Poissons Ratio (y) = 0.33554 0.24050
# Poissons Ratio (z) = 0.29363 0.15738
#
# Static dielectric constant tensor:
#      x y z
#    x 3.913410 0.000000 0.063940 
#    y 0.000000 3.930080 0.000000 
#    z 0.063940 0.000000 3.931330 
# 
# 
# High freq. dielectric constant tensor:
#      x y z
#    x 1.835950 0.000000 0.002010 
#    y 0.000000 1.825200 0.000000 
#    z 0.002010 0.000000 1.843780 
# 
# From -- ./inp_files/33756.got.cif
#   From: 2010.06.25/outbox.cif.g09.slc.cpg/sg13_17_cif.got.tgz:33756.got - 2010.06.28 04:50:58.
