data_PCOD8122920
_publ_section_title
;
Structure prediction by ZEFSAII (Michael W. Deem and Ramdas Pophale) SiO2 
 PCOD8122920
Probable space group: P 2/C
;
_chemical_formula_sum "Si O2"
_cell_formula_units_Z 10
_cell_length_a 11.558276
_cell_length_b 6.361746
_cell_length_c 12.464929
_cell_angle_alpha 90.000000
_cell_angle_beta 151.660682
_cell_angle_gamma 90.000000
_cell_volume 435.082272
_symmetry_space_group_name_H-M "P 2/C"
_symmetry_group_IT_number 13
_symmetry_cell_setting 'monoclinic'
loop_
_space_group_symop_operation_xyz
x,y,z
-x,y,1/2-z
-x,-y,-z
x,-y,1/2+z
loop_
_atom_site_type_symbol
_atom_site_label
_atom_site_fract_x
_atom_site_fract_y
_atom_site_fract_z
Si Si1 0.853797 0.369265 0.292611
Si Si2 0.000000 0.952885 0.750000
Si Si3 0.603067 0.701446 0.946551
O O1 0.618545 0.258224 0.152736
O O2 0.000000 0.500000 0.500000
O O3 0.015734 0.185946 0.371578
O O4 0.780502 0.524275 0.137071
O O5 0.752682 0.085842 0.549931
O O6 0.500000 0.616836 0.750000
#
# Coordination Sequence:
#
# PCOD8122920 Si02
#       3
#     4   2   4
#     4  11  25  46  68  96 136 176 218 272 331 391
#     4  12  24  42  68  98 132 172 224 274 326 390
#     4  11  25  43  67  99 132 175 222 270 329 391
#
# _framework density 22.984158000000001
#
# number of rings (size 3 to 8) (size 9 to 14) (size 15 to 20)
#    0.000    0.800    0.000    7.200    0.000   14.400 
#    0.000    0.000    0.000    0.000    0.000    0.000 
#    0.000    0.000    0.000    0.000    0.000    0.000 
#
# Total GULP energy -124054.264290 kJ/mol
# GULP energy per Si atom -12405.426429 kJ/mol
# Density = 2.293185 g / cm^3
# Si number density = 22.984158 Si / 1000 Ang^3
#
#
#
# Elastic Constant Matrix: (Units=GPa)
#
#
# Indices 1 2 3 4 5 6 
#
# 1 151.6372 104.9005 64.5774 0.0000 4.6849 0.0000
# 2 104.9005 143.1845 81.3626 0.0000 2.5102 0.0000
# 3 64.5774 81.3626 160.4420 0.0000 -25.7349 0.0000
# 4 0.0000 0.0000 0.0000 25.8288 0.0000 5.8540
# 5 4.6849 2.5102 -25.7349 0.0000 54.9027 0.0000
# 6 0.0000 0.0000 0.0000 5.8540 0.0000 68.0920
#
#
#
# Elastic Compliance Matrix: (Units=1/GPa)
#
#
# Indices 1 2 3 4 5 6 
#
# 1 0.013471 -0.009365 -0.000853 0.000000 -0.001121 0.000000
# 2 -0.009365 0.016803 -0.005133 0.000000 -0.002375 0.000000
# 3 -0.000853 -0.005133 0.009978 0.000000 0.004985 0.000000
# 4 0.000000 0.000000 0.000000 0.039486 0.000000 -0.003395
# 5 -0.001121 -0.002375 0.004985 0.000000 0.020755 0.000000
# 6 0.000000 0.000000 0.000000 -0.003395 0.000000 0.014978
#
#
# Mechanical properties :
#
#
# Convention : Reuss Voigt Hill
#
# Bulk Modulus (GPa) = 104.69266 106.32718 105.50992
# Shear Modulus (GPa) = 33.47697 43.39292 38.43495
#
# Velocity S-wave (km/s) = 3.82058 4.34977 4.09374
# Velocity P-wave (km/s) = 8.06916 8.46102 8.26741
#
# Compressibility (1/GPa) = 0.00955177
#
# Stress axis : x y z
#
# Youngs Moduli (GPa) = 74.23310 59.51200 100.21594
#
# Poissons Ratio (x) = 0.55733 0.08546
# Poissons Ratio (y) = 0.69520 0.51439
# Poissons Ratio (z) = 0.06330 0.30546
#
# Static dielectric constant tensor:
#      x y z
#    x 4.566620 0.000000 0.038480 
#    y 0.000000 4.038570 0.000000 
#    z 0.038480 0.000000 4.070540 
# 
# 
# High freq. dielectric constant tensor:
#      x y z
#    x 1.942520 0.000000 0.003150 
#    y 0.000000 1.903060 0.000000 
#    z 0.003150 0.000000 1.904610 
# 
# From -- ./inp_files/24993.got.cif
#   From: 2010.06.25/outbox.cif.g09.slc.cpg/sg13_13_cif.got.tgz:24993.got - 2010.06.28 04:50:58.
