data_PCOD8122655
_publ_section_title
;
Structure prediction by ZEFSAII (Michael W. Deem and Ramdas Pophale) SiO2 
 PCOD8122655
Probable space group: P 2/C
;
_chemical_formula_sum "Si O2"
_cell_formula_units_Z 28
_cell_length_a 8.982501
_cell_length_b 10.683394
_cell_length_c 15.082682
_cell_angle_alpha 90.000000
_cell_angle_beta 57.221316
_cell_angle_gamma 90.000000
_cell_volume 1216.917983
_symmetry_space_group_name_H-M "P 2/C"
_symmetry_group_IT_number 13
_symmetry_cell_setting 'monoclinic'
loop_
_space_group_symop_operation_xyz
x,y,z
-x,y,1/2-z
-x,-y,-z
x,-y,1/2+z
loop_
_atom_site_type_symbol
_atom_site_label
_atom_site_fract_x
_atom_site_fract_y
_atom_site_fract_z
Si Si1 0.325303 0.734119 0.054062
Si Si2 0.923802 0.711436 0.686539
Si Si3 0.808036 0.012877 0.846296
Si Si4 0.573904 0.170990 0.320951
Si Si5 0.597070 0.302280 0.625980
Si Si6 0.883158 0.110272 0.494956
Si Si7 0.133820 0.493249 0.037286
O O1 0.198672 0.839582 0.135053
O O2 0.459837 0.709796 0.090132
O O3 0.202297 0.619422 0.062126
O O4 0.423340 0.784645 0.935576
O O5 0.711308 0.712171 0.765030
O O6 0.000000 0.779266 0.750000
O O7 0.972424 0.788775 0.582846
O O8 0.022445 0.577952 0.649795
O O9 0.000000 0.980524 0.750000
O O10 0.665536 0.957984 0.823338
O O11 0.769445 0.943388 0.950948
O O12 0.500000 0.133484 0.250000
O O13 0.500000 0.329689 0.750000
O O14 0.731790 0.183922 0.600134
O O15 0.700340 0.423005 0.558328
O O16 0.000000 0.000000 0.500000
O O17 0.000000 0.500000 0.000000
#
# Coordination Sequence:
#
# PCOD8122655 Si02
#       7
#     4   4   4   4   4   4   4
#     4  12  28  48  71 113 153 189 247 325 373 439
#     4  11  22  47  73  99 136 194 244 292 361 452
#     4  12  26  46  71 108 152 194 247 295 372 458
#     4  12  24  44  75 111 149 199 248 308 383 450
#     4  11  27  48  74 109 151 196 249 317 380 433
#     4  11  24  43  74 102 150 192 242 297 366 444
#     4  11  27  48  74 104 142 195 253 304 372 455
#
# _framework density 23.008944
#
# number of rings (size 3 to 8) (size 9 to 14) (size 15 to 20)
#    0.000    0.571    4.286    2.571    8.000    4.000 
#    0.000    0.000    0.000    0.000    0.000    0.000 
#    0.000    0.000    0.000    0.000    0.000    0.000 
#
# Total GULP energy -346947.069317 kJ/mol
# GULP energy per Si atom -12390.966761 kJ/mol
# Density = 2.295657 g / cm^3
# Si number density = 23.008944 Si / 1000 Ang^3
#
#
#
# Elastic Constant Matrix: (Units=GPa)
#
#
# Indices 1 2 3 4 5 6 
#
# 1 121.7698 56.9001 40.5504 0.0000 16.4738 0.0000
# 2 56.9001 159.2835 52.7421 0.0000 -6.4494 0.0000
# 3 40.5504 52.7421 113.7090 0.0000 10.4935 0.0000
# 4 0.0000 0.0000 0.0000 -6.2710 0.0000 6.5772
# 5 16.4738 -6.4494 10.4935 0.0000 37.8094 0.0000
# 6 0.0000 0.0000 0.0000 6.5772 0.0000 126.5548
#
#
#
# Elastic Compliance Matrix: (Units=1/GPa)
#
#
# Indices 1 2 3 4 5 6 
#
# 1 0.011176 -0.003574 -0.001870 0.000000 -0.004960 0.000000
# 2 -0.003574 0.008757 -0.003149 0.000000 0.003925 0.000000
# 3 -0.001870 -0.003149 0.011183 0.000000 -0.002826 0.000000
# 4 0.000000 0.000000 0.000000 -0.151222 0.000000 0.007859
# 5 -0.004960 0.003925 -0.002826 0.000000 0.030063 0.000000
# 6 0.000000 0.000000 0.000000 0.007859 0.000000 0.007493
#
#
# Mechanical properties :
#
#
# Convention : Reuss Voigt Hill
#
# Bulk Modulus (GPa) = 71.79387 77.23860 74.51624
# Shear Modulus (GPa) = -82.34495 47.92328 -17.21083
#
# Velocity S-wave (km/s) = -5.98882 4.56873 -2.73794
# Velocity P-wave (km/s) = 4.06828 7.84047 4.73930
#
# Compressibility (1/GPa) = 0.01392877
#
# Stress axis : x y z
#
# Youngs Moduli (GPa) = 89.47712 114.20051 89.42305
#
# Poissons Ratio (x) = 0.40815 0.16723
# Poissons Ratio (y) = 0.31979 0.28161
# Poissons Ratio (z) = 0.16733 0.35964
#
# Static dielectric constant tensor:
#      x y z
#    x 3.933250 0.000000 0.161340 
#    y 0.000000 4.695560 0.000000 
#    z 0.161340 0.000000 3.898270 
# 
# 
# High freq. dielectric constant tensor:
#      x y z
#    x 1.920720 0.000000 -0.000190 
#    y 0.000000 1.911250 0.000000 
#    z -0.000190 0.000000 1.917980 
# 
# From -- ./inp_files/47115.got.cif
#   From: 2010.06.25/outbox.cif.g09.slc.cpg/sg13_24_cif.got.tgz:47115.got - 2010.06.28 04:50:58.
