data_PCOD8122181
_publ_section_title
;
Structure prediction by ZEFSAII (Michael W. Deem and Ramdas Pophale) SiO2 
 PCOD8122181
Probable space group: P 2/C
;
_chemical_formula_sum "Si O2"
_cell_formula_units_Z 26
_cell_length_a 18.930093
_cell_length_b 9.569761
_cell_length_c 13.472242
_cell_angle_alpha 90.000000
_cell_angle_beta 33.140709
_cell_angle_gamma 90.000000
_cell_volume 1334.259879
_symmetry_space_group_name_H-M "P 2/C"
_symmetry_group_IT_number 13
_symmetry_cell_setting 'monoclinic'
loop_
_space_group_symop_operation_xyz
x,y,z
-x,y,1/2-z
-x,-y,-z
x,-y,1/2+z
loop_
_atom_site_type_symbol
_atom_site_label
_atom_site_fract_x
_atom_site_fract_y
_atom_site_fract_z
Si Si1 0.660773 0.410641 0.867641
Si Si2 0.358210 0.067600 0.155254
Si Si3 0.379828 0.649654 0.730180
Si Si4 0.224215 0.819677 0.402564
Si Si5 0.231127 0.504590 0.574771
Si Si6 0.645103 0.205638 0.551283
Si Si7 0.000000 0.335644 0.250000
O O1 0.643149 0.564385 0.843783
O O2 0.689269 0.305575 0.743868
O O3 0.776097 0.415127 0.814198
O O4 0.531563 0.362812 0.078287
O O5 0.344727 0.189884 0.251536
O O6 0.244460 0.955638 0.311118
O O7 0.326451 0.124373 0.083554
O O8 0.500000 0.000000 0.000000
O O9 0.286820 0.595209 0.925059
O O10 0.267222 0.856612 0.463795
O O11 0.077092 0.763719 0.581872
O O12 0.330145 0.629115 0.484142
O O13 0.092800 0.564660 0.705270
O O14 0.500000 0.175702 0.750000
#
# Coordination Sequence:
#
# PCOD8122181 Si02
#       7
#     4   4   4   4   4   4   2
#     4  11  20  37  67  95 127 164 213 277 330 384
#     4  12  23  39  63 100 137 167 205 270 346 402
#     4  11  21  37  64 102 130 157 214 275 332 397
#     4  11  24  43  62  93 132 171 222 258 325 403
#     4  11  23  39  65  97 127 175 223 272 322 368
#     4  11  19  36  63  89 130 169 201 274 341 376
#     4  10  24  46  64  88 134 182 228 270 304 394
#
# _framework density 19.486459
#
# number of rings (size 3 to 8) (size 9 to 14) (size 15 to 20)
#    0.000    0.923    7.692    1.385    0.000    1.846 
#    2.769    3.846    0.000    0.000    0.000    0.000 
#    0.000    0.000    0.000    0.000    0.000    0.000 
#
# Total GULP energy -322339.317243 kJ/mol
# GULP energy per Si atom -12397.666048 kJ/mol
# Density = 1.944211 g / cm^3
# Si number density = 19.486459 Si / 1000 Ang^3
#
#
#
# Elastic Constant Matrix: (Units=GPa)
#
#
# Indices 1 2 3 4 5 6 
#
# 1 119.6015 44.4399 49.8261 0.0000 8.4189 0.0000
# 2 44.4399 121.8523 50.6853 0.0000 3.9985 0.0000
# 3 49.8261 50.6853 100.7617 0.0000 -4.5614 0.0000
# 4 0.0000 0.0000 0.0000 31.0814 0.0000 14.7225
# 5 8.4189 3.9985 -4.5614 0.0000 25.0589 0.0000
# 6 0.0000 0.0000 0.0000 14.7225 0.0000 24.8153
#
#
#
# Elastic Compliance Matrix: (Units=1/GPa)
#
#
# Indices 1 2 3 4 5 6 
#
# 1 0.011436 -0.002012 -0.004842 0.000000 -0.004402 0.000000
# 2 -0.002012 0.010907 -0.004577 0.000000 -0.001897 0.000000
# 3 -0.004842 -0.004577 0.014850 0.000000 0.005060 0.000000
# 4 0.000000 0.000000 0.000000 0.044749 0.000000 -0.026549
# 5 -0.004402 -0.001897 0.005060 0.000000 0.042609 0.000000
# 6 0.000000 0.000000 0.000000 -0.026549 0.000000 0.056049
#
#
# Mechanical properties :
#
#
# Convention : Reuss Voigt Hill
#
# Bulk Modulus (GPa) = 69.78390 70.23535 70.00962
# Shear Modulus (GPa) = 24.01085 29.34207 26.67646
#
# Velocity S-wave (km/s) = 3.51405 3.88463 3.70398
# Velocity P-wave (km/s) = 7.23560 7.49946 7.36871
#
# Compressibility (1/GPa) = 0.01432995
#
# Stress axis : x y z
#
# Youngs Moduli (GPa) = 87.44427 91.68705 67.33857
#
# Poissons Ratio (x) = 0.18448 0.32606
# Poissons Ratio (y) = 0.17595 0.30822
# Poissons Ratio (z) = 0.42342 0.41967
#
# Static dielectric constant tensor:
#      x y z
#    x 3.666030 0.000000 0.093430 
#    y 0.000000 3.614000 0.000000 
#    z 0.093430 0.000000 3.475340 
# 
# 
# High freq. dielectric constant tensor:
#      x y z
#    x 1.758690 0.000000 0.017350 
#    y 0.000000 1.756670 0.000000 
#    z 0.017350 0.000000 1.742220 
# 
# From -- ./inp_files/57210.got.cif
#   From: 2010.06.25/outbox.cif.g09.slc.cpg/sg13_29_cif.got.tgz:57210.got - 2010.06.28 04:50:58.
