data_PCOD8122978
_publ_section_title
;
Structure prediction by ZEFSAII (Michael W. Deem and Ramdas Pophale) SiO2 
 PCOD8122978
Probable space group: P 2/C
;
_chemical_formula_sum "Si O2"
_cell_formula_units_Z 18
_cell_length_a 10.374496
_cell_length_b 8.666392
_cell_length_c 16.309841
_cell_angle_alpha 90.000000
_cell_angle_beta 147.675786
_cell_angle_gamma 90.000000
_cell_volume 784.102758
_symmetry_space_group_name_H-M "P 2/C"
_symmetry_group_IT_number 13
_symmetry_cell_setting 'monoclinic'
loop_
_space_group_symop_operation_xyz
x,y,z
-x,y,1/2-z
-x,-y,-z
x,-y,1/2+z
loop_
_atom_site_type_symbol
_atom_site_label
_atom_site_fract_x
_atom_site_fract_y
_atom_site_fract_z
Si Si1 0.118780 0.074502 0.142553
Si Si2 0.186941 0.283646 0.419772
Si Si3 0.721936 0.795483 0.166551
Si Si4 0.829220 0.362480 0.558374
Si Si5 0.500000 0.762087 0.750000
O O1 0.379159 0.137624 0.256447
O O2 0.933283 0.212843 0.063811
O O3 0.161597 0.958359 0.241982
O O4 0.000000 0.000000 0.000000
O O5 0.445857 0.206870 0.544907
O O6 0.225759 0.466147 0.441702
O O7 0.000000 0.235707 0.250000
O O8 0.740637 0.764100 0.078627
O O9 0.882090 0.661694 0.297231
O O10 0.700718 0.341580 0.402263
#
# Coordination Sequence:
#
# PCOD8122978 Si02
#       5
#     4   4   4   4   2
#     4  12  27  46  73 109 146 194 242 300 365 429
#     4  12  27  46  78 107 141 196 250 294 369 431
#     4  11  25  49  73 104 149 186 245 302 353 435
#     4  11  26  47  75 106 148 190 243 304 360 431
#     4  12  26  46  72 106 152 192 244 300 368 426
#
# _framework density 22.956175000000002
#
# number of rings (size 3 to 8) (size 9 to 14) (size 15 to 20)
#    0.000    0.444    4.444    3.333    6.222    4.444 
#    0.000    0.000    0.000    0.000    0.000    0.000 
#    0.000    0.000    0.000    0.000    0.000    0.000 
#
# Total GULP energy -223147.269375 kJ/mol
# GULP energy per Si atom -12397.070521 kJ/mol
# Density = 2.290393 g / cm^3
# Si number density = 22.956175 Si / 1000 Ang^3
#
#
#
# Elastic Constant Matrix: (Units=GPa)
#
#
# Indices 1 2 3 4 5 6 
#
# 1 124.7914 47.5409 45.1274 0.0000 13.2415 0.0000
# 2 47.5409 92.0657 30.1408 0.0000 -4.7044 0.0000
# 3 45.1274 30.1408 162.6661 0.0000 -1.3034 0.0000
# 4 0.0000 0.0000 0.0000 30.8068 0.0000 -4.1760
# 5 13.2415 -4.7044 -1.3034 0.0000 49.7563 0.0000
# 6 0.0000 0.0000 0.0000 -4.1760 0.0000 41.4580
#
#
#
# Elastic Compliance Matrix: (Units=1/GPa)
#
#
# Indices 1 2 3 4 5 6 
#
# 1 0.011162 -0.005238 -0.002154 0.000000 -0.003522 0.000000
# 2 -0.005238 0.014076 -0.001133 0.000000 0.002695 0.000000
# 3 -0.002154 -0.001133 0.006960 0.000000 0.000648 0.000000
# 4 0.000000 0.000000 0.000000 0.032910 0.000000 0.003315
# 5 -0.003522 0.002695 0.000648 0.000000 0.021307 0.000000
# 6 0.000000 0.000000 0.000000 0.003315 0.000000 0.024455
#
#
# Mechanical properties :
#
#
# Convention : Reuss Voigt Hill
#
# Bulk Modulus (GPa) = 66.02377 69.46014 67.74196
# Shear Modulus (GPa) = 37.60263 41.51850 39.56056
#
# Velocity S-wave (km/s) = 4.05163 4.25738 4.15578
# Velocity P-wave (km/s) = 7.12116 7.38176 7.25263
#
# Compressibility (1/GPa) = 0.01514606
#
# Stress axis : x y z
#
# Youngs Moduli (GPa) = 89.59178 71.04510 143.67118
#
# Poissons Ratio (x) = 0.37217 0.30948
# Poissons Ratio (y) = 0.46932 0.16281
# Poissons Ratio (z) = 0.19299 0.08051
#
# Static dielectric constant tensor:
#      x y z
#    x 3.932390 0.000000 0.104480 
#    y 0.000000 4.123700 0.000000 
#    z 0.104480 0.000000 4.444380 
# 
# 
# High freq. dielectric constant tensor:
#      x y z
#    x 1.900610 0.000000 0.005520 
#    y 0.000000 1.903100 0.000000 
#    z 0.005520 0.000000 1.929680 
# 
# From -- ./inp_files/32342.got.cif
#   From: 2010.06.25/outbox.cif.g09.slc.cpg/sg13_17_cif.got.tgz:32342.got - 2010.06.28 04:50:58.
