data_PCOD8122168
_publ_section_title
;
Structure prediction by ZEFSAII (Michael W. Deem and Ramdas Pophale) SiO2 
 PCOD8122168
Probable space group: P 2/C
;
_chemical_formula_sum "Si O2"
_cell_formula_units_Z 26
_cell_length_a 27.239041
_cell_length_b 6.886928
_cell_length_c 19.064733
_cell_angle_alpha 90.000000
_cell_angle_beta 160.726863
_cell_angle_gamma 90.000000
_cell_volume 1180.474420
_symmetry_space_group_name_H-M "P 2/C"
_symmetry_group_IT_number 13
_symmetry_cell_setting 'monoclinic'
loop_
_space_group_symop_operation_xyz
x,y,z
-x,y,1/2-z
-x,-y,-z
x,-y,1/2+z
loop_
_atom_site_type_symbol
_atom_site_label
_atom_site_fract_x
_atom_site_fract_y
_atom_site_fract_z
Si Si1 0.075218 0.011233 0.277262
Si Si2 0.500000 0.919956 0.750000
Si Si3 0.213580 0.819086 0.168810
Si Si4 0.367771 0.848045 0.950828
Si Si5 0.310853 0.697916 0.149146
Si Si6 0.824928 0.501417 0.269846
Si Si7 0.736438 0.339648 0.506427
O O1 0.122121 0.801996 0.310616
O O2 0.000000 0.973809 0.250000
O O3 0.218857 0.148967 0.478400
O O4 0.957861 0.111906 0.067018
O O5 0.411980 0.788312 0.687188
O O6 0.612359 0.051603 0.946584
O O7 0.263614 0.709325 0.166170
O O8 0.229822 0.676719 0.255798
O O9 0.321646 0.000914 0.328124
O O10 0.515664 0.739330 0.125608
O O11 0.232273 0.698900 0.775000
O O12 0.277051 0.478458 0.079198
O O13 0.752618 0.527324 0.096367
O O14 0.000000 0.500000 0.500000
#
# Coordination Sequence:
#
# PCOD8122168 Si02
#       7
#     4   2   4   4   4   4   4
#     4  10  24  45  71 101 139 184 231 288 351 419
#     4  12  24  44  70 100 136 184 234 286 352 422
#     4  11  26  46  69 105 141 183 235 292 354 418
#     4  12  25  46  69 100 142 186 234 293 349 416
#     4  11  25  45  73 101 139 182 242 288 346 419
#     4  12  27  42  69 104 142 184 230 292 356 419
#     4  12  24  43  70 100 136 184 231 287 348 419
#
# _framework density 22.025044000000001
#
# number of rings (size 3 to 8) (size 9 to 14) (size 15 to 20)
#    0.000    0.615    3.077    4.154    2.154    7.385 
#    0.000    0.000    0.000    0.000    0.000    0.000 
#    0.000    0.000    0.000    0.000    0.000    0.000 
#
# Total GULP energy -322622.627846 kJ/mol
# GULP energy per Si atom -12408.562609 kJ/mol
# Density = 2.197491 g / cm^3
# Si number density = 22.025044 Si / 1000 Ang^3
#
#
#
# Elastic Constant Matrix: (Units=GPa)
#
#
# Indices 1 2 3 4 5 6 
#
# 1 89.5478 59.9168 40.1265 0.0000 8.2867 0.0000
# 2 59.9168 128.3291 44.7736 0.0000 12.6236 0.0000
# 3 40.1265 44.7736 114.9682 0.0000 11.5536 0.0000
# 4 0.0000 0.0000 0.0000 41.5389 0.0000 -1.7539
# 5 8.2867 12.6236 11.5536 0.0000 33.5971 0.0000
# 6 0.0000 0.0000 0.0000 -1.7539 0.0000 44.1644
#
#
#
# Elastic Compliance Matrix: (Units=1/GPa)
#
#
# Indices 1 2 3 4 5 6 
#
# 1 0.017295 -0.006867 -0.003307 0.000000 -0.000548 0.000000
# 2 -0.006867 0.011913 -0.002033 0.000000 -0.002083 0.000000
# 3 -0.003307 -0.002033 0.010861 0.000000 -0.002155 0.000000
# 4 0.000000 0.000000 0.000000 0.024114 0.000000 0.000958
# 5 -0.000548 -0.002083 -0.002155 0.000000 0.031424 0.000000
# 6 0.000000 0.000000 0.000000 0.000958 0.000000 0.022681
#
#
# Mechanical properties :
#
#
# Convention : Reuss Voigt Hill
#
# Bulk Modulus (GPa) = 63.88210 69.16431 66.52320
# Shear Modulus (GPa) = 33.80223 36.39529 35.09876
#
# Velocity S-wave (km/s) = 3.92180 4.06944 3.99630
# Velocity P-wave (km/s) = 7.04092 7.31787 7.18073
#
# Compressibility (1/GPa) = 0.01565384
#
# Stress axis : x y z
#
# Youngs Moduli (GPa) = 57.82167 83.94124 92.07567
#
# Poissons Ratio (x) = 0.57644 0.30447
# Poissons Ratio (y) = 0.39707 0.18722
# Poissons Ratio (z) = 0.19120 0.17068
#
# Static dielectric constant tensor:
#      x y z
#    x 3.687280 0.000000 0.634510 
#    y 0.000000 4.088410 0.000000 
#    z 0.634510 0.000000 2.298750 
# 
# 
# High freq. dielectric constant tensor:
#      x y z
#    x 1.869160 0.000000 0.003900 
#    y 0.000000 1.876770 0.000000 
#    z 0.003900 0.000000 1.875590 
# 
# From -- ./inp_files/82683.got.cif
#   From: 2010.06.25/outbox.cif.g09.slc.cpg/sg13_42_cif.got.tgz:82683.got - 2010.06.28 04:50:58.
