data_PCOD8122992
_publ_section_title
;
Structure prediction by ZEFSAII (Michael W. Deem and Ramdas Pophale) SiO2 
 PCOD8122992
Probable space group: P 2/C
;
_chemical_formula_sum "Si O2"
_cell_formula_units_Z 18
_cell_length_a 14.512069
_cell_length_b 6.828058
_cell_length_c 13.526862
_cell_angle_alpha 90.000000
_cell_angle_beta 37.784752
_cell_angle_gamma 90.000000
_cell_volume 821.238256
_symmetry_space_group_name_H-M "P 2/C"
_symmetry_group_IT_number 13
_symmetry_cell_setting 'monoclinic'
loop_
_space_group_symop_operation_xyz
x,y,z
-x,y,1/2-z
-x,-y,-z
x,-y,1/2+z
loop_
_atom_site_type_symbol
_atom_site_label
_atom_site_fract_x
_atom_site_fract_y
_atom_site_fract_z
Si Si1 0.558310 0.979846 0.805153
Si Si2 0.901785 0.051311 0.986810
Si Si3 0.588556 0.697158 0.435107
Si Si4 0.074603 0.424106 0.836589
Si Si5 0.000000 0.258210 0.250000
O O1 0.500000 0.051748 0.750000
O O2 0.731026 0.910970 0.662883
O O3 0.529070 0.163248 0.899682
O O4 0.453466 0.796833 0.925064
O O5 0.968192 0.251430 0.883586
O O6 0.899936 0.878801 0.906131
O O7 0.000000 0.000000 0.000000
O O8 0.500000 0.500000 0.500000
O O9 0.765266 0.667551 0.274267
O O10 0.097869 0.599634 0.737880
O O11 0.000000 0.500000 0.000000
#
# Coordination Sequence:
#
# PCOD8122992 Si02
#       5
#     4   4   4   4   2
#     4  11  27  45  70 103 144 190 235 291 366 426
#     4  12  25  48  72 101 145 188 240 305 359 430
#     4  11  26  46  71 102 147 183 233 302 357 423
#     4  12  25  48  75 109 139 187 247 298 359 438
#     4  12  28  40  80 100 140 188 248 294 366 424
#
# _framework density 21.918119999999998
#
# number of rings (size 3 to 8) (size 9 to 14) (size 15 to 20)
#    0.000    0.444    4.444    2.000    9.333    0.889 
#    0.000    0.000    0.000    0.000    0.000    0.000 
#    0.000    0.000    0.000    0.000    0.000    0.000 
#
# Total GULP energy -223250.801159 kJ/mol
# GULP energy per Si atom -12402.822287 kJ/mol
# Density = 2.186823 g / cm^3
# Si number density = 21.918120 Si / 1000 Ang^3
#
#
#
# Elastic Constant Matrix: (Units=GPa)
#
#
# Indices 1 2 3 4 5 6 
#
# 1 96.7980 36.8064 46.4550 0.0000 9.2151 0.0000
# 2 36.8064 155.8406 55.5310 0.0000 7.3603 0.0000
# 3 46.4550 55.5310 134.2432 0.0000 -9.7823 0.0000
# 4 0.0000 0.0000 0.0000 46.4966 0.0000 1.2791
# 5 9.2151 7.3603 -9.7823 0.0000 44.5335 0.0000
# 6 0.0000 0.0000 0.0000 1.2791 0.0000 35.7486
#
#
#
# Elastic Compliance Matrix: (Units=1/GPa)
#
#
# Indices 1 2 3 4 5 6 
#
# 1 0.013241 -0.001459 -0.004228 0.000000 -0.003428 0.000000
# 2 -0.001459 0.007859 -0.002865 0.000000 -0.001626 0.000000
# 3 -0.004228 -0.002865 0.010362 0.000000 0.003624 0.000000
# 4 0.000000 0.000000 0.000000 0.021528 0.000000 -0.000770
# 5 -0.003428 -0.001626 0.003624 0.000000 0.024229 0.000000
# 6 0.000000 0.000000 0.000000 -0.000770 0.000000 0.028001
#
#
# Mechanical properties :
#
#
# Convention : Reuss Voigt Hill
#
# Bulk Modulus (GPa) = 69.64781 73.82962 71.73871
# Shear Modulus (GPa) = 39.33631 41.89504 40.61567
#
# Velocity S-wave (km/s) = 4.24098 4.37674 4.30939
# Velocity P-wave (km/s) = 7.47172 7.70055 7.58700
#
# Compressibility (1/GPa) = 0.01435795
#
# Stress axis : x y z
#
# Youngs Moduli (GPa) = 75.52268 127.24440 96.51067
#
# Poissons Ratio (x) = 0.18560 0.40809
# Poissons Ratio (y) = 0.11016 0.27647
# Poissons Ratio (z) = 0.31935 0.36451
#
# Static dielectric constant tensor:
#      x y z
#    x 3.967660 0.000000 -0.215950 
#    y 0.000000 4.371010 0.000000 
#    z -0.215950 0.000000 5.767950 
# 
# 
# High freq. dielectric constant tensor:
#      x y z
#    x 1.856240 0.000000 0.009720 
#    y 0.000000 1.881740 0.000000 
#    z 0.009720 0.000000 1.871860 
# 
# From -- ./inp_files/52023.got.cif
#   From: 2010.06.25/outbox.cif.g09.slc.cpg/sg13_27_cif.got.tgz:52023.got - 2010.06.28 04:50:58.
