data_PCOD8122207
_publ_section_title
;
Structure prediction by ZEFSAII (Michael W. Deem and Ramdas Pophale) SiO2 
 PCOD8122207
Probable space group: P 2/C
;
_chemical_formula_sum "Si O2"
_cell_formula_units_Z 32
_cell_length_a 13.556581
_cell_length_b 18.012483
_cell_length_c 18.290954
_cell_angle_alpha 90.000000
_cell_angle_beta 19.532585
_cell_angle_gamma 90.000000
_cell_volume 1493.317725
_symmetry_space_group_name_H-M "P 2/C"
_symmetry_group_IT_number 13
_symmetry_cell_setting 'monoclinic'
loop_
_space_group_symop_operation_xyz
x,y,z
-x,y,1/2-z
-x,-y,-z
x,-y,1/2+z
loop_
_atom_site_type_symbol
_atom_site_label
_atom_site_fract_x
_atom_site_fract_y
_atom_site_fract_z
Si Si1 0.611879 0.921011 0.946558
Si Si2 0.771989 0.428186 0.012611
Si Si3 0.559368 0.652925 0.873101
Si Si4 0.391964 0.283760 0.904297
Si Si5 0.809323 0.209267 0.813581
Si Si6 0.732849 0.116791 0.523141
Si Si7 0.004087 0.579342 0.668745
Si Si8 0.019016 0.306783 0.925246
O O1 0.938371 0.908585 0.684299
O O2 0.383520 0.859645 0.078351
O O3 0.623512 0.923259 0.026360
O O4 0.500000 0.000000 0.000000
O O5 0.500000 0.399494 0.250000
O O6 0.689953 0.401301 0.987701
O O7 0.820039 0.515210 0.997599
O O8 0.041484 0.380974 0.859103
O O9 0.713825 0.600926 0.826294
O O10 0.796865 0.685492 0.648585
O O11 0.410684 0.723543 0.013690
O O12 0.500000 0.306139 0.750000
O O13 0.240408 0.203969 0.012151
O O14 0.654541 0.288452 0.777231
O O15 0.157962 0.345532 0.086259
O O16 0.041303 0.237308 0.588292
O O17 0.000000 0.183823 0.750000
O O18 0.500000 0.099225 0.750000
O O19 0.000000 0.536633 0.750000
#
# Coordination Sequence:
#
# PCOD8122207 Si02
#       8
#     4   4   4   4   4   4   4   4
#     4  11  26  45  74 108 147 178 220 275 345 410
#     4  10  25  42  60  87 130 181 225 284 344 400
#     4  11  25  45  65  92 130 177 231 284 337 407
#     4  11  21  40  68  96 124 170 230 275 334 397
#     4  12  25  43  73  99 134 177 227 276 338 407
#     4  10  24  46  74 104 142 183 229 281 332 401
#     4  12  26  37  62  93 129 171 226 286 350 400
#     4  11  23  44  67  91 133 175 226 281 336 396
#
# _framework density 21.428795000000001
#
# number of rings (size 3 to 8) (size 9 to 14) (size 15 to 20)
#    0.000    1.000    3.750    1.875    8.750    2.000 
#    0.000    0.000    0.000    0.000    0.000    0.000 
#    0.000    0.000    0.000    0.000    0.000    0.000 
#
# Total GULP energy -396514.254039 kJ/mol
# GULP energy per Si atom -12391.070439 kJ/mol
# Density = 2.138002 g / cm^3
# Si number density = 21.428795 Si / 1000 Ang^3
#
#
#
# Elastic Constant Matrix: (Units=GPa)
#
#
# Indices 1 2 3 4 5 6 
#
# 1 114.2319 36.5795 40.5669 0.0000 -3.7156 0.0000
# 2 36.5795 138.8000 54.5225 0.0000 -5.8335 0.0000
# 3 40.5669 54.5225 88.0050 0.0000 -8.9481 0.0000
# 4 0.0000 0.0000 0.0000 31.8164 0.0000 -8.6811
# 5 -3.7156 -5.8335 -8.9481 0.0000 28.8267 0.0000
# 6 0.0000 0.0000 0.0000 -8.6811 0.0000 32.4238
#
#
#
# Elastic Compliance Matrix: (Units=1/GPa)
#
#
# Indices 1 2 3 4 5 6 
#
# 1 0.010607 -0.001157 -0.004190 0.000000 -0.000167 0.000000
# 2 -0.001157 0.009648 -0.005432 0.000000 0.000117 0.000000
# 3 -0.004190 -0.005432 0.017031 0.000000 0.003647 0.000000
# 4 0.000000 0.000000 0.000000 0.033907 0.000000 0.009078
# 5 -0.000167 0.000117 0.003647 0.000000 0.035824 0.000000
# 6 0.000000 0.000000 0.000000 0.009078 0.000000 0.033272
#
#
# Mechanical properties :
#
#
# Convention : Reuss Voigt Hill
#
# Bulk Modulus (GPa) = 63.57981 67.15273 65.36627
# Shear Modulus (GPa) = 29.92391 32.57124 31.24757
#
# Velocity S-wave (km/s) = 3.74094 3.90292 3.82279
# Velocity P-wave (km/s) = 6.95660 7.19138 7.07496
#
# Compressibility (1/GPa) = 0.01572826
#
# Stress axis : x y z
#
# Youngs Moduli (GPa) = 94.27752 103.64549 58.71711
#
# Poissons Ratio (x) = 0.11987 0.24602
# Poissons Ratio (y) = 0.10904 0.31898
# Poissons Ratio (z) = 0.39501 0.56305
#
# Static dielectric constant tensor:
#      x y z
#    x 4.352970 0.000000 0.092180 
#    y 0.000000 3.689470 0.000000 
#    z 0.092180 0.000000 4.141950 
# 
# 
# High freq. dielectric constant tensor:
#      x y z
#    x 1.866910 0.000000 0.000300 
#    y 0.000000 1.829920 0.000000 
#    z 0.000300 0.000000 1.839920 
# 
# From -- ./inp_files/80365.got.cif
#   From: 2010.06.25/outbox.cif.g09.slc.cpg/sg13_41_cif.got.tgz:80365.got - 2010.06.28 04:50:58.
