data_PCOD8122171
_publ_section_title
;
Structure prediction by ZEFSAII (Michael W. Deem and Ramdas Pophale) SiO2 
 PCOD8122171
Probable space group: P 2/C
;
_chemical_formula_sum "Si O2"
_cell_formula_units_Z 20
_cell_length_a 8.537710
_cell_length_b 5.029624
_cell_length_c 20.648989
_cell_angle_alpha 90.000000
_cell_angle_beta 106.786201
_cell_angle_gamma 90.000000
_cell_volume 848.914948
_symmetry_space_group_name_H-M "P 2/C"
_symmetry_group_IT_number 13
_symmetry_cell_setting 'monoclinic'
loop_
_space_group_symop_operation_xyz
x,y,z
-x,y,1/2-z
-x,-y,-z
x,-y,1/2+z
loop_
_atom_site_type_symbol
_atom_site_label
_atom_site_fract_x
_atom_site_fract_y
_atom_site_fract_z
Si Si1 0.343351 0.223330 0.078706
Si Si2 0.895870 0.411072 0.548390
Si Si3 0.780141 0.270367 0.862752
Si Si4 0.811425 0.811378 0.222283
Si Si5 0.282971 0.682615 0.867324
O O1 0.275183 0.434025 0.123117
O O2 0.534976 0.248160 0.089697
O O3 0.310822 0.930480 0.100959
O O4 0.257236 0.244660 0.997825
O O5 0.828706 0.662384 0.581440
O O6 0.000000 0.500000 0.500000
O O7 0.020927 0.239547 0.607754
O O8 0.728871 0.206835 0.783224
O O9 0.715883 0.607590 0.165132
O O10 0.000000 0.730091 0.250000
O O11 0.791552 0.106344 0.191557
#
# Coordination Sequence:
#
# PCOD8122171 Si02
#       5
#     4   4   4   4   4
#     4  11  25  44  70 102 140 175 227 284 344 407
#     4  10  24  45  71  99 136 182 228 279 337 411
#     4  11  24  45  70 100 137 184 225 277 344 410
#     4  12  26  43  72  98 139 176 233 281 336 416
#     4  12  26  44  70 103 135 180 226 288 344 399
#
# _framework density 23.559484999999999
#
# number of rings (size 3 to 8) (size 9 to 14) (size 15 to 20)
#    0.000    0.800    2.000    4.200    5.600    8.000 
#    0.000    7.000    0.000    0.000    0.000    0.000 
#    0.000    0.000    0.000    0.000    0.000    0.000 
#
# Total GULP energy -248076.292152 kJ/mol
# GULP energy per Si atom -12403.814608 kJ/mol
# Density = 2.350586 g / cm^3
# Si number density = 23.559485 Si / 1000 Ang^3
#
#
#
# Elastic Constant Matrix: (Units=GPa)
#
#
# Indices 1 2 3 4 5 6 
#
# 1 135.6794 23.4530 45.8424 0.0000 18.0408 0.0000
# 2 23.4530 79.6537 14.6274 0.0000 -1.9515 0.0000
# 3 45.8424 14.6274 104.6608 0.0000 -6.4211 0.0000
# 4 0.0000 0.0000 0.0000 19.9195 0.0000 -5.3184
# 5 18.0408 -1.9515 -6.4211 0.0000 34.6021 0.0000
# 6 0.0000 0.0000 0.0000 -5.3184 0.0000 40.6246
#
#
#
# Elastic Compliance Matrix: (Units=1/GPa)
#
#
# Indices 1 2 3 4 5 6 
#
# 1 0.010116 -0.002307 -0.004491 0.000000 -0.006238 0.000000
# 2 -0.002307 0.013416 -0.000753 0.000000 0.001819 0.000000
# 3 -0.004491 -0.000753 0.011904 0.000000 0.004508 0.000000
# 4 0.000000 0.000000 0.000000 0.052020 0.000000 0.006810
# 5 -0.006238 0.001819 0.004508 0.000000 0.033091 0.000000
# 6 0.000000 0.000000 0.000000 0.006810 0.000000 0.025507
#
#
# Mechanical properties :
#
#
# Convention : Reuss Voigt Hill
#
# Bulk Modulus (GPa) = 49.17834 54.20439 51.69137
# Shear Modulus (GPa) = 29.77346 34.76730 32.27038
#
# Velocity S-wave (km/s) = 3.55879 3.84568 3.70502
# Velocity P-wave (km/s) = 6.14867 6.54037 6.34754
#
# Compressibility (1/GPa) = 0.02033415
#
# Stress axis : x y z
#
# Youngs Moduli (GPa) = 98.85461 74.53585 84.00760
#
# Poissons Ratio (x) = 0.17192 0.37729
# Poissons Ratio (y) = 0.22801 0.06327
# Poissons Ratio (z) = 0.44397 0.05614
#
# Static dielectric constant tensor:
#      x y z
#    x 4.317660 0.000000 0.309500 
#    y 0.000000 4.064920 0.000000 
#    z 0.309500 0.000000 4.861490 
# 
# 
# High freq. dielectric constant tensor:
#      x y z
#    x 1.937880 0.000000 0.002740 
#    y 0.000000 1.924960 0.000000 
#    z 0.002740 0.000000 1.949820 
# 
# From -- ./inp_files/74401.got.cif
#   From: 2010.06.25/outbox.cif.g09.slc.cpg/sg13_38_cif.got.tgz:74401.got - 2010.06.28 04:50:58.
