data_PCOD8122214
_publ_section_title
;
Structure prediction by ZEFSAII (Michael W. Deem and Ramdas Pophale) SiO2 
 PCOD8122214
Probable space group: P 2/C
;
_chemical_formula_sum "Si O2"
_cell_formula_units_Z 28
_cell_length_a 15.274172
_cell_length_b 8.705584
_cell_length_c 20.391786
_cell_angle_alpha 90.000000
_cell_angle_beta 28.041038
_cell_angle_gamma 90.000000
_cell_volume 1274.690244
_symmetry_space_group_name_H-M "P 2/C"
_symmetry_group_IT_number 13
_symmetry_cell_setting 'monoclinic'
loop_
_space_group_symop_operation_xyz
x,y,z
-x,y,1/2-z
-x,-y,-z
x,-y,1/2+z
loop_
_atom_site_type_symbol
_atom_site_label
_atom_site_fract_x
_atom_site_fract_y
_atom_site_fract_z
Si Si1 0.601758 0.676669 0.499975
Si Si2 0.000000 0.165250 0.250000
Si Si3 0.500000 0.949377 0.250000
Si Si4 0.210138 0.915021 0.034230
Si Si5 0.018838 0.155289 0.531272
Si Si6 0.654163 0.703713 0.234353
Si Si7 0.362144 0.366879 0.283251
Si Si8 0.640008 0.667123 0.959709
O O1 0.755860 0.793730 0.428421
O O2 0.453666 0.638399 0.652673
O O3 0.490652 0.742360 0.510516
O O4 0.685013 0.513841 0.421616
O O5 0.846295 0.265617 0.314382
O O6 0.874722 0.069285 0.382068
O O7 0.652944 0.840187 0.181827
O O8 0.406438 0.054755 0.367793
O O9 0.057978 0.863780 0.082332
O O10 0.186678 0.256107 0.392082
O O11 0.833785 0.257292 0.658546
O O12 0.000000 0.000000 0.500000
O O13 0.690567 0.545669 0.170620
O O14 0.463555 0.702604 0.402804
O O15 0.500000 0.311753 0.250000
#
# Coordination Sequence:
#
# PCOD8122214 Si02
#       8
#     4   2   2   4   4   4   4   4
#     4  10  24  47  72  96 140 184 234 291 356 424
#     4  12  28  44  70 104 136 186 236 282 350 430
#     4  12  22  44  72 100 148 184 230 304 356 418
#     4  12  26  43  70 106 141 185 231 287 363 423
#     4  12  26  41  66 104 142 176 224 290 355 419
#     4  11  24  44  69  97 138 185 237 290 354 417
#     4  11  22  44  71 102 134 184 238 292 352 416
#     4  10  25  49  69  98 136 188 235 296 352 421
#
# _framework density 21.966121000000001
#
# number of rings (size 3 to 8) (size 9 to 14) (size 15 to 20)
#    0.000    0.857    5.000    1.286    4.000    1.143 
#    5.143    0.000    0.000    0.000    0.000    0.000 
#    0.000    0.000    0.000    0.000    0.000    0.000 
#
# Total GULP energy -347047.761904 kJ/mol
# GULP energy per Si atom -12394.562925 kJ/mol
# Density = 2.191612 g / cm^3
# Si number density = 21.966121 Si / 1000 Ang^3
#
#
#
# Elastic Constant Matrix: (Units=GPa)
#
#
# Indices 1 2 3 4 5 6 
#
# 1 144.7465 57.9306 29.6965 0.0000 -19.1600 0.0000
# 2 57.9306 111.1204 37.2090 0.0000 -19.1962 0.0000
# 3 29.6965 37.2090 85.0238 0.0000 -19.9759 0.0000
# 4 0.0000 0.0000 0.0000 38.3825 0.0000 -12.1683
# 5 -19.1600 -19.1962 -19.9759 0.0000 40.4006 0.0000
# 6 0.0000 0.0000 0.0000 -12.1683 0.0000 40.7824
#
#
#
# Elastic Compliance Matrix: (Units=1/GPa)
#
#
# Indices 1 2 3 4 5 6 
#
# 1 0.008963 -0.004040 -0.000922 0.000000 0.001875 0.000000
# 2 -0.004040 0.012717 -0.003603 0.000000 0.002345 0.000000
# 3 -0.000922 -0.003603 0.014885 0.000000 0.005210 0.000000
# 4 0.000000 0.000000 0.000000 0.028775 0.000000 0.008586
# 5 0.001875 0.002345 0.005210 0.000000 0.029332 0.000000
# 6 0.000000 0.000000 0.000000 0.008586 0.000000 0.027082
#
#
# Mechanical properties :
#
#
# Convention : Reuss Voigt Hill
#
# Bulk Modulus (GPa) = 51.45658 65.61811 58.53735
# Shear Modulus (GPa) = 34.39678 38.31672 36.35675
#
# Velocity S-wave (km/s) = 3.96144 4.18108 4.07274
# Velocity P-wave (km/s) = 6.66335 7.29697 6.98735
#
# Compressibility (1/GPa) = 0.01943386
#
# Stress axis : x y z
#
# Youngs Moduli (GPa) = 111.57132 78.63424 67.18398
#
# Poissons Ratio (x) = 0.31768 0.06194
# Poissons Ratio (y) = 0.45075 0.24209
# Poissons Ratio (z) = 0.10286 0.28335
#
# Static dielectric constant tensor:
#      x y z
#    x 4.163240 0.000000 -0.144380 
#    y 0.000000 4.341180 0.000000 
#    z -0.144380 0.000000 3.947680 
# 
# 
# High freq. dielectric constant tensor:
#      x y z
#    x 1.872280 0.000000 -0.005400 
#    y 0.000000 1.879660 0.000000 
#    z -0.005400 0.000000 1.851400 
# 
# From -- ./inp_files/79777.got.cif
#   From: 2010.06.25/outbox.cif.g09.slc.cpg/sg13_40_cif.got.tgz:79777.got - 2010.06.28 04:50:58.
