data_PCOD8122662
_publ_section_title
;
Structure prediction by ZEFSAII (Michael W. Deem and Ramdas Pophale) SiO2 
 PCOD8122662
Probable space group: P 2/C
;
_chemical_formula_sum "Si O2"
_cell_formula_units_Z 26
_cell_length_a 11.897442
_cell_length_b 6.413592
_cell_length_c 20.852908
_cell_angle_alpha 90.000000
_cell_angle_beta 57.443547
_cell_angle_gamma 90.000000
_cell_volume 1341.151505
_symmetry_space_group_name_H-M "P 2/C"
_symmetry_group_IT_number 13
_symmetry_cell_setting 'monoclinic'
loop_
_space_group_symop_operation_xyz
x,y,z
-x,y,1/2-z
-x,-y,-z
x,-y,1/2+z
loop_
_atom_site_type_symbol
_atom_site_label
_atom_site_fract_x
_atom_site_fract_y
_atom_site_fract_z
Si Si1 0.216798 0.052883 0.215941
Si Si2 0.448575 0.810091 0.559327
Si Si3 0.082461 0.987805 0.380774
Si Si4 0.318268 0.511309 0.006932
Si Si5 0.088516 0.687187 0.495326
Si Si6 0.885630 0.256971 0.853717
Si Si7 0.000000 0.381743 0.250000
O O1 0.366175 0.093433 0.144563
O O2 0.129931 0.252690 0.225933
O O3 0.211826 0.025766 0.295100
O O4 0.150804 0.849038 0.203174
O O5 0.555153 0.646093 0.557675
O O6 0.354388 0.678913 0.541660
O O7 0.500000 0.000000 0.500000
O O8 0.128509 0.843206 0.425409
O O9 0.968523 0.894927 0.371796
O O10 0.010190 0.198479 0.425128
O O11 0.225885 0.408581 0.980608
O O12 0.248681 0.694673 0.067725
O O13 0.000000 0.500000 0.500000
O O14 0.965610 0.471947 0.820870
#
# Coordination Sequence:
#
# PCOD8122662 Si02
#       7
#     4   4   4   4   4   4   2
#     4  12  22  36  58  96 130 162 201 262 326 372
#     4  11  24  39  64  92 128 167 207 262 310 382
#     4  11  23  37  61  98 126 164 206 265 325 369
#     4  11  23  40  62  95 123 167 214 251 318 381
#     4  11  24  41  65  92 126 169 211 258 310 384
#     4  12  20  35  63  97 127 151 202 268 326 381
#     4  12  20  32  60  94 130 152 188 270 332 370
#
# _framework density 19.386326
#
# number of rings (size 3 to 8) (size 9 to 14) (size 15 to 20)
#    0.000    0.615    7.692    1.846    0.000    0.000 
#    0.000    0.000    0.000    5.538    0.000    0.000 
#    0.000    0.000    0.000    0.000    0.000    0.000 
#
# Total GULP energy -322229.135102 kJ/mol
# GULP energy per Si atom -12393.428273 kJ/mol
# Density = 1.934220 g / cm^3
# Si number density = 19.386326 Si / 1000 Ang^3
#
#
#
# Elastic Constant Matrix: (Units=GPa)
#
#
# Indices 1 2 3 4 5 6 
#
# 1 96.0052 29.7846 51.4797 0.0000 1.1074 0.0000
# 2 29.7846 78.4155 65.4262 0.0000 0.6689 0.0000
# 3 51.4797 65.4262 150.3623 0.0000 -6.3607 0.0000
# 4 0.0000 0.0000 0.0000 40.9631 0.0000 3.3785
# 5 1.1074 0.6689 -6.3607 0.0000 26.9911 0.0000
# 6 0.0000 0.0000 0.0000 3.3785 0.0000 16.9468
#
#
#
# Elastic Compliance Matrix: (Units=1/GPa)
#
#
# Indices 1 2 3 4 5 6 
#
# 1 0.012988 -0.001826 -0.003709 0.000000 -0.001362 0.000000
# 2 -0.001826 0.020457 -0.008378 0.000000 -0.002406 0.000000
# 3 -0.003709 -0.008378 0.011698 0.000000 0.003116 0.000000
# 4 0.000000 0.000000 0.000000 0.024820 0.000000 -0.004948
# 5 -0.001362 -0.002406 0.003116 0.000000 0.037899 0.000000
# 6 0.000000 0.000000 0.000000 -0.004948 0.000000 0.059995
#
#
# Mechanical properties :
#
#
# Convention : Reuss Voigt Hill
#
# Bulk Modulus (GPa) = 57.75372 68.68491 63.21931
# Shear Modulus (GPa) = 24.81942 28.85302 26.83622
#
# Velocity S-wave (km/s) = 3.58195 3.86206 3.72464
# Velocity P-wave (km/s) = 6.85294 7.44270 7.15390
#
# Compressibility (1/GPa) = 0.01731490
#
# Stress axis : x y z
#
# Youngs Moduli (GPa) = 76.99709 48.88344 85.48636
#
# Poissons Ratio (x) = 0.08928 0.31710
# Poissons Ratio (y) = 0.14063 0.71618
# Poissons Ratio (z) = 0.28561 0.40953
#
# Static dielectric constant tensor:
#      x y z
#    x 3.173010 0.000000 -0.252010 
#    y 0.000000 3.751120 0.000000 
#    z -0.252010 0.000000 4.197620 
# 
# 
# High freq. dielectric constant tensor:
#      x y z
#    x 1.723820 0.000000 -0.009790 
#    y 0.000000 1.783560 0.000000 
#    z -0.009790 0.000000 1.759740 
# 
# From -- ./inp_files/77191.got.cif
#   From: 2010.06.25/outbox.cif.g09.slc.cpg/sg13_39_cif.got.tgz:77191.got - 2010.06.28 04:50:58.
