data_PCOD8122531
_publ_section_title
;
Structure prediction by ZEFSAII (Michael W. Deem and Ramdas Pophale) SiO2 
 PCOD8122531
Probable space group: P 2/C
;
_chemical_formula_sum "Si O2"
_cell_formula_units_Z 22
_cell_length_a 8.765267
_cell_length_b 8.176156
_cell_length_c 14.928552
_cell_angle_alpha 90.000000
_cell_angle_beta 101.849014
_cell_angle_gamma 90.000000
_cell_volume 1047.075707
_symmetry_space_group_name_H-M "P 2/C"
_symmetry_group_IT_number 13
_symmetry_cell_setting 'monoclinic'
loop_
_space_group_symop_operation_xyz
x,y,z
-x,y,1/2-z
-x,-y,-z
x,-y,1/2+z
loop_
_atom_site_type_symbol
_atom_site_label
_atom_site_fract_x
_atom_site_fract_y
_atom_site_fract_z
Si Si1 0.272437 0.866350 0.880697
Si Si2 0.873892 0.427602 0.418478
Si Si3 0.612057 0.372843 0.966911
Si Si4 0.827532 0.067047 0.475302
Si Si5 0.000000 0.297738 0.250000
Si Si6 0.541796 0.073693 0.852368
O O1 0.139433 0.825920 0.792691
O O2 0.438013 0.910660 0.856341
O O3 0.279026 0.705336 0.943170
O O4 0.238499 0.029842 0.934028
O O5 0.721222 0.544020 0.403759
O O6 0.822314 0.255945 0.452905
O O7 0.000000 0.500000 0.500000
O O8 0.940368 0.411196 0.325111
O O9 0.506811 0.228308 0.912249
O O10 0.500000 0.500000 0.000000
O O11 0.723381 0.974639 0.387373
O O12 0.000000 0.000000 0.500000
O O13 0.500000 0.139173 0.750000
#
# Coordination Sequence:
#
# PCOD8122531 Si02
#       6
#     4   4   4   4   2   4
#     4  11  23  43  68  96 134 180 233 278 344 413
#     4  12  23  44  67  99 141 177 230 283 349 416
#     4  11  23  43  69  96 137 181 218 284 354 411
#     4  11  21  43  70  94 131 181 225 282 343 403
#     4  12  24  42  70 104 138 186 240 282 354 414
#     4  11  24  42  66 103 133 171 233 285 336 413
#
# _framework density 21.010895000000001
#
# number of rings (size 3 to 8) (size 9 to 14) (size 15 to 20)
#    0.000    0.727    3.636    6.545    0.000    1.455 
#    3.273    0.909    0.000    0.000    0.000    0.000 
#    0.000    0.000    0.000    0.000    0.000    0.000 
#
# Total GULP energy -272712.127648 kJ/mol
# GULP energy per Si atom -12396.005802 kJ/mol
# Density = 2.096307 g / cm^3
# Si number density = 21.010895 Si / 1000 Ang^3
#
#
#
# Elastic Constant Matrix: (Units=GPa)
#
#
# Indices 1 2 3 4 5 6 
#
# 1 130.7221 48.5117 57.0965 0.0000 10.0191 0.0000
# 2 48.5117 123.5838 50.9998 0.0000 0.9300 0.0000
# 3 57.0965 50.9998 139.8937 0.0000 12.9189 0.0000
# 4 0.0000 0.0000 0.0000 28.5595 0.0000 -9.7194
# 5 10.0191 0.9300 12.9189 0.0000 42.8269 0.0000
# 6 0.0000 0.0000 0.0000 -9.7194 0.0000 49.1034
#
#
#
# Elastic Compliance Matrix: (Units=1/GPa)
#
#
# Indices 1 2 3 4 5 6 
#
# 1 0.010069 -0.002706 -0.002994 0.000000 -0.001394 0.000000
# 2 -0.002706 0.010283 -0.002759 0.000000 0.001242 0.000000
# 3 -0.002994 -0.002759 0.009573 0.000000 -0.002127 0.000000
# 4 0.000000 0.000000 0.000000 0.037544 0.000000 0.007431
# 5 -0.001394 0.001242 -0.002127 0.000000 0.024291 0.000000
# 6 0.000000 0.000000 0.000000 0.007431 0.000000 0.021836
#
#
# Mechanical properties :
#
#
# Convention : Reuss Voigt Hill
#
# Bulk Modulus (GPa) = 76.88990 78.60173 77.74581
# Shear Modulus (GPa) = 37.07850 39.93740 38.50795
#
# Velocity S-wave (km/s) = 4.20542 4.36454 4.28572
# Velocity P-wave (km/s) = 7.76244 7.93033 7.84683
#
# Compressibility (1/GPa) = 0.01300561
#
# Stress axis : x y z
#
# Youngs Moduli (GPa) = 99.31747 97.24565 104.46472
#
# Poissons Ratio (x) = 0.26317 0.31278
# Poissons Ratio (y) = 0.26878 0.28822
# Poissons Ratio (z) = 0.29737 0.26830
#
# Static dielectric constant tensor:
#      x y z
#    x 4.350470 0.000000 -0.082590 
#    y 0.000000 4.426760 0.000000 
#    z -0.082590 0.000000 3.909070 
# 
# 
# High freq. dielectric constant tensor:
#      x y z
#    x 1.835380 0.000000 0.006470 
#    y 0.000000 1.824630 0.000000 
#    z 0.006470 0.000000 1.818860 
# 
# From -- ./inp_files/45954.got.cif
#   From: 2010.06.25/outbox.cif.g09.slc.cpg/sg13_23_cif.got.tgz:45954.got - 2010.06.28 04:50:58.
