data_PCOD8122615
_publ_section_title
;
Structure prediction by ZEFSAII (Michael W. Deem and Ramdas Pophale) SiO2 
 PCOD8122615
Probable space group: P 2/C
;
_chemical_formula_sum "Si O2"
_cell_formula_units_Z 20
_cell_length_a 7.167157
_cell_length_b 6.726200
_cell_length_c 20.354851
_cell_angle_alpha 90.000000
_cell_angle_beta 65.441098
_cell_angle_gamma 90.000000
_cell_volume 892.490878
_symmetry_space_group_name_H-M "P 2/C"
_symmetry_group_IT_number 13
_symmetry_cell_setting 'monoclinic'
loop_
_space_group_symop_operation_xyz
x,y,z
-x,y,1/2-z
-x,-y,-z
x,-y,1/2+z
loop_
_atom_site_type_symbol
_atom_site_label
_atom_site_fract_x
_atom_site_fract_y
_atom_site_fract_z
Si Si1 0.624302 0.305055 0.469952
Si Si2 0.956008 0.469839 0.084258
Si Si3 0.994003 0.172933 0.825477
Si Si4 0.472016 0.953498 0.099262
Si Si5 0.683042 0.859843 0.680201
O O1 0.500000 0.500000 0.500000
O O2 0.630563 0.186714 0.537699
O O3 0.851187 0.355741 0.412829
O O4 0.512076 0.175924 0.431462
O O5 0.765306 0.321919 0.123650
O O6 0.926446 0.671411 0.131057
O O7 0.000000 0.500000 0.000000
O O8 0.758424 0.124173 0.875363
O O9 0.000000 0.259476 0.750000
O O10 0.134109 0.972976 0.807568
O O11 0.563346 0.966289 0.158268
O O12 0.500000 0.764110 0.750000
#
# Coordination Sequence:
#
# PCOD8122615 Si02
#       5
#     4   4   4   4   4
#     4  11  22  41  70 105 135 185 237 298 356 434
#     4  12  27  46  74 110 149 190 250 304 368 442
#     4  12  26  48  73 103 143 196 244 301 371 450
#     4  11  24  43  73  99 144 187 239 297 368 429
#     4  12  27  47  71 105 146 189 247 308 369 440
#
# _framework density 22.409192999999998
#
# number of rings (size 3 to 8) (size 9 to 14) (size 15 to 20)
#    0.000    0.400    6.000    2.400    2.800    4.800 
#    3.600    0.000    0.000    0.000    0.000    0.000 
#    0.000    0.000    0.000    0.000    0.000    0.000 
#
# Total GULP energy -247904.370754 kJ/mol
# GULP energy per Si atom -12395.218538 kJ/mol
# Density = 2.235819 g / cm^3
# Si number density = 22.409193 Si / 1000 Ang^3
#
#
#
# Elastic Constant Matrix: (Units=GPa)
#
#
# Indices 1 2 3 4 5 6 
#
# 1 82.6571 30.0489 30.5849 0.0000 -11.7957 0.0000
# 2 30.0489 103.2810 38.1053 0.0000 -4.5710 0.0000
# 3 30.5849 38.1053 123.9578 0.0000 0.8318 0.0000
# 4 0.0000 0.0000 0.0000 33.1267 0.0000 -11.2283
# 5 -11.7957 -4.5710 0.8318 0.0000 48.1736 0.0000
# 6 0.0000 0.0000 0.0000 -11.2283 0.0000 24.0699
#
#
#
# Elastic Compliance Matrix: (Units=1/GPa)
#
#
# Indices 1 2 3 4 5 6 
#
# 1 0.014712 -0.003141 -0.002687 0.000000 0.003351 0.000000
# 2 -0.003141 0.011649 -0.002809 0.000000 0.000385 0.000000
# 3 -0.002687 -0.002809 0.009601 0.000000 -0.001090 0.000000
# 4 0.000000 0.000000 0.000000 0.035857 0.000000 0.016727
# 5 0.003351 0.000385 -0.001090 0.000000 0.021634 0.000000
# 6 0.000000 0.000000 0.000000 0.016727 0.000000 0.049348
#
#
# Mechanical properties :
#
#
# Convention : Reuss Voigt Hill
#
# Bulk Modulus (GPa) = 53.50555 56.37490 54.94023
# Shear Modulus (GPa) = 30.06526 35.15117 32.60822
#
# Velocity S-wave (km/s) = 3.66683 3.96486 3.81875
# Velocity P-wave (km/s) = 6.46962 6.79498 6.63429
#
# Compressibility (1/GPa) = 0.01868965
#
# Stress axis : x y z
#
# Youngs Moduli (GPa) = 67.96975 85.84122 104.15583
#
# Poissons Ratio (x) = 0.26961 0.27988
# Poissons Ratio (y) = 0.21348 0.29255
# Poissons Ratio (z) = 0.18264 0.24110
#
# Static dielectric constant tensor:
#      x y z
#    x 3.529740 0.000000 0.230220 
#    y 0.000000 3.908460 0.000000 
#    z 0.230220 0.000000 4.285300 
# 
# 
# High freq. dielectric constant tensor:
#      x y z
#    x 1.891510 0.000000 -0.008210 
#    y 0.000000 1.881110 0.000000 
#    z -0.008210 0.000000 1.888030 
# 
# From -- ./inp_files/74415.got.cif
#   From: 2010.06.25/outbox.cif.g09.slc.cpg/sg13_38_cif.got.tgz:74415.got - 2010.06.28 04:50:58.
