data_PCOD8122681
_publ_section_title
;
Structure prediction by ZEFSAII (Michael W. Deem and Ramdas Pophale) SiO2 
 PCOD8122681
Probable space group: P 2/C
;
_chemical_formula_sum "Si O2"
_cell_formula_units_Z 28
_cell_length_a 6.780000
_cell_length_b 13.778914
_cell_length_c 18.419430
_cell_angle_alpha 90.000000
_cell_angle_beta 125.255609
_cell_angle_gamma 90.000000
_cell_volume 1405.148730
_symmetry_space_group_name_H-M "P 2/C"
_symmetry_group_IT_number 13
_symmetry_cell_setting 'monoclinic'
loop_
_space_group_symop_operation_xyz
x,y,z
-x,y,1/2-z
-x,-y,-z
x,-y,1/2+z
loop_
_atom_site_type_symbol
_atom_site_label
_atom_site_fract_x
_atom_site_fract_y
_atom_site_fract_z
Si Si1 0.709642 0.988186 0.940026
Si Si2 0.000000 0.540757 0.250000
Si Si3 0.468980 0.848825 0.997755
Si Si4 0.369996 0.636790 0.435494
Si Si5 0.747768 0.402779 0.306160
Si Si6 0.500000 0.909627 0.750000
Si Si7 0.721042 0.490203 0.447728
Si Si8 0.973048 0.217438 0.326960
O O1 0.584775 0.976185 0.835196
O O2 0.575623 0.082301 0.943226
O O3 0.651616 0.895351 0.978249
O O4 0.000000 0.000000 0.000000
O O5 0.861215 0.608214 0.162484
O O6 0.814352 0.471366 0.252658
O O7 0.595246 0.751760 0.053892
O O8 0.208380 0.835579 0.905746
O O9 0.607518 0.590474 0.450444
O O10 0.345402 0.597333 0.512058
O O11 0.500000 0.339671 0.250000
O O12 0.652910 0.470034 0.351168
O O13 0.951086 0.321166 0.364732
O O14 0.263036 0.848147 0.717979
O O15 0.000000 0.500000 0.500000
O O16 0.000000 0.248400 0.250000
#
# Coordination Sequence:
#
# PCOD8122681 Si02
#       8
#     4   2   4   4   4   2   4   4
#     4  11  25  48  71  99 132 172 219 284 345 415
#     4  12  24  46  58  92 144 180 230 278 320 402
#     4  11  26  46  67  97 138 172 221 282 342 400
#     4  11  26  42  65  95 133 181 226 271 333 397
#     4  12  24  38  63  97 136 176 223 277 328 383
#     4  12  24  44  72 102 128 170 224 278 354 410
#     4  11  23  40  63  93 129 176 220 268 327 391
#     4  12  24  39  69 105 134 167 223 288 340 396
#
# _framework density 19.926715999999999
#
# number of rings (size 3 to 8) (size 9 to 14) (size 15 to 20)
#    0.000    0.571    7.143    0.857    6.000    1.143 
#    2.571    0.000    0.000    0.000    0.000    0.000 
#    0.000    0.000    0.000    0.000    0.000    0.000 
#
# Total GULP energy -346911.697394 kJ/mol
# GULP energy per Si atom -12389.703478 kJ/mol
# Density = 1.988136 g / cm^3
# Si number density = 19.926716 Si / 1000 Ang^3
#
#
#
# Elastic Constant Matrix: (Units=GPa)
#
#
# Indices 1 2 3 4 5 6 
#
# 1 144.7649 58.6781 50.2920 0.0000 -1.8474 0.0000
# 2 58.6781 133.8520 42.6270 0.0000 -7.6299 0.0000
# 3 50.2920 42.6270 93.6841 0.0000 -9.3744 0.0000
# 4 0.0000 0.0000 0.0000 19.7393 0.0000 11.4019
# 5 -1.8474 -7.6299 -9.3744 0.0000 46.6886 0.0000
# 6 0.0000 0.0000 0.0000 11.4019 0.0000 20.4687
#
#
#
# Elastic Compliance Matrix: (Units=1/GPa)
#
#
# Indices 1 2 3 4 5 6 
#
# 1 0.009418 -0.002971 -0.003791 0.000000 -0.000874 0.000000
# 2 -0.002971 0.009693 -0.002723 0.000000 0.000920 0.000000
# 3 -0.003791 -0.002723 0.014174 0.000000 0.002251 0.000000
# 4 0.000000 0.000000 0.000000 0.074694 0.000000 -0.041608
# 5 -0.000874 0.000920 0.002251 0.000000 0.021986 0.000000
# 6 0.000000 0.000000 0.000000 -0.041608 0.000000 0.072032
#
#
# Mechanical properties :
#
#
# Convention : Reuss Voigt Hill
#
# Bulk Modulus (GPa) = 69.86597 75.05501 72.46049
# Shear Modulus (GPa) = 22.14933 32.09290 27.12112
#
# Velocity S-wave (km/s) = 3.33759 4.01752 3.69323
# Velocity P-wave (km/s) = 7.07038 7.69856 7.39115
#
# Compressibility (1/GPa) = 0.01431312
#
# Stress axis : x y z
#
# Youngs Moduli (GPa) = 106.17916 103.16555 70.55191
#
# Poissons Ratio (x) = 0.30651 0.26749
# Poissons Ratio (y) = 0.31547 0.19215
# Poissons Ratio (z) = 0.40257 0.28097
#
# Static dielectric constant tensor:
#      x y z
#    x 4.006110 0.000000 -0.043820 
#    y 0.000000 3.732310 0.000000 
#    z -0.043820 0.000000 3.558000 
# 
# 
# High freq. dielectric constant tensor:
#      x y z
#    x 1.808770 0.000000 0.002040 
#    y 0.000000 1.767870 0.000000 
#    z 0.002040 0.000000 1.779960 
# 
# From -- ./inp_files/61715.got.cif
#   From: 2010.06.25/outbox.cif.g09.slc.cpg/sg13_31_cif.got.tgz:61715.got - 2010.06.28 04:50:58.
