data_PCOD8122530
_publ_section_title
;
Structure prediction by ZEFSAII (Michael W. Deem and Ramdas Pophale) SiO2 
 PCOD8122530
Probable space group: P 2/C
;
_chemical_formula_sum "Si O2"
_cell_formula_units_Z 32
_cell_length_a 18.025487
_cell_length_b 14.408204
_cell_length_c 12.859339
_cell_angle_alpha 90.000000
_cell_angle_beta 152.475517
_cell_angle_gamma 90.000000
_cell_volume 1543.396131
_symmetry_space_group_name_H-M "P 2/C"
_symmetry_group_IT_number 13
_symmetry_cell_setting 'monoclinic'
loop_
_space_group_symop_operation_xyz
x,y,z
-x,y,1/2-z
-x,-y,-z
x,-y,1/2+z
loop_
_atom_site_type_symbol
_atom_site_label
_atom_site_fract_x
_atom_site_fract_y
_atom_site_fract_z
Si Si1 0.452409 0.238741 0.804697
Si Si2 0.175336 0.627633 0.012782
Si Si3 0.328918 0.165220 0.008423
Si Si4 0.817610 0.421243 0.541542
Si Si5 0.767680 0.282247 0.311500
Si Si6 0.116559 0.667356 0.178566
Si Si7 0.825319 0.908935 0.988871
Si Si8 0.353673 0.068220 0.823259
O O1 0.500000 0.202382 0.750000
O O2 0.306576 0.311407 0.617094
O O3 0.386369 0.154625 0.790064
O O4 0.608794 0.289627 0.044711
O O5 0.227876 0.522013 0.057027
O O6 0.174325 0.647703 0.134246
O O7 0.000000 0.649636 0.750000
O O8 0.500000 0.212992 0.250000
O O9 0.294768 0.099380 0.063822
O O10 0.189016 0.238646 0.815175
O O11 0.331790 0.099838 0.912823
O O12 0.723397 0.341289 0.360550
O O13 0.803089 0.413545 0.649295
O O14 0.000000 0.394425 0.750000
O O15 0.796397 0.174336 0.371781
O O16 0.922121 0.326182 0.443496
O O17 0.802051 0.009186 0.905700
O O18 0.000000 0.901731 0.250000
O O19 0.500000 0.000000 0.000000
#
# Coordination Sequence:
#
# PCOD8122530 Si02
#       8
#     4   4   4   4   4   4   4   4
#     4  12  27  44  65  91 138 182 210 271 346 401
#     4  11  25  45  66  99 137 173 223 274 334 406
#     4  12  23  42  71  96 131 175 225 273 328 396
#     4   9  21  40  71 100 130 172 221 274 330 389
#     4  11  21  43  68  98 132 172 224 274 329 390
#     4  11  22  42  72  99 131 177 225 275 327 391
#     4  12  24  43  69  98 133 170 223 280 333 395
#     4  12  26  43  65  99 130 173 224 277 333 392
#
# _framework density 20.733497
#
# number of rings (size 3 to 8) (size 9 to 14) (size 15 to 20)
#    0.000    0.750    6.250    1.125    1.750    7.000 
#    2.250    0.625    0.000    0.000    0.000    0.000 
#    0.000    0.000    0.000    0.000    0.000    0.000 
#
# Total GULP energy -396734.029106 kJ/mol
# GULP energy per Si atom -12397.938410 kJ/mol
# Density = 2.068631 g / cm^3
# Si number density = 20.733497 Si / 1000 Ang^3
#
#
#
# Elastic Constant Matrix: (Units=GPa)
#
#
# Indices 1 2 3 4 5 6 
#
# 1 78.9545 10.3046 4.3444 0.0000 -10.5390 0.0000
# 2 10.3046 94.1669 30.3427 0.0000 1.9126 0.0000
# 3 4.3444 30.3427 88.9726 0.0000 6.4135 0.0000
# 4 0.0000 0.0000 0.0000 36.0763 0.0000 -7.1131
# 5 -10.5390 1.9126 6.4135 0.0000 34.8626 0.0000
# 6 0.0000 0.0000 0.0000 -7.1131 0.0000 30.8020
#
#
#
# Elastic Compliance Matrix: (Units=1/GPa)
#
#
# Indices 1 2 3 4 5 6 
#
# 1 0.013439 -0.001401 -0.000483 0.000000 0.004228 0.000000
# 2 -0.001401 0.012077 -0.004025 0.000000 -0.000345 0.000000
# 3 -0.000483 -0.004025 0.012800 0.000000 -0.002280 0.000000
# 4 0.000000 0.000000 0.000000 0.029041 0.000000 0.006707
# 5 0.004228 -0.000345 -0.002280 0.000000 0.030401 0.000000
# 6 0.000000 0.000000 0.000000 0.006707 0.000000 0.034014
#
#
# Mechanical properties :
#
#
# Convention : Reuss Voigt Hill
#
# Bulk Modulus (GPa) = 37.73945 39.11971 38.42958
# Shear Modulus (GPa) = 32.80328 34.82168 33.81248
#
# Velocity S-wave (km/s) = 3.98193 4.10260 4.04272
# Velocity P-wave (km/s) = 6.27556 6.43045 6.35348
#
# Compressibility (1/GPa) = 0.02649747
#
# Stress axis : x y z
#
# Youngs Moduli (GPa) = 74.40829 82.80354 78.12421
#
# Poissons Ratio (x) = 0.11599 0.03776
# Poissons Ratio (y) = 0.10423 0.31447
# Poissons Ratio (z) = 0.03596 0.33331
#
# Static dielectric constant tensor:
#      x y z
#    x 2.870300 0.000000 0.663600 
#    y 0.000000 5.556500 0.000000 
#    z 0.663600 0.000000 3.281170 
# 
# 
# High freq. dielectric constant tensor:
#      x y z
#    x 1.815170 0.000000 -0.009080 
#    y 0.000000 1.807220 0.000000 
#    z -0.009080 0.000000 1.822040 
# 
# From -- ./inp_files/39486.got.cif
#   From: 2010.06.25/outbox.cif.g09.slc.cpg/sg13_20_cif.got.tgz:39486.got - 2010.06.28 04:50:58.
