data_PCOD8122353
_publ_section_title
;
Structure prediction by ZEFSAII (Michael W. Deem and Ramdas Pophale) SiO2 
 PCOD8122353
Probable space group: P 2/C
;
_chemical_formula_sum "Si O2"
_cell_formula_units_Z 24
_cell_length_a 23.750889
_cell_length_b 6.610019
_cell_length_c 13.698253
_cell_angle_alpha 90.000000
_cell_angle_beta 152.603447
_cell_angle_gamma 90.000000
_cell_volume 989.563716
_symmetry_space_group_name_H-M "P 2/C"
_symmetry_group_IT_number 13
_symmetry_cell_setting 'monoclinic'
loop_
_space_group_symop_operation_xyz
x,y,z
-x,y,1/2-z
-x,-y,-z
x,-y,1/2+z
loop_
_atom_site_type_symbol
_atom_site_label
_atom_site_fract_x
_atom_site_fract_y
_atom_site_fract_z
Si Si1 0.095769 0.286080 0.762822
Si Si2 0.856588 0.821436 0.803738
Si Si3 0.000000 0.611498 0.750000
Si Si4 0.500000 0.767276 0.250000
Si Si5 0.336640 0.926464 0.389598
Si Si6 0.188349 0.087958 0.489659
Si Si7 0.704182 0.460715 0.559173
O O1 0.024999 0.481250 0.692160
O O2 0.004845 0.176687 0.544396
O O3 0.228788 0.338358 0.923879
O O4 0.124149 0.132745 0.895335
O O5 0.811100 0.842219 0.621765
O O6 0.807071 0.604095 0.767939
O O7 0.794250 0.000707 0.768528
O O8 0.883608 0.753973 0.552350
O O9 0.602327 0.618887 0.361318
O O10 0.555442 0.916583 0.417922
O O11 0.321441 0.922834 0.247678
O O12 0.360383 0.699394 0.466891
#
# Coordination Sequence:
#
# PCOD8122353 Si02
#       7
#     4   4   2   2   4   4   4
#     4  12  24  42  67 105 151 191 223 280 354 427
#     4  11  23  42  67 105 148 185 225 275 356 436
#     4  12  24  38  62 104 154 184 232 274 338 446
#     4  10  26  50  74  96 130 190 250 298 352 398
#     4  11  24  46  72  98 140 182 237 298 346 415
#     4  12  25  40  67 107 143 182 228 280 350 423
#     4  11  23  45  74  96 135 191 234 291 350 408
#
# _framework density 24.253112000000002
#
# number of rings (size 3 to 8) (size 9 to 14) (size 15 to 20)
#    0.000    0.667    3.333    5.000    2.333    1.333 
#    0.000    4.167    0.000    0.000    0.000    0.000 
#    0.000    0.000    0.000    0.000    0.000    0.000 
#
# Total GULP energy -297412.320381 kJ/mol
# GULP energy per Si atom -12392.180016 kJ/mol
# Density = 2.419791 g / cm^3
# Si number density = 24.253112 Si / 1000 Ang^3
#
#
#
# Elastic Constant Matrix: (Units=GPa)
#
#
# Indices 1 2 3 4 5 6 
#
# 1 53.1000 21.1884 42.0734 0.0000 -9.8812 0.0000
# 2 21.1884 145.7531 56.6471 0.0000 -13.6199 0.0000
# 3 42.0734 56.6471 171.4624 0.0000 -16.1181 0.0000
# 4 0.0000 0.0000 0.0000 32.6551 0.0000 7.1120
# 5 -9.8812 -13.6199 -16.1181 0.0000 33.8219 0.0000
# 6 0.0000 0.0000 0.0000 7.1120 0.0000 32.5489
#
#
#
# Elastic Compliance Matrix: (Units=1/GPa)
#
#
# Indices 1 2 3 4 5 6 
#
# 1 0.024141 -0.001115 -0.005166 0.000000 0.004142 0.000000
# 2 -0.001115 0.008057 -0.002213 0.000000 0.001864 0.000000
# 3 -0.005166 -0.002213 0.007962 0.000000 0.001394 0.000000
# 4 0.000000 0.000000 0.000000 0.032153 0.000000 -0.007025
# 5 0.004142 0.001864 0.001394 0.000000 0.032192 0.000000
# 6 0.000000 0.000000 0.000000 -0.007025 0.000000 0.032258
#
#
# Mechanical properties :
#
#
# Convention : Reuss Voigt Hill
#
# Bulk Modulus (GPa) = 43.15402 67.79257 55.47329
# Shear Modulus (GPa) = 30.96439 36.49897 33.73168
#
# Velocity S-wave (km/s) = 3.57700 3.88354 3.73341
# Velocity P-wave (km/s) = 5.90692 6.93700 6.44258
#
# Compressibility (1/GPa) = 0.02317281
#
# Stress axis : x y z
#
# Youngs Moduli (GPa) = 41.42279 124.11077 125.59542
#
# Poissons Ratio (x) = 0.13833 0.64885
# Poissons Ratio (y) = 0.04617 0.27797
# Poissons Ratio (z) = 0.21400 0.27468
#
# Static dielectric constant tensor:
#      x y z
#    x 3.930790 0.000000 0.113410 
#    y 0.000000 4.972170 0.000000 
#    z 0.113410 0.000000 4.284880 
# 
# 
# High freq. dielectric constant tensor:
#      x y z
#    x 1.923440 0.000000 0.002670 
#    y 0.000000 2.001380 0.000000 
#    z 0.002670 0.000000 1.951990 
# 
# From -- ./inp_files/59239.got.cif
#   From: 2010.06.25/outbox.cif.g09.slc.cpg/sg13_30_cif.got.tgz:59239.got - 2010.06.28 04:50:58.
