data_PCOD8122854
_publ_section_title
;
Structure prediction by ZEFSAII (Michael W. Deem and Ramdas Pophale) SiO2 
 PCOD8122854
Probable space group: P 2/C
;
_chemical_formula_sum "Si O2"
_cell_formula_units_Z 20
_cell_length_a 4.952885
_cell_length_b 11.292293
_cell_length_c 13.900001
_cell_angle_alpha 90.000000
_cell_angle_beta 78.889675
_cell_angle_gamma 90.000000
_cell_volume 762.848689
_symmetry_space_group_name_H-M "P 2/C"
_symmetry_group_IT_number 13
_symmetry_cell_setting 'monoclinic'
loop_
_space_group_symop_operation_xyz
x,y,z
-x,y,1/2-z
-x,-y,-z
x,-y,1/2+z
loop_
_atom_site_type_symbol
_atom_site_label
_atom_site_fract_x
_atom_site_fract_y
_atom_site_fract_z
Si Si1 0.149000 0.345614 0.032399
Si Si2 0.117378 0.576615 0.138907
Si Si3 0.795969 0.201083 0.181441
Si Si4 0.435588 0.198908 0.583113
Si Si5 0.916704 0.066782 0.647791
O O1 0.256029 0.458225 0.085450
O O2 0.855216 0.295106 0.091684
O O3 0.381907 0.241196 0.021965
O O4 0.110880 0.379221 0.922518
O O5 0.335125 0.680847 0.141388
O O6 0.000000 0.541413 0.250000
O O7 0.500000 0.207401 0.250000
O O8 0.000000 0.241642 0.250000
O O9 0.874261 0.071775 0.136431
O O10 0.629699 0.127894 0.642846
O O11 0.177791 0.115685 0.566859
O O12 0.000000 0.102469 0.750000
#
# Coordination Sequence:
#
# PCOD8122854 Si02
#       5
#     4   4   4   4   4
#     4  11  27  48  75 114 152 194 265 312 376 455
#     4  11  26  50  75 110 150 206 249 319 384 449
#     4  11  26  49  77 112 155 207 251 307 378 449
#     4  12  24  45  74 109 152 192 252 316 372 444
#     4  11  24  43  75 110 152 200 250 304 380 454
#
# _framework density 26.21752
#
# number of rings (size 3 to 8) (size 9 to 14) (size 15 to 20)
#    0.000    0.800    2.000    4.800    5.600    1.600 
#    7.200    0.000    0.000    0.000    0.000    0.000 
#    0.000    0.000    0.000    0.000    0.000    0.000 
#
# Total GULP energy -247937.012700 kJ/mol
# GULP energy per Si atom -12396.850635 kJ/mol
# Density = 2.615785 g / cm^3
# Si number density = 26.217520 Si / 1000 Ang^3
#
#
#
# Elastic Constant Matrix: (Units=GPa)
#
#
# Indices 1 2 3 4 5 6 
#
# 1 134.8446 24.0700 25.9983 0.0000 -15.0816 0.0000
# 2 24.0700 98.6616 32.2378 0.0000 -6.3150 0.0000
# 3 25.9983 32.2378 123.8121 0.0000 -7.9918 0.0000
# 4 0.0000 0.0000 0.0000 32.3766 0.0000 -5.2336
# 5 -15.0816 -6.3150 -7.9918 0.0000 38.4352 0.0000
# 6 0.0000 0.0000 0.0000 -5.2336 0.0000 31.4877
#
#
#
# Elastic Compliance Matrix: (Units=1/GPa)
#
#
# Indices 1 2 3 4 5 6 
#
# 1 0.008206 -0.001444 -0.001170 0.000000 0.002739 0.000000
# 2 -0.001444 0.011391 -0.002613 0.000000 0.000761 0.000000
# 3 -0.001170 -0.002613 0.009067 0.000000 0.000997 0.000000
# 4 0.000000 0.000000 0.000000 0.031739 0.000000 0.005275
# 5 0.002739 0.000761 0.000997 0.000000 0.027425 0.000000
# 6 0.000000 0.000000 0.000000 0.005275 0.000000 0.032635
#
#
# Mechanical properties :
#
#
# Convention : Reuss Voigt Hill
#
# Bulk Modulus (GPa) = 54.92109 57.99228 56.45669
# Shear Modulus (GPa) = 36.49943 38.79403 37.64673
#
# Velocity S-wave (km/s) = 3.73524 3.85086 3.79349
# Velocity P-wave (km/s) = 6.29257 6.47610 6.38499
#
# Compressibility (1/GPa) = 0.01820794
#
# Stress axis : x y z
#
# Youngs Moduli (GPa) = 121.86616 87.79104 110.28639
#
# Poissons Ratio (x) = 0.12679 0.12906
# Poissons Ratio (y) = 0.17600 0.28823
# Poissons Ratio (z) = 0.14261 0.22944
#
# Static dielectric constant tensor:
#      x y z
#    x 4.785530 0.000000 -0.195300 
#    y 0.000000 4.884430 0.000000 
#    z -0.195300 0.000000 4.623880 
# 
# 
# High freq. dielectric constant tensor:
#      x y z
#    x 2.051280 0.000000 -0.007550 
#    y 0.000000 2.063910 0.000000 
#    z -0.007550 0.000000 2.045420 
# 
# From -- ./inp_files/43583.got.cif
#   From: 2010.06.25/outbox.cif.g09.slc.cpg/sg13_22_cif.got.tgz:43583.got - 2010.06.28 04:50:58.
