data_PCOD8122786
_publ_section_title
;
Structure prediction by ZEFSAII (Michael W. Deem and Ramdas Pophale) SiO2 
 PCOD8122786
Probable space group: P 2/C
;
_chemical_formula_sum "Si O2"
_cell_formula_units_Z 20
_cell_length_a 5.868784
_cell_length_b 6.679682
_cell_length_c 23.637866
_cell_angle_alpha 90.000000
_cell_angle_beta 106.869771
_cell_angle_gamma 90.000000
_cell_volume 886.766058
_symmetry_space_group_name_H-M "P 2/C"
_symmetry_group_IT_number 13
_symmetry_cell_setting 'monoclinic'
loop_
_space_group_symop_operation_xyz
x,y,z
-x,y,1/2-z
-x,-y,-z
x,-y,1/2+z
loop_
_atom_site_type_symbol
_atom_site_label
_atom_site_fract_x
_atom_site_fract_y
_atom_site_fract_z
Si Si1 0.037988 0.781717 0.135587
Si Si2 0.315410 0.063071 0.439746
Si Si3 0.018284 0.599078 0.561932
Si Si4 0.000000 0.371287 0.750000
Si Si5 0.381068 0.882079 0.639526
Si Si6 0.500000 0.404469 0.250000
O O1 0.084402 0.560710 0.114874
O O2 0.924593 0.761412 0.190256
O O3 0.885036 0.892319 0.076063
O O4 0.275347 0.914885 0.158882
O O5 0.232593 0.290070 0.445523
O O6 0.394221 0.052703 0.380412
O O7 0.500000 0.000000 0.500000
O O8 0.000000 0.500000 0.500000
O O9 0.213976 0.773189 0.580719
O O10 0.750969 0.481512 0.752331
O O11 0.448347 0.732021 0.693131
#
# Coordination Sequence:
#
# PCOD8122786 Si02
#       6
#     4   4   4   2   4   2
#     4  11  26  44  70 104 142 192 246 301 374 434
#     4  11  25  43  70 107 143 190 245 303 369 441
#     4  11  23  45  70 102 145 186 241 302 365 441
#     4  12  28  48  76 108 146 198 250 308 372 444
#     4  11  26  44  70 102 144 189 243 306 366 437
#     4  12  28  48  76 106 150 192 254 306 372 440
#
# _framework density 22.553863
#
# number of rings (size 3 to 8) (size 9 to 14) (size 15 to 20)
#    0.000    0.800    2.000    3.600    8.400    9.600 
#    0.000    0.000    0.000    0.000    0.000    0.000 
#    0.000    0.000    0.000    0.000    0.000    0.000 
#
# Total GULP energy -247762.828261 kJ/mol
# GULP energy per Si atom -12388.141413 kJ/mol
# Density = 2.250253 g / cm^3
# Si number density = 22.553863 Si / 1000 Ang^3
#
#
#
# Elastic Constant Matrix: (Units=GPa)
#
#
# Indices 1 2 3 4 5 6 
#
# 1 108.0469 41.9754 28.1322 0.0000 -8.0610 0.0000
# 2 41.9754 122.4892 41.8180 0.0000 -2.6405 0.0000
# 3 28.1322 41.8180 125.4412 0.0000 -9.6590 0.0000
# 4 0.0000 0.0000 0.0000 47.0754 0.0000 -12.5118
# 5 -8.0610 -2.6405 -9.6590 0.0000 38.8087 0.0000
# 6 0.0000 0.0000 0.0000 -12.5118 0.0000 25.0641
#
#
#
# Elastic Compliance Matrix: (Units=1/GPa)
#
#
# Indices 1 2 3 4 5 6 
#
# 1 0.010991 -0.003310 -0.001227 0.000000 0.001753 0.000000
# 2 -0.003310 0.010210 -0.002713 0.000000 -0.000668 0.000000
# 3 -0.001227 -0.002713 0.009296 0.000000 0.001874 0.000000
# 4 0.000000 0.000000 0.000000 0.024492 0.000000 0.012226
# 5 0.001753 -0.000668 0.001874 0.000000 0.026552 0.000000
# 6 0.000000 0.000000 0.000000 0.012226 0.000000 0.046001
#
#
# Mechanical properties :
#
#
# Convention : Reuss Voigt Hill
#
# Bulk Modulus (GPa) = 62.50734 64.42538 63.46636
# Shear Modulus (GPa) = 33.92734 38.45975 36.19354
#
# Velocity S-wave (km/s) = 3.88271 4.13394 4.01029
# Velocity P-wave (km/s) = 6.91921 7.17029 7.04587
#
# Compressibility (1/GPa) = 0.01599812
#
# Stress axis : x y z
#
# Youngs Moduli (GPa) = 90.98123 97.94280 107.57756
#
# Poissons Ratio (x) = 0.32419 0.13195
# Poissons Ratio (y) = 0.30115 0.29184
# Poissons Ratio (z) = 0.11159 0.26570
#
# Static dielectric constant tensor:
#      x y z
#    x 4.383730 0.000000 0.055660 
#    y 0.000000 3.997960 0.000000 
#    z 0.055660 0.000000 4.065100 
# 
# 
# High freq. dielectric constant tensor:
#      x y z
#    x 1.887470 0.000000 0.000110 
#    y 0.000000 1.900990 0.000000 
#    z 0.000110 0.000000 1.909020 
# 
# From -- ./inp_files/89913.got.cif
#   From: 2010.06.25/outbox.cif.g09.slc.cpg/sg13_45_cif.got.tgz:89913.got - 2010.06.28 04:50:58.
