data_PCOD8122306
_publ_section_title
;
Structure prediction by ZEFSAII (Michael W. Deem and Ramdas Pophale) SiO2 
 PCOD8122306
Probable space group: P 2/C
;
_chemical_formula_sum "Si O2"
_cell_formula_units_Z 30
_cell_length_a 14.934738
_cell_length_b 8.761916
_cell_length_c 13.462912
_cell_angle_alpha 90.000000
_cell_angle_beta 131.474167
_cell_angle_gamma 90.000000
_cell_volume 1319.972864
_symmetry_space_group_name_H-M "P 2/C"
_symmetry_group_IT_number 13
_symmetry_cell_setting 'monoclinic'
loop_
_space_group_symop_operation_xyz
x,y,z
-x,y,1/2-z
-x,-y,-z
x,-y,1/2+z
loop_
_atom_site_type_symbol
_atom_site_label
_atom_site_fract_x
_atom_site_fract_y
_atom_site_fract_z
Si Si1 0.686421 0.393519 0.739933
Si Si2 0.232400 0.585468 0.877650
Si Si3 0.154197 0.149667 0.102661
Si Si4 0.106815 0.182752 0.522585
Si Si5 0.000000 0.288946 0.250000
Si Si6 0.323428 0.623275 0.607067
Si Si7 0.570935 0.192470 0.487231
Si Si8 0.328096 0.121467 0.399551
O O1 0.725805 0.527617 0.697353
O O2 0.800026 0.308186 0.869945
O O3 0.619237 0.493172 0.777364
O O4 0.603408 0.279647 0.614452
O O5 0.315506 0.735427 0.966452
O O6 0.092379 0.610749 0.755485
O O7 0.238645 0.461954 0.967712
O O8 0.234867 0.262354 0.097601
O O9 0.201511 0.135482 0.250147
O O10 0.168845 0.980688 0.071072
O O11 0.014420 0.197154 0.001054
O O12 0.080774 0.195588 0.386579
O O13 0.421625 0.709841 0.609513
O O14 0.433981 0.142469 0.396396
O O15 0.655085 0.042560 0.535493
#
# Coordination Sequence:
#
# PCOD8122306 Si02
#       8
#     4   4   4   4   2   4   4   4
#     4  11  22  44  66 100 139 167 221 279 340 397
#     4  11  25  40  67  99 135 174 215 284 336 401
#     4  11  24  43  66  98 134 177 221 279 333 399
#     4  11  24  41  69  94 134 177 217 279 335 401
#     4  12  22  38  66  96 128 176 218 266 338 402
#     4  11  24  42  67 101 133 177 227 273 337 412
#     4  10  26  44  73  95 130 185 225 282 331 393
#     4  11  22  50  68  93 137 173 228 282 334 388
#
# _framework density 22.727739
#
# number of rings (size 3 to 8) (size 9 to 14) (size 15 to 20)
#    0.000    1.067    5.333    0.000    3.733    3.733 
#    4.800    0.000    0.000    0.000    0.000    0.000 
#    0.000    0.000    0.000    0.000    0.000    0.000 
#
# Total GULP energy -371734.950431 kJ/mol
# GULP energy per Si atom -12391.165014 kJ/mol
# Density = 2.267601 g / cm^3
# Si number density = 22.727739 Si / 1000 Ang^3
#
#
#
# Elastic Constant Matrix: (Units=GPa)
#
#
# Indices 1 2 3 4 5 6 
#
# 1 39.5935 17.6674 7.8815 0.0000 -5.6536 0.0000
# 2 17.6674 116.1608 21.3229 0.0000 -7.1987 0.0000
# 3 7.8815 21.3229 65.9428 0.0000 -17.4684 0.0000
# 4 0.0000 0.0000 0.0000 28.0996 0.0000 -1.4766
# 5 -5.6536 -7.1987 -17.4684 0.0000 33.9719 0.0000
# 6 0.0000 0.0000 0.0000 -1.4766 0.0000 28.2681
#
#
#
# Elastic Compliance Matrix: (Units=1/GPa)
#
#
# Indices 1 2 3 4 5 6 
#
# 1 0.027642 -0.003780 -0.001245 0.000000 0.003159 0.000000
# 2 -0.003780 0.009676 -0.002663 0.000000 0.000052 0.000000
# 3 -0.001245 -0.002663 0.018489 0.000000 0.008735 0.000000
# 4 0.000000 0.000000 0.000000 0.035686 0.000000 0.001864
# 5 0.003159 0.000052 0.008735 0.000000 0.034465 0.000000
# 6 0.000000 0.000000 0.000000 0.001864 0.000000 0.035473
#
#
# Mechanical properties :
#
#
# Convention : Reuss Voigt Hill
#
# Bulk Modulus (GPa) = 24.73351 35.04897 29.89124
# Shear Modulus (GPa) = 26.27674 29.72293 27.99984
#
# Velocity S-wave (km/s) = 3.40391 3.62025 3.51375
# Velocity P-wave (km/s) = 5.13371 5.73844 5.44448
#
# Compressibility (1/GPa) = 0.04043098
#
# Stress axis : x y z
#
# Youngs Moduli (GPa) = 36.17649 103.35120 54.08741
#
# Poissons Ratio (x) = 0.39066 0.06732
# Poissons Ratio (y) = 0.13675 0.14404
# Poissons Ratio (z) = 0.04503 0.27524
#
# Static dielectric constant tensor:
#      x y z
#    x 4.088660 0.000000 -0.048060 
#    y 0.000000 4.436740 0.000000 
#    z -0.048060 0.000000 4.293980 
# 
# 
# High freq. dielectric constant tensor:
#      x y z
#    x 1.897700 0.000000 -0.001140 
#    y 0.000000 1.913620 0.000000 
#    z -0.001140 0.000000 1.890670 
# 
# From -- ./inp_files/53164.got.cif
#   From: 2010.06.25/outbox.cif.g09.slc.cpg/sg13_27_cif.got.tgz:53164.got - 2010.06.28 04:50:58.
