data_PCOD8122274
_publ_section_title
;
Structure prediction by ZEFSAII (Michael W. Deem and Ramdas Pophale) SiO2 
 PCOD8122274
Probable space group: P 2/C
;
_chemical_formula_sum "Si O2"
_cell_formula_units_Z 24
_cell_length_a 9.822471
_cell_length_b 14.981309
_cell_length_c 11.464411
_cell_angle_alpha 90.000000
_cell_angle_beta 138.513531
_cell_angle_gamma 90.000000
_cell_volume 1117.560084
_symmetry_space_group_name_H-M "P 2/C"
_symmetry_group_IT_number 13
_symmetry_cell_setting 'monoclinic'
loop_
_space_group_symop_operation_xyz
x,y,z
-x,y,1/2-z
-x,-y,-z
x,-y,1/2+z
loop_
_atom_site_type_symbol
_atom_site_label
_atom_site_fract_x
_atom_site_fract_y
_atom_site_fract_z
Si Si1 0.724746 0.325095 0.941280
Si Si2 0.292182 0.553084 0.848923
Si Si3 0.500000 0.008512 0.750000
Si Si4 0.000000 0.415740 0.750000
Si Si5 0.761662 0.138375 0.075375
Si Si6 0.326315 0.161218 0.223379
Si Si7 0.888876 0.331103 0.456683
O O1 0.500000 0.344705 0.750000
O O2 0.761193 0.380721 0.080590
O O3 0.763765 0.221523 0.990506
O O4 0.886343 0.356854 0.947712
O O5 0.124335 0.475591 0.738704
O O6 0.283643 0.612386 0.725491
O O7 0.500000 0.500000 0.000000
O O8 0.380150 0.063451 0.575012
O O9 0.680834 0.944888 0.811141
O O10 0.863454 0.353939 0.577146
O O11 0.642415 0.166390 0.117061
O O12 0.000000 0.106881 0.250000
O O13 0.500000 0.204891 0.250000
O O14 0.131107 0.223402 0.069581
#
# Coordination Sequence:
#
# PCOD8122274 Si02
#       7
#     4   4   2   2   4   4   4
#     4  12  24  44  75 101 139 191 243 289 361 437
#     4  12  26  43  71 101 140 185 238 300 359 424
#     4  10  26  46  72 112 142 184 252 296 364 446
#     4  12  28  42  68 102 142 182 238 302 346 424
#     4  12  22  47  76 103 145 194 239 296 364 441
#     4  10  25  45  71 102 145 185 230 302 361 428
#     4  12  25  50  66 104 145 186 245 291 366 434
#
# _framework density 21.475356000000001
#
# number of rings (size 3 to 8) (size 9 to 14) (size 15 to 20)
#    0.500    0.000    5.833    2.000    4.667    2.000 
#    1.500    0.000    0.000    0.000    0.000    0.000 
#    0.000    0.000    0.000    0.000    0.000    0.000 
#
# Total GULP energy -297362.039522 kJ/mol
# GULP energy per Si atom -12390.084980 kJ/mol
# Density = 2.142648 g / cm^3
# Si number density = 21.475356 Si / 1000 Ang^3
#
#
#
# Elastic Constant Matrix: (Units=GPa)
#
#
# Indices 1 2 3 4 5 6 
#
# 1 85.9078 21.2347 37.0524 0.0000 -8.6613 0.0000
# 2 21.2347 126.2912 58.5535 0.0000 -7.1595 0.0000
# 3 37.0524 58.5535 135.7910 0.0000 -11.4989 0.0000
# 4 0.0000 0.0000 0.0000 26.1309 0.0000 1.8192
# 5 -8.6613 -7.1595 -11.4989 0.0000 41.1464 0.0000
# 6 0.0000 0.0000 0.0000 1.8192 0.0000 32.5155
#
#
#
# Elastic Compliance Matrix: (Units=1/GPa)
#
#
# Indices 1 2 3 4 5 6 
#
# 1 0.013370 -0.000656 -0.003212 0.000000 0.001802 0.000000
# 2 -0.000656 0.009941 -0.004069 0.000000 0.000454 0.000000
# 3 -0.003212 -0.004069 0.010118 0.000000 0.001443 0.000000
# 4 0.000000 0.000000 0.000000 0.038419 0.000000 -0.002150
# 5 0.001802 0.000454 0.001443 0.000000 0.025165 0.000000
# 6 0.000000 0.000000 0.000000 -0.002150 0.000000 0.030875
#
#
# Mechanical properties :
#
#
# Convention : Reuss Voigt Hill
#
# Bulk Modulus (GPa) = 56.97136 64.63014 60.80075
# Shear Modulus (GPa) = 33.41942 35.36851 34.39397
#
# Velocity S-wave (km/s) = 3.94912 4.06265 4.00628
# Velocity P-wave (km/s) = 6.88334 7.22268 7.05505
#
# Compressibility (1/GPa) = 0.01755268
#
# Stress axis : x y z
#
# Youngs Moduli (GPa) = 74.79480 100.59492 98.83777
#
# Poissons Ratio (x) = 0.06603 0.31752
# Poissons Ratio (y) = 0.04910 0.40217
# Poissons Ratio (z) = 0.24028 0.40931
#
# Static dielectric constant tensor:
#      x y z
#    x 4.010220 0.000000 0.063130 
#    y 0.000000 3.998660 0.000000 
#    z 0.063130 0.000000 3.836300 
# 
# 
# High freq. dielectric constant tensor:
#      x y z
#    x 1.844210 0.000000 -0.012390 
#    y 0.000000 1.852380 0.000000 
#    z -0.012390 0.000000 1.834690 
# 
# From -- ./inp_files/34451.got.cif
#   From: 2010.06.25/outbox.cif.g09.slc.cpg/sg13_18_cif.got.tgz:34451.got - 2010.06.28 04:50:58.
