data_PCOD8122577
_publ_section_title
;
Structure prediction by ZEFSAII (Michael W. Deem and Ramdas Pophale) SiO2 
 PCOD8122577
Probable space group: P 2/C
;
_chemical_formula_sum "Si O2"
_cell_formula_units_Z 28
_cell_length_a 23.906143
_cell_length_b 6.534768
_cell_length_c 15.873942
_cell_angle_alpha 90.000000
_cell_angle_beta 144.250030
_cell_angle_gamma 90.000000
_cell_volume 1448.847356
_symmetry_space_group_name_H-M "P 2/C"
_symmetry_group_IT_number 13
_symmetry_cell_setting 'monoclinic'
loop_
_space_group_symop_operation_xyz
x,y,z
-x,y,1/2-z
-x,-y,-z
x,-y,1/2+z
loop_
_atom_site_type_symbol
_atom_site_label
_atom_site_fract_x
_atom_site_fract_y
_atom_site_fract_z
Si Si1 0.947480 0.197826 0.400539
Si Si2 0.430780 0.980543 0.336019
Si Si3 0.098709 0.500145 0.510106
Si Si4 0.500000 0.108700 0.250000
Si Si5 0.736106 0.319322 0.882468
Si Si6 0.000000 0.247771 0.750000
Si Si7 0.839411 0.012304 0.127192
Si Si8 0.324777 0.283389 0.104367
O O1 0.900165 0.334296 0.414947
O O2 0.024575 0.321059 0.439881
O O3 0.855464 0.139946 0.231907
O O4 0.000000 0.000000 0.500000
O O5 0.361237 0.178388 0.237348
O O6 0.500000 0.000000 0.500000
O O7 0.493771 0.963245 0.326092
O O8 0.362877 0.784358 0.268353
O O9 0.206338 0.413094 0.626916
O O10 0.070328 0.609184 0.388801
O O11 0.409125 0.263216 0.137912
O O12 0.706951 0.487045 0.916438
O O13 0.808637 0.159979 0.013927
O O14 0.060214 0.099394 0.764508
O O15 0.760983 0.838600 0.044268
#
# Coordination Sequence:
#
# PCOD8122577 Si02
#       8
#     4   4   4   2   4   2   4   4
#     4  11  24  42  58  91 135 172 209 268 325 369
#     4   9  21  43  66  95 128 164 212 266 342 390
#     4  11  24  39  60  95 128 170 224 259 315 387
#     4   8  20  46  60  94 126 164 204 272 328 394
#     4  11  22  41  66  95 124 168 222 263 320 394
#     4  12  20  40  68  84 132 172 216 264 302 382
#     4  11  22  39  63  90 125 172 210 261 322 378
#     4   9  21  41  63  92 125 159 216 265 318 395
#
# _framework density 19.325709
#
# number of rings (size 3 to 8) (size 9 to 14) (size 15 to 20)
#    0.857    0.857    2.857    1.714    0.000    1.143 
#    7.714    0.000    0.000    0.000    0.000    0.000 
#    0.000    0.000    0.000    0.000    0.000    0.000 
#
# Total GULP energy -347025.502042 kJ/mol
# GULP energy per Si atom -12393.767930 kJ/mol
# Density = 1.928172 g / cm^3
# Si number density = 19.325709 Si / 1000 Ang^3
#
#
#
# Elastic Constant Matrix: (Units=GPa)
#
#
# Indices 1 2 3 4 5 6 
#
# 1 117.4597 40.9335 46.8501 0.0000 13.9398 0.0000
# 2 40.9335 100.8013 40.2026 0.0000 7.8619 0.0000
# 3 46.8501 40.2026 111.8222 0.0000 -3.6559 0.0000
# 4 0.0000 0.0000 0.0000 33.5606 0.0000 8.4445
# 5 13.9398 7.8619 -3.6559 0.0000 36.5878 0.0000
# 6 0.0000 0.0000 0.0000 8.4445 0.0000 30.9794
#
#
#
# Elastic Compliance Matrix: (Units=1/GPa)
#
#
# Indices 1 2 3 4 5 6 
#
# 1 0.011572 -0.002781 -0.003986 0.000000 -0.004210 0.000000
# 2 -0.002781 0.012568 -0.003418 0.000000 -0.001982 0.000000
# 3 -0.003986 -0.003418 0.011954 0.000000 0.003448 0.000000
# 4 0.000000 0.000000 0.000000 0.031991 0.000000 -0.008720
# 5 -0.004210 -0.001982 0.003448 0.000000 0.029706 0.000000
# 6 0.000000 0.000000 0.000000 -0.008720 0.000000 0.034656
#
#
# Mechanical properties :
#
#
# Convention : Reuss Voigt Hill
#
# Bulk Modulus (GPa) = 63.59784 65.11726 64.35755
# Shear Modulus (GPa) = 31.63364 33.69869 32.66617
#
# Velocity S-wave (km/s) = 4.05021 4.18032 4.11578
# Velocity P-wave (km/s) = 7.40622 7.55433 7.48064
#
# Compressibility (1/GPa) = 0.01572380
#
# Stress axis : x y z
#
# Youngs Moduli (GPa) = 86.41333 79.56920 83.65115
#
# Poissons Ratio (x) = 0.22129 0.33345
# Poissons Ratio (y) = 0.24033 0.28592
# Poissons Ratio (z) = 0.34446 0.27196
#
# Static dielectric constant tensor:
#      x y z
#    x 3.400220 0.000000 0.147320 
#    y 0.000000 3.632550 0.000000 
#    z 0.147320 0.000000 3.407220 
# 
# 
# High freq. dielectric constant tensor:
#      x y z
#    x 1.744600 0.000000 0.011900 
#    y 0.000000 1.758020 0.000000 
#    z 0.011900 0.000000 1.744400 
# 
# From -- ./inp_files/71712.got.cif
#   From: 2010.06.25/outbox.cif.g09.slc.cpg/sg13_36_cif.got.tgz:71712.got - 2010.06.28 04:50:58.
