data_PCOD8122731
_publ_section_title
;
Structure prediction by ZEFSAII (Michael W. Deem and Ramdas Pophale) SiO2 
 PCOD8122731
Probable space group: P 2/C
;
_chemical_formula_sum "Si O2"
_cell_formula_units_Z 24
_cell_length_a 14.108640
_cell_length_b 13.968776
_cell_length_c 12.300239
_cell_angle_alpha 90.000000
_cell_angle_beta 29.328677
_cell_angle_gamma 90.000000
_cell_volume 1187.387754
_symmetry_space_group_name_H-M "P 2/C"
_symmetry_group_IT_number 13
_symmetry_cell_setting 'monoclinic'
loop_
_space_group_symop_operation_xyz
x,y,z
-x,y,1/2-z
-x,-y,-z
x,-y,1/2+z
loop_
_atom_site_type_symbol
_atom_site_label
_atom_site_fract_x
_atom_site_fract_y
_atom_site_fract_z
Si Si1 0.130646 0.040205 0.723377
Si Si2 0.179832 0.865087 0.817071
Si Si3 0.320169 0.634913 0.176737
Si Si4 0.630645 0.459796 0.515332
Si Si5 0.044756 0.311819 0.320108
Si Si6 0.544755 0.188181 0.090381
O O1 0.315261 0.103405 0.510316
O O2 0.000000 0.016466 0.750000
O O3 0.216063 0.941379 0.685320
O O4 0.010471 0.101073 0.930391
O O5 0.146645 0.760645 0.800292
O O6 0.359772 0.859419 0.718253
O O7 0.510473 0.601074 0.048666
O O8 0.140228 0.640582 0.437798
O O9 0.283939 0.558621 0.117446
O O10 0.353355 0.739355 0.093582
O O11 0.500000 0.483535 0.750000
O O12 0.815260 0.396595 0.359163
O O13 0.000000 0.258551 0.250000
O O14 0.500000 0.241449 0.250000
#
# Coordination Sequence:
#
# PCOD8122731 Si02
#       6
#     4   4   4   4   4   4
#     4  11  23  43  64  93 130 169 215 264 319 379
#     4  11  24  41  65  94 131 169 212 268 318 381
#     4  11  24  41  65  94 131 169 212 268 318 381
#     4  11  23  43  64  93 130 169 215 264 319 379
#     4  12  23  42  67  96 128 173 216 263 324 379
#     4  12  23  42  67  96 128 173 216 263 324 379
#
# _framework density 20.212437000000001
#
# number of rings (size 3 to 8) (size 9 to 14) (size 15 to 20)
#    0.000    0.667    6.667    2.000    0.000    0.000 
#    0.000    1.667    0.000    0.000    0.000    0.000 
#    0.000    0.000    0.000    0.000    0.000    0.000 
#
# Total GULP energy -297635.237864 kJ/mol
# GULP energy per Si atom -12401.468244 kJ/mol
# Density = 2.016643 g / cm^3
# Si number density = 20.212437 Si / 1000 Ang^3
#
#
#
# Elastic Constant Matrix: (Units=GPa)
#
#
# Indices 1 2 3 4 5 6 
#
# 1 120.9555 36.1470 27.4542 0.0000 3.2999 0.0000
# 2 36.1470 85.2936 35.7598 0.0000 0.4788 0.0000
# 3 27.4542 35.7598 110.6558 0.0000 9.4216 0.0000
# 4 0.0000 0.0000 0.0000 20.8454 0.0000 6.2080
# 5 3.2999 0.4788 9.4216 0.0000 37.8565 0.0000
# 6 0.0000 0.0000 0.0000 6.2080 0.0000 25.8722
#
#
#
# Elastic Compliance Matrix: (Units=1/GPa)
#
#
# Indices 1 2 3 4 5 6 
#
# 1 0.009619 -0.003575 -0.001189 0.000000 -0.000497 0.000000
# 2 -0.003575 0.014923 -0.004031 0.000000 0.001126 0.000000
# 3 -0.001189 -0.004031 0.010852 0.000000 -0.002546 0.000000
# 4 0.000000 0.000000 0.000000 0.051664 0.000000 -0.012397
# 5 -0.000497 0.001126 -0.002546 0.000000 0.027078 0.000000
# 6 0.000000 0.000000 0.000000 -0.012397 0.000000 0.041626
#
#
# Mechanical properties :
#
#
# Convention : Reuss Voigt Hill
#
# Bulk Modulus (GPa) = 56.17069 57.29188 56.73129
# Shear Modulus (GPa) = 27.88800 31.41775 29.65288
#
# Velocity S-wave (km/s) = 3.71852 3.94684 3.83438
# Velocity P-wave (km/s) = 6.80346 7.01259 6.90881
#
# Compressibility (1/GPa) = 0.01780288
#
# Stress axis : x y z
#
# Youngs Moduli (GPa) = 103.95644 67.00897 92.15244
#
# Poissons Ratio (x) = 0.23959 0.10955
# Poissons Ratio (y) = 0.37169 0.37151
# Poissons Ratio (z) = 0.12358 0.27015
#
# Static dielectric constant tensor:
#      x y z
#    x 3.728530 0.000000 0.075310 
#    y 0.000000 3.588710 0.000000 
#    z 0.075310 0.000000 3.667530 
# 
# 
# High freq. dielectric constant tensor:
#      x y z
#    x 1.801710 0.000000 0.004820 
#    y 0.000000 1.787870 0.000000 
#    z 0.004820 0.000000 1.797800 
# 
# From -- ./inp_files/37443.got.cif
#   From: 2010.06.25/outbox.cif.g09.slc.cpg/sg13_19_cif.got.tgz:37443.got - 2010.06.28 04:50:58.
