data_PCOD8122693
_publ_section_title
;
Structure prediction by ZEFSAII (Michael W. Deem and Ramdas Pophale) SiO2 
 PCOD8122693
Probable space group: P 2/C
;
_chemical_formula_sum "Si O2"
_cell_formula_units_Z 16
_cell_length_a 17.478001
_cell_length_b 9.105124
_cell_length_c 16.620988
_cell_angle_alpha 90.000000
_cell_angle_beta 16.632261
_cell_angle_gamma 90.000000
_cell_volume 757.088150
_symmetry_space_group_name_H-M "P 2/C"
_symmetry_group_IT_number 13
_symmetry_cell_setting 'monoclinic'
loop_
_space_group_symop_operation_xyz
x,y,z
-x,y,1/2-z
-x,-y,-z
x,-y,1/2+z
loop_
_atom_site_type_symbol
_atom_site_label
_atom_site_fract_x
_atom_site_fract_y
_atom_site_fract_z
Si Si1 0.752099 0.219185 0.550492
Si Si2 0.396208 0.610068 0.036935
Si Si3 0.105245 0.449883 0.560293
Si Si4 0.251564 0.904211 0.270458
O O1 0.500000 0.183534 0.750000
O O2 0.768314 0.391212 0.552635
O O3 0.745056 0.127973 0.638862
O O4 0.000000 0.161216 0.250000
O O5 0.267862 0.755213 0.203217
O O6 0.152062 0.531069 0.237457
O O7 0.500000 0.500000 0.000000
O O8 0.652078 0.646862 0.721775
O O9 0.000000 0.378467 0.750000
O O10 0.000000 0.000000 0.500000
O O11 0.500000 0.000000 0.000000
#
# Coordination Sequence:
#
# PCOD8122693 Si02
#       4
#     4   4   4   4
#     4  11  23  42  71  98 132 175 230 279 337 411
#     4  12  24  42  70  99 136 175 228 286 342 401
#     4  11  23  40  69 104 135 170 230 291 348 393
#     4  12  27  45  67 100 139 183 228 273 341 416
#
# _framework density 21.133603000000001
#
# number of rings (size 3 to 8) (size 9 to 14) (size 15 to 20)
#    0.000    0.500    2.500    7.500    3.500    0.000 
#    0.000   12.500    0.000    0.000    0.000    0.000 
#    0.000    0.000    0.000    0.000    0.000    0.000 
#
# Total GULP energy -198434.413062 kJ/mol
# GULP energy per Si atom -12402.150816 kJ/mol
# Density = 2.108550 g / cm^3
# Si number density = 21.133603 Si / 1000 Ang^3
#
#
#
# Elastic Constant Matrix: (Units=GPa)
#
#
# Indices 1 2 3 4 5 6 
#
# 1 175.6081 57.0774 95.7913 0.0000 1.4765 0.0000
# 2 57.0774 92.2921 52.4462 0.0000 7.3848 0.0000
# 3 95.7913 52.4462 200.3536 0.0000 0.6803 0.0000
# 4 0.0000 0.0000 0.0000 53.1487 0.0000 -0.5814
# 5 1.4765 7.3848 0.6803 0.0000 54.9762 0.0000
# 6 0.0000 0.0000 0.0000 -0.5814 0.0000 30.8779
#
#
#
# Elastic Compliance Matrix: (Units=1/GPa)
#
#
# Indices 1 2 3 4 5 6 
#
# 1 0.008568 -0.003516 -0.003177 0.000000 0.000281 0.000000
# 2 -0.003516 0.014326 -0.002063 0.000000 -0.001804 0.000000
# 3 -0.003177 -0.002063 0.007049 0.000000 0.000275 0.000000
# 4 0.000000 0.000000 0.000000 0.018819 0.000000 0.000354
# 5 0.000281 -0.001804 0.000275 0.000000 0.018421 0.000000
# 6 0.000000 0.000000 0.000000 0.000354 0.000000 0.032392
#
#
# Mechanical properties :
#
#
# Convention : Reuss Voigt Hill
#
# Bulk Modulus (GPa) = 80.44073 97.65371 89.04722
# Shear Modulus (GPa) = 41.24337 45.32983 43.28660
#
# Velocity S-wave (km/s) = 4.42243 4.63635 4.53065
# Velocity P-wave (km/s) = 8.01391 8.65847 8.34242
#
# Compressibility (1/GPa) = 0.01243151
#
# Stress axis : x y z
#
# Youngs Moduli (GPa) = 116.71475 69.80177 141.85911
#
# Poissons Ratio (x) = 0.24542 0.45069
# Poissons Ratio (y) = 0.41036 0.29266
# Poissons Ratio (z) = 0.37080 0.14400
#
# Static dielectric constant tensor:
#      x y z
#    x 3.828270 0.000000 0.272790 
#    y 0.000000 3.480370 0.000000 
#    z 0.272790 0.000000 4.316050 
# 
# 
# High freq. dielectric constant tensor:
#      x y z
#    x 1.851480 0.000000 0.003090 
#    y 0.000000 1.800330 0.000000 
#    z 0.003090 0.000000 1.861440 
# 
# From -- ./inp_files/52723.got.cif
#   From: 2010.06.25/outbox.cif.g09.slc.cpg/sg13_27_cif.got.tgz:52723.got - 2010.06.28 04:50:58.
