data_PCOD8122650
_publ_section_title
;
Structure prediction by ZEFSAII (Michael W. Deem and Ramdas Pophale) SiO2 
 PCOD8122650
Probable space group: P 2/C
;
_chemical_formula_sum "Si O2"
_cell_formula_units_Z 32
_cell_length_a 17.521356
_cell_length_b 10.955038
_cell_length_c 14.223904
_cell_angle_alpha 90.000000
_cell_angle_beta 31.737730
_cell_angle_gamma 90.000000
_cell_volume 1436.191723
_symmetry_space_group_name_H-M "P 2/C"
_symmetry_group_IT_number 13
_symmetry_cell_setting 'monoclinic'
loop_
_space_group_symop_operation_xyz
x,y,z
-x,y,1/2-z
-x,-y,-z
x,-y,1/2+z
loop_
_atom_site_type_symbol
_atom_site_label
_atom_site_fract_x
_atom_site_fract_y
_atom_site_fract_z
Si Si1 0.830227 0.011638 0.442972
Si Si2 0.651544 0.047398 0.448086
Si Si3 0.142484 0.561032 0.961565
Si Si4 0.290629 0.807405 0.802247
Si Si5 0.635263 0.805207 0.226342
Si Si6 0.817506 0.554681 0.276850
Si Si7 0.390162 0.235432 0.540649
Si Si8 0.658655 0.564516 0.093588
O O1 0.766098 0.057561 0.411376
O O2 0.784757 0.116756 0.565158
O O3 0.000000 0.000083 0.250000
O O4 0.765917 0.883934 0.548602
O O5 0.702341 0.112839 0.299778
O O6 0.498569 0.100315 0.645118
O O7 0.641953 0.906315 0.434072
O O8 0.180358 0.699164 0.895582
O O9 0.167615 0.469734 0.848738
O O10 0.239523 0.513293 0.944772
O O11 0.972675 0.564834 0.165289
O O12 0.445103 0.745620 0.667189
O O13 0.622679 0.730237 0.335877
O O14 0.639661 0.705779 0.139195
O O15 0.724361 0.678807 0.393751
O O16 0.732340 0.441704 0.413564
O O17 0.500000 0.503463 0.250000
#
# Coordination Sequence:
#
# PCOD8122650 Si02
#       8
#     4   4   4   4   4   4   4   4
#     4  12  27  41  65 104 142 184 235 287 358 425
#     4  11  24  46  73  99 139 183 230 298 351 413
#     4  11  27  48  67 102 150 181 240 291 354 441
#     4  11  25  45  70 102 136 184 238 297 347 420
#     4  11  23  48  70 106 139 180 239 299 346 424
#     4  11  27  47  71 103 140 196 226 294 367 418
#     4  11  22  46  77  99 140 180 238 292 351 416
#     4  12  26  44  75 103 140 186 239 295 348 421
#
# _framework density 22.281148000000002
#
# number of rings (size 3 to 8) (size 9 to 14) (size 15 to 20)
#    0.000    0.750    3.750    3.000    8.750    3.500 
#    0.000    0.000    0.000    0.000    0.000    0.000 
#    0.000    0.000    0.000    0.000    0.000    0.000 
#
# Total GULP energy -396784.333642 kJ/mol
# GULP energy per Si atom -12399.510426 kJ/mol
# Density = 2.223044 g / cm^3
# Si number density = 22.281148 Si / 1000 Ang^3
#
#
#
# Elastic Constant Matrix: (Units=GPa)
#
#
# Indices 1 2 3 4 5 6 
#
# 1 87.9476 24.6852 52.0264 0.0000 -24.5536 0.0000
# 2 24.6852 117.5418 57.7408 0.0000 -8.8221 0.0000
# 3 52.0264 57.7408 174.5083 0.0000 -28.9444 0.0000
# 4 0.0000 0.0000 0.0000 32.5803 0.0000 1.8473
# 5 -24.5536 -8.8221 -28.9444 0.0000 27.7159 0.0000
# 6 0.0000 0.0000 0.0000 1.8473 0.0000 34.5214
#
#
#
# Elastic Compliance Matrix: (Units=1/GPa)
#
#
# Indices 1 2 3 4 5 6 
#
# 1 0.016469 -0.001338 -0.002562 0.000000 0.011489 0.000000
# 2 -0.001338 0.010270 -0.003210 0.000000 -0.001268 0.000000
# 3 -0.002562 -0.003210 0.008479 0.000000 0.005564 0.000000
# 4 0.000000 0.000000 0.000000 0.030787 0.000000 -0.001647
# 5 0.011489 -0.001268 0.005564 0.000000 0.051665 0.000000
# 6 0.000000 0.000000 0.000000 -0.001647 0.000000 0.029056
#
#
# Mechanical properties :
#
#
# Convention : Reuss Voigt Hill
#
# Bulk Modulus (GPa) = 47.62044 72.10025 59.86035
# Shear Modulus (GPa) = 29.77196 35.33321 32.55258
#
# Velocity S-wave (km/s) = 3.65937 3.98652 3.82644
# Velocity P-wave (km/s) = 6.26686 7.32252 6.81516
#
# Compressibility (1/GPa) = 0.02099939
#
# Stress axis : x y z
#
# Youngs Moduli (GPa) = 60.72095 97.37013 117.94030
#
# Poissons Ratio (x) = 0.13028 0.30212
# Poissons Ratio (y) = 0.08124 0.37854
# Poissons Ratio (z) = 0.15554 0.31252
#
# Static dielectric constant tensor:
#      x y z
#    x 4.170960 0.000000 0.136550 
#    y 0.000000 3.935860 0.000000 
#    z 0.136550 0.000000 4.316110 
# 
# 
# High freq. dielectric constant tensor:
#      x y z
#    x 1.876680 0.000000 0.005800 
#    y 0.000000 1.881410 0.000000 
#    z 0.005800 0.000000 1.886700 
# 
# From -- ./inp_files/55812.got.cif
#   From: 2010.06.25/outbox.cif.g09.slc.cpg/sg13_28_cif.got.tgz:55812.got - 2010.06.28 04:50:58.
