data_PCOD8122789
_publ_section_title
;
Structure prediction by ZEFSAII (Michael W. Deem and Ramdas Pophale) SiO2 
 PCOD8122789
Probable space group: P 2/C
;
_chemical_formula_sum "Si O2"
_cell_formula_units_Z 30
_cell_length_a 8.757028
_cell_length_b 14.963098
_cell_length_c 11.620048
_cell_angle_alpha 90.000000
_cell_angle_beta 68.594036
_cell_angle_gamma 90.000000
_cell_volume 1417.568908
_symmetry_space_group_name_H-M "P 2/C"
_symmetry_group_IT_number 13
_symmetry_cell_setting 'monoclinic'
loop_
_space_group_symop_operation_xyz
x,y,z
-x,y,1/2-z
-x,-y,-z
x,-y,1/2+z
loop_
_atom_site_type_symbol
_atom_site_label
_atom_site_fract_x
_atom_site_fract_y
_atom_site_fract_z
Si Si1 0.112357 0.751103 0.552922
Si Si2 0.305352 0.102067 0.575043
Si Si3 0.500000 0.310249 0.250000
Si Si4 0.237313 0.182456 0.367534
Si Si5 0.403563 0.581404 0.161918
Si Si6 0.675309 0.398138 0.406631
Si Si7 0.169788 0.746306 0.268096
Si Si8 0.324794 0.098269 0.112313
O O1 0.163598 0.654996 0.593824
O O2 0.136698 0.756722 0.410841
O O3 0.213274 0.831842 0.577489
O O4 0.922273 0.766408 0.636660
O O5 0.194697 0.127989 0.494835
O O6 0.264413 0.166660 0.693413
O O7 0.495432 0.107619 0.489955
O O8 0.254694 0.001503 0.619920
O O9 0.378190 0.252917 0.364149
O O10 0.617644 0.365169 0.299085
O O11 0.318064 0.118933 0.249372
O O12 0.500000 0.547306 0.250000
O O13 0.300003 0.503912 0.123465
O O14 0.278444 0.658853 0.224550
O O15 0.537899 0.620863 0.039052
O O16 0.000000 0.731372 0.250000
#
# Coordination Sequence:
#
# PCOD8122789 Si02
#       8
#     4   4   2   4   4   4   4   4
#     4  12  25  44  69 102 139 176 225 279 349 401
#     4  11  25  45  68  95 136 182 232 281 341 394
#     4  12  22  42  72  94 132 182 222 274 338 406
#     4  12  23  43  67  98 140 177 227 278 336 416
#     4  11  23  45  71 100 133 175 231 275 334 413
#     4  11  24  43  71 103 130 176 223 284 339 397
#     4  12  26  46  67  99 139 183 221 280 341 407
#     4  11  25  42  68 102 130 180 233 285 332 407
#
# _framework density 21.162994000000001
#
# number of rings (size 3 to 8) (size 9 to 14) (size 15 to 20)
#    0.000    0.533    6.000    2.000    1.867    1.600 
#    2.400    0.667    0.000    0.000    0.000    0.000 
#    0.000    0.000    0.000    0.000    0.000    0.000 
#
# Total GULP energy -371980.172377 kJ/mol
# GULP energy per Si atom -12399.339079 kJ/mol
# Density = 2.111483 g / cm^3
# Si number density = 21.162994 Si / 1000 Ang^3
#
#
#
# Elastic Constant Matrix: (Units=GPa)
#
#
# Indices 1 2 3 4 5 6 
#
# 1 78.3087 38.2287 -2.5202 0.0000 3.2638 0.0000
# 2 38.2287 106.1310 11.8749 0.0000 -3.3023 0.0000
# 3 -2.5202 11.8749 72.2618 0.0000 14.1994 0.0000
# 4 0.0000 0.0000 0.0000 11.2944 0.0000 6.8563
# 5 3.2638 -3.3023 14.1994 0.0000 35.4298 0.0000
# 6 0.0000 0.0000 0.0000 6.8563 0.0000 3.9456
#
#
#
# Elastic Compliance Matrix: (Units=1/GPa)
#
#
# Indices 1 2 3 4 5 6 
#
# 1 0.015916 -0.006059 0.002117 0.000000 -0.002879 0.000000
# 2 -0.006059 0.011996 -0.002727 0.000000 0.002769 0.000000
# 3 0.002117 -0.002727 0.015684 0.000000 -0.006735 0.000000
# 4 0.000000 0.000000 0.000000 -1.613533 0.000000 2.803824
# 5 -0.002879 0.002769 -0.006735 0.000000 0.031447 0.000000
# 6 0.000000 0.000000 0.000000 2.803824 0.000000 -4.618738
#
#
# Mechanical properties :
#
#
# Convention : Reuss Voigt Hill
#
# Bulk Modulus (GPa) = 33.05019 39.09646 36.07332
# Shear Modulus (GPa) = -0.81516 24.07517 11.63001
#
# Velocity S-wave (km/s) = -0.62130 3.37650 2.34678
# Velocity P-wave (km/s) = 3.89053 5.80647 4.94223
#
# Compressibility (1/GPa) = 0.03025701
#
# Stress axis : x y z
#
# Youngs Moduli (GPa) = 62.82903 83.35958 63.75960
#
# Poissons Ratio (x) = 0.50512 -0.13496
# Poissons Ratio (y) = 0.38071 0.17386
# Poissons Ratio (z) = -0.13299 0.22731
#
# Static dielectric constant tensor:
#      x y z
#    x 3.992960 0.000000 0.311110 
#    y 0.000000 4.027820 0.000000 
#    z 0.311110 0.000000 4.492380 
# 
# 
# High freq. dielectric constant tensor:
#      x y z
#    x 1.826890 0.000000 0.005960 
#    y 0.000000 1.835000 0.000000 
#    z 0.005960 0.000000 1.846790 
# 
# From -- ./inp_files/30372.got.cif
#   From: 2010.06.25/outbox.cif.g09.slc.cpg/sg13_16_cif.got.tgz:30372.got - 2010.06.28 04:50:58.
