data_PCOD8122591
_publ_section_title
;
Structure prediction by ZEFSAII (Michael W. Deem and Ramdas Pophale) SiO2 
 PCOD8122591
Probable space group: P 2/C
;
_chemical_formula_sum "Si O2"
_cell_formula_units_Z 28
_cell_length_a 14.319962
_cell_length_b 12.134951
_cell_length_c 8.788133
_cell_angle_alpha 90.000000
_cell_angle_beta 109.859149
_cell_angle_gamma 90.000000
_cell_volume 1436.314123
_symmetry_space_group_name_H-M "P 2/C"
_symmetry_group_IT_number 13
_symmetry_cell_setting 'monoclinic'
loop_
_space_group_symop_operation_xyz
x,y,z
-x,y,1/2-z
-x,-y,-z
x,-y,1/2+z
loop_
_atom_site_type_symbol
_atom_site_label
_atom_site_fract_x
_atom_site_fract_y
_atom_site_fract_z
Si Si1 0.113333 0.311326 0.353437
Si Si2 0.401974 0.912353 0.281814
Si Si3 0.927115 0.453814 0.587794
Si Si4 0.111647 0.059747 0.859992
Si Si5 0.398177 0.145217 0.134179
Si Si6 0.192873 0.749942 0.591035
Si Si7 0.194833 0.861806 0.093313
O O1 0.131520 0.442135 0.373336
O O2 0.186170 0.256394 0.269414
O O3 0.140509 0.253953 0.528895
O O4 0.000000 0.285681 0.250000
O O5 0.500000 0.870907 0.250000
O O6 0.410972 0.894770 0.467691
O O7 0.312860 0.842583 0.157538
O O8 0.380157 0.040778 0.234410
O O9 0.845028 0.367563 0.490556
O O10 0.000000 0.396096 0.750000
O O11 0.000000 0.500000 0.500000
O O12 0.173010 0.097848 0.749774
O O13 0.000000 0.035518 0.750000
O O14 0.119061 0.153992 0.992590
O O15 0.160112 0.948867 0.948323
O O16 0.500000 0.203401 0.250000
O O17 0.305763 0.228740 0.100109
#
# Coordination Sequence:
#
# PCOD8122591 Si02
#       7
#     4   4   4   4   4   4   4
#     4  11  24  40  62  92 125 171 210 258 309 372
#     4  11  22  40  63  93 126 169 207 261 310 376
#     4  11  23  43  65  93 123 164 217 261 310 373
#     4  12  24  37  57  88 131 172 198 252 310 382
#     4  11  24  40  65  94 125 167 211 261 318 377
#     4  12  23  40  66  90 127 163 211 266 314 369
#     4  12  23  39  58  92 129 165 209 247 317 381
#
# _framework density 19.494344000000002
#
# number of rings (size 3 to 8) (size 9 to 14) (size 15 to 20)
#    0.000    0.571    5.714    4.714    6.000    0.000 
#    0.000    0.000    0.000    1.714    0.000    0.000 
#    0.000    0.000    0.000    0.000    0.000    0.000 
#
# Total GULP energy -347193.684094 kJ/mol
# GULP energy per Si atom -12399.774432 kJ/mol
# Density = 1.944997 g / cm^3
# Si number density = 19.494344 Si / 1000 Ang^3
#
#
#
# Elastic Constant Matrix: (Units=GPa)
#
#
# Indices 1 2 3 4 5 6 
#
# 1 126.0320 37.4644 43.2956 0.0000 12.4741 0.0000
# 2 37.4644 79.9344 37.4072 0.0000 8.9791 0.0000
# 3 43.2956 37.4072 93.1614 0.0000 7.9576 0.0000
# 4 0.0000 0.0000 0.0000 21.9498 0.0000 -7.1910
# 5 12.4741 8.9791 7.9576 0.0000 43.1142 0.0000
# 6 0.0000 0.0000 0.0000 -7.1910 0.0000 19.0663
#
#
#
# Elastic Compliance Matrix: (Units=1/GPa)
#
#
# Indices 1 2 3 4 5 6 
#
# 1 0.010149 -0.002989 -0.003372 0.000000 -0.001692 0.000000
# 2 -0.002989 0.016474 -0.005087 0.000000 -0.001627 0.000000
# 3 -0.003372 -0.005087 0.014397 0.000000 -0.000622 0.000000
# 4 0.000000 0.000000 0.000000 0.051981 0.000000 0.019605
# 5 -0.001692 -0.001627 -0.000622 0.000000 0.024137 0.000000
# 6 0.000000 0.000000 0.000000 0.019605 0.000000 0.059843
#
#
# Mechanical properties :
#
#
# Convention : Reuss Voigt Hill
#
# Bulk Modulus (GPa) = 55.17323 59.49579 57.33451
# Shear Modulus (GPa) = 24.28149 28.89010 26.58580
#
# Velocity S-wave (km/s) = 3.53309 3.85382 3.69693
# Velocity P-wave (km/s) = 6.70874 7.09847 6.90636
#
# Compressibility (1/GPa) = 0.01812473
#
# Stress axis : x y z
#
# Youngs Moduli (GPa) = 98.53515 60.70029 69.45932
#
# Poissons Ratio (x) = 0.18141 0.23422
# Poissons Ratio (y) = 0.29448 0.35335
# Poissons Ratio (z) = 0.33226 0.30879
#
# Static dielectric constant tensor:
#      x y z
#    x 3.810090 0.000000 0.101340 
#    y 0.000000 3.554290 0.000000 
#    z 0.101340 0.000000 4.017630 
# 
# 
# High freq. dielectric constant tensor:
#      x y z
#    x 1.755440 0.000000 -0.002780 
#    y 0.000000 1.732540 0.000000 
#    z -0.002780 0.000000 1.785820 
# 
# From -- ./inp_files/18828.got.cif
#   From: 2010.06.25/outbox.cif.g09.slc.cpg/sg13_10_cif.got.tgz:18828.got - 2010.06.28 04:50:58.
