data_PCOD8122619
_publ_section_title
;
Structure prediction by ZEFSAII (Michael W. Deem and Ramdas Pophale) SiO2 
 PCOD8122619
Probable space group: P 2/C
;
_chemical_formula_sum "Si O2"
_cell_formula_units_Z 32
_cell_length_a 8.838986
_cell_length_b 11.203554
_cell_length_c 15.632726
_cell_angle_alpha 90.000000
_cell_angle_beta 94.741109
_cell_angle_gamma 90.000000
_cell_volume 1542.781483
_symmetry_space_group_name_H-M "P 2/C"
_symmetry_group_IT_number 13
_symmetry_cell_setting 'monoclinic'
loop_
_space_group_symop_operation_xyz
x,y,z
-x,y,1/2-z
-x,-y,-z
x,-y,1/2+z
loop_
_atom_site_type_symbol
_atom_site_label
_atom_site_fract_x
_atom_site_fract_y
_atom_site_fract_z
Si Si1 0.403986 0.607586 0.037039
Si Si2 0.169808 0.565714 0.285608
Si Si3 0.175986 0.316519 0.240281
Si Si4 0.862848 0.787314 0.939731
Si Si5 0.592700 0.756294 0.174849
Si Si6 0.779615 0.793689 0.581848
Si Si7 0.841883 0.545792 0.018477
Si Si8 0.337118 0.045170 0.960396
O O1 0.347899 0.720646 0.977038
O O2 0.253591 0.534948 0.052397
O O3 0.500000 0.500000 0.000000
O O4 0.490240 0.658015 0.122391
O O5 0.237693 0.453211 0.234885
O O6 0.264744 0.686512 0.277759
O O7 0.183790 0.517027 0.383604
O O8 0.000000 0.600445 0.250000
O O9 0.206942 0.241276 0.156392
O O10 0.246873 0.245389 0.322113
O O11 0.000000 0.334382 0.250000
O O12 0.046705 0.785234 0.945247
O O13 0.811431 0.685194 0.003507
O O14 0.775055 0.904554 0.969833
O O15 0.500000 0.812509 0.250000
O O16 0.644773 0.860041 0.114468
O O17 0.748865 0.933199 0.581468
O O18 0.000000 0.500000 0.000000
O O19 0.500000 0.000000 0.000000
#
# Coordination Sequence:
#
# PCOD8122619 Si02
#       8
#     4   4   4   4   4   4   4   4
#     4  12  22  42  69 100 140 179 218 277 353 409
#     4  11  22  42  67 102 140 174 221 285 348 415
#     4   9  19  39  66 102 134 165 221 282 336 400
#     4  11  23  42  70 103 131 176 231 284 339 414
#     4  12  28  46  64  98 143 180 231 283 344 410
#     4  11  22  43  72  95 134 180 233 282 330 407
#     4  12  21  37  70 101 137 174 218 276 350 413
#     4  12  26  48  68  91 134 187 234 284 340 408
#
# _framework density 20.741758999999998
#
# number of rings (size 3 to 8) (size 9 to 14) (size 15 to 20)
#    0.000    0.750    6.250    1.875    3.500    1.000 
#    0.000    1.875    0.000    0.000    0.000    0.000 
#    0.000    0.000    0.000    0.000    0.000    0.000 
#
# Total GULP energy -396449.940038 kJ/mol
# GULP energy per Si atom -12389.060626 kJ/mol
# Density = 2.069455 g / cm^3
# Si number density = 20.741759 Si / 1000 Ang^3
#
#
#
# Elastic Constant Matrix: (Units=GPa)
#
#
# Indices 1 2 3 4 5 6 
#
# 1 90.3573 50.8708 37.4367 0.0000 8.4497 0.0000
# 2 50.8708 145.0024 45.2102 0.0000 2.8096 0.0000
# 3 37.4367 45.2102 94.5184 0.0000 0.2401 0.0000
# 4 0.0000 0.0000 0.0000 24.0542 0.0000 3.3647
# 5 8.4497 2.8096 0.2401 0.0000 32.2445 0.0000
# 6 0.0000 0.0000 0.0000 3.3647 0.0000 42.3615
#
#
#
# Elastic Compliance Matrix: (Units=1/GPa)
#
#
# Indices 1 2 3 4 5 6 
#
# 1 0.015406 -0.004036 -0.004162 0.000000 -0.003654 0.000000
# 2 -0.004036 0.009178 -0.002792 0.000000 0.000279 0.000000
# 3 -0.004162 -0.002792 0.013561 0.000000 0.001233 0.000000
# 4 0.000000 0.000000 0.000000 0.042040 0.000000 -0.003339
# 5 -0.003654 0.000279 0.001233 0.000000 0.031937 0.000000
# 6 0.000000 0.000000 0.000000 -0.003339 0.000000 0.023872
#
#
# Mechanical properties :
#
#
# Convention : Reuss Voigt Hill
#
# Bulk Modulus (GPa) = 61.86669 66.32372 64.09521
# Shear Modulus (GPa) = 30.60712 32.82272 31.71492
#
# Velocity S-wave (km/s) = 3.84556 3.98231 3.91453
# Velocity P-wave (km/s) = 7.04341 7.29318 7.16938
#
# Compressibility (1/GPa) = 0.01616379
#
# Stress axis : x y z
#
# Youngs Moduli (GPa) = 64.91107 108.96166 73.74263
#
# Poissons Ratio (x) = 0.43980 0.30691
# Poissons Ratio (y) = 0.26200 0.20588
# Poissons Ratio (z) = 0.27016 0.30420
#
# Static dielectric constant tensor:
#      x y z
#    x 3.942980 0.000000 0.209160 
#    y 0.000000 3.897540 0.000000 
#    z 0.209160 0.000000 3.740480 
# 
# 
# High freq. dielectric constant tensor:
#      x y z
#    x 1.817470 0.000000 0.009440 
#    y 0.000000 1.818690 0.000000 
#    z 0.009440 0.000000 1.808950 
# 
# From -- ./inp_files/47237.got.cif
#   From: 2010.06.25/outbox.cif.g09.slc.cpg/sg13_24_cif.got.tgz:47237.got - 2010.06.28 04:50:58.
