data_PCOD8122219
_publ_section_title
;
Structure prediction by ZEFSAII (Michael W. Deem and Ramdas Pophale) SiO2 
 PCOD8122219
Probable space group: P 2/C
;
_chemical_formula_sum "Si O2"
_cell_formula_units_Z 22
_cell_length_a 10.364291
_cell_length_b 10.918980
_cell_length_c 20.964715
_cell_angle_alpha 90.000000
_cell_angle_beta 155.768611
_cell_angle_gamma 90.000000
_cell_volume 973.737672
_symmetry_space_group_name_H-M "P 2/C"
_symmetry_group_IT_number 13
_symmetry_cell_setting 'monoclinic'
loop_
_space_group_symop_operation_xyz
x,y,z
-x,y,1/2-z
-x,-y,-z
x,-y,1/2+z
loop_
_atom_site_type_symbol
_atom_site_label
_atom_site_fract_x
_atom_site_fract_y
_atom_site_fract_z
Si Si1 0.587458 0.918032 0.979825
Si Si2 0.036758 0.111261 0.132428
Si Si3 0.695689 0.656849 0.075593
Si Si4 0.502289 0.577646 0.854191
Si Si5 0.778181 0.363743 0.029172
Si Si6 0.500000 0.226455 0.250000
O O1 0.737630 0.799588 0.078964
O O2 0.279381 0.880305 0.800916
O O3 0.843877 0.983998 0.048781
O O4 0.500000 0.000000 0.000000
O O5 0.231362 0.134603 0.154835
O O6 0.775833 0.217980 0.016813
O O7 0.000000 0.610263 0.250000
O O8 0.681798 0.590586 0.001994
O O9 0.391210 0.619428 0.979122
O O10 0.635662 0.678988 0.864808
O O11 0.133987 0.590914 0.693934
O O12 0.605402 0.434343 0.890893
#
# Coordination Sequence:
#
# PCOD8122219 Si02
#       6
#     4   4   4   4   4   2
#     4  12  23  42  71 101 137 178 234 294 360 407
#     4  11  25  43  69 100 139 188 230 293 344 421
#     4  12  23  40  67 104 138 176 231 295 362 418
#     4  11  24  43  70  99 139 188 227 294 355 421
#     4  11  23  43  67 100 142 175 234 294 358 409
#     4  10  24  48  70 100 146 188 240 284 348 432
#
# _framework density 22.593354000000001
#
# number of rings (size 3 to 8) (size 9 to 14) (size 15 to 20)
#    0.000    0.727    5.455    3.818    0.000    3.636 
#    0.000    0.000    0.000    5.455    0.000    0.000 
#    0.000    0.000    0.000    0.000    0.000    0.000 
#
# Total GULP energy -272615.310106 kJ/mol
# GULP energy per Si atom -12391.605005 kJ/mol
# Density = 2.254193 g / cm^3
# Si number density = 22.593354 Si / 1000 Ang^3
#
#
#
# Elastic Constant Matrix: (Units=GPa)
#
#
# Indices 1 2 3 4 5 6 
#
# 1 128.5815 37.7844 24.4828 0.0000 11.5077 0.0000
# 2 37.7844 99.8435 28.3185 0.0000 4.8140 0.0000
# 3 24.4828 28.3185 83.7693 0.0000 9.2647 0.0000
# 4 0.0000 0.0000 0.0000 47.7418 0.0000 0.3942
# 5 11.5077 4.8140 9.2647 0.0000 17.3012 0.0000
# 6 0.0000 0.0000 0.0000 0.3942 0.0000 46.8621
#
#
#
# Elastic Compliance Matrix: (Units=1/GPa)
#
#
# Indices 1 2 3 4 5 6 
#
# 1 0.009294 -0.002950 -0.001197 0.000000 -0.004720 0.000000
# 2 -0.002950 0.012036 -0.003245 0.000000 0.000351 0.000000
# 3 -0.001197 -0.003245 0.014027 0.000000 -0.005812 0.000000
# 4 0.000000 0.000000 0.000000 0.020947 0.000000 -0.000176
# 5 -0.004720 0.000351 -0.005812 0.000000 0.063954 0.000000
# 6 0.000000 0.000000 0.000000 -0.000176 0.000000 0.021341
#
#
# Mechanical properties :
#
#
# Convention : Reuss Voigt Hill
#
# Bulk Modulus (GPa) = 48.60914 54.81841 51.71377
# Shear Modulus (GPa) = 30.62935 37.15494 33.89214
#
# Velocity S-wave (km/s) = 3.68595 4.05965 3.87731
# Velocity P-wave (km/s) = 6.29893 6.80368 6.55616
#
# Compressibility (1/GPa) = 0.02057226
#
# Stress axis : x y z
#
# Youngs Moduli (GPa) = 107.59059 83.08624 71.28936
#
# Poissons Ratio (x) = 0.24513 0.08534
# Poissons Ratio (y) = 0.31742 0.23136
# Poissons Ratio (z) = 0.12879 0.26964
#
# Static dielectric constant tensor:
#      x y z
#    x 4.337500 0.000000 0.006480 
#    y 0.000000 5.019970 0.000000 
#    z 0.006480 0.000000 3.917380 
# 
# 
# High freq. dielectric constant tensor:
#      x y z
#    x 1.881680 0.000000 0.011510 
#    y 0.000000 1.918760 0.000000 
#    z 0.011510 0.000000 1.873750 
# 
# From -- ./inp_files/86632.got.cif
#   From: 2010.06.25/outbox.cif.g09.slc.cpg/sg13_44_cif.got.tgz:86632.got - 2010.06.28 04:50:58.
