data_PCOD8122206
_publ_section_title
;
Structure prediction by ZEFSAII (Michael W. Deem and Ramdas Pophale) SiO2 
 PCOD8122206
Probable space group: P 2/C
;
_chemical_formula_sum "Si O2"
_cell_formula_units_Z 28
_cell_length_a 18.624782
_cell_length_b 6.207960
_cell_length_c 12.785009
_cell_angle_alpha 90.000000
_cell_angle_beta 128.537412
_cell_angle_gamma 90.000000
_cell_volume 1156.271435
_symmetry_space_group_name_H-M "P 2/C"
_symmetry_group_IT_number 13
_symmetry_cell_setting 'monoclinic'
loop_
_space_group_symop_operation_xyz
x,y,z
-x,y,1/2-z
-x,-y,-z
x,-y,1/2+z
loop_
_atom_site_type_symbol
_atom_site_label
_atom_site_fract_x
_atom_site_fract_y
_atom_site_fract_z
Si Si1 0.700013 0.986564 0.178500
Si Si2 0.803270 0.121418 0.960433
Si Si3 0.555502 0.655369 0.973034
Si Si4 0.349596 0.718552 0.042103
Si Si5 0.500000 0.039177 0.250000
Si Si6 0.112380 0.967263 0.261532
Si Si7 0.028428 0.677514 0.945180
Si Si8 0.000000 0.384405 0.750000
O O1 0.731525 0.023816 0.327754
O O2 0.787639 0.918885 0.190552
O O3 0.626711 0.791720 0.107263
O O4 0.661071 0.201910 0.088720
O O5 0.745580 0.291731 0.979405
O O6 0.873520 0.999870 0.100562
O O7 0.874139 0.212448 0.935176
O O8 0.607352 0.517694 0.929753
O O9 0.490220 0.817337 0.847384
O O10 0.500000 0.500000 0.000000
O O11 0.411667 0.887502 0.161966
O O12 0.056427 0.156747 0.151616
O O13 0.052842 0.749715 0.208006
O O14 0.062475 0.551318 0.871727
O O15 0.000000 0.500000 0.000000
#
# Coordination Sequence:
#
# PCOD8122206 Si02
#       8
#     4   4   4   4   2   4   4   2
#     4  10  26  42  67 106 138 183 231 288 358 412
#     4  11  23  45  66 101 143 179 234 288 353 412
#     4  11  26  46  74 108 138 179 239 292 358 434
#     4  10  25  45  72  97 146 175 235 291 348 443
#     4  10  24  46  74 102 130 192 222 288 374 414
#     4  11  24  47  66 103 142 182 245 285 356 429
#     4  12  26  43  70 105 138 192 241 295 352 420
#     4  12  22  42  74  90 138 184 234 288 344 412
#
# _framework density 24.215765999999999
#
# number of rings (size 3 to 8) (size 9 to 14) (size 15 to 20)
#    0.000    1.143    2.857    1.286   10.000    4.571 
#    0.000    0.000    0.000    0.000    0.000    0.000 
#    0.000    0.000    0.000    0.000    0.000    0.000 
#
# Total GULP energy -346868.788418 kJ/mol
# GULP energy per Si atom -12388.171015 kJ/mol
# Density = 2.416065 g / cm^3
# Si number density = 24.215766 Si / 1000 Ang^3
#
#
#
# Elastic Constant Matrix: (Units=GPa)
#
#
# Indices 1 2 3 4 5 6 
#
# 1 58.9142 -7.5255 2.2785 0.0000 16.7819 0.0000
# 2 -7.5255 64.5272 41.5556 0.0000 11.0413 0.0000
# 3 2.2785 41.5556 144.7587 0.0000 5.9127 0.0000
# 4 0.0000 0.0000 0.0000 16.4380 0.0000 -11.3280
# 5 16.7819 11.0413 5.9127 0.0000 27.7489 0.0000
# 6 0.0000 0.0000 0.0000 -11.3280 0.0000 38.8961
#
#
#
# Elastic Compliance Matrix: (Units=1/GPa)
#
#
# Indices 1 2 3 4 5 6 
#
# 1 0.022285 0.006244 -0.001504 0.000000 -0.015642 0.000000
# 2 0.006244 0.021983 -0.005949 0.000000 -0.011256 0.000000
# 3 -0.001504 -0.005949 0.008580 0.000000 0.001449 0.000000
# 4 0.000000 0.000000 0.000000 0.076110 0.000000 0.022166
# 5 -0.015642 -0.011256 0.001449 0.000000 0.049667 0.000000
# 6 0.000000 0.000000 0.000000 0.022166 0.000000 0.032165
#
#
# Mechanical properties :
#
#
# Convention : Reuss Voigt Hill
#
# Bulk Modulus (GPa) = 19.82948 37.86858 28.84903
# Shear Modulus (GPa) = 21.73731 32.07602 26.90666
#
# Velocity S-wave (km/s) = 2.99933 3.64344 3.33697
# Velocity P-wave (km/s) = 4.49456 5.77681 5.17555
#
# Compressibility (1/GPa) = 0.05042997
#
# Stress axis : x y z
#
# Youngs Moduli (GPa) = 44.87282 45.49008 116.54539
#
# Poissons Ratio (x) = -0.28405 0.17533
# Poissons Ratio (y) = -0.28020 0.69334
# Poissons Ratio (z) = 0.06751 0.27062
#
# Static dielectric constant tensor:
#      x y z
#    x 4.281290 0.000000 -0.138820 
#    y 0.000000 4.336290 0.000000 
#    z -0.138820 0.000000 4.858220 
# 
# 
# High freq. dielectric constant tensor:
#      x y z
#    x 1.968410 0.000000 -0.002980 
#    y 0.000000 1.943610 0.000000 
#    z -0.002980 0.000000 1.983320 
# 
# From -- ./inp_files/56617.got.cif
#   From: 2010.06.25/outbox.cif.g09.slc.cpg/sg13_29_cif.got.tgz:56617.got - 2010.06.28 04:50:58.
