data_PCOD8122641
_publ_section_title
;
Structure prediction by ZEFSAII (Michael W. Deem and Ramdas Pophale) SiO2 
 PCOD8122641
Probable space group: P 2/C
;
_chemical_formula_sum "Si O2"
_cell_formula_units_Z 22
_cell_length_a 11.189442
_cell_length_b 6.761135
_cell_length_c 14.139382
_cell_angle_alpha 90.000000
_cell_angle_beta 73.372657
_cell_angle_gamma 90.000000
_cell_volume 1024.963368
_symmetry_space_group_name_H-M "P 2/C"
_symmetry_group_IT_number 13
_symmetry_cell_setting 'monoclinic'
loop_
_space_group_symop_operation_xyz
x,y,z
-x,y,1/2-z
-x,-y,-z
x,-y,1/2+z
loop_
_atom_site_type_symbol
_atom_site_label
_atom_site_fract_x
_atom_site_fract_y
_atom_site_fract_z
Si Si1 0.577232 0.700835 0.990649
Si Si2 0.193320 0.209621 0.681510
Si Si3 0.187179 0.477584 0.521697
Si Si4 0.556296 0.983296 0.337943
Si Si5 0.000000 0.897009 0.750000
Si Si6 0.908982 0.451365 0.155980
O O1 0.723913 0.662909 0.977028
O O2 0.566208 0.814573 0.894324
O O3 0.500000 0.500000 0.000000
O O4 0.531626 0.828474 0.089086
O O5 0.242090 0.293696 0.569618
O O6 0.308941 0.114355 0.709926
O O7 0.133917 0.381711 0.760474
O O8 0.094169 0.042064 0.674037
O O9 0.186947 0.437057 0.409573
O O10 0.047924 0.506802 0.589980
O O11 0.500000 0.040071 0.250000
O O12 0.086816 0.764164 0.797843
#
# Coordination Sequence:
#
# PCOD8122641 Si02
#       6
#     4   4   4   4   2   4
#     4  11  24  46  68  95 137 175 223 278 329 395
#     4  12  23  44  65  96 138 168 223 275 324 401
#     4  11  22  45  66  94 132 172 215 272 331 390
#     4  11  26  44  69 101 132 178 229 275 332 395
#     4  12  22  40  64  98 132 168 214 272 332 390
#     4  11  24  42  67  96 132 170 217 270 335 395
#
# _framework density 21.464183999999999
#
# number of rings (size 3 to 8) (size 9 to 14) (size 15 to 20)
#    0.000    0.727    5.455    2.182    0.000    2.909 
#    3.273    0.000    0.000    0.000    0.000    0.000 
#    0.000    0.000    0.000    0.000    0.000    0.000 
#
# Total GULP energy -272777.097631 kJ/mol
# GULP energy per Si atom -12398.958983 kJ/mol
# Density = 2.141533 g / cm^3
# Si number density = 21.464184 Si / 1000 Ang^3
#
#
#
# Elastic Constant Matrix: (Units=GPa)
#
#
# Indices 1 2 3 4 5 6 
#
# 1 116.1448 61.6132 56.3561 0.0000 17.7031 0.0000
# 2 61.6132 148.3899 77.0527 0.0000 12.6425 0.0000
# 3 56.3561 77.0527 138.5490 0.0000 34.4455 0.0000
# 4 0.0000 0.0000 0.0000 17.1132 0.0000 -3.5724
# 5 17.7031 12.6425 34.4455 0.0000 40.4258 0.0000
# 6 0.0000 0.0000 0.0000 -3.5724 0.0000 43.8358
#
#
#
# Elastic Compliance Matrix: (Units=1/GPa)
#
#
# Indices 1 2 3 4 5 6 
#
# 1 0.011968 -0.003563 -0.002360 0.000000 -0.002115 0.000000
# 2 -0.003563 0.010657 -0.005122 0.000000 0.002592 0.000000
# 3 -0.002360 -0.005122 0.013159 0.000000 -0.008576 0.000000
# 4 0.000000 0.000000 0.000000 0.059446 0.000000 0.004844
# 5 -0.002115 0.002592 -0.008576 0.000000 0.032160 0.000000
# 6 0.000000 0.000000 0.000000 0.004844 0.000000 0.023207
#
#
# Mechanical properties :
#
#
# Convention : Reuss Voigt Hill
#
# Bulk Modulus (GPa) = 73.03286 88.12529 80.57907
# Shear Modulus (GPa) = 28.20833 34.14573 31.17703
#
# Velocity S-wave (km/s) = 3.62913 3.99284 3.81532
# Velocity P-wave (km/s) = 7.18750 7.89956 7.55193
#
# Compressibility (1/GPa) = 0.01369247
#
# Stress axis : x y z
#
# Youngs Moduli (GPa) = 83.55587 93.83222 75.99623
#
# Poissons Ratio (x) = 0.33436 0.17939
# Poissons Ratio (y) = 0.29774 0.38924
# Poissons Ratio (z) = 0.19723 0.48060
#
# Static dielectric constant tensor:
#      x y z
#    x 4.177080 0.000000 0.114630 
#    y 0.000000 3.999850 0.000000 
#    z 0.114630 0.000000 4.053660 
# 
# 
# High freq. dielectric constant tensor:
#      x y z
#    x 1.856820 0.000000 -0.001430 
#    y 0.000000 1.848140 0.000000 
#    z -0.001430 0.000000 1.838540 
# 
# From -- ./inp_files/48847.got.cif
#   From: 2010.06.25/outbox.cif.g09.slc.cpg/sg13_25_cif.got.tgz:48847.got - 2010.06.28 04:50:58.
