data_PCOD8122931
_publ_section_title
;
Structure prediction by ZEFSAII (Michael W. Deem and Ramdas Pophale) SiO2 
 PCOD8122931
Probable space group: P 2/C
;
_chemical_formula_sum "Si O2"
_cell_formula_units_Z 30
_cell_length_a 30.673581
_cell_length_b 8.800865
_cell_length_c 30.178098
_cell_angle_alpha 90.000000
_cell_angle_beta 9.478736
_cell_angle_gamma 90.000000
_cell_volume 1341.611185
_symmetry_space_group_name_H-M "P 2/C"
_symmetry_group_IT_number 13
_symmetry_cell_setting 'monoclinic'
loop_
_space_group_symop_operation_xyz
x,y,z
-x,y,1/2-z
-x,-y,-z
x,-y,1/2+z
loop_
_atom_site_type_symbol
_atom_site_label
_atom_site_fract_x
_atom_site_fract_y
_atom_site_fract_z
Si Si1 0.331202 0.667695 0.860650
Si Si2 0.993500 0.166602 0.025294
Si Si3 0.528699 0.487551 0.076592
Si Si4 0.500000 0.582343 0.250000
Si Si5 0.154444 0.148004 0.641098
Si Si6 0.503318 0.333277 0.014938
Si Si7 0.135818 0.800752 0.661836
Si Si8 0.034334 0.311162 0.074314
O O1 0.476279 0.587215 0.675535
O O2 0.280790 0.532280 0.947668
O O3 0.551984 0.785797 0.657236
O O4 0.058542 0.750287 0.117098
O O5 0.247914 0.247688 0.752432
O O6 0.980479 0.176379 0.092385
O O7 0.748875 0.245789 0.248339
O O8 0.000000 0.000000 0.000000
O O9 0.508009 0.347312 0.063261
O O10 0.321258 0.622343 0.275036
O O11 0.821218 0.556587 0.781231
O O12 0.388712 0.690402 0.401283
O O13 0.000000 0.155274 0.750000
O O14 0.202087 0.974462 0.608227
O O15 0.500000 0.500000 0.000000
O O16 0.000000 0.791071 0.750000
O O17 0.966266 0.744535 0.873896
#
# Coordination Sequence:
#
# PCOD8122931 Si02
#       8
#     4   4   4   2   4   4   4   4
#     4  12  25  43  69 101 135 178 236 287 344 402
#     4  12  26  45  74 107 144 183 231 294 359 417
#     4  12  25  41  73 105 136 178 241 290 343 411
#     4  12  24  42  72  98 132 188 238 284 332 418
#     4  11  25  45  66  95 140 186 222 289 353 402
#     4  12  23  46  73 100 137 187 231 283 350 420
#     4  11  28  43  71 100 143 188 236 280 355 423
#     4  12  24  45  69 105 139 181 232 296 342 414
#
# _framework density 22.361173000000001
#
# number of rings (size 3 to 8) (size 9 to 14) (size 15 to 20)
#    0.000    0.267    5.333    3.200    5.600    2.133 
#    0.000    0.000    0.000    0.000    0.000    0.000 
#    0.000    0.000    0.000    0.000    0.000    0.000 
#
# Total GULP energy -371774.101305 kJ/mol
# GULP energy per Si atom -12392.470043 kJ/mol
# Density = 2.231028 g / cm^3
# Si number density = 22.361173 Si / 1000 Ang^3
#
#
#
# Elastic Constant Matrix: (Units=GPa)
#
#
# Indices 1 2 3 4 5 6 
#
# 1 123.2042 40.9522 10.8101 0.0000 13.6841 0.0000
# 2 40.9522 156.2165 53.7087 0.0000 3.0666 0.0000
# 3 10.8101 53.7087 103.3749 0.0000 -0.4725 0.0000
# 4 0.0000 0.0000 0.0000 31.7735 0.0000 5.7136
# 5 13.6841 3.0666 -0.4725 0.0000 32.3833 0.0000
# 6 0.0000 0.0000 0.0000 5.7136 0.0000 31.8745
#
#
#
# Elastic Compliance Matrix: (Units=1/GPa)
#
#
# Indices 1 2 3 4 5 6 
#
# 1 0.009324 -0.002472 0.000292 0.000000 -0.003702 0.000000
# 2 -0.002472 0.008470 -0.004141 0.000000 0.000182 0.000000
# 3 0.000292 -0.004141 0.011796 0.000000 0.000441 0.000000
# 4 0.000000 0.000000 0.000000 0.032521 0.000000 -0.005829
# 5 -0.003702 0.000182 0.000441 0.000000 0.032433 0.000000
# 6 0.000000 0.000000 0.000000 -0.005829 0.000000 0.032418
#
#
# Mechanical properties :
#
#
# Convention : Reuss Voigt Hill
#
# Bulk Modulus (GPa) = 59.00253 65.97086 62.48670
# Shear Modulus (GPa) = 34.42266 37.69457 36.05861
#
# Velocity S-wave (km/s) = 3.92777 4.11020 4.02002
# Velocity P-wave (km/s) = 6.85662 7.21744 7.03934
#
# Compressibility (1/GPa) = 0.01694842
#
# Stress axis : x y z
#
# Youngs Moduli (GPa) = 107.25257 118.06927 84.77118
#
# Poissons Ratio (x) = 0.29188 -0.02479
# Poissons Ratio (y) = 0.26514 0.35104
# Poissons Ratio (z) = -0.03137 0.48893
#
# Static dielectric constant tensor:
#      x y z
#    x 4.377360 0.000000 0.044890 
#    y 0.000000 4.078250 0.000000 
#    z 0.044890 0.000000 4.394730 
# 
# 
# High freq. dielectric constant tensor:
#      x y z
#    x 1.886310 0.000000 0.005030 
#    y 0.000000 1.885130 0.000000 
#    z 0.005030 0.000000 1.889040 
# 
# From -- ./inp_files/98072.got.cif
#   From: 2010.06.25/outbox.cif.g09.slc.cpg/sg13_50_cif.got.tgz:98072.got - 2010.06.28 04:50:58.
