data_PCOD8122141
_publ_section_title
;
Structure prediction by ZEFSAII (Michael W. Deem and Ramdas Pophale) SiO2 
 PCOD8122141
Probable space group: P 2/C
;
_chemical_formula_sum "Si O2"
_cell_formula_units_Z 14
_cell_length_a 6.008950
_cell_length_b 11.315753
_cell_length_c 8.943965
_cell_angle_alpha 90.000000
_cell_angle_beta 81.955594
_cell_angle_gamma 90.000000
_cell_volume 602.167730
_symmetry_space_group_name_H-M "P 2/C"
_symmetry_group_IT_number 13
_symmetry_cell_setting 'monoclinic'
loop_
_space_group_symop_operation_xyz
x,y,z
-x,y,1/2-z
-x,-y,-z
x,-y,1/2+z
loop_
_atom_site_type_symbol
_atom_site_label
_atom_site_fract_x
_atom_site_fract_y
_atom_site_fract_z
Si Si1 0.000000 0.989276 0.250000
Si Si2 0.836900 0.546433 0.394530
Si Si3 0.465435 0.320953 0.090145
Si Si4 0.702559 0.089887 0.523713
O O1 0.204199 0.917916 0.313461
O O2 0.904141 0.070241 0.389599
O O3 0.676973 0.438678 0.359178
O O4 0.694246 0.651228 0.480432
O O5 0.000000 0.596115 0.250000
O O6 0.000000 0.500000 0.500000
O O7 0.500000 0.261007 0.250000
O O8 0.355369 0.227003 0.990072
O O9 0.500000 0.000000 0.500000
#
# Coordination Sequence:
#
# PCOD8122141 Si02
#       4
#     2   4   4   4
#     4  10  24  44  72 104 140 188 232 284 358 416
#     4  11  24  46  69 100 137 182 237 289 353 421
#     4  11  24  43  73 102 137 187 233 291 353 422
#     4  11  24  47  71 105 144 181 237 290 347 426
#
# _framework density 23.249334999999999
#
# number of rings (size 3 to 8) (size 9 to 14) (size 15 to 20)
#    0.000    1.143    2.857    2.571    2.000    4.571 
#   15.429    0.000    0.000    0.000    0.000    0.000 
#    0.000    0.000    0.000    0.000    0.000    0.000 
#
# Total GULP energy -173507.556812 kJ/mol
# GULP energy per Si atom -12393.396915 kJ/mol
# Density = 2.319642 g / cm^3
# Si number density = 23.249335 Si / 1000 Ang^3
#
#
#
# Elastic Constant Matrix: (Units=GPa)
#
#
# Indices 1 2 3 4 5 6 
#
# 1 127.4207 35.3657 63.7431 0.0000 8.8774 0.0000
# 2 35.3657 88.9838 38.5933 0.0000 -2.5462 0.0000
# 3 63.7431 38.5933 159.5248 0.0000 -0.5693 0.0000
# 4 0.0000 0.0000 0.0000 27.3533 0.0000 6.5406
# 5 8.8774 -2.5462 -0.5693 0.0000 64.3012 0.0000
# 6 0.0000 0.0000 0.0000 6.5406 0.0000 37.2834
#
#
#
# Elastic Compliance Matrix: (Units=1/GPa)
#
#
# Indices 1 2 3 4 5 6 
#
# 1 0.010472 -0.002670 -0.003544 0.000000 -0.001583 0.000000
# 2 -0.002670 0.013251 -0.002136 0.000000 0.000874 0.000000
# 3 -0.003544 -0.002136 0.008203 0.000000 0.000477 0.000000
# 4 0.000000 0.000000 0.000000 0.038159 0.000000 -0.006694
# 5 -0.001583 0.000874 0.000477 0.000000 0.015809 0.000000
# 6 0.000000 0.000000 0.000000 -0.006694 0.000000 0.027996
#
#
# Mechanical properties :
#
#
# Convention : Reuss Voigt Hill
#
# Bulk Modulus (GPa) = 65.67701 72.37039 69.02370
# Shear Modulus (GPa) = 36.85514 41.66938 39.26226
#
# Velocity S-wave (km/s) = 3.98579 4.23813 4.11390
# Velocity P-wave (km/s) = 7.03508 7.42593 7.23315
#
# Compressibility (1/GPa) = 0.01522603
#
# Stress axis : x y z
#
# Youngs Moduli (GPa) = 95.48841 75.46881 121.90407
#
# Poissons Ratio (x) = 0.20152 0.43206
# Poissons Ratio (y) = 0.25498 0.26033
# Poissons Ratio (z) = 0.33843 0.16117
#
# Static dielectric constant tensor:
#      x y z
#    x 4.549130 0.000000 0.146530 
#    y 0.000000 4.138840 0.000000 
#    z 0.146530 0.000000 4.276020 
# 
# 
# High freq. dielectric constant tensor:
#      x y z
#    x 1.938100 0.000000 -0.000070 
#    y 0.000000 1.895790 0.000000 
#    z -0.000070 0.000000 1.939570 
# 
# From -- ./inp_files/8486.got.cif
#   From: 2010.06.25/outbox.cif.g09.slc.cpg/sg13_5_cif.got.tgz:8486.got - 2010.06.28 04:50:58.
