data_PCOD8122547
_publ_section_title
;
Structure prediction by ZEFSAII (Michael W. Deem and Ramdas Pophale) SiO2 
 PCOD8122547
Probable space group: P 2/C
;
_chemical_formula_sum "Si O2"
_cell_formula_units_Z 28
_cell_length_a 11.008534
_cell_length_b 9.356813
_cell_length_c 15.531683
_cell_angle_alpha 90.000000
_cell_angle_beta 60.268766
_cell_angle_gamma 90.000000
_cell_volume 1389.237228
_symmetry_space_group_name_H-M "P 2/C"
_symmetry_group_IT_number 13
_symmetry_cell_setting 'monoclinic'
loop_
_space_group_symop_operation_xyz
x,y,z
-x,y,1/2-z
-x,-y,-z
x,-y,1/2+z
loop_
_atom_site_type_symbol
_atom_site_label
_atom_site_fract_x
_atom_site_fract_y
_atom_site_fract_z
Si Si1 0.544580 0.651875 0.018692
Si Si2 0.165676 0.883422 0.357829
Si Si3 0.690967 0.296466 0.146711
Si Si4 0.159972 0.903012 0.013272
Si Si5 0.331654 0.897863 0.127241
Si Si6 0.585656 0.815024 0.846074
Si Si7 0.346685 0.621341 0.339839
O O1 0.409421 0.745666 0.096156
O O2 0.650929 0.628665 0.058495
O O3 0.500000 0.500000 0.000000
O O4 0.633706 0.727834 0.912994
O O5 0.225722 0.921519 0.243434
O O6 0.221974 0.723077 0.353083
O O7 0.000761 0.902494 0.405115
O O8 0.210428 0.979820 0.424417
O O9 0.553281 0.257245 0.141492
O O10 0.701471 0.200649 0.230285
O O11 0.692909 0.461057 0.174528
O O12 0.817161 0.252522 0.039446
O O13 0.251105 0.926027 0.066584
O O14 0.443616 0.024178 0.109320
O O15 0.500000 0.666340 0.250000
#
# Coordination Sequence:
#
# PCOD8122547 Si02
#       7
#     4   4   4   4   4   4   4
#     4  12  22  37  61  97 132 156 202 264 326 384
#     4  11  26  41  66  91 125 171 219 261 312 389
#     4  11  22  40  63  90 133 163 204 265 323 385
#     4  11  24  46  61  90 127 172 217 260 315 381
#     4  12  23  39  67  94 127 166 211 265 322 381
#     4  11  22  36  61  96 121 166 201 260 324 378
#     4  12  22  39  63  96 128 164 204 268 328 378
#
# _framework density 20.154944
#
# number of rings (size 3 to 8) (size 9 to 14) (size 15 to 20)
#    0.000    0.571    7.143    1.714    2.000    0.571 
#    0.000    0.000    0.000    0.000    0.000    0.000 
#    0.000    0.000    0.000    0.000    0.000    0.000 
#
# Total GULP energy -346969.321642 kJ/mol
# GULP energy per Si atom -12391.761487 kJ/mol
# Density = 2.010907 g / cm^3
# Si number density = 20.154944 Si / 1000 Ang^3
#
#
#
# Elastic Constant Matrix: (Units=GPa)
#
#
# Indices 1 2 3 4 5 6 
#
# 1 43.9099 27.1241 15.0436 0.0000 14.3129 0.0000
# 2 27.1241 129.7810 33.6205 0.0000 2.8740 0.0000
# 3 15.0436 33.6205 101.1247 0.0000 26.2320 0.0000
# 4 0.0000 0.0000 0.0000 34.0621 0.0000 5.3455
# 5 14.3129 2.8740 26.2320 0.0000 25.0084 0.0000
# 6 0.0000 0.0000 0.0000 5.3455 0.0000 27.7552
#
#
#
# Elastic Compliance Matrix: (Units=1/GPa)
#
#
# Indices 1 2 3 4 5 6 
#
# 1 0.033154 -0.007233 0.002994 0.000000 -0.021284 0.000000
# 2 -0.007233 0.010145 -0.004215 0.000000 0.007396 0.000000
# 3 0.002994 -0.004215 0.015337 0.000000 -0.017316 0.000000
# 4 0.000000 0.000000 0.000000 0.030273 0.000000 -0.005830
# 5 -0.021284 0.007396 -0.017316 0.000000 0.069481 0.000000
# 6 0.000000 0.000000 0.000000 -0.005830 0.000000 0.037152
#
#
# Mechanical properties :
#
#
# Convention : Reuss Voigt Hill
#
# Bulk Modulus (GPa) = 23.96565 47.37691 35.67128
# Shear Modulus (GPa) = 22.08856 30.63363 26.36109
#
# Velocity S-wave (km/s) = 3.31409 3.90283 3.62044
# Velocity P-wave (km/s) = 5.15371 6.62320 5.93412
#
# Compressibility (1/GPa) = 0.04172640
#
# Stress axis : x y z
#
# Youngs Moduli (GPa) = 30.16213 98.56776 65.20303
#
# Poissons Ratio (x) = 0.71298 -0.19521
# Poissons Ratio (y) = 0.21818 0.27485
# Poissons Ratio (z) = -0.09030 0.41549
#
# Static dielectric constant tensor:
#      x y z
#    x 3.364510 0.000000 0.214430 
#    y 0.000000 3.863000 0.000000 
#    z 0.214430 0.000000 4.126530 
# 
# 
# High freq. dielectric constant tensor:
#      x y z
#    x 1.751850 0.000000 0.025240 
#    y 0.000000 1.796050 0.000000 
#    z 0.025240 0.000000 1.814550 
# 
# From -- ./inp_files/50095.got.cif
#   From: 2010.06.25/outbox.cif.g09.slc.cpg/sg13_26_cif.got.tgz:50095.got - 2010.06.28 04:50:58.
