data_PCOD8122121
_publ_section_title
;
Structure prediction by ZEFSAII (Michael W. Deem and Ramdas Pophale) SiO2 
 PCOD8122121
Probable space group: P 2/C
;
_chemical_formula_sum "Si O2"
_cell_formula_units_Z 24
_cell_length_a 6.320440
_cell_length_b 13.608474
_cell_length_c 15.144227
_cell_angle_alpha 90.000000
_cell_angle_beta 56.875647
_cell_angle_gamma 90.000000
_cell_volume 1090.891807
_symmetry_space_group_name_H-M "P 2/C"
_symmetry_group_IT_number 13
_symmetry_cell_setting 'monoclinic'
loop_
_space_group_symop_operation_xyz
x,y,z
-x,y,1/2-z
-x,-y,-z
x,-y,1/2+z
loop_
_atom_site_type_symbol
_atom_site_label
_atom_site_fract_x
_atom_site_fract_y
_atom_site_fract_z
Si Si1 0.086720 0.936941 0.563467
Si Si2 0.500000 0.350276 0.250000
Si Si3 0.407853 0.831041 0.062055
Si Si4 0.313830 0.371118 0.977204
Si Si5 0.857847 0.752661 0.544342
Si Si6 0.731284 0.483529 0.328690
Si Si7 0.000000 0.937062 0.250000
O O1 0.389133 0.917953 0.503092
O O2 0.975318 0.827629 0.587525
O O3 0.000000 0.000000 0.500000
O O4 0.971770 0.992857 0.672576
O O5 0.396126 0.286803 0.354646
O O6 0.717279 0.414105 0.246215
O O7 0.525867 0.726938 0.053514
O O8 0.246081 0.867863 0.183029
O O9 0.208401 0.814651 0.027877
O O10 0.487579 0.445447 0.881302
O O11 0.260511 0.419633 0.083819
O O12 0.052970 0.340102 0.986149
O O13 0.000000 0.539063 0.250000
#
# Coordination Sequence:
#
# PCOD8122121 Si02
#       7
#     4   2   4   4   4   4   2
#     4  11  26  46  68 102 139 184 236 288 351 425
#     4  12  24  38  68 100 132 186 234 284 360 420
#     4  11  25  47  68 101 140 181 233 292 352 423
#     4  10  24  44  66  96 143 177 227 303 346 419
#     4  11  24  43  69 100 141 178 234 298 353 416
#     4  11  23  42  68  99 135 183 240 283 353 431
#     4  12  26  44  72  98 138 184 230 288 354 416
#
# _framework density 22.000350000000001
#
# number of rings (size 3 to 8) (size 9 to 14) (size 15 to 20)
#    0.000    1.000    5.000    0.500    3.500    2.667 
#    0.000    0.000    0.000    0.000    0.000    0.000 
#    0.000    0.000    0.000    0.000    0.000    0.000 
#
# Total GULP energy -297397.186631 kJ/mol
# GULP energy per Si atom -12391.549443 kJ/mol
# Density = 2.195028 g / cm^3
# Si number density = 22.000350 Si / 1000 Ang^3
#
#
#
# Elastic Constant Matrix: (Units=GPa)
#
#
# Indices 1 2 3 4 5 6 
#
# 1 111.7246 43.8978 55.7902 0.0000 -14.6847 0.0000
# 2 43.8978 101.0030 51.8122 0.0000 -11.8492 0.0000
# 3 55.7902 51.8122 141.4622 0.0000 -13.9095 0.0000
# 4 0.0000 0.0000 0.0000 23.7966 0.0000 -15.0094
# 5 -14.6847 -11.8492 -13.9095 0.0000 38.0695 0.0000
# 6 0.0000 0.0000 0.0000 -15.0094 0.0000 48.2664
#
#
#
# Elastic Compliance Matrix: (Units=1/GPa)
#
#
# Indices 1 2 3 4 5 6 
#
# 1 0.012263 -0.003305 -0.003383 0.000000 0.002465 0.000000
# 2 -0.003305 0.013269 -0.003398 0.000000 0.001614 0.000000
# 3 -0.003383 -0.003398 0.009766 0.000000 0.001206 0.000000
# 4 0.000000 0.000000 0.000000 0.052276 0.000000 0.016256
# 5 0.002465 0.001614 0.001206 0.000000 0.028162 0.000000
# 6 0.000000 0.000000 0.000000 0.016256 0.000000 0.025774
#
#
# Mechanical properties :
#
#
# Convention : Reuss Voigt Hill
#
# Bulk Modulus (GPa) = 66.11047 73.02112 69.56579
# Shear Modulus (GPa) = 29.98961 35.53914 32.76437
#
# Velocity S-wave (km/s) = 3.69608 4.02355 3.86329
# Velocity P-wave (km/s) = 6.95195 7.40596 7.18254
#
# Compressibility (1/GPa) = 0.01512620
#
# Stress axis : x y z
#
# Youngs Moduli (GPa) = 81.54896 75.36095 102.39093
#
# Poissons Ratio (x) = 0.24905 0.34642
# Poissons Ratio (y) = 0.26950 0.34793
# Poissons Ratio (z) = 0.27591 0.25608
#
# Static dielectric constant tensor:
#      x y z
#    x 5.163010 0.000000 1.699390 
#    y 0.000000 4.167660 0.000000 
#    z 1.699390 0.000000 7.683970 
# 
# 
# High freq. dielectric constant tensor:
#      x y z
#    x 1.870110 0.000000 -0.014130 
#    y 0.000000 1.881260 0.000000 
#    z -0.014130 0.000000 1.858010 
# 
# From -- ./inp_files/43933.got.cif
#   From: 2010.06.25/outbox.cif.g09.slc.cpg/sg13_22_cif.got.tgz:43933.got - 2010.06.28 04:50:58.
