data_PCOD8122205
_publ_section_title
;
Structure prediction by ZEFSAII (Michael W. Deem and Ramdas Pophale) SiO2 
 PCOD8122205
Probable space group: P 2/C
;
_chemical_formula_sum "Si O2"
_cell_formula_units_Z 20
_cell_length_a 21.004074
_cell_length_b 8.742160
_cell_length_c 15.386506
_cell_angle_alpha 90.000000
_cell_angle_beta 161.843402
_cell_angle_gamma 90.000000
_cell_volume 880.401876
_symmetry_space_group_name_H-M "P 2/C"
_symmetry_group_IT_number 13
_symmetry_cell_setting 'monoclinic'
loop_
_space_group_symop_operation_xyz
x,y,z
-x,y,1/2-z
-x,-y,-z
x,-y,1/2+z
loop_
_atom_site_type_symbol
_atom_site_label
_atom_site_fract_x
_atom_site_fract_y
_atom_site_fract_z
Si Si1 0.203054 0.183060 0.822017
Si Si2 0.525370 0.169857 0.997963
Si Si3 0.375860 0.315295 0.206243
Si Si4 0.774392 0.356747 0.985082
Si Si5 0.812395 0.172160 0.209691
O O1 0.017389 0.236342 0.520644
O O2 0.176840 0.003345 0.805415
O O3 0.195873 0.258715 0.908433
O O4 0.410509 0.237273 0.044633
O O5 0.303213 0.245255 0.693294
O O6 0.663434 0.262003 0.246184
O O7 0.628382 0.182069 0.038261
O O8 0.500000 0.000000 0.000000
O O9 0.378430 0.498718 0.206810
O O10 0.767930 0.274976 0.069284
O O11 0.000000 0.409952 0.250000
#
# Coordination Sequence:
#
# PCOD8122205 Si02
#       5
#     4   4   4   4   4
#     4  10  24  46  74 100 143 184 246 290 357 427
#     4  12  25  46  74 105 144 189 245 296 355 428
#     4  11  25  47  69 103 147 189 233 295 362 432
#     4  12  29  47  71 105 150 192 239 294 366 435
#     4  11  25  46  75 107 136 193 242 301 355 422
#
# _framework density 22.716899999999999
#
# number of rings (size 3 to 8) (size 9 to 14) (size 15 to 20)
#    0.000    0.800    2.000    3.600   14.000    0.800 
#    0.000    0.000    0.000    0.000    0.000    0.000 
#    0.000    0.000    0.000    0.000    0.000    0.000 
#
# Total GULP energy -248012.166442 kJ/mol
# GULP energy per Si atom -12400.608322 kJ/mol
# Density = 2.266519 g / cm^3
# Si number density = 22.716900 Si / 1000 Ang^3
#
#
#
# Elastic Constant Matrix: (Units=GPa)
#
#
# Indices 1 2 3 4 5 6 
#
# 1 115.2230 46.7283 30.5740 0.0000 -31.7713 0.0000
# 2 46.7283 137.3513 70.3507 0.0000 -30.6022 0.0000
# 3 30.5740 70.3507 122.1086 0.0000 -26.8744 0.0000
# 4 0.0000 0.0000 0.0000 33.2361 0.0000 -4.5072
# 5 -31.7713 -30.6022 -26.8744 0.0000 48.4596 0.0000
# 6 0.0000 0.0000 0.0000 -4.5072 0.0000 36.5662
#
#
#
# Elastic Compliance Matrix: (Units=1/GPa)
#
#
# Indices 1 2 3 4 5 6 
#
# 1 0.011317 -0.002502 -0.000122 0.000000 0.005773 0.000000
# 2 -0.002502 0.011488 -0.005418 0.000000 0.002610 0.000000
# 3 -0.000122 -0.005418 0.012040 0.000000 0.003176 0.000000
# 4 0.000000 0.000000 0.000000 0.030599 0.000000 0.003772
# 5 0.005773 0.002610 0.003176 0.000000 0.027830 0.000000
# 6 0.000000 0.000000 0.000000 0.003772 0.000000 0.027813
#
#
# Mechanical properties :
#
#
# Convention : Reuss Voigt Hill
#
# Bulk Modulus (GPa) = 53.29660 74.44322 63.86991
# Shear Modulus (GPa) = 34.86135 38.78771 36.82453
#
# Velocity S-wave (km/s) = 3.92165 4.13660 4.03056
# Velocity P-wave (km/s) = 6.63460 7.46032 7.05954
#
# Compressibility (1/GPa) = 0.01876292
#
# Stress axis : x y z
#
# Youngs Moduli (GPa) = 88.35917 87.04524 83.05373
#
# Poissons Ratio (x) = 0.21776 0.01013
# Poissons Ratio (y) = 0.22105 0.44998
# Poissons Ratio (z) = 0.01077 0.47161
#
# Static dielectric constant tensor:
#      x y z
#    x 4.433240 0.000000 -0.390070 
#    y 0.000000 4.126100 0.000000 
#    z -0.390070 0.000000 4.401120 
# 
# 
# High freq. dielectric constant tensor:
#      x y z
#    x 1.903780 0.000000 -0.022520 
#    y 0.000000 1.899930 0.000000 
#    z -0.022520 0.000000 1.906920 
# 
# From -- ./inp_files/57124.got.cif
#   From: 2010.06.25/outbox.cif.g09.slc.cpg/sg13_29_cif.got.tgz:57124.got - 2010.06.28 04:50:58.
