data_PCOD8122026
_publ_section_title
;
Structure prediction by ZEFSAII (Michael W. Deem and Ramdas Pophale) SiO2 
 PCOD8122026
Probable space group: P 2/C
;
_chemical_formula_sum "Si O2"
_cell_formula_units_Z 28
_cell_length_a 20.191031
_cell_length_b 8.552182
_cell_length_c 14.716813
_cell_angle_alpha 90.000000
_cell_angle_beta 30.072028
_cell_angle_gamma 90.000000
_cell_volume 1273.395969
_symmetry_space_group_name_H-M "P 2/C"
_symmetry_group_IT_number 13
_symmetry_cell_setting 'monoclinic'
loop_
_space_group_symop_operation_xyz
x,y,z
-x,y,1/2-z
-x,-y,-z
x,-y,1/2+z
loop_
_atom_site_type_symbol
_atom_site_label
_atom_site_fract_x
_atom_site_fract_y
_atom_site_fract_z
Si Si1 0.162363 0.678194 0.188558
Si Si2 0.431950 0.122001 0.650057
Si Si3 0.659419 0.716290 0.820512
Si Si4 0.253905 0.373137 0.771428
Si Si5 0.930096 0.835022 0.565697
Si Si6 0.382048 0.843852 0.821608
Si Si7 0.971056 0.635636 0.685011
O O1 0.259362 0.661705 0.158414
O O2 0.128831 0.510655 0.182777
O O3 0.022933 0.745462 0.385568
O O4 0.237883 0.792949 0.029730
O O5 0.551270 0.243965 0.527430
O O6 0.307760 0.219952 0.758794
O O7 0.500000 0.000000 0.500000
O O8 0.383286 0.030929 0.798255
O O9 0.668567 0.531502 0.805658
O O10 0.787451 0.827517 0.686061
O O11 0.594730 0.754249 0.799957
O O12 0.106336 0.415307 0.977042
O O13 0.905658 0.759133 0.693859
O O14 0.000000 0.000000 0.500000
O O15 0.500000 0.800129 0.750000
O O16 0.000000 0.709266 0.750000
#
# Coordination Sequence:
#
# PCOD8122026 Si02
#       7
#     4   4   4   4   4   4   4
#     4  11  22  43  70  94 144 177 234 292 357 433
#     4  10  24  41  66  92 135 177 228 289 349 427
#     4  11  22  45  70 100 136 184 243 282 365 428
#     4  11  21  44  72 100 130 190 234 293 358 434
#     4  11  25  41  68 105 138 186 231 292 365 432
#     4  11  26  43  65  99 139 186 239 297 360 422
#     4  11  23  43  68 101 142 178 235 296 350 432
#
# _framework density 21.988447000000001
#
# number of rings (size 3 to 8) (size 9 to 14) (size 15 to 20)
#    0.000    1.143    2.857    3.857   10.000    1.143 
#    0.000    0.714    0.000    0.000    0.000    0.000 
#    0.000    0.000    0.000    0.000    0.000    0.000 
#
# Total GULP energy -346946.755033 kJ/mol
# GULP energy per Si atom -12390.955537 kJ/mol
# Density = 2.193840 g / cm^3
# Si number density = 21.988447 Si / 1000 Ang^3
#
#
#
# Elastic Constant Matrix: (Units=GPa)
#
#
# Indices 1 2 3 4 5 6 
#
# 1 112.7314 46.1774 44.7125 0.0000 -9.6766 0.0000
# 2 46.1774 118.6842 35.8844 0.0000 -2.0936 0.0000
# 3 44.7125 35.8844 81.2763 0.0000 1.5556 0.0000
# 4 0.0000 0.0000 0.0000 40.1327 0.0000 -1.0587
# 5 -9.6766 -2.0936 1.5556 0.0000 35.5844 0.0000
# 6 0.0000 0.0000 0.0000 -1.0587 0.0000 34.1713
#
#
#
# Elastic Compliance Matrix: (Units=1/GPa)
#
#
# Indices 1 2 3 4 5 6 
#
# 1 0.012719 -0.003174 -0.005663 0.000000 0.003520 0.000000
# 2 -0.003174 0.010537 -0.002903 0.000000 -0.000116 0.000000
# 3 -0.005663 -0.002903 0.016748 0.000000 -0.002443 0.000000
# 4 0.000000 0.000000 0.000000 0.024938 0.000000 0.000773
# 5 0.003520 -0.000116 -0.002443 0.000000 0.029159 0.000000
# 6 0.000000 0.000000 0.000000 0.000773 0.000000 0.029288
#
#
# Mechanical properties :
#
#
# Convention : Reuss Voigt Hill
#
# Bulk Modulus (GPa) = 60.52627 62.91563 61.72095
# Shear Modulus (GPa) = 32.81314 34.37217 33.59266
#
# Velocity S-wave (km/s) = 3.86721 3.95801 3.91287
# Velocity P-wave (km/s) = 6.89395 7.04010 6.96741
#
# Compressibility (1/GPa) = 0.01652175
#
# Stress axis : x y z
#
# Youngs Moduli (GPa) = 78.62132 94.90686 59.70944
#
# Poissons Ratio (x) = 0.30128 0.33814
# Poissons Ratio (y) = 0.24958 0.17336
# Poissons Ratio (z) = 0.44523 0.27556
#
# Static dielectric constant tensor:
#      x y z
#    x 4.013680 0.000000 -0.013030 
#    y 0.000000 4.345050 0.000000 
#    z -0.013030 0.000000 4.119210 
# 
# 
# High freq. dielectric constant tensor:
#      x y z
#    x 1.864140 0.000000 -0.010330 
#    y 0.000000 1.868140 0.000000 
#    z -0.010330 0.000000 1.863410 
# 
# From -- ./inp_files/57466.got.cif
#   From: 2010.06.25/outbox.cif.g09.slc.cpg/sg13_29_cif.got.tgz:57466.got - 2010.06.28 04:50:58.
