data_PCOD8122878
_publ_section_title
;
Structure prediction by ZEFSAII (Michael W. Deem and Ramdas Pophale) SiO2 
 PCOD8122878
Probable space group: P 2/C
;
_chemical_formula_sum "Si O2"
_cell_formula_units_Z 26
_cell_length_a 13.710546
_cell_length_b 9.991241
_cell_length_c 13.187312
_cell_angle_alpha 90.000000
_cell_angle_beta 41.699725
_cell_angle_gamma 90.000000
_cell_volume 1201.711410
_symmetry_space_group_name_H-M "P 2/C"
_symmetry_group_IT_number 13
_symmetry_cell_setting 'monoclinic'
loop_
_space_group_symop_operation_xyz
x,y,z
-x,y,1/2-z
-x,-y,-z
x,-y,1/2+z
loop_
_atom_site_type_symbol
_atom_site_label
_atom_site_fract_x
_atom_site_fract_y
_atom_site_fract_z
Si Si1 0.000000 0.890147 0.250000
Si Si2 0.462859 0.911390 0.624192
Si Si3 0.279621 0.990051 0.433850
Si Si4 0.776288 0.312363 0.559686
Si Si5 0.555498 0.371409 0.016233
Si Si6 0.000000 0.457422 0.250000
Si Si7 0.126300 0.324087 0.796649
Si Si8 0.500000 0.518203 0.250000
O O1 0.876652 0.981012 0.395883
O O2 0.946651 0.804181 0.196532
O O3 0.596811 0.938181 0.595928
O O4 0.308207 0.953074 0.797360
O O5 0.445380 0.755670 0.604066
O O6 0.500000 0.000000 0.500000
O O7 0.289010 0.830654 0.420208
O O8 0.886799 0.315947 0.570713
O O9 0.630015 0.396535 0.700314
O O10 0.864649 0.367956 0.393900
O O11 0.582720 0.421325 0.108357
O O12 0.500000 0.500000 0.000000
O O13 0.703228 0.314542 0.857178
O O14 0.052894 0.544050 0.305686
#
# Coordination Sequence:
#
# PCOD8122878 Si02
#       8
#     2   4   4   4   4   2   4   2
#     4  11  25  48  70  98 141 187 238 282 354 434
#     4  11  25  46  71 103 142 182 235 296 357 415
#     4  11  25  45  72  99 141 189 234 291 356 425
#     4  12  25  45  68 105 136 182 236 293 350 417
#     4  12  24  42  72 103 133 181 232 282 351 416
#     4  11  25  44  66  98 145 181 228 290 358 424
#     4  11  24  45  69  98 141 183 230 293 352 419
#     4  12  24  40  70  96 138 170 228 286 340 412
#
# _framework density 21.635811
#
# number of rings (size 3 to 8) (size 9 to 14) (size 15 to 20)
#    0.000    0.615    4.615    3.692    2.154    0.615 
#    5.538    0.000    0.000    0.000    0.000    0.000 
#    0.000    0.000    0.000    0.000    0.000    0.000 
#
# Total GULP energy -322319.615330 kJ/mol
# GULP energy per Si atom -12396.908282 kJ/mol
# Density = 2.158657 g / cm^3
# Si number density = 21.635811 Si / 1000 Ang^3
#
#
#
# Elastic Constant Matrix: (Units=GPa)
#
#
# Indices 1 2 3 4 5 6 
#
# 1 76.7931 20.7030 12.6992 0.0000 15.1035 0.0000
# 2 20.7030 142.4480 37.7764 0.0000 12.0180 0.0000
# 3 12.6992 37.7764 131.2614 0.0000 2.9233 0.0000
# 4 0.0000 0.0000 0.0000 31.9824 0.0000 -6.4004
# 5 15.1035 12.0180 2.9233 0.0000 33.2471 0.0000
# 6 0.0000 0.0000 0.0000 -6.4004 0.0000 20.6227
#
#
#
# Elastic Compliance Matrix: (Units=1/GPa)
#
#
# Indices 1 2 3 4 5 6 
#
# 1 0.014748 -0.001391 -0.000890 0.000000 -0.006118 0.000000
# 2 -0.001391 0.007955 -0.002109 0.000000 -0.002058 0.000000
# 3 -0.000890 -0.002109 0.008302 0.000000 0.000437 0.000000
# 4 0.000000 0.000000 0.000000 0.033338 0.000000 0.010347
# 5 -0.006118 -0.002058 0.000437 0.000000 0.033563 0.000000
# 6 0.000000 0.000000 0.000000 0.010347 0.000000 0.051701
#
#
# Mechanical properties :
#
#
# Convention : Reuss Voigt Hill
#
# Bulk Modulus (GPa) = 44.99657 54.76218 49.87938
# Shear Modulus (GPa) = 30.15769 35.79204 32.97486
#
# Velocity S-wave (km/s) = 3.73752 4.07172 3.90819
# Velocity P-wave (km/s) = 6.28234 6.88992 6.59313
#
# Compressibility (1/GPa) = 0.02222391
#
# Stress axis : x y z
#
# Youngs Moduli (GPa) = 67.80761 125.70328 120.45642
#
# Poissons Ratio (x) = 0.17487 0.10723
# Poissons Ratio (y) = 0.09433 0.25405
# Poissons Ratio (z) = 0.06036 0.26512
#
# Static dielectric constant tensor:
#      x y z
#    x 6.726070 0.000000 3.505780 
#    y 0.000000 3.927860 0.000000 
#    z 3.505780 0.000000 7.076010 
# 
# 
# High freq. dielectric constant tensor:
#      x y z
#    x 1.837430 0.000000 0.015060 
#    y 0.000000 1.860690 0.000000 
#    z 0.015060 0.000000 1.864420 
# 
# From -- ./inp_files/53333.got.cif
#   From: 2010.06.25/outbox.cif.g09.slc.cpg/sg13_27_cif.got.tgz:53333.got - 2010.06.28 04:50:58.
