data_PCOD8122344
_publ_section_title
;
Structure prediction by ZEFSAII (Michael W. Deem and Ramdas Pophale) SiO2 
 PCOD8122344
Probable space group: P 2/C
;
_chemical_formula_sum "Si O2"
_cell_formula_units_Z 10
_cell_length_a 5.105717
_cell_length_b 9.334223
_cell_length_c 8.690936
_cell_angle_alpha 90.000000
_cell_angle_beta 121.354675
_cell_angle_gamma 90.000000
_cell_volume 353.704314
_symmetry_space_group_name_H-M "P 2/C"
_symmetry_group_IT_number 13
_symmetry_cell_setting 'monoclinic'
loop_
_space_group_symop_operation_xyz
x,y,z
-x,y,1/2-z
-x,-y,-z
x,-y,1/2+z
loop_
_atom_site_type_symbol
_atom_site_label
_atom_site_fract_x
_atom_site_fract_y
_atom_site_fract_z
Si Si1 0.000000 0.568927 0.250000
Si Si2 0.291606 0.906516 0.045619
Si Si3 0.183920 0.315451 0.112664
O O1 0.787753 0.468909 0.293581
O O2 0.187134 0.669426 0.426388
O O3 0.500000 0.854128 0.250000
O O4 0.128464 0.764128 0.924545
O O5 0.500000 0.000000 0.000000
O O6 0.000000 0.000000 0.000000
O O7 0.500000 0.228882 0.250000
#
# Coordination Sequence:
#
# PCOD8122344 Si02
#       3
#     2   4   4
#     4  10  26  48  80 126 162 214 270 334 420 486
#     4  12  30  52  80 116 161 217 274 337 404 482
#     4  11  26  49  83 119 168 209 277 333 418 487
#
# _framework density 28.272203000000001
#
# number of rings (size 3 to 8) (size 9 to 14) (size 15 to 20)
#    0.000    0.800    0.000    3.600   16.800    6.400 
#    0.000    0.000    0.000    0.000    0.000    0.000 
#    0.000    0.000    0.000    0.000    0.000    0.000 
#
# Total GULP energy -123962.015774 kJ/mol
# GULP energy per Si atom -12396.201577 kJ/mol
# Density = 2.820785 g / cm^3
# Si number density = 28.272203 Si / 1000 Ang^3
#
#
#
# Elastic Constant Matrix: (Units=GPa)
#
#
# Indices 1 2 3 4 5 6 
#
# 1 183.5172 49.4083 97.9270 0.0000 24.8527 0.0000
# 2 49.4083 106.3799 62.4141 0.0000 17.0330 0.0000
# 3 97.9270 62.4141 240.1858 0.0000 31.9558 0.0000
# 4 0.0000 0.0000 0.0000 35.4837 0.0000 -3.1556
# 5 24.8527 17.0330 31.9558 0.0000 60.5916 0.0000
# 6 0.0000 0.0000 0.0000 -3.1556 0.0000 29.9894
#
#
#
# Elastic Compliance Matrix: (Units=1/GPa)
#
#
# Indices 1 2 3 4 5 6 
#
# 1 0.007375 -0.001838 -0.002361 0.000000 -0.001263 0.000000
# 2 -0.001838 0.011718 -0.002106 0.000000 -0.001430 0.000000
# 3 -0.002361 -0.002106 0.005878 0.000000 -0.001540 0.000000
# 4 0.000000 0.000000 0.000000 0.028448 0.000000 0.002993
# 5 -0.001263 -0.001430 -0.001540 0.000000 0.018236 0.000000
# 6 0.000000 0.000000 0.000000 0.002993 0.000000 0.033660
#
#
# Mechanical properties :
#
#
# Convention : Reuss Voigt Hill
#
# Bulk Modulus (GPa) = 80.89210 105.50906 93.20058
# Shear Modulus (GPa) = 40.96848 46.56851 43.76849
#
# Velocity S-wave (km/s) = 3.81080 4.06291 3.93887
# Velocity P-wave (km/s) = 6.93087 7.70777 7.32962
#
# Compressibility (1/GPa) = 0.01236215
#
# Stress axis : x y z
#
# Youngs Moduli (GPa) = 135.59543 85.33831 170.12132
#
# Poissons Ratio (x) = 0.15682 0.40170
# Poissons Ratio (y) = 0.24918 0.35820
# Poissons Ratio (z) = 0.32018 0.17968
#
# Static dielectric constant tensor:
#      x y z
#    x 5.427630 0.000000 0.307510 
#    y 0.000000 5.464750 0.000000 
#    z 0.307510 0.000000 5.840920 
# 
# 
# High freq. dielectric constant tensor:
#      x y z
#    x 2.143610 0.000000 0.002300 
#    y 0.000000 2.139360 0.000000 
#    z 0.002300 0.000000 2.171030 
# 
# From -- ./inp_files/8473.got.cif
#   From: 2010.06.25/outbox.cif.g09.slc.cpg/sg13_5_cif.got.tgz:8473.got - 2010.06.28 04:50:58.
