data_PCOD8122068
_publ_section_title
;
Structure prediction by ZEFSAII (Michael W. Deem and Ramdas Pophale) SiO2 
 PCOD8122068
Probable space group: P 2/C
;
_chemical_formula_sum "Si O2"
_cell_formula_units_Z 18
_cell_length_a 14.919492
_cell_length_b 6.742570
_cell_length_c 13.527697
_cell_angle_alpha 90.000000
_cell_angle_beta 143.371231
_cell_angle_gamma 90.000000
_cell_volume 811.908203
_symmetry_space_group_name_H-M "P 2/C"
_symmetry_group_IT_number 13
_symmetry_cell_setting 'monoclinic'
loop_
_space_group_symop_operation_xyz
x,y,z
-x,y,1/2-z
-x,-y,-z
x,-y,1/2+z
loop_
_atom_site_type_symbol
_atom_site_label
_atom_site_fract_x
_atom_site_fract_y
_atom_site_fract_z
Si Si1 0.097272 0.491150 0.243378
Si Si2 0.583010 0.650547 0.958301
Si Si3 0.500000 0.010521 0.250000
Si Si4 0.029876 0.770151 0.024011
Si Si5 0.634013 0.693023 0.226201
O O1 0.269457 0.516732 0.427644
O O2 0.024327 0.691484 0.132048
O O3 0.000000 0.421275 0.250000
O O4 0.098111 0.322657 0.159043
O O5 0.567422 0.726096 0.057386
O O6 0.601088 0.845526 0.907264
O O7 0.438081 0.515454 0.798923
O O8 0.599265 0.875771 0.266772
O O9 0.186421 0.690462 0.117102
O O10 0.000000 0.000000 0.000000
#
# Coordination Sequence:
#
# PCOD8122068 Si02
#       5
#     4   4   2   4   4
#     4  10  24  42  67  93 133 175 210 264 329 383
#     4  10  24  44  65  93 135 173 214 274 321 382
#     4  12  24  36  72  98 128 170 226 262 322 384
#     4  10  24  44  67  97 132 169 213 269 321 386
#     4  10  24  44  66  96 131 171 220 267 322 383
#
# _framework density 22.169995
#
# number of rings (size 3 to 8) (size 9 to 14) (size 15 to 20)
#    0.000    1.778    0.000    1.333    9.333    9.778 
#    0.000    0.000    0.000    0.000    0.000    0.000 
#    0.000    0.000    0.000    0.000    0.000    0.000 
#
# Total GULP energy -223155.160932 kJ/mol
# GULP energy per Si atom -12397.508941 kJ/mol
# Density = 2.211953 g / cm^3
# Si number density = 22.169995 Si / 1000 Ang^3
#
#
#
# Elastic Constant Matrix: (Units=GPa)
#
#
# Indices 1 2 3 4 5 6 
#
# 1 89.4423 25.4059 18.0471 0.0000 1.9912 0.0000
# 2 25.4059 134.0327 25.0117 0.0000 -5.8221 0.0000
# 3 18.0471 25.0117 56.0964 0.0000 2.2061 0.0000
# 4 0.0000 0.0000 0.0000 30.8147 0.0000 -7.0263
# 5 1.9912 -5.8221 2.2061 0.0000 26.2372 0.0000
# 6 0.0000 0.0000 0.0000 -7.0263 0.0000 41.9463
#
#
#
# Elastic Compliance Matrix: (Units=1/GPa)
#
#
# Indices 1 2 3 4 5 6 
#
# 1 0.012347 -0.001804 -0.003126 0.000000 -0.001074 0.000000
# 2 -0.001804 0.008520 -0.003309 0.000000 0.002306 0.000000
# 3 -0.003126 -0.003309 0.020395 0.000000 -0.002212 0.000000
# 4 0.000000 0.000000 0.000000 0.033741 0.000000 0.005652
# 5 -0.001074 0.002306 -0.002212 0.000000 0.038893 0.000000
# 6 0.000000 0.000000 0.000000 0.005652 0.000000 0.024787
#
#
# Mechanical properties :
#
#
# Convention : Reuss Voigt Hill
#
# Bulk Modulus (GPa) = 40.34790 46.27787 43.31289
# Shear Modulus (GPa) = 30.59552 33.87342 32.23447
#
# Velocity S-wave (km/s) = 3.71892 3.91307 3.81723
# Velocity P-wave (km/s) = 6.05635 6.42927 6.24559
#
# Compressibility (1/GPa) = 0.02478444
#
# Stress axis : x y z
#
# Youngs Moduli (GPa) = 80.98878 117.36402 49.03249
#
# Poissons Ratio (x) = 0.21170 0.15327
# Poissons Ratio (y) = 0.14609 0.16227
# Poissons Ratio (z) = 0.25316 0.38840
#
# Static dielectric constant tensor:
#      x y z
#    x 4.110960 0.000000 -0.206740 
#    y 0.000000 3.905020 0.000000 
#    z -0.206740 0.000000 4.011280 
# 
# 
# High freq. dielectric constant tensor:
#      x y z
#    x 1.879700 0.000000 -0.014070 
#    y 0.000000 1.866520 0.000000 
#    z -0.014070 0.000000 1.873460 
# 
# From -- ./inp_files/52013.got.cif
#   From: 2010.06.25/outbox.cif.g09.slc.cpg/sg13_27_cif.got.tgz:52013.got - 2010.06.28 04:50:58.
