data_PCOD8122408
_publ_section_title
;
Structure prediction by ZEFSAII (Michael W. Deem and Ramdas Pophale) SiO2 
 PCOD8122408
Probable space group: P 2/C
;
_chemical_formula_sum "Si O2"
_cell_formula_units_Z 22
_cell_length_a 10.193297
_cell_length_b 14.154000
_cell_length_c 7.968133
_cell_angle_alpha 90.000000
_cell_angle_beta 93.146540
_cell_angle_gamma 90.000000
_cell_volume 1147.876629
_symmetry_space_group_name_H-M "P 2/C"
_symmetry_group_IT_number 13
_symmetry_cell_setting 'monoclinic'
loop_
_space_group_symop_operation_xyz
x,y,z
-x,y,1/2-z
-x,-y,-z
x,-y,1/2+z
loop_
_atom_site_type_symbol
_atom_site_label
_atom_site_fract_x
_atom_site_fract_y
_atom_site_fract_z
Si Si1 0.000000 0.959342 0.250000
Si Si2 0.258295 0.618008 0.756294
Si Si3 0.500000 0.290137 0.750000
Si Si4 0.000000 0.723835 0.750000
Si Si5 0.629812 0.445334 0.570965
Si Si6 0.863226 0.880568 0.539007
Si Si7 0.593254 0.790976 0.595867
O O1 0.897317 0.893663 0.345323
O O2 0.093474 0.023013 0.370463
O O3 0.113912 0.653512 0.702940
O O4 0.260590 0.518306 0.853901
O O5 0.325279 0.613126 0.583321
O O6 0.341730 0.690287 0.871218
O O7 0.615268 0.365360 0.714308
O O8 0.479937 0.221435 0.587928
O O9 0.049495 0.790550 0.903017
O O10 0.500000 0.500000 0.500000
O O11 0.709318 0.867571 0.574463
O O12 0.500000 0.820167 0.750000
#
# Coordination Sequence:
#
# PCOD8122408 Si02
#       7
#     2   4   2   2   4   4   4
#     4   9  18  42  68  85 110 150 192 225 280 376
#     4  11  20  35  54  76 120 152 202 250 281 338
#     4  12  22  34  56  86 112 162 202 226 298 334
#     4   9  22  36  54  85 114 154 182 245 300 324
#     4  12  19  32  54  78 106 160 205 240 282 332
#     4   9  20  39  65  88 113 149 190 231 294 355
#     4  11  21  38  57  89 122 150 191 248 291 342
#
# _framework density 19.165821999999999
#
# number of rings (size 3 to 8) (size 9 to 14) (size 15 to 20)
#    0.000    1.455    5.455    0.000    0.000    2.182 
#    6.545    0.909    0.000    0.000    0.000    0.000 
#    0.000    0.000    0.000    0.000    0.000    0.000 
#
# Total GULP energy -272563.890375 kJ/mol
# GULP energy per Si atom -12389.267744 kJ/mol
# Density = 1.912220 g / cm^3
# Si number density = 19.165822 Si / 1000 Ang^3
#
#
#
# Elastic Constant Matrix: (Units=GPa)
#
#
# Indices 1 2 3 4 5 6 
#
# 1 117.0241 44.9525 49.5417 0.0000 -13.1583 0.0000
# 2 44.9525 64.4811 33.6750 0.0000 -6.6665 0.0000
# 3 49.5417 33.6750 121.6021 0.0000 -18.8779 0.0000
# 4 0.0000 0.0000 0.0000 15.3166 0.0000 -14.8304
# 5 -13.1583 -6.6665 -18.8779 0.0000 25.1589 0.0000
# 6 0.0000 0.0000 0.0000 -14.8304 0.0000 30.6294
#
#
#
# Elastic Compliance Matrix: (Units=1/GPa)
#
#
# Indices 1 2 3 4 5 6 
#
# 1 0.012791 -0.007173 -0.002808 0.000000 0.002682 0.000000
# 2 -0.007173 0.022184 -0.003272 0.000000 -0.000329 0.000000
# 3 -0.002808 -0.003272 0.011218 0.000000 0.006082 0.000000
# 4 0.000000 0.000000 0.000000 0.122912 0.000000 0.059513
# 5 0.002682 -0.000329 0.006082 0.000000 0.045626 0.000000
# 6 0.000000 0.000000 0.000000 0.059513 0.000000 0.061464
#
#
# Mechanical properties :
#
#
# Convention : Reuss Voigt Hill
#
# Bulk Modulus (GPa) = 50.79792 62.16065 56.47928
# Shear Modulus (GPa) = 16.16740 25.88352 21.02546
#
# Velocity S-wave (km/s) = 2.90755 3.67891 3.31574
# Velocity P-wave (km/s) = 6.15092 7.10980 6.64767
#
# Compressibility (1/GPa) = 0.01968585
#
# Stress axis : x y z
#
# Youngs Moduli (GPa) = 78.17850 45.07742 89.14311
#
# Poissons Ratio (x) = 0.32336 0.25035
# Poissons Ratio (y) = 0.56080 0.29167
# Poissons Ratio (z) = 0.21956 0.14749
#
# Static dielectric constant tensor:
#      x y z
#    x 3.396490 0.000000 -0.224640 
#    y 0.000000 3.445710 0.000000 
#    z -0.224640 0.000000 3.728740 
# 
# 
# High freq. dielectric constant tensor:
#      x y z
#    x 1.727180 0.000000 -0.010390 
#    y 0.000000 1.736110 0.000000 
#    z -0.010390 0.000000 1.755740 
# 
# From -- ./inp_files/12292.got.cif
#   From: 2010.06.25/outbox.cif.g09.slc.cpg/sg13_7_cif.got.tgz:12292.got - 2010.06.28 04:50:58.
