data_PCOD8122596
_publ_section_title
;
Structure prediction by ZEFSAII (Michael W. Deem and Ramdas Pophale) SiO2 
 PCOD8122596
Probable space group: P 2/C
;
_chemical_formula_sum "Si O2"
_cell_formula_units_Z 30
_cell_length_a 14.749095
_cell_length_b 8.420480
_cell_length_c 21.801820
_cell_angle_alpha 90.000000
_cell_angle_beta 30.807450
_cell_angle_gamma 90.000000
_cell_volume 1386.743074
_symmetry_space_group_name_H-M "P 2/C"
_symmetry_group_IT_number 13
_symmetry_cell_setting 'monoclinic'
loop_
_space_group_symop_operation_xyz
x,y,z
-x,y,1/2-z
-x,-y,-z
x,-y,1/2+z
loop_
_atom_site_type_symbol
_atom_site_label
_atom_site_fract_x
_atom_site_fract_y
_atom_site_fract_z
Si Si1 0.929508 0.127807 0.921345
Si Si2 0.573312 0.194055 0.598517
Si Si3 0.907790 0.784951 0.978256
Si Si4 0.626717 0.153339 0.435792
Si Si5 0.555917 0.849476 0.651190
Si Si6 0.209412 0.321701 0.825827
Si Si7 0.717538 0.331568 0.265725
Si Si8 0.000000 0.991632 0.750000
O O1 0.941371 0.094353 0.842294
O O2 0.107767 0.217855 0.834825
O O3 0.751287 0.233522 0.036587
O O4 0.901871 0.976717 0.983382
O O5 0.744387 0.273205 0.531054
O O6 0.562692 0.247063 0.533702
O O7 0.397646 0.249075 0.735380
O O8 0.577546 0.002708 0.595143
O O9 0.902345 0.689159 0.046010
O O10 0.093729 0.751843 0.838534
O O11 0.613971 0.283319 0.388328
O O12 0.500000 0.000000 0.500000
O O13 0.832262 0.110903 0.326280
O O14 0.500000 0.911924 0.750000
O O15 0.404105 0.729646 0.718770
O O16 0.242336 0.487055 0.773018
#
# Coordination Sequence:
#
# PCOD8122596 Si02
#       8
#     4   4   4   4   4   4   4   2
#     4  11  22  41  69  97 123 173 230 283 320 388
#     4  11  22  41  67  95 123 173 228 278 323 387
#     4  11  22  43  67  92 130 176 226 273 323 395
#     4  12  21  42  69  93 128 168 228 280 322 395
#     4  11  22  40  65  96 126 171 229 277 326 388
#     4  12  26  40  62  99 140 172 213 270 348 407
#     4  12  25  41  64  97 136 178 212 270 348 405
#     4  12  20  42  68  96 120 162 232 280 326 372
#
# _framework density 21.633420999999998
#
# number of rings (size 3 to 8) (size 9 to 14) (size 15 to 20)
#    0.000    0.533    5.333    5.200    0.000    2.667 
#    0.000    2.000    0.000    0.000    0.000    0.000 
#    0.000    0.000    0.000    0.000    0.000    0.000 
#
# Total GULP energy -371807.872060 kJ/mol
# GULP energy per Si atom -12393.595735 kJ/mol
# Density = 2.158418 g / cm^3
# Si number density = 21.633421 Si / 1000 Ang^3
#
#
#
# Elastic Constant Matrix: (Units=GPa)
#
#
# Indices 1 2 3 4 5 6 
#
# 1 111.9838 44.9775 37.7852 0.0000 6.9987 0.0000
# 2 44.9775 80.1661 24.2539 0.0000 2.4536 0.0000
# 3 37.7852 24.2539 107.6519 0.0000 -8.8325 0.0000
# 4 0.0000 0.0000 0.0000 18.8664 0.0000 14.3616
# 5 6.9987 2.4536 -8.8325 0.0000 63.3995 0.0000
# 6 0.0000 0.0000 0.0000 14.3616 0.0000 0.0283
#
#
#
# Elastic Compliance Matrix: (Units=1/GPa)
#
#
# Indices 1 2 3 4 5 6 
#
# 1 0.012513 -0.006014 -0.003168 0.000000 -0.001590 0.000000
# 2 -0.006014 0.016333 -0.001585 0.000000 -0.000189 0.000000
# 3 -0.003168 -0.001585 0.010917 0.000000 0.001932 0.000000
# 4 0.000000 0.000000 0.000000 -0.000137 0.000000 0.069811
# 5 -0.001590 -0.000189 0.001932 0.000000 0.016225 0.000000
# 6 0.000000 0.000000 0.000000 0.069811 0.000000 -0.091708
#
#
# Mechanical properties :
#
#
# Convention : Reuss Voigt Hill
#
# Bulk Modulus (GPa) = 54.85078 57.09276 55.97177
# Shear Modulus (GPa) = -606.16694 29.31117 -288.42788
#
# Velocity S-wave (km/s) = -16.75731 3.68489 -11.55918
# Velocity P-wave (km/s) = 18.68155 6.67479 12.33790
#
# Compressibility (1/GPa) = 0.01823128
#
# Stress axis : x y z
#
# Youngs Moduli (GPa) = 79.91431 61.22462 91.60392
#
# Poissons Ratio (x) = 0.36818 0.29017
# Poissons Ratio (y) = 0.48058 0.14516
# Poissons Ratio (z) = 0.25315 0.09702
#
# Static dielectric constant tensor:
#      x y z
#    x 4.392290 0.000000 -0.243500 
#    y 0.000000 3.458210 0.000000 
#    z -0.243500 0.000000 4.397210 
# 
# 
# High freq. dielectric constant tensor:
#      x y z
#    x 1.865730 0.000000 -0.007260 
#    y 0.000000 1.799990 0.000000 
#    z -0.007260 0.000000 1.879230 
# 
# From -- ./inp_files/87271.got.cif
#   From: 2010.06.25/outbox.cif.g09.slc.cpg/sg13_44_cif.got.tgz:87271.got - 2010.06.28 04:50:58.
