data_PCOD8123600
_publ_section_title
;
Structure prediction by ZEFSAII (Michael W. Deem and Ramdas Pophale) SiO2 
 PCOD8123600
Probable space group: P 21/C
;
_chemical_formula_sum "Si O2"
_cell_formula_units_Z 28
_cell_length_a 10.073342
_cell_length_b 11.564904
_cell_length_c 14.508672
_cell_angle_alpha 90.000000
_cell_angle_beta 53.411900
_cell_angle_gamma 90.000000
_cell_volume 1357.147544
_symmetry_space_group_name_H-M "P 21/C"
_symmetry_group_IT_number 14
_symmetry_cell_setting 'monoclinic'
loop_
_space_group_symop_operation_xyz
x,y,z
-x,1/2+y,1/2-z
-x,-y,-z
x,1/2-y,1/2+z
loop_
_atom_site_type_symbol
_atom_site_label
_atom_site_fract_x
_atom_site_fract_y
_atom_site_fract_z
Si Si1 0.535532 0.618771 0.609174
Si Si2 0.211583 0.087435 0.357964
Si Si3 0.381139 0.387877 0.616458
Si Si4 0.457917 0.013041 0.705266
Si Si5 0.273723 0.809306 0.705211
Si Si6 0.088956 0.832696 0.418005
Si Si7 0.347856 0.704997 0.969447
O O1 0.405712 0.524042 0.624931
O O2 0.669246 0.635571 0.470176
O O3 0.611896 0.580142 0.675203
O O4 0.434220 0.735390 0.667756
O O5 0.238256 0.150866 0.247405
O O6 0.388244 0.069991 0.333146
O O7 0.099462 0.172315 0.466980
O O8 0.124020 0.964780 0.376031
O O9 0.555004 0.325310 0.566486
O O10 0.306216 0.938883 0.728580
O O11 0.518569 0.103269 0.602767
O O12 0.112131 0.752273 0.820623
O O13 0.249737 0.816119 0.605382
O O14 0.214591 0.789296 0.444066
#
# Coordination Sequence:
#
# PCOD8123600 Si02
#       7
#     4   4   4   4   4   4   4
#     4   9  17  28  50  79  98 127 179 216 269 289
#     4   9  18  31  54  75 106 135 175 222 259 312
#     4   9  16  31  51  80 101 129 178 230 250 308
#     4  10  19  33  52  84 106 141 173 224 270 316
#     4  11  19  33  53  81 107 136 178 218 266 317
#     4  10  18  34  51  78 106 139 176 217 261 317
#     4  10  20  32  55  79 107 138 177 217 271 317
#
# _framework density 20.631506999999999
#
# number of rings (size 3 to 8) (size 9 to 14) (size 15 to 20)
#    0.000    2.286    4.286    2.143    0.000    0.000 
#    0.000    2.857    0.000    0.857    0.000    0.000 
#    0.000    0.000    0.000    0.000    0.000    0.000 
#
# Total GULP energy -347004.724885 kJ/mol
# GULP energy per Si atom -12393.025889 kJ/mol
# Density = 2.058455 g / cm^3
# Si number density = 20.631507 Si / 1000 Ang^3
#
#
#
# Elastic Constant Matrix: (Units=GPa)
#
#
# Indices 1 2 3 4 5 6 
#
# 1 20.1132 6.9851 29.1167 0.0000 7.6769 0.0000
# 2 6.9851 49.6652 27.4088 0.0000 8.9944 0.0000
# 3 29.1167 27.4088 196.4391 0.0000 20.0515 0.0000
# 4 0.0000 0.0000 0.0000 34.1991 0.0000 2.5848
# 5 7.6769 8.9944 20.0515 0.0000 27.5165 0.0000
# 6 0.0000 0.0000 0.0000 2.5848 0.0000 19.7155
#
#
#
# Elastic Compliance Matrix: (Units=1/GPa)
#
#
# Indices 1 2 3 4 5 6 
#
# 1 0.067308 -0.002699 -0.008398 0.000000 -0.011777 0.000000
# 2 -0.002699 0.022665 -0.002250 0.000000 -0.005016 0.000000
# 3 -0.008398 -0.002250 0.006844 0.000000 -0.001909 0.000000
# 4 0.000000 0.000000 0.000000 0.029533 0.000000 -0.003872
# 5 -0.011777 -0.005016 -0.001909 0.000000 0.042658 0.000000
# 6 0.000000 0.000000 0.000000 -0.003872 0.000000 0.051229
#
#
# Mechanical properties :
#
#
# Convention : Reuss Voigt Hill
#
# Bulk Modulus (GPa) = 14.26079 43.69316 28.97697
# Shear Modulus (GPa) = 18.49756 29.80002 24.14879
#
# Velocity S-wave (km/s) = 2.99752 3.80464 3.42494
# Velocity P-wave (km/s) = 4.34826 6.36587 5.45122
#
# Compressibility (1/GPa) = 0.07012234
#
# Stress axis : x y z
#
# Youngs Moduli (GPa) = 14.85705 44.12156 146.10866
#
# Poissons Ratio (x) = 0.11909 1.22700
# Poissons Ratio (y) = 0.04010 0.32879
# Poissons Ratio (z) = 0.12477 0.09929
#
# Static dielectric constant tensor:
#      x y z
#    x 3.063360 0.000000 0.217960 
#    y 0.000000 3.634390 0.000000 
#    z 0.217960 0.000000 4.511190 
# 
# 
# High freq. dielectric constant tensor:
#      x y z
#    x 1.736280 0.000000 0.026710 
#    y 0.000000 1.800250 0.000000 
#    z 0.026710 0.000000 1.833290 
# 
# From -- ./inp_files/44010.got.cif
#   From: 2010.03.12/outbox.cif.g09.slc.cpg/sg14_23_cif.got.tgz:44010.got - 2010.03.31 13:35:05.
