data_PCOD8123529
_publ_section_title
;
Structure prediction by ZEFSAII (Michael W. Deem and Ramdas Pophale) SiO2 
 PCOD8123529
Probable space group: P 21/C
;
_chemical_formula_sum "Si O2"
_cell_formula_units_Z 32
_cell_length_a 13.752868
_cell_length_b 18.219034
_cell_length_c 10.940423
_cell_angle_alpha 90.000000
_cell_angle_beta 32.864547
_cell_angle_gamma 90.000000
_cell_volume 1487.566516
_symmetry_space_group_name_H-M "P 21/C"
_symmetry_group_IT_number 14
_symmetry_cell_setting 'monoclinic'
loop_
_space_group_symop_operation_xyz
x,y,z
-x,1/2+y,1/2-z
-x,-y,-z
x,1/2-y,1/2+z
loop_
_atom_site_type_symbol
_atom_site_label
_atom_site_fract_x
_atom_site_fract_y
_atom_site_fract_z
Si Si1 0.821820 0.858784 0.325742
Si Si2 0.178181 0.858783 0.674257
Si Si3 0.812156 0.082261 0.073265
Si Si4 0.483430 0.584078 0.305058
Si Si5 0.402932 0.270529 0.479202
Si Si6 0.516571 0.915922 0.194941
Si Si7 0.187844 0.417739 0.426736
Si Si8 0.402933 0.770529 0.979201
O O1 0.689690 0.891319 0.568916
O O2 0.785192 0.773129 0.330679
O O3 0.787718 0.908327 0.242888
O O4 0.029481 0.865175 0.147307
O O5 0.212282 0.908327 0.757112
O O6 0.310311 0.891319 0.431083
O O7 0.214809 0.773129 0.669320
O O8 0.970520 0.865175 0.852692
O O9 0.622119 0.097151 0.210263
O O10 0.875598 0.000000 0.978047
O O11 0.470681 0.500000 0.365822
O O12 0.388642 0.640253 0.501559
O O13 0.388641 0.359747 0.501559
O O14 0.500000 0.242097 0.500000
O O15 0.500000 0.250000 0.250000
O O16 0.622119 0.902849 0.210262
#
# Coordination Sequence:
#
# PCOD8123529 Si02
#       8
#     4   4   4   4   4   4   4   4
#     4  10  18  32  54  80 113 145 181 233 279 320
#     4  10  18  32  54  80 113 145 181 233 279 320
#     4  10  19  31  54  86 111 141 186 227 278 337
#     4  10  20  34  53  77 111 149 182 224 274 326
#     4  10  21  37  58  83 110 146 190 227 272 332
#     4  10  20  34  53  77 111 149 182 224 274 326
#     4  10  19  31  54  86 111 141 186 227 278 337
#     4  10  21  37  58  83 110 146 190 227 272 332
#
# _framework density 21.511644
#
# number of rings (size 3 to 8) (size 9 to 14) (size 15 to 20)
#    0.000    2.000    0.000    6.750    0.000    3.500 
#    0.000    2.500    0.000    0.000    0.000   19.250 
#    0.000    0.000    0.000    0.000    0.000    0.000 
#
# Total GULP energy -396452.092316 kJ/mol
# GULP energy per Si atom -12389.127885 kJ/mol
# Density = 2.146268 g / cm^3
# Si number density = 21.511644 Si / 1000 Ang^3
#
#
#
# Elastic Constant Matrix: (Units=GPa)
#
#
# Indices 1 2 3 4 5 6 
#
# 1 34.5642 1.0538 6.0238 0.0000 14.5009 0.0000
# 2 1.0538 147.2692 34.4700 0.0000 -0.8787 0.0000
# 3 6.0238 34.4700 66.9442 0.0000 -9.3921 0.0000
# 4 0.0000 0.0000 0.0000 35.3656 0.0000 -2.0932
# 5 14.5009 -0.8787 -9.3921 0.0000 20.7857 0.0000
# 6 0.0000 0.0000 0.0000 -2.0932 0.0000 25.7324
#
#
#
# Elastic Compliance Matrix: (Units=1/GPa)
#
#
# Indices 1 2 3 4 5 6 
#
# 1 0.046045 0.001848 -0.010240 0.000000 -0.036671 0.000000
# 2 0.001848 0.007843 -0.004633 0.000000 -0.003051 0.000000
# 3 -0.010240 -0.004633 0.020520 0.000000 0.016220 0.000000
# 4 0.000000 0.000000 0.000000 0.028413 0.000000 0.002311
# 5 -0.036671 -0.003051 0.016220 0.000000 0.080894 0.000000
# 6 0.000000 0.000000 0.000000 0.002311 0.000000 0.039049
#
#
# Mechanical properties :
#
#
# Convention : Reuss Voigt Hill
#
# Bulk Modulus (GPa) = 20.67841 36.87477 28.77659
# Shear Modulus (GPa) = 18.87269 30.19208 24.53239
#
# Velocity S-wave (km/s) = 2.96518 3.75043 3.38068
# Velocity P-wave (km/s) = 4.62132 5.99443 5.35209
#
# Compressibility (1/GPa) = 0.04835962
#
# Stress axis : x y z
#
# Youngs Moduli (GPa) = 21.71798 127.49809 48.73191
#
# Poissons Ratio (x) = -0.23568 0.49901
# Poissons Ratio (y) = -0.04015 0.22577
# Poissons Ratio (z) = 0.22239 0.59070
#
# Static dielectric constant tensor:
#      x y z
#    x 3.692250 0.000000 -0.139030 
#    y 0.000000 4.569390 0.000000 
#    z -0.139030 0.000000 3.756430 
# 
# 
# High freq. dielectric constant tensor:
#      x y z
#    x 1.818400 0.000000 -0.013940 
#    y 0.000000 1.861010 0.000000 
#    z -0.013940 0.000000 1.815250 
# 
# From -- ./inp_files/33032.got.cif
#   From: 2010.03.12/outbox.cif.g09.slc.cpg/sg14_17_cif.got.tgz:33032.got - 2010.03.31 13:35:05.
