data_PCOD8123316
_publ_section_title
;
Structure prediction by ZEFSAII (Michael W. Deem and Ramdas Pophale) SiO2 
 PCOD8123316
Probable space group: P 21/C
;
_chemical_formula_sum "Si O2"
_cell_formula_units_Z 32
_cell_length_a 8.473380
_cell_length_b 32.992566
_cell_length_c 10.022181
_cell_angle_alpha 90.000000
_cell_angle_beta 31.884930
_cell_angle_gamma 90.000000
_cell_volume 1479.945644
_symmetry_space_group_name_H-M "P 21/C"
_symmetry_group_IT_number 14
_symmetry_cell_setting 'monoclinic'
loop_
_space_group_symop_operation_xyz
x,y,z
-x,1/2+y,1/2-z
-x,-y,-z
x,1/2-y,1/2+z
loop_
_atom_site_type_symbol
_atom_site_label
_atom_site_fract_x
_atom_site_fract_y
_atom_site_fract_z
Si Si1 0.896400 0.323461 0.765429
Si Si2 0.056823 0.421093 0.253141
Si Si3 0.098602 0.584682 0.252324
Si Si4 0.573531 0.553290 0.752540
Si Si5 0.438323 0.542211 0.246974
Si Si6 0.758001 0.810878 0.716081
Si Si7 0.748517 0.784591 0.229840
Si Si8 0.922370 0.330821 0.286413
O O1 0.847030 0.368812 0.745560
O O2 0.071854 0.326710 0.776922
O O3 0.093081 0.298717 0.519147
O O4 0.577853 0.303222 0.017883
O O5 0.724315 0.440037 0.504269
O O6 0.048236 0.372901 0.251015
O O7 0.240668 0.433797 0.250995
O O8 0.225614 0.439752 0.002977
O O9 0.252975 0.555189 0.249423
O O10 0.745768 0.573329 0.502601
O O11 0.245350 0.573694 0.003321
O O12 0.546899 0.505736 0.754619
O O13 0.711112 0.763141 0.751943
O O14 0.960647 0.823720 0.446198
O O15 0.434946 0.831824 0.947115
O O16 0.953876 0.795197 0.208516
#
# Coordination Sequence:
#
# PCOD8123316 Si02
#       8
#     4   4   4   4   4   4   4   4
#     4  12  25  42  65  92 126 166 209 258 314 373
#     4  10  18  31  51  81 116 150 186 238 303 357
#     4  10  18  31  50  80 116 150 186 237 302 358
#     4  10  18  30  52  88 119 146 192 258 304 339
#     4  10  17  30  53  88 119 146 192 258 305 339
#     4  12  26  43  61  91 127 167 205 254 321 379
#     4  12  23  43  67  91 118 160 217 270 304 359
#     4  12  25  42  65  93 127 165 209 259 313 372
#
# _framework density 21.622415
#
# number of rings (size 3 to 8) (size 9 to 14) (size 15 to 20)
#    0.000    1.000    0.000   12.000    0.000    0.000 
#    0.000    0.000    0.000    0.000    0.000   29.750 
#    0.000    0.000    0.000    0.000    0.000    0.000 
#
# Total GULP energy -396762.577931 kJ/mol
# GULP energy per Si atom -12398.830560 kJ/mol
# Density = 2.157320 g / cm^3
# Si number density = 21.622415 Si / 1000 Ang^3
#
#
#
# Elastic Constant Matrix: (Units=GPa)
#
#
# Indices 1 2 3 4 5 6 
#
# 1 211.6009 -51.3737 6.4050 0.0000 10.8461 0.0000
# 2 -51.3737 106.4716 23.5135 0.0000 5.8828 0.0000
# 3 6.4050 23.5135 183.6313 0.0000 19.4468 0.0000
# 4 0.0000 0.0000 0.0000 36.0762 0.0000 4.9213
# 5 10.8461 5.8828 19.4468 0.0000 29.2614 0.0000
# 6 0.0000 0.0000 0.0000 4.9213 0.0000 4.1508
#
#
#
# Elastic Compliance Matrix: (Units=1/GPa)
#
#
# Indices 1 2 3 4 5 6 
#
# 1 0.005561 0.002885 -0.000305 0.000000 -0.002438 0.000000
# 2 0.002885 0.011202 -0.001273 0.000000 -0.002476 0.000000
# 3 -0.000305 -0.001273 0.006003 0.000000 -0.003620 0.000000
# 4 0.000000 0.000000 0.000000 0.033067 0.000000 -0.039205
# 5 -0.002438 -0.002476 -0.003620 0.000000 0.037982 0.000000
# 6 0.000000 0.000000 0.000000 -0.039205 0.000000 0.287399
#
#
# Mechanical properties :
#
#
# Convention : Reuss Voigt Hill
#
# Bulk Modulus (GPa) = 39.40155 50.97704 45.18930
# Shear Modulus (GPa) = 12.91792 48.77494 30.84643
#
# Velocity S-wave (km/s) = 2.44689 4.75464 3.78113
# Velocity P-wave (km/s) = 5.12300 7.33275 6.32513
#
# Compressibility (1/GPa) = 0.02537971
#
# Stress axis : x y z
#
# Youngs Moduli (GPa) = 179.83768 89.26831 166.59102
#
# Poissons Ratio (x) = -0.25755 0.05084
# Poissons Ratio (y) = -0.51886 0.21205
# Poissons Ratio (z) = 0.05488 0.11363
#
# Static dielectric constant tensor:
#      x y z
#    x 3.507760 0.000000 0.671500 
#    y 0.000000 3.980320 0.000000 
#    z 0.671500 0.000000 9.371460 
# 
# 
# High freq. dielectric constant tensor:
#      x y z
#    x 1.791840 0.000000 0.013040 
#    y 0.000000 1.865820 0.000000 
#    z 0.013040 0.000000 1.892560 
# 
# From -- ./inp_files/27147.got.cif
#   From: 2010.03.12/outbox.cif.g09.slc.cpg/sg14_14_cif.got.tgz:27147.got - 2010.03.31 13:35:05.
