data_PCOD8123192
_publ_section_title
;
Structure prediction by ZEFSAII (Michael W. Deem and Ramdas Pophale) SiO2 
 PCOD8123192
Probable space group: P 2/C
;
_chemical_formula_sum "Si O2"
_cell_formula_units_Z 18
_cell_length_a 6.647231
_cell_length_b 4.938506
_cell_length_c 22.336443
_cell_angle_alpha 90.000000
_cell_angle_beta 116.384575
_cell_angle_gamma 90.000000
_cell_volume 656.865825
_symmetry_space_group_name_H-M "P 2/C"
_symmetry_group_IT_number 13
_symmetry_cell_setting 'monoclinic'
loop_
_space_group_symop_operation_xyz
x,y,z
-x,y,1/2-z
-x,-y,-z
x,-y,1/2+z
loop_
_atom_site_type_symbol
_atom_site_label
_atom_site_fract_x
_atom_site_fract_y
_atom_site_fract_z
Si Si1 0.227410 0.423395 0.806100
Si Si2 0.500000 0.782916 0.750000
Si Si3 0.051710 0.442930 0.407610
Si Si4 0.330399 0.851762 0.130564
Si Si5 0.254913 0.946920 0.491998
O O1 0.165748 0.581346 0.858116
O O2 0.405299 0.193410 0.846772
O O3 0.000000 0.289693 0.750000
O O4 0.340754 0.613829 0.772042
O O5 0.680859 0.960823 0.811819
O O6 0.068476 0.138010 0.434992
O O7 0.797891 0.566432 0.372294
O O8 0.194592 0.635764 0.471087
O O9 0.233152 0.001777 0.059661
O O10 0.500000 0.000000 0.500000
#
# Coordination Sequence:
#
# PCOD8123192 Si02
#       5
#     4   2   4   4   4
#     4  12  28  50  78 110 160 208 272 328 396 477
#     4  12  28  48  78 112 156 216 264 330 396 466
#     4  12  28  50  83 120 157 210 261 332 400 475
#     4  12  28  50  78 116 162 207 271 327 400 479
#     4  12  26  51  83 120 162 207 262 328 405 475
#
# _framework density 27.402854999999999
#
# number of rings (size 3 to 8) (size 9 to 14) (size 15 to 20)
#    0.000    0.000    2.222    6.667    9.333    0.889 
#    0.000    0.000    0.000    0.000    0.000    0.000 
#    0.000    0.000    0.000    0.000    0.000    0.000 
#
# Total GULP energy -223267.806381 kJ/mol
# GULP energy per Si atom -12403.767021 kJ/mol
# Density = 2.734049 g / cm^3
# Si number density = 27.402855 Si / 1000 Ang^3
#
#
#
# Elastic Constant Matrix: (Units=GPa)
#
#
# Indices 1 2 3 4 5 6 
#
# 1 176.6401 17.7276 47.0930 0.0000 -6.7304 0.0000
# 2 17.7276 52.2666 8.9863 0.0000 -15.9293 0.0000
# 3 47.0930 8.9863 173.0469 0.0000 -29.3350 0.0000
# 4 0.0000 0.0000 0.0000 -3.8767 0.0000 -19.4347
# 5 -6.7304 -15.9293 -29.3350 0.0000 40.4676 0.0000
# 6 0.0000 0.0000 0.0000 -19.4347 0.0000 28.7953
#
#
#
# Elastic Compliance Matrix: (Units=1/GPa)
#
#
# Indices 1 2 3 4 5 6 
#
# 1 0.006315 -0.002170 -0.001793 0.000000 -0.001104 0.000000
# 2 -0.002170 0.022507 0.000983 0.000000 0.009211 0.000000
# 3 -0.001793 0.000983 0.007104 0.000000 0.005238 0.000000
# 4 0.000000 0.000000 0.000000 -0.058846 0.000000 -0.039716
# 5 -0.001104 0.009211 0.005238 0.000000 0.031951 0.000000
# 6 0.000000 0.000000 0.000000 -0.039716 0.000000 0.007922
#
#
# Mechanical properties :
#
#
# Convention : Reuss Voigt Hill
#
# Bulk Modulus (GPa) = 33.37090 61.06307 47.21698
# Shear Modulus (GPa) = 151.97057 34.95368 93.46212
#
# Velocity S-wave (km/s) = 7.45509 3.57536 5.84643
# Velocity P-wave (km/s) = 9.29025 6.27504 7.92732
#
# Compressibility (1/GPa) = 0.02996623
#
# Stress axis : x y z
#
# Youngs Moduli (GPa) = 158.35398 44.43069 140.77272
#
# Poissons Ratio (x) = 0.09641 0.25240
# Poissons Ratio (y) = 0.34362 -0.13841
# Poissons Ratio (z) = 0.28392 -0.04369
#
# Static dielectric constant tensor:
#      x y z
#    x 5.482480 0.000000 0.176560 
#    y 0.000000 4.730750 0.000000 
#    z 0.176560 0.000000 5.410300 
# 
# 
# High freq. dielectric constant tensor:
#      x y z
#    x 2.140630 0.000000 0.001580 
#    y 0.000000 2.087400 0.000000 
#    z 0.001580 0.000000 2.127980 
# 
# From -- ./inp_files/83040.got.cif
#   From: 2010.06.25/outbox.cif.g09.slc.cpg/sg13_42_cif.got.tgz:83040.got - 2010.06.28 04:50:58.
