data_PCOD8123302
_publ_section_title
;
Structure prediction by ZEFSAII (Michael W. Deem and Ramdas Pophale) SiO2 
 PCOD8123302
Probable space group: P 21/C
;
_chemical_formula_sum "Si O2"
_cell_formula_units_Z 32
_cell_length_a 25.107001
_cell_length_b 5.301573
_cell_length_c 25.971430
_cell_angle_alpha 90.000000
_cell_angle_beta 154.664594
_cell_angle_gamma 90.000000
_cell_volume 1479.293815
_symmetry_space_group_name_H-M "P 21/C"
_symmetry_group_IT_number 14
_symmetry_cell_setting 'monoclinic'
loop_
_space_group_symop_operation_xyz
x,y,z
-x,1/2+y,1/2-z
-x,-y,-z
x,1/2-y,1/2+z
loop_
_atom_site_type_symbol
_atom_site_label
_atom_site_fract_x
_atom_site_fract_y
_atom_site_fract_z
Si Si1 0.231265 0.749991 0.717474
Si Si2 0.676506 0.750004 0.304005
Si Si3 0.289633 0.249988 0.789506
Si Si4 0.140589 0.750233 0.338275
Si Si5 0.585733 0.249994 0.953413
Si Si6 0.988392 0.749767 0.807375
Si Si7 0.816136 0.249994 0.936635
Si Si8 0.472475 0.249993 0.536999
O O1 0.207525 0.499399 0.730924
O O2 0.149649 0.749980 0.594380
O O3 0.207511 0.000591 0.730908
O O4 0.378541 0.750019 0.830395
O O5 0.686616 0.749992 0.250832
O O6 0.529291 0.749977 0.187600
O O7 0.738629 0.501772 0.382919
O O8 0.738603 0.998270 0.382893
O O9 0.422380 0.249963 0.934128
O O10 0.289205 0.750038 0.470699
O O11 0.094834 0.500576 0.268693
O O12 0.093942 0.750156 0.355957
O O13 0.095014 0.000148 0.268895
O O14 0.582855 0.501766 0.985107
O O15 0.582874 0.998137 0.985098
O O16 0.054800 0.749975 0.920567
#
# Coordination Sequence:
#
# PCOD8123302 Si02
#       8
#     4   4   4   4   4   4   4   4
#     4  10  17  29  45  77 109 140 179 212 249 306
#     4  10  19  32  49  85 118 138 172 211 266 325
#     4  10  18  28  46  75 116 149 180 206 245 315
#     4  10  23  40  60  82 103 133 182 235 268 306
#     4  12  21  34  51  80 118 142 165 228 275 320
#     4  10  21  42  63  79  98 135 190 229 261 319
#     4  10  18  33  56  79 106 140 174 221 263 317
#     4  12  19  30  50  77 118 149 176 210 259 326
#
# _framework density 21.631943
#
# number of rings (size 3 to 8) (size 9 to 14) (size 15 to 20)
#    0.000    1.500    5.000    3.000    0.000    0.000 
#    0.000    1.250    0.000    0.000    0.000   70.000 
#    0.000    0.000    0.000    0.000    0.000    0.000 
#
# Total GULP energy -396623.690916 kJ/mol
# GULP energy per Si atom -12394.490341 kJ/mol
# Density = 2.158271 g / cm^3
# Si number density = 21.631943 Si / 1000 Ang^3
#
#
#
# Elastic Constant Matrix: (Units=GPa)
#
#
# Indices 1 2 3 4 5 6 
#
# 1 13.3487 1.6196 -8.3259 0.0000 9.4656 0.0000
# 2 1.6196 215.9689 16.5164 0.0000 1.6316 0.0000
# 3 -8.3259 16.5164 57.5591 0.0000 -10.6718 0.0000
# 4 0.0000 0.0000 0.0000 25.4274 0.0000 -1.0174
# 5 9.4656 1.6316 -10.6718 0.0000 27.9367 0.0000
# 6 0.0000 0.0000 0.0000 -1.0174 0.0000 4.9995
#
#
#
# Elastic Compliance Matrix: (Units=1/GPa)
#
#
# Indices 1 2 3 4 5 6 
#
# 1 0.103144 -0.001263 0.009488 0.000000 -0.031249 0.000000
# 2 -0.001263 0.004769 -0.001639 0.000000 -0.000477 0.000000
# 3 0.009488 -0.001639 0.020059 0.000000 0.004543 0.000000
# 4 0.000000 0.000000 0.000000 0.039650 0.000000 0.008069
# 5 -0.031249 -0.000477 0.004543 0.000000 0.048147 0.000000
# 6 0.000000 0.000000 0.000000 0.008069 0.000000 0.201662
#
#
# Mechanical properties :
#
#
# Convention : Reuss Voigt Hill
#
# Bulk Modulus (GPa) = 7.08502 34.05520 20.57011
# Shear Modulus (GPa) = 11.07895 30.14383 20.61139
#
# Velocity S-wave (km/s) = 2.26554 3.73699 3.09013
# Velocity P-wave (km/s) = 3.18213 5.86493 4.71823
#
# Compressibility (1/GPa) = 0.14114295
#
# Stress axis : x y z
#
# Youngs Moduli (GPa) = 9.69520 209.69850 49.85352
#
# Poissons Ratio (x) = 0.26486 -0.47303
# Poissons Ratio (y) = 0.01225 0.08173
# Poissons Ratio (z) = -0.09199 0.34380
#
# Static dielectric constant tensor:
#      x y z
#    x 3.226560 0.000000 -0.043300 
#    y 0.000000 5.993570 0.000000 
#    z -0.043300 0.000000 3.786990 
# 
# 
# High freq. dielectric constant tensor:
#      x y z
#    x 1.779620 0.000000 -0.005610 
#    y 0.000000 1.897480 0.000000 
#    z -0.005610 0.000000 1.846380 
# 
# From -- ./inp_files/78425.got.cif
#   From: 2010.03.12/outbox.cif.g09.slc.cpg/sg14_40_cif.got.tgz:78425.got - 2010.03.31 13:35:05.
