data_PCOD8123124
_publ_section_title
;
Structure prediction by ZEFSAII (Michael W. Deem and Ramdas Pophale) SiO2 
 PCOD8123124
Probable space group: P 2/C
;
_chemical_formula_sum "Si O2"
_cell_formula_units_Z 22
_cell_length_a 11.059699
_cell_length_b 5.479196
_cell_length_c 14.647532
_cell_angle_alpha 90.000000
_cell_angle_beta 98.310973
_cell_angle_gamma 90.000000
_cell_volume 878.293309
_symmetry_space_group_name_H-M "P 2/C"
_symmetry_group_IT_number 13
_symmetry_cell_setting 'monoclinic'
loop_
_space_group_symop_operation_xyz
x,y,z
-x,y,1/2-z
-x,-y,-z
x,-y,1/2+z
loop_
_atom_site_type_symbol
_atom_site_label
_atom_site_fract_x
_atom_site_fract_y
_atom_site_fract_z
Si Si1 0.274322 0.810664 0.387097
Si Si2 0.390905 0.988927 0.571780
Si Si3 0.000000 0.318809 0.250000
Si Si4 0.818520 0.964601 0.315138
Si Si5 0.027568 0.633083 0.409369
Si Si6 0.516225 0.493842 0.643824
O O1 0.361846 0.981379 0.459818
O O2 0.145911 0.807366 0.430410
O O3 0.344255 0.553083 0.375558
O O4 0.257118 0.923233 0.285308
O O5 0.269671 0.941480 0.616423
O O6 0.475713 0.752673 0.599078
O O7 0.440552 0.255803 0.602120
O O8 0.085877 0.174988 0.191698
O O9 0.079426 0.471047 0.331173
O O10 0.899174 0.739263 0.359983
O O11 0.000000 0.500000 0.500000
O O12 0.500000 0.505807 0.750000
#
# Coordination Sequence:
#
# PCOD8123124 Si02
#       6
#     4   4   2   4   4   4
#     4  12  26  51  79 109 163 204 262 334 392 473
#     4  12  30  50  80 117 156 210 266 326 396 474
#     4  12  24  44  76 108 162 196 262 320 400 476
#     4  12  27  50  74 122 154 207 266 325 408 478
#     4  12  28  49  77 117 152 210 263 327 400 485
#     4  12  28  53  79 117 157 207 268 324 396 471
#
# _framework density 25.048584000000002
#
# number of rings (size 3 to 8) (size 9 to 14) (size 15 to 20)
#    0.000    0.000    5.455    2.727   10.182    1.455 
#    0.000    0.000    0.000    0.000    0.000    0.000 
#    0.000    0.000    0.000    0.000    0.000    0.000 
#
# Total GULP energy -272576.692144 kJ/mol
# GULP energy per Si atom -12389.849643 kJ/mol
# Density = 2.499157 g / cm^3
# Si number density = 25.048584 Si / 1000 Ang^3
#
#
#
# Elastic Constant Matrix: (Units=GPa)
#
#
# Indices 1 2 3 4 5 6 
#
# 1 96.3254 19.3957 27.9716 0.0000 -6.4460 0.0000
# 2 19.3957 90.2318 41.7798 0.0000 13.4515 0.0000
# 3 27.9716 41.7798 188.4609 0.0000 16.4654 0.0000
# 4 0.0000 0.0000 0.0000 26.9014 0.0000 -19.6807
# 5 -6.4460 13.4515 16.4654 0.0000 52.7724 0.0000
# 6 0.0000 0.0000 0.0000 -19.6807 0.0000 -1.0670
#
#
#
# Elastic Compliance Matrix: (Units=1/GPa)
#
#
# Indices 1 2 3 4 5 6 
#
# 1 0.011386 -0.002144 -0.001423 0.000000 0.002381 0.000000
# 2 -0.002144 0.013046 -0.002324 0.000000 -0.002862 0.000000
# 3 -0.001423 -0.002324 0.006164 0.000000 -0.001505 0.000000
# 4 0.000000 0.000000 0.000000 0.002565 0.000000 -0.047306
# 5 0.002381 -0.002862 -0.001505 0.000000 0.020439 0.000000
# 6 0.000000 0.000000 0.000000 -0.047306 0.000000 -0.064662
#
#
# Mechanical properties :
#
#
# Convention : Reuss Voigt Hill
#
# Bulk Modulus (GPa) = 53.14870 61.47915 57.31393
# Shear Modulus (GPa) = 715.33919 34.77943 375.05931
#
# Velocity S-wave (km/s) = 16.91747 3.73027 12.24981
# Velocity P-wave (km/s) = 20.07150 6.56890 14.93345
#
# Compressibility (1/GPa) = 0.01881513
#
# Stress axis : x y z
#
# Youngs Moduli (GPa) = 87.83055 76.65138 162.23373
#
# Poissons Ratio (x) = 0.16431 0.23080
# Poissons Ratio (y) = 0.18827 0.37703
# Poissons Ratio (z) = 0.12495 0.17814
#
# Static dielectric constant tensor:
#      x y z
#    x 4.748360 0.000000 0.035760 
#    y 0.000000 4.451910 0.000000 
#    z 0.035760 0.000000 4.871110 
# 
# 
# High freq. dielectric constant tensor:
#      x y z
#    x 2.019940 0.000000 -0.007150 
#    y 0.000000 1.990840 0.000000 
#    z -0.007150 0.000000 2.025890 
# 
# From -- ./inp_files/49019.got.cif
#   From: 2010.06.25/outbox.cif.g09.slc.cpg/sg13_25_cif.got.tgz:49019.got - 2010.06.28 04:50:58.
