data_PCOD8123096
_publ_section_title
;
Structure prediction by ZEFSAII (Michael W. Deem and Ramdas Pophale) SiO2 
 PCOD8123096
Probable space group: P 2/C
;
_chemical_formula_sum "Si O2"
_cell_formula_units_Z 22
_cell_length_a 13.231864
_cell_length_b 8.976373
_cell_length_c 8.219407
_cell_angle_alpha 90.000000
_cell_angle_beta 98.865489
_cell_angle_gamma 90.000000
_cell_volume 964.589634
_symmetry_space_group_name_H-M "P 2/C"
_symmetry_group_IT_number 13
_symmetry_cell_setting 'monoclinic'
loop_
_space_group_symop_operation_xyz
x,y,z
-x,y,1/2-z
-x,-y,-z
x,-y,1/2+z
loop_
_atom_site_type_symbol
_atom_site_label
_atom_site_fract_x
_atom_site_fract_y
_atom_site_fract_z
Si Si1 0.000000 0.654156 0.750000
Si Si2 0.704265 0.302851 0.455412
Si Si3 0.769081 0.963434 0.767875
Si Si4 0.201824 0.468338 0.724798
Si Si5 0.436533 0.122606 0.886854
Si Si6 0.138736 0.802024 0.010147
O O1 0.095675 0.555568 0.720885
O O2 0.026733 0.762247 0.910451
O O3 0.754187 0.145813 0.417580
O O4 0.774915 0.378674 0.607629
O O5 0.706124 0.417084 0.302489
O O6 0.591918 0.262072 0.500638
O O7 0.792875 0.867312 0.617042
O O8 0.666167 0.055007 0.713524
O O9 0.860413 0.078808 0.841418
O O10 0.190759 0.352513 0.574761
O O11 0.500000 0.186182 0.750000
O O12 0.500000 0.000000 0.000000
#
# Coordination Sequence:
#
# PCOD8123096 Si02
#       6
#     2   4   4   4   4   4
#     4  12  26  42  74 102 142 196 252 280 342 420
#     4  12  24  46  75 102 144 193 229 293 369 415
#     4  12  23  45  73 105 140 190 231 303 365 405
#     4  12  25  46  72 100 148 197 236 285 354 430
#     4  12  24  44  77 106 138 176 238 293 362 431
#     4  12  24  44  70 103 146 188 240 290 354 413
#
# _framework density 22.807624000000001
#
# number of rings (size 3 to 8) (size 9 to 14) (size 15 to 20)
#    0.000    0.000    9.091    0.545    0.000    0.727 
#    0.000    2.727    0.000    0.000    0.000    0.000 
#    0.000    0.000    0.000    0.000    0.000    0.000 
#
# Total GULP energy -272681.137371 kJ/mol
# GULP energy per Si atom -12394.597153 kJ/mol
# Density = 2.275571 g / cm^3
# Si number density = 22.807624 Si / 1000 Ang^3
#
#
#
# Elastic Constant Matrix: (Units=GPa)
#
#
# Indices 1 2 3 4 5 6 
#
# 1 74.8663 39.1123 30.7605 0.0000 -15.4412 0.0000
# 2 39.1123 106.5565 44.9997 0.0000 -1.1351 0.0000
# 3 30.7605 44.9997 87.5224 0.0000 1.3726 0.0000
# 4 0.0000 0.0000 0.0000 44.2644 0.0000 -1.0426
# 5 -15.4412 -1.1351 1.3726 0.0000 43.7770 0.0000
# 6 0.0000 0.0000 0.0000 -1.0426 0.0000 45.9902
#
#
#
# Elastic Compliance Matrix: (Units=1/GPa)
#
#
# Indices 1 2 3 4 5 6 
#
# 1 0.019187 -0.005209 -0.004171 0.000000 0.006764 0.000000
# 2 -0.005209 0.013413 -0.005045 0.000000 -0.001331 0.000000
# 3 -0.004171 -0.005045 0.015518 0.000000 -0.002089 0.000000
# 4 0.000000 0.000000 0.000000 0.022604 0.000000 0.000512
# 5 0.006764 -0.001331 -0.002089 0.000000 0.025260 0.000000
# 6 0.000000 0.000000 0.000000 0.000512 0.000000 0.021755
#
#
# Mechanical properties :
#
#
# Convention : Reuss Voigt Hill
#
# Bulk Modulus (GPa) = 51.89881 55.41001 53.65441
# Shear Modulus (GPa) = 32.67754 37.07784 34.87769
#
# Velocity S-wave (km/s) = 3.78927 4.03634 3.91476
# Velocity P-wave (km/s) = 6.47682 6.78749 6.63397
#
# Compressibility (1/GPa) = 0.01926826
#
# Stress axis : x y z
#
# Youngs Moduli (GPa) = 52.11727 74.55475 64.44085
#
# Poissons Ratio (x) = 0.38838 0.26880
# Poissons Ratio (y) = 0.27149 0.32508
# Poissons Ratio (z) = 0.21740 0.37610
#
# Static dielectric constant tensor:
#      x y z
#    x 3.974380 0.000000 -0.094280 
#    y 0.000000 4.703490 0.000000 
#    z -0.094280 0.000000 4.521370 
# 
# 
# High freq. dielectric constant tensor:
#      x y z
#    x 1.865370 0.000000 -0.011450 
#    y 0.000000 1.917410 0.000000 
#    z -0.011450 0.000000 1.922740 
# 
# From -- ./inp_files/18160.got.cif
#   From: 2010.06.25/outbox.cif.g09.slc.cpg/sg13_10_cif.got.tgz:18160.got - 2010.06.28 04:50:58.
