data_PCOD8123895
_publ_section_title
;
Structure prediction by ZEFSAII (Michael W. Deem and Ramdas Pophale) SiO2 
 PCOD8123895
Probable space group: P 21/C
;
_chemical_formula_sum "Si O2"
_cell_formula_units_Z 24
_cell_length_a 9.244040
_cell_length_b 18.426074
_cell_length_c 15.941492
_cell_angle_alpha 90.000000
_cell_angle_beta 150.377116
_cell_angle_gamma 90.000000
_cell_volume 1342.161046
_symmetry_space_group_name_H-M "P 21/C"
_symmetry_group_IT_number 14
_symmetry_cell_setting 'monoclinic'
loop_
_space_group_symop_operation_xyz
x,y,z
-x,1/2+y,1/2-z
-x,-y,-z
x,1/2-y,1/2+z
loop_
_atom_site_type_symbol
_atom_site_label
_atom_site_fract_x
_atom_site_fract_y
_atom_site_fract_z
Si Si1 0.815988 0.413349 0.155825
Si Si2 0.122605 0.296317 0.720361
Si Si3 0.282392 0.679906 0.052251
Si Si4 0.858473 0.922724 0.655164
Si Si5 0.838695 0.327615 0.819256
Si Si6 0.210146 0.206087 0.927139
O O1 0.941432 0.494627 0.216382
O O2 0.023448 0.367057 0.320908
O O3 0.820578 0.381860 0.064082
O O4 0.490336 0.411829 0.029763
O O5 0.369078 0.310129 0.774718
O O6 0.016896 0.372944 0.706107
O O7 0.258112 0.247979 0.863799
O O8 0.852296 0.257842 0.539642
O O9 0.184745 0.655245 0.094581
O O10 0.011740 0.898329 0.646249
O O11 0.523676 0.314153 0.620559
O O12 0.038922 0.256983 0.906153
#
# Coordination Sequence:
#
# PCOD8123895 Si02
#       6
#     4   4   4   4   4   4
#     4   9  19  35  54  71  98 136 170 197 242 299
#     4   9  17  32  51  70  94 128 167 196 239 295
#     4  10  19  31  50  75  99 126 159 207 251 290
#     4   9  18  34  54  73  98 134 169 202 241 295
#     4  11  20  31  51  76 102 124 160 210 252 287
#     4  10  19  33  52  74  97 131 169 202 241 296
#
# _framework density 17.881609999999998
#
# number of rings (size 3 to 8) (size 9 to 14) (size 15 to 20)
#    0.000    2.333    0.000    6.000    0.000    1.333 
#    0.000    0.000    0.000   20.000    0.000    0.000 
#    0.000    0.000    0.000    0.000    0.000    0.000 
#
# Total GULP energy -297633.177748 kJ/mol
# GULP energy per Si atom -12401.382406 kJ/mol
# Density = 1.784091 g / cm^3
# Si number density = 17.881610 Si / 1000 Ang^3
#
#
#
# Elastic Constant Matrix: (Units=GPa)
#
#
# Indices 1 2 3 4 5 6 
#
# 1 115.3097 21.8522 14.6330 0.0000 3.0510 0.0000
# 2 21.8522 110.4806 9.8954 0.0000 10.4598 0.0000
# 3 14.6330 9.8954 35.2556 0.0000 6.3808 0.0000
# 4 0.0000 0.0000 0.0000 23.7651 0.0000 7.0151
# 5 3.0510 10.4598 6.3808 0.0000 17.7530 0.0000
# 6 0.0000 0.0000 0.0000 7.0151 0.0000 18.3584
#
#
#
# Elastic Compliance Matrix: (Units=1/GPa)
#
#
# Indices 1 2 3 4 5 6 
#
# 1 0.009412 -0.001600 -0.003567 0.000000 0.000607 0.000000
# 2 -0.001600 0.009964 -0.001198 0.000000 -0.005165 0.000000
# 3 -0.003567 -0.001198 0.032026 0.000000 -0.010192 0.000000
# 4 0.000000 0.000000 0.000000 0.047428 0.000000 -0.018123
# 5 0.000607 -0.005165 -0.010192 0.000000 0.062931 0.000000
# 6 0.000000 0.000000 0.000000 -0.018123 0.000000 0.061396
#
#
# Mechanical properties :
#
#
# Convention : Reuss Voigt Hill
#
# Bulk Modulus (GPa) = 25.85847 39.31191 32.58519
# Shear Modulus (GPa) = 20.09827 26.28632 23.19230
#
# Velocity S-wave (km/s) = 3.35619 3.83824 3.60528
# Velocity P-wave (km/s) = 5.43241 6.45562 5.96599
#
# Compressibility (1/GPa) = 0.03867205
#
# Stress axis : x y z
#
# Youngs Moduli (GPa) = 106.24639 100.36063 31.22480
#
# Poissons Ratio (x) = 0.16054 0.11139
# Poissons Ratio (y) = 0.16995 0.03740
# Poissons Ratio (z) = 0.37903 0.12022
#
# Static dielectric constant tensor:
#      x y z
#    x 3.428120 0.000000 0.135330 
#    y 0.000000 3.404310 0.000000 
#    z 0.135330 0.000000 3.075280 
# 
# 
# High freq. dielectric constant tensor:
#      x y z
#    x 1.696820 0.000000 0.015410 
#    y 0.000000 1.688560 0.000000 
#    z 0.015410 0.000000 1.674880 
# 
# From -- ./inp_files/9042.got.cif
#   From: 2010.03.12/outbox.cif.g09.slc.cpg/sg14_5_cif.got.tgz:9042.got - 2010.03.31 13:35:05.
