data_PCOD8123460
_publ_section_title
;
Structure prediction by ZEFSAII (Michael W. Deem and Ramdas Pophale) SiO2 
 PCOD8123460
Probable space group: P 21/C
;
_chemical_formula_sum "Si O2"
_cell_formula_units_Z 32
_cell_length_a 12.577687
_cell_length_b 21.681975
_cell_length_c 5.358270
_cell_angle_alpha 90.000000
_cell_angle_beta 102.298580
_cell_angle_gamma 90.000000
_cell_volume 1427.714547
_symmetry_space_group_name_H-M "P 21/C"
_symmetry_group_IT_number 14
_symmetry_cell_setting 'monoclinic'
loop_
_space_group_symop_operation_xyz
x,y,z
-x,1/2+y,1/2-z
-x,-y,-z
x,1/2-y,1/2+z
loop_
_atom_site_type_symbol
_atom_site_label
_atom_site_fract_x
_atom_site_fract_y
_atom_site_fract_z
Si Si1 0.284224 0.410760 0.392112
Si Si2 0.996954 0.443921 0.748477
Si Si3 0.288039 0.879237 0.394019
Si Si4 0.642727 0.321149 0.571364
Si Si5 0.956878 0.582151 0.728439
Si Si6 0.851554 0.268070 0.175777
Si Si7 0.596977 0.716515 0.548488
Si Si8 0.749960 0.523156 0.124980
O O1 0.159481 0.384471 0.329740
O O2 0.364635 0.353648 0.432318
O O3 0.307380 0.450178 0.654343
O O4 0.307380 0.450178 0.153036
O O5 0.972297 0.403697 0.486425
O O6 0.124540 0.458451 0.812270
O O7 0.929183 0.507560 0.714591
O O8 0.972296 0.403698 0.985872
O O9 0.354617 0.863593 0.175197
O O10 0.175270 0.840383 0.337635
O O11 0.258380 0.950207 0.379190
O O12 0.354617 0.863593 0.679420
O O13 0.739660 0.271414 0.619830
O O14 0.533366 0.281485 0.516683
O O15 0.919347 0.250000 0.959673
O O16 0.641574 0.750000 0.320787
#
# Coordination Sequence:
#
# PCOD8123460 Si02
#       8
#     4   4   4   4   4   4   4   4
#     4  10  21  35  50  73 104 130 159 209 256 298
#     4   8  14  25  46  70  95 128 160 185 217 277
#     4  10  18  30  49  71  97 129 158 193 247 295
#     4  10  19  33  50  69  90 122 171 218 241 273
#     4   8  14  27  46  69  95 124 156 190 230 274
#     4   8  14  25  42  62  81 108 151 199 230 252
#     4  12  23  38  57  74  91 122 174 222 258 292
#     4  10  19  33  49  74 109 135 159 194 248 309
#
# _framework density 22.413443000000001
#
# number of rings (size 3 to 8) (size 9 to 14) (size 15 to 20)
#    0.000    2.500    0.000    4.500    0.000    0.000 
#    0.000    3.750    0.000    0.000    0.000    5.250 
#    0.000    0.000    0.000    0.000    0.000    0.000 
#
# Total GULP energy -396483.653852 kJ/mol
# GULP energy per Si atom -12390.114183 kJ/mol
# Density = 2.236243 g / cm^3
# Si number density = 22.413443 Si / 1000 Ang^3
#
#
#
# Elastic Constant Matrix: (Units=GPa)
#
#
# Indices 1 2 3 4 5 6 
#
# 1 12.4458 9.5256 4.9151 0.0000 -1.5908 0.0000
# 2 9.5256 118.8015 56.9418 0.0000 -5.0002 0.0000
# 3 4.9151 56.9418 260.1927 0.0000 -24.5356 0.0000
# 4 0.0000 0.0000 0.0000 33.2016 0.0000 -1.3804
# 5 -1.5908 -5.0002 -24.5356 0.0000 13.7277 0.0000
# 6 0.0000 0.0000 0.0000 -1.3804 0.0000 20.1116
#
#
#
# Elastic Compliance Matrix: (Units=1/GPa)
#
#
# Indices 1 2 3 4 5 6 
#
# 1 0.086473 -0.006902 0.000703 0.000000 0.008764 0.000000
# 2 -0.006902 0.009956 -0.002143 0.000000 -0.001004 0.000000
# 3 0.000703 -0.002143 0.005091 0.000000 0.008400 0.000000
# 4 0.000000 0.000000 0.000000 0.030205 0.000000 0.002073
# 5 0.008764 -0.001004 0.008400 0.000000 0.088509 0.000000
# 6 0.000000 0.000000 0.000000 0.002073 0.000000 0.049865
#
#
# Mechanical properties :
#
#
# Convention : Reuss Voigt Hill
#
# Bulk Modulus (GPa) = 11.78725 59.35611 35.57168
# Shear Modulus (GPa) = 15.86991 34.74535 25.30763
#
# Velocity S-wave (km/s) = 2.66381 3.94153 3.36389
# Velocity P-wave (km/s) = 3.83818 6.87416 5.56712
#
# Compressibility (1/GPa) = 0.08483742
#
# Stress axis : x y z
#
# Youngs Moduli (GPa) = 11.56424 100.44498 196.41967
#
# Poissons Ratio (x) = 0.69325 -0.13815
# Poissons Ratio (y) = 0.07981 0.42093
# Poissons Ratio (z) = -0.00813 0.21526
#
# Static dielectric constant tensor:
#      x y z
#    x 3.433880 0.000000 -0.277500 
#    y 0.000000 3.645140 0.000000 
#    z -0.277500 0.000000 6.065370 
# 
# 
# High freq. dielectric constant tensor:
#      x y z
#    x 1.823330 0.000000 -0.011870 
#    y 0.000000 1.857270 0.000000 
#    z -0.011870 0.000000 1.935870 
# 
# From -- ./inp_files/3737.got.cif
#   From: 2010.03.12/outbox.cif.g09.slc.cpg/sg14_2_cif.got.tgz:3737.got - 2010.03.31 13:35:05.
