data_PCOD8123145
_publ_section_title
;
Structure prediction by ZEFSAII (Michael W. Deem and Ramdas Pophale) SiO2 
 PCOD8123145
Probable space group: P 2/C
;
_chemical_formula_sum "Si O2"
_cell_formula_units_Z 16
_cell_length_a 5.022568
_cell_length_b 10.112192
_cell_length_c 14.413032
_cell_angle_alpha 90.000000
_cell_angle_beta 77.873235
_cell_angle_gamma 90.000000
_cell_volume 715.690955
_symmetry_space_group_name_H-M "P 2/C"
_symmetry_group_IT_number 13
_symmetry_cell_setting 'monoclinic'
loop_
_space_group_symop_operation_xyz
x,y,z
-x,y,1/2-z
-x,-y,-z
x,-y,1/2+z
loop_
_atom_site_type_symbol
_atom_site_label
_atom_site_fract_x
_atom_site_fract_y
_atom_site_fract_z
Si Si1 0.000000 0.706001 0.750000
Si Si2 0.542990 0.689324 0.146903
Si Si3 0.960173 0.521094 0.394168
Si Si4 0.290081 0.955722 0.440641
Si Si5 0.500000 0.111265 0.250000
O O1 0.940640 0.619193 0.845502
O O2 0.736512 0.796518 0.770021
O O3 0.500000 0.759690 0.250000
O O4 0.287396 0.621010 0.113205
O O5 0.683900 0.796760 0.069475
O O6 0.757719 0.579207 0.162157
O O7 0.000000 0.500000 0.500000
O O8 0.500000 0.000000 0.500000
O O9 0.363797 0.021180 0.338106
O O10 0.000000 0.000000 0.500000
#
# Coordination Sequence:
#
# PCOD8123145 Si02
#       5
#     2   4   4   4   2
#     4  12  26  46  72 104 152 186 236 296 372 430
#     4  12  24  50  73 101 144 190 244 299 351 430
#     4  12  27  45  74 105 143 190 239 295 360 432
#     4  12  28  48  75 107 143 192 246 299 365 432
#     4  12  28  48  72 106 150 190 234 306 366 432
#
# _framework density 22.356016
#
# number of rings (size 3 to 8) (size 9 to 14) (size 15 to 20)
#    0.000    0.000    3.750    5.250   10.500    0.000 
#    0.000    0.000    0.000    0.000    0.000    0.000 
#    0.000    0.000    0.000    0.000    0.000    0.000 
#
# Total GULP energy -198321.110683 kJ/mol
# GULP energy per Si atom -12395.069418 kJ/mol
# Density = 2.230513 g / cm^3
# Si number density = 22.356016 Si / 1000 Ang^3
#
#
#
# Elastic Constant Matrix: (Units=GPa)
#
#
# Indices 1 2 3 4 5 6 
#
# 1 184.1156 45.9392 60.1776 0.0000 0.0277 0.0000
# 2 45.9392 83.3321 62.8165 0.0000 10.2404 0.0000
# 3 60.1776 62.8165 146.7384 0.0000 -6.5424 0.0000
# 4 0.0000 0.0000 0.0000 32.3846 0.0000 5.6457
# 5 0.0277 10.2404 -6.5424 0.0000 37.7501 0.0000
# 6 0.0000 0.0000 0.0000 5.6457 0.0000 42.1373
#
#
#
# Elastic Compliance Matrix: (Units=1/GPa)
#
#
# Indices 1 2 3 4 5 6 
#
# 1 0.006574 -0.002436 -0.001636 0.000000 0.000372 0.000000
# 2 -0.002436 0.020170 -0.007941 0.000000 -0.006846 0.000000
# 3 -0.001636 -0.007941 0.011067 0.000000 0.004073 0.000000
# 4 0.000000 0.000000 0.000000 0.031617 0.000000 -0.004236
# 5 0.000372 -0.006846 0.004073 0.000000 0.029053 0.000000
# 6 0.000000 0.000000 0.000000 -0.004236 0.000000 0.024300
#
#
# Mechanical properties :
#
#
# Convention : Reuss Voigt Hill
#
# Bulk Modulus (GPa) = 72.54648 83.56140 78.05394
# Shear Modulus (GPa) = 33.02452 38.80460 35.91456
#
# Velocity S-wave (km/s) = 3.84762 4.17076 4.01244
# Velocity P-wave (km/s) = 7.22910 7.78796 7.51373
#
# Compressibility (1/GPa) = 0.01378427
#
# Stress axis : x y z
#
# Youngs Moduli (GPa) = 152.11234 49.57781 90.35976
#
# Poissons Ratio (x) = 0.12079 0.14787
# Poissons Ratio (y) = 0.37060 0.71752
# Poissons Ratio (z) = 0.24893 0.39368
#
# Static dielectric constant tensor:
#      x y z
#    x 4.199750 0.000000 -0.031330 
#    y 0.000000 5.963340 0.000000 
#    z -0.031330 0.000000 3.744350 
# 
# 
# High freq. dielectric constant tensor:
#      x y z
#    x 1.899390 0.000000 0.003050 
#    y 0.000000 1.895940 0.000000 
#    z 0.003050 0.000000 1.901150 
# 
# From -- ./inp_files/43250.got.cif
#   From: 2010.06.25/outbox.cif.g09.slc.cpg/sg13_22_cif.got.tgz:43250.got - 2010.06.28 04:50:58.
