data_PCOD8123779
_publ_section_title
;
Structure prediction by ZEFSAII (Michael W. Deem and Ramdas Pophale) SiO2 
 PCOD8123779
Probable space group: P 21/C
;
_chemical_formula_sum "Si O2"
_cell_formula_units_Z 24
_cell_length_a 7.078668
_cell_length_b 17.868937
_cell_length_c 12.223478
_cell_angle_alpha 90.000000
_cell_angle_beta 41.984355
_cell_angle_gamma 90.000000
_cell_volume 1034.246861
_symmetry_space_group_name_H-M "P 21/C"
_symmetry_group_IT_number 14
_symmetry_cell_setting 'monoclinic'
loop_
_space_group_symop_operation_xyz
x,y,z
-x,1/2+y,1/2-z
-x,-y,-z
x,1/2-y,1/2+z
loop_
_atom_site_type_symbol
_atom_site_label
_atom_site_fract_x
_atom_site_fract_y
_atom_site_fract_z
Si Si1 0.334282 0.916465 0.234946
Si Si2 0.749546 0.214628 0.056225
Si Si3 0.746949 0.372015 0.979253
Si Si4 0.636121 0.915948 0.771438
Si Si5 0.277122 0.124534 0.515798
Si Si6 0.664320 0.720502 0.590859
O O1 0.546633 0.856285 0.087211
O O2 0.021875 0.909607 0.318113
O O3 0.452743 0.999357 0.161506
O O4 0.056756 0.100978 0.309717
O O5 0.739952 0.281538 0.972206
O O6 0.598990 0.139459 0.075433
O O7 0.589866 0.242041 0.232944
O O8 0.075048 0.197681 0.943626
O O9 0.676797 0.400155 0.130683
O O10 0.516057 0.404835 0.995551
O O11 0.646455 0.905326 0.636752
O O12 0.242458 0.215402 0.535014
#
# Coordination Sequence:
#
# PCOD8123779 Si02
#       6
#     4   4   4   4   4   4
#     4  10  21  36  54  82 116 142 179 232 276 323
#     4  10  18  37  58  82 109 146 187 224 270 327
#     4  10  19  34  61  81 106 148 193 222 263 328
#     4  10  21  36  54  82 116 142 179 232 276 323
#     4  10  19  34  61  81 106 148 193 222 263 328
#     4  10  18  37  58  82 109 146 187 224 270 327
#
# _framework density 23.205293000000001
#
# number of rings (size 3 to 8) (size 9 to 14) (size 15 to 20)
#    0.000    2.000    6.667    2.000    0.000    4.667 
#    0.000    0.000    0.000    1.000    0.000    0.000 
#    0.000    0.000    0.000    0.000    0.000    0.000 
#
# Total GULP energy -297514.400682 kJ/mol
# GULP energy per Si atom -12396.433362 kJ/mol
# Density = 2.315248 g / cm^3
# Si number density = 23.205293 Si / 1000 Ang^3
#
#
#
# Elastic Constant Matrix: (Units=GPa)
#
#
# Indices 1 2 3 4 5 6 
#
# 1 111.0232 -8.0183 11.4354 0.0000 -37.1438 0.0000
# 2 -8.0183 173.4539 8.7996 0.0000 -6.8834 0.0000
# 3 11.4354 8.7996 35.4299 0.0000 -13.9260 0.0000
# 4 0.0000 0.0000 0.0000 36.2149 0.0000 -14.4020
# 5 -37.1438 -6.8834 -13.9260 0.0000 24.8830 0.0000
# 6 0.0000 0.0000 0.0000 -14.4020 0.0000 3.2241
#
#
#
# Elastic Compliance Matrix: (Units=1/GPa)
#
#
# Indices 1 2 3 4 5 6 
#
# 1 0.019687 0.001917 0.006319 0.000000 0.033455 0.000000
# 2 0.001917 0.006046 -0.000434 0.000000 0.004292 0.000000
# 3 0.006319 -0.000434 0.038401 0.000000 0.030804 0.000000
# 4 0.000000 0.000000 0.000000 -0.035563 0.000000 -0.158859
# 5 0.033455 0.004292 0.030804 0.000000 0.108555 0.000000
# 6 0.000000 0.000000 0.000000 -0.158859 0.000000 -0.399462
#
#
# Mechanical properties :
#
#
# Convention : Reuss Voigt Hill
#
# Bulk Modulus (GPa) = 12.54075 38.26006 25.40041
# Shear Modulus (GPa) = -19.89169 33.37710 6.74271
#
# Velocity S-wave (km/s) = -2.93098 3.79666 1.70645
# Velocity P-wave (km/s) = 2.45728 5.97854 3.85388
#
# Compressibility (1/GPa) = 0.07974002
#
# Stress axis : x y z
#
# Youngs Moduli (GPa) = 50.79393 165.39446 26.04117
#
# Poissons Ratio (x) = -0.31709 -0.16456
# Poissons Ratio (y) = -0.09738 0.01129
# Poissons Ratio (z) = -0.32098 0.07171
#
# Static dielectric constant tensor:
#      x y z
#    x 3.864410 0.000000 -0.442440 
#    y 0.000000 4.671260 0.000000 
#    z -0.442440 0.000000 3.981860 
# 
# 
# High freq. dielectric constant tensor:
#      x y z
#    x 1.898810 0.000000 -0.032300 
#    y 0.000000 1.922570 0.000000 
#    z -0.032300 0.000000 1.892380 
# 
# From -- ./inp_files/56071.got.cif
#   From: 2010.03.12/outbox.cif.g09.slc.cpg/sg14_29_cif.got.tgz:56071.got - 2010.03.31 13:35:05.
