data_PCOD8123133
_publ_section_title
;
Structure prediction by ZEFSAII (Michael W. Deem and Ramdas Pophale) SiO2 
 PCOD8123133
Probable space group: P 2/C
;
_chemical_formula_sum "Si O2"
_cell_formula_units_Z 20
_cell_length_a 14.641098
_cell_length_b 6.566747
_cell_length_c 19.158041
_cell_angle_alpha 90.000000
_cell_angle_beta 26.310959
_cell_angle_gamma 90.000000
_cell_volume 816.425531
_symmetry_space_group_name_H-M "P 2/C"
_symmetry_group_IT_number 13
_symmetry_cell_setting 'monoclinic'
loop_
_space_group_symop_operation_xyz
x,y,z
-x,y,1/2-z
-x,-y,-z
x,-y,1/2+z
loop_
_atom_site_type_symbol
_atom_site_label
_atom_site_fract_x
_atom_site_fract_y
_atom_site_fract_z
Si Si1 0.376586 0.518613 0.656365
Si Si2 0.994184 0.302485 0.872087
Si Si3 0.789604 0.866808 0.638603
Si Si4 0.000000 0.974736 0.750000
Si Si5 0.500000 0.113044 0.750000
Si Si6 0.743776 0.648332 0.985579
O O1 0.500000 0.500000 0.500000
O O2 0.204926 0.343892 0.769124
O O3 0.263559 0.733170 0.755330
O O4 0.538914 0.472438 0.605269
O O5 0.025862 0.105666 0.802090
O O6 0.817960 0.273912 0.050601
O O7 0.934118 0.493284 0.864554
O O8 0.583384 0.993000 0.761151
O O9 0.000000 0.000000 0.500000
O O10 0.197327 0.824815 0.610043
O O11 0.303975 0.245716 0.907947
#
# Coordination Sequence:
#
# PCOD8123133 Si02
#       6
#     4   4   4   2   2   4
#     4  12  27  44  76 110 150 194 254 315 372 452
#     4  12  26  50  72 107 154 193 247 310 386 448
#     4  12  26  47  74 110 148 205 249 306 386 454
#     4  12  26  46  78 106 148 200 242 318 376 456
#     4  12  24  46  76 104 142 196 256 300 366 462
#     4  12  26  48  74 109 147 196 249 310 384 442
#
# _framework density 24.497031
#
# number of rings (size 3 to 8) (size 9 to 14) (size 15 to 20)
#    0.000    0.000    2.000    8.400    5.600    0.800 
#    0.000    0.000    0.000    0.000    0.000    0.000 
#    0.000    0.000    0.000    0.000    0.000    0.000 
#
# Total GULP energy -247928.878906 kJ/mol
# GULP energy per Si atom -12396.443945 kJ/mol
# Density = 2.444127 g / cm^3
# Si number density = 24.497031 Si / 1000 Ang^3
#
#
#
# Elastic Constant Matrix: (Units=GPa)
#
#
# Indices 1 2 3 4 5 6 
#
# 1 92.3117 42.7407 32.5906 0.0000 -2.9358 0.0000
# 2 42.7407 131.5960 60.0112 0.0000 9.8284 0.0000
# 3 32.5906 60.0112 118.3065 0.0000 18.6424 0.0000
# 4 0.0000 0.0000 0.0000 57.3630 0.0000 5.2466
# 5 -2.9358 9.8284 18.6424 0.0000 57.5400 0.0000
# 6 0.0000 0.0000 0.0000 5.2466 0.0000 32.3628
#
#
#
# Elastic Compliance Matrix: (Units=1/GPa)
#
#
# Indices 1 2 3 4 5 6 
#
# 1 0.013276 -0.003447 -0.002222 0.000000 0.001986 0.000000
# 2 -0.003447 0.010781 -0.004427 0.000000 -0.000583 0.000000
# 3 -0.002222 -0.004427 0.011812 0.000000 -0.003184 0.000000
# 4 0.000000 0.000000 0.000000 0.017695 0.000000 -0.002869
# 5 0.001986 -0.000583 -0.003184 0.000000 0.018612 0.000000
# 6 0.000000 0.000000 0.000000 -0.002869 0.000000 0.031365
#
#
# Mechanical properties :
#
#
# Convention : Reuss Voigt Hill
#
# Bulk Modulus (GPa) = 63.78609 68.09992 65.94301
# Shear Modulus (GPa) = 38.77186 43.24459 41.00823
#
# Velocity S-wave (km/s) = 3.98265 4.20610 4.09590
# Velocity P-wave (km/s) = 6.87339 7.17273 7.02465
#
# Compressibility (1/GPa) = 0.01567740
#
# Stress axis : x y z
#
# Youngs Moduli (GPa) = 75.32129 92.75491 84.65879
#
# Poissons Ratio (x) = 0.31974 0.18809
# Poissons Ratio (y) = 0.25965 0.37480
# Poissons Ratio (z) = 0.16734 0.41065
#
# Static dielectric constant tensor:
#      x y z
#    x 33.411190 0.000000 -19.905920 
#    y 0.000000 4.840380 0.000000 
#    z -19.905920 0.000000 18.233090 
# 
# 
# High freq. dielectric constant tensor:
#      x y z
#    x 1.968560 0.000000 0.004710 
#    y 0.000000 1.980840 0.000000 
#    z 0.004710 0.000000 1.990590 
# 
# From -- ./inp_files/69219.got.cif
#   From: 2010.06.25/outbox.cif.g09.slc.cpg/sg13_35_cif.got.tgz:69219.got - 2010.06.28 04:50:58.
