data_PCOD8123882
_publ_section_title
;
Structure prediction by ZEFSAII (Michael W. Deem and Ramdas Pophale) SiO2 
 PCOD8123882
Probable space group: P 21/C
;
_chemical_formula_sum "Si O2"
_cell_formula_units_Z 32
_cell_length_a 12.419774
_cell_length_b 19.679214
_cell_length_c 6.515928
_cell_angle_alpha 90.000000
_cell_angle_beta 55.716090
_cell_angle_gamma 90.000000
_cell_volume 1315.868875
_symmetry_space_group_name_H-M "P 21/C"
_symmetry_group_IT_number 14
_symmetry_cell_setting 'monoclinic'
loop_
_space_group_symop_operation_xyz
x,y,z
-x,1/2+y,1/2-z
-x,-y,-z
x,1/2-y,1/2+z
loop_
_atom_site_type_symbol
_atom_site_label
_atom_site_fract_x
_atom_site_fract_y
_atom_site_fract_z
Si Si1 0.051105 0.908042 0.766818
Si Si2 0.598508 0.570667 0.209582
Si Si3 0.609752 0.609745 0.724543
Si Si4 0.675386 0.035142 0.047119
Si Si5 0.336026 0.574869 0.970942
Si Si6 0.962494 0.449074 0.245947
Si Si7 0.170614 0.346363 0.953889
Si Si8 0.160134 0.191952 0.923630
O O1 0.201304 0.886749 0.561731
O O2 0.960403 0.841643 0.820914
O O3 0.033989 0.931572 0.018504
O O4 0.012179 0.972788 0.664453
O O5 0.444210 0.576560 0.432744
O O6 0.649396 0.492604 0.189985
O O7 0.615250 0.588858 0.954661
O O8 0.685149 0.623150 0.254358
O O9 0.654924 0.545751 0.535997
O O10 0.460308 0.626137 0.817679
O O11 0.709666 0.673283 0.583236
O O12 0.668342 0.046532 0.296360
O O13 0.815805 0.059560 0.814087
O O14 0.053323 0.397248 0.017065
O O15 0.147097 0.271610 0.887451
O O16 0.166172 0.344867 0.202698
#
# Coordination Sequence:
#
# PCOD8123882 Si02
#       8
#     4   4   4   4   4   4   4   4
#     4   9  14  23  41  65  88 110 142 186 225 252
#     4   8  13  22  38  62  87 107 134 178 223 254
#     4   8  13  22  38  62  87 107 134 178 223 254
#     4   8  12  20  38  64  87 103 133 185 227 246
#     4   8  12  20  38  64  87 103 133 185 227 246
#     4   9  14  23  41  65  88 110 142 186 225 252
#     4  10  19  30  44  64  91 120 146 175 218 268
#     4  10  19  30  44  64  91 120 146 175 218 268
#
# _framework density 24.318532000000001
#
# number of rings (size 3 to 8) (size 9 to 14) (size 15 to 20)
#    0.000    3.250    2.500    1.500    0.000    0.000 
#    0.000    1.250    0.000    0.750    0.000    3.500 
#    0.000    0.000    0.000    0.000    0.000    0.000 
#
# Total GULP energy -396572.148098 kJ/mol
# GULP energy per Si atom -12392.879628 kJ/mol
# Density = 2.426318 g / cm^3
# Si number density = 24.318532 Si / 1000 Ang^3
#
#
#
# Elastic Constant Matrix: (Units=GPa)
#
#
# Indices 1 2 3 4 5 6 
#
# 1 65.5506 67.1057 90.2217 0.0000 -60.2913 0.0000
# 2 67.1057 137.5731 58.4006 0.0000 -45.9088 0.0000
# 3 90.2217 58.4006 66.0850 0.0000 -57.4365 0.0000
# 4 0.0000 0.0000 0.0000 33.3537 0.0000 -2.8403
# 5 -60.2913 -45.9088 -57.4365 0.0000 81.0794 0.0000
# 6 0.0000 0.0000 0.0000 -2.8403 0.0000 37.2548
#
#
#
# Elastic Compliance Matrix: (Units=1/GPa)
#
#
# Indices 1 2 3 4 5 6 
#
# 1 -0.014092 -0.002554 0.028965 0.000000 0.008594 0.000000
# 2 -0.002554 0.011273 -0.006708 0.000000 -0.000269 0.000000
# 3 0.028965 -0.006708 -0.007975 0.000000 0.012090 0.000000
# 4 0.000000 0.000000 0.000000 0.030178 0.000000 0.002301
# 5 0.008594 -0.000269 0.012090 0.000000 0.027136 0.000000
# 6 0.000000 0.000000 0.000000 0.002301 0.000000 0.027018
#
#
# Mechanical properties :
#
#
# Convention : Reuss Voigt Hill
#
# Bulk Modulus (GPa) = 34.95276 77.85162 56.40219
# Shear Modulus (GPa) = 114.49469 33.90295 74.19882
#
# Velocity S-wave (km/s) = 6.86902 3.73784 5.52969
# Velocity P-wave (km/s) = 8.79292 7.12119 8.00084
#
# Compressibility (1/GPa) = 0.02861005
#
# Stress axis : x y z
#
# Youngs Moduli (GPa) = -70.96400 88.70856 -125.38697
#
# Poissons Ratio (x) = 0.22659 3.63179
# Poissons Ratio (y) = -0.18126 -0.84113
# Poissons Ratio (z) = 2.05545 0.59508
#
# Static dielectric constant tensor:
#      x y z
#    x 4.873780 0.000000 -0.251120 
#    y 0.000000 3.955360 0.000000 
#    z -0.251120 0.000000 4.824180 
# 
# 
# High freq. dielectric constant tensor:
#      x y z
#    x 2.004340 0.000000 0.024400 
#    y 0.000000 1.895650 0.000000 
#    z 0.024400 0.000000 2.000380 
# 
# From -- ./inp_files/16842.got.cif
#   From: 2010.03.12/outbox.cif.g09.slc.cpg/sg14_9_cif.got.tgz:16842.got - 2010.03.31 13:35:05.
