data_PCOD8123377
_publ_section_title
;
Structure prediction by ZEFSAII (Michael W. Deem and Ramdas Pophale) SiO2 
 PCOD8123377
Probable space group: P 21/C
;
_chemical_formula_sum "Si O2"
_cell_formula_units_Z 32
_cell_length_a 11.266693
_cell_length_b 12.640706
_cell_length_c 21.015484
_cell_angle_alpha 90.000000
_cell_angle_beta 33.413491
_cell_angle_gamma 90.000000
_cell_volume 1648.178946
_symmetry_space_group_name_H-M "P 21/C"
_symmetry_group_IT_number 14
_symmetry_cell_setting 'monoclinic'
loop_
_space_group_symop_operation_xyz
x,y,z
-x,1/2+y,1/2-z
-x,-y,-z
x,1/2-y,1/2+z
loop_
_atom_site_type_symbol
_atom_site_label
_atom_site_fract_x
_atom_site_fract_y
_atom_site_fract_z
Si Si1 0.714845 0.381658 0.801630
Si Si2 0.842497 0.243807 0.627372
Si Si3 0.829290 0.071026 0.040550
Si Si4 0.266499 0.277414 0.999531
Si Si5 0.707540 0.992527 0.864182
Si Si6 0.521584 0.411487 0.326979
Si Si7 0.032494 0.414870 0.313333
Si Si8 0.075444 0.218381 0.217494
O O1 0.818643 0.330128 0.693148
O O2 0.759843 0.507527 0.776307
O O3 0.835242 0.327844 0.808796
O O4 0.458308 0.363552 0.916220
O O5 0.820480 0.309138 0.571524
O O6 0.656399 0.154149 0.713701
O O7 0.079753 0.191006 0.531715
O O8 0.600612 0.010479 0.150642
O O9 0.887319 0.078891 0.940781
O O10 0.000000 0.000000 0.000000
O O11 0.170373 0.274397 0.112774
O O12 0.351718 0.162805 0.939652
O O13 0.763644 0.870943 0.830569
O O14 0.688019 0.045965 0.804335
O O15 0.899511 0.052772 0.811470
O O16 0.500000 0.000000 0.000000
O O17 0.089576 0.294203 0.272596
#
# Coordination Sequence:
#
# PCOD8123377 Si02
#       8
#     4   4   4   4   4   4   4   4
#     4   9  19  34  58  85 118 163 199 240 303 357
#     4  10  21  37  61  90 111 157 212 240 287 358
#     4  12  21  40  62  87 117 158 206 246 288 352
#     4  10  17  34  59  86 121 156 197 244 294 359
#     4  11  19  37  63  90 118 155 194 243 306 352
#     4  11  21  38  66  87 118 159 199 251 298 355
#     4  11  21  37  60  90 123 154 200 252 293 361
#     4  10  21  33  56  95 122 150 201 249 303 354
#
# _framework density 19.415368000000001
#
# number of rings (size 3 to 8) (size 9 to 14) (size 15 to 20)
#    0.000    1.500    5.000    3.000    0.000    0.500 
#    2.250    0.000    0.000    6.750    0.000    0.000 
#    0.000    0.000    0.000    0.000    0.000    0.000 
#
# Total GULP energy -396691.941159 kJ/mol
# GULP energy per Si atom -12396.623161 kJ/mol
# Density = 1.937118 g / cm^3
# Si number density = 19.415368 Si / 1000 Ang^3
#
#
#
# Elastic Constant Matrix: (Units=GPa)
#
#
# Indices 1 2 3 4 5 6 
#
# 1 80.1309 42.2236 40.6485 0.0000 -10.0346 0.0000
# 2 42.2236 110.1794 54.9654 0.0000 -4.9732 0.0000
# 3 40.6485 54.9654 88.0974 0.0000 -19.4764 0.0000
# 4 0.0000 0.0000 0.0000 33.5184 0.0000 1.1440
# 5 -10.0346 -4.9732 -19.4764 0.0000 23.4200 0.0000
# 6 0.0000 0.0000 0.0000 1.1440 0.0000 33.6725
#
#
#
# Elastic Compliance Matrix: (Units=1/GPa)
#
#
# Indices 1 2 3 4 5 6 
#
# 1 0.017467 -0.004118 -0.004936 0.000000 0.002504 0.000000
# 2 -0.004118 0.014634 -0.008495 0.000000 -0.005722 0.000000
# 3 -0.004936 -0.008495 0.022132 0.000000 0.014486 0.000000
# 4 0.000000 0.000000 0.000000 0.029869 0.000000 -0.001015
# 5 0.002504 -0.005722 0.014486 0.000000 0.054603 0.000000
# 6 0.000000 0.000000 0.000000 -0.001015 0.000000 0.029732
#
#
# Mechanical properties :
#
#
# Convention : Reuss Voigt Hill
#
# Bulk Modulus (GPa) = 52.26492 61.56474 56.91483
# Shear Modulus (GPa) = 23.81913 27.49351 25.65632
#
# Velocity S-wave (km/s) = 3.50640 3.76715 3.63911
# Velocity P-wave (km/s) = 6.58566 7.12040 6.85824
#
# Compressibility (1/GPa) = 0.01913329
#
# Stress axis : x y z
#
# Youngs Moduli (GPa) = 57.24965 68.33350 45.18433
#
# Poissons Ratio (x) = 0.28142 0.22305
# Poissons Ratio (y) = 0.23577 0.38385
# Poissons Ratio (z) = 0.28260 0.58051
#
# Static dielectric constant tensor:
#      x y z
#    x 3.613460 0.000000 -0.244890 
#    y 0.000000 3.639180 0.000000 
#    z -0.244890 0.000000 3.483170 
# 
# 
# High freq. dielectric constant tensor:
#      x y z
#    x 1.748130 0.000000 -0.015120 
#    y 0.000000 1.747870 0.000000 
#    z -0.015120 0.000000 1.743600 
# 
# From -- ./inp_files/73290.got.cif
#   From: 2010.03.12/outbox.cif.g09.slc.cpg/sg14_37_cif.got.tgz:73290.got - 2010.03.31 13:35:05.
