data_PCOD8123107
_publ_section_title
;
Structure prediction by ZEFSAII (Michael W. Deem and Ramdas Pophale) SiO2 
 PCOD8123107
Probable space group: P 2/C
;
_chemical_formula_sum "Si O2"
_cell_formula_units_Z 22
_cell_length_a 22.754304
_cell_length_b 5.280165
_cell_length_c 15.602436
_cell_angle_alpha 90.000000
_cell_angle_beta 149.054167
_cell_angle_gamma 90.000000
_cell_volume 963.959407
_symmetry_space_group_name_H-M "P 2/C"
_symmetry_group_IT_number 13
_symmetry_cell_setting 'monoclinic'
loop_
_space_group_symop_operation_xyz
x,y,z
-x,y,1/2-z
-x,-y,-z
x,-y,1/2+z
loop_
_atom_site_type_symbol
_atom_site_label
_atom_site_fract_x
_atom_site_fract_y
_atom_site_fract_z
Si Si1 0.102521 0.481614 0.444839
Si Si2 0.316090 0.393283 0.101922
Si Si3 0.499091 0.249654 0.052720
Si Si4 0.897660 0.017684 0.438720
Si Si5 0.315869 0.902965 0.436894
Si Si6 0.500000 0.748306 0.250000
O O1 0.215540 0.473138 0.528156
O O2 0.103173 0.235809 0.505711
O O3 0.000000 0.467656 0.250000
O O4 0.092432 0.735641 0.488969
O O5 0.384813 0.200692 0.247876
O O6 0.415173 0.589781 0.202719
O O7 0.265042 0.243157 0.956129
O O8 0.500000 0.500000 0.000000
O O9 0.381454 0.294956 0.958504
O O10 0.500000 0.000000 0.000000
O O11 0.784277 0.044249 0.239178
O O12 0.000000 0.000000 0.500000
O O13 0.418568 0.092320 0.586813
#
# Coordination Sequence:
#
# PCOD8123107 Si02
#       6
#     4   4   4   4   4   2
#     4  12  29  52  80 114 150 202 257 319 383 456
#     4  12  26  45  72 110 151 203 254 311 382 449
#     4  12  24  42  65 102 145 191 242 301 364 438
#     4  12  29  52  80 114 150 202 257 319 383 456
#     4  12  26  45  73 110 152 202 254 311 382 448
#     4  12  24  44  76 106 156 202 248 300 384 444
#
# _framework density 22.822538999999999
#
# number of rings (size 3 to 8) (size 9 to 14) (size 15 to 20)
#    0.000    0.000    3.636    5.455    7.636    0.000 
#    0.000    0.000    0.000    0.000    0.000    0.000 
#    0.000    0.000    0.000    0.000    0.000    0.000 
#
# Total GULP energy -272750.932757 kJ/mol
# GULP energy per Si atom -12397.769671 kJ/mol
# Density = 2.277059 g / cm^3
# Si number density = 22.822539 Si / 1000 Ang^3
#
#
#
# Elastic Constant Matrix: (Units=GPa)
#
#
# Indices 1 2 3 4 5 6 
#
# 1 184.5353 71.8636 63.9119 0.0000 10.6577 0.0000
# 2 71.8636 160.5907 54.2706 0.0000 -13.2278 0.0000
# 3 63.9119 54.2706 176.9569 0.0000 1.1344 0.0000
# 4 0.0000 0.0000 0.0000 6.2879 0.0000 6.9324
# 5 10.6577 -13.2278 1.1344 0.0000 45.4976 0.0000
# 6 0.0000 0.0000 0.0000 6.9324 0.0000 27.8377
#
#
#
# Elastic Compliance Matrix: (Units=1/GPa)
#
#
# Indices 1 2 3 4 5 6 
#
# 1 0.007285 -0.002881 -0.001732 0.000000 -0.002501 0.000000
# 2 -0.002881 0.008287 -0.001521 0.000000 0.003122 0.000000
# 3 -0.001732 -0.001521 0.006744 0.000000 -0.000205 0.000000
# 4 0.000000 0.000000 0.000000 0.219223 0.000000 -0.054593
# 5 -0.002501 0.003122 -0.000205 0.000000 0.023478 0.000000
# 6 0.000000 0.000000 0.000000 -0.054593 0.000000 0.049518
#
#
# Mechanical properties :
#
#
# Convention : Reuss Voigt Hill
#
# Bulk Modulus (GPa) = 99.50694 100.24168 99.87431
# Shear Modulus (GPa) = 15.14450 38.06044 26.60247
#
# Velocity S-wave (km/s) = 2.57879 4.08814 3.41783
# Velocity P-wave (km/s) = 7.24995 8.14257 7.70919
#
# Compressibility (1/GPa) = 0.01004955
#
# Stress axis : x y z
#
# Youngs Moduli (GPa) = 137.26700 120.66467 148.27234
#
# Poissons Ratio (x) = 0.34762 0.25675
# Poissons Ratio (y) = 0.39545 0.22555
# Poissons Ratio (z) = 0.23769 0.18355
#
# Static dielectric constant tensor:
#      x y z
#    x 4.349970 0.000000 -0.101370 
#    y 0.000000 4.114560 0.000000 
#    z -0.101370 0.000000 4.513110 
# 
# 
# High freq. dielectric constant tensor:
#      x y z
#    x 1.925840 0.000000 -0.009880 
#    y 0.000000 1.907780 0.000000 
#    z -0.009880 0.000000 1.918000 
# 
# From -- ./inp_files/58280.got.cif
#   From: 2010.06.25/outbox.cif.g09.slc.cpg/sg13_30_cif.got.tgz:58280.got - 2010.06.28 04:50:58.
