data_PCOD8123647
_publ_section_title
;
Structure prediction by ZEFSAII (Michael W. Deem and Ramdas Pophale) SiO2 
 PCOD8123647
Probable space group: P 21/C
;
_chemical_formula_sum "Si O2"
_cell_formula_units_Z 28
_cell_length_a 9.008354
_cell_length_b 20.585764
_cell_length_c 16.358569
_cell_angle_alpha 90.000000
_cell_angle_beta 32.667216
_cell_angle_gamma 90.000000
_cell_volume 1637.409925
_symmetry_space_group_name_H-M "P 21/C"
_symmetry_group_IT_number 14
_symmetry_cell_setting 'monoclinic'
loop_
_space_group_symop_operation_xyz
x,y,z
-x,1/2+y,1/2-z
-x,-y,-z
x,1/2-y,1/2+z
loop_
_atom_site_type_symbol
_atom_site_label
_atom_site_fract_x
_atom_site_fract_y
_atom_site_fract_z
Si Si1 0.939758 0.375576 0.929439
Si Si2 0.668013 0.629514 0.789187
Si Si3 0.392655 0.808208 0.093276
Si Si4 0.310135 0.492532 0.710275
Si Si5 0.883039 0.761559 0.765508
Si Si6 0.365465 0.627250 0.774360
Si Si7 0.190202 0.561320 0.605971
O O1 0.095320 0.317906 0.811481
O O2 0.118881 0.440317 0.842782
O O3 0.633324 0.387578 0.033144
O O4 0.897349 0.356757 0.045153
O O5 0.642045 0.630757 0.702016
O O6 0.760400 0.699584 0.777076
O O7 0.884103 0.574236 0.714896
O O8 0.175982 0.752899 0.170007
O O9 0.385557 0.819713 0.193708
O O10 0.328743 0.873808 0.075260
O O11 0.691881 0.783898 0.928692
O O12 0.327333 0.555112 0.758627
O O13 0.174223 0.508224 0.685320
O O14 0.619402 0.465358 0.555332
#
# Coordination Sequence:
#
# PCOD8123647 Si02
#       7
#     4   4   4   4   4   4   4
#     4  10  20  35  56  80 107 145 176 221 273 323
#     4   9  21  36  53  80 112 139 179 223 269 318
#     4  10  19  35  56  77 105 138 183 222 266 317
#     4  10  18  34  60  78 108 145 182 217 271 317
#     4  11  19  36  59  77 102 146 182 222 265 329
#     4   9  21  36  53  80 111 139 177 227 268 321
#     4   9  19  33  56  82 105 142 181 220 258 323
#
# _framework density 17.100178
#
# number of rings (size 3 to 8) (size 9 to 14) (size 15 to 20)
#    0.857    1.429    2.857    0.429    0.000    2.286 
#    0.000    0.000    3.143    0.000    0.000    0.000 
#    0.000    0.000    0.000    0.000    0.000    0.000 
#
# Total GULP energy -347061.520824 kJ/mol
# GULP energy per Si atom -12395.054315 kJ/mol
# Density = 1.706126 g / cm^3
# Si number density = 17.100178 Si / 1000 Ang^3
#
#
#
# Elastic Constant Matrix: (Units=GPa)
#
#
# Indices 1 2 3 4 5 6 
#
# 1 76.5273 25.3339 37.4891 0.0000 18.0493 0.0000
# 2 25.3339 63.4184 40.2951 0.0000 11.9479 0.0000
# 3 37.4891 40.2951 116.0896 0.0000 19.2615 0.0000
# 4 0.0000 0.0000 0.0000 13.4969 0.0000 2.9389
# 5 18.0493 11.9479 19.2615 0.0000 22.1840 0.0000
# 6 0.0000 0.0000 0.0000 2.9389 0.0000 22.4758
#
#
#
# Elastic Compliance Matrix: (Units=1/GPa)
#
#
# Indices 1 2 3 4 5 6 
#
# 1 0.018068 -0.003406 -0.002942 0.000000 -0.010312 0.000000
# 2 -0.003406 0.021487 -0.005722 0.000000 -0.003833 0.000000
# 3 -0.002942 -0.005722 0.012433 0.000000 -0.005320 0.000000
# 4 0.000000 0.000000 0.000000 0.076262 0.000000 -0.009972
# 5 -0.010312 -0.003833 -0.005320 0.000000 0.060151 0.000000
# 6 0.000000 0.000000 0.000000 -0.009972 0.000000 0.045796
#
#
# Mechanical properties :
#
#
# Convention : Reuss Voigt Hill
#
# Bulk Modulus (GPa) = 35.90915 51.36350 43.63632
# Shear Modulus (GPa) = 18.68326 21.82581 20.25454
#
# Velocity S-wave (km/s) = 3.30900 3.57648 3.44534
# Velocity P-wave (km/s) = 5.97028 6.86709 6.43433
#
# Compressibility (1/GPa) = 0.02784806
#
# Stress axis : x y z
#
# Youngs Moduli (GPa) = 55.34703 46.54006 80.43206
#
# Poissons Ratio (x) = 0.15851 0.23660
# Poissons Ratio (y) = 0.18850 0.46026
# Poissons Ratio (z) = 0.16281 0.26632
#
# Static dielectric constant tensor:
#      x y z
#    x 3.099380 0.000000 0.018100 
#    y 0.000000 3.133890 0.000000 
#    z 0.018100 0.000000 3.213260 
# 
# 
# High freq. dielectric constant tensor:
#      x y z
#    x 1.644630 0.000000 0.004480 
#    y 0.000000 1.660970 0.000000 
#    z 0.004480 0.000000 1.664270 
# 
# From -- ./inp_files/56200.got.cif
#   From: 2010.03.12/outbox.cif.g09.slc.cpg/sg14_29_cif.got.tgz:56200.got - 2010.03.31 13:35:05.
