data_PCOD8123424
_publ_section_title
;
Structure prediction by ZEFSAII (Michael W. Deem and Ramdas Pophale) SiO2 
 PCOD8123424
Probable space group: P 21/C
;
_chemical_formula_sum "Si O2"
_cell_formula_units_Z 28
_cell_length_a 9.247298
_cell_length_b 17.293927
_cell_length_c 13.109231
_cell_angle_alpha 90.000000
_cell_angle_beta 44.098753
_cell_angle_gamma 90.000000
_cell_volume 1458.917586
_symmetry_space_group_name_H-M "P 21/C"
_symmetry_group_IT_number 14
_symmetry_cell_setting 'monoclinic'
loop_
_space_group_symop_operation_xyz
x,y,z
-x,1/2+y,1/2-z
-x,-y,-z
x,1/2-y,1/2+z
loop_
_atom_site_type_symbol
_atom_site_label
_atom_site_fract_x
_atom_site_fract_y
_atom_site_fract_z
Si Si1 0.480872 0.655781 0.738166
Si Si2 0.910935 0.247453 0.539618
Si Si3 0.051289 0.999581 0.855258
Si Si4 0.702842 0.707326 0.024838
Si Si5 0.394055 0.011749 0.945754
Si Si6 0.188914 0.333892 0.253253
Si Si7 0.364049 0.895082 0.780546
O O1 0.252329 0.678124 0.895056
O O2 0.561209 0.718150 0.616219
O O3 0.474753 0.574107 0.684369
O O4 0.628434 0.651003 0.760024
O O5 0.795372 0.324379 0.633760
O O6 0.068054 0.217985 0.546537
O O7 0.033492 0.267650 0.373623
O O8 0.265761 0.950560 0.741289
O O9 0.075254 0.084253 0.793872
O O10 0.844891 0.961214 0.909420
O O11 0.000000 0.000000 0.000000
O O12 0.592257 0.632189 0.130337
O O13 0.714390 0.697548 0.898657
O O14 0.387612 0.933898 0.880361
O O15 0.500000 0.000000 0.000000
#
# Coordination Sequence:
#
# PCOD8123424 Si02
#       7
#     4   4   4   4   4   4   4
#     4  10  22  40  58  91 122 159 205 259 303 366
#     4  10  21  38  62  85 127 157 202 252 307 362
#     4  10  17  37  66  85 115 163 209 243 306 367
#     4  10  24  37  62  93 123 155 205 259 307 364
#     4  11  22  37  67  93 121 165 216 255 306 376
#     4  11  20  39  63  87 116 166 204 244 305 379
#     4  10  20  42  63  90 123 163 205 257 302 374
#
# _framework density 19.192311
#
# number of rings (size 3 to 8) (size 9 to 14) (size 15 to 20)
#    0.000    1.714    5.714    0.857    2.000    6.286 
#    0.000    2.143    0.000    0.000    0.000    0.000 
#    0.000    0.000    0.000    0.000    0.000    0.000 
#
# Total GULP energy -347087.240008 kJ/mol
# GULP energy per Si atom -12395.972857 kJ/mol
# Density = 1.914863 g / cm^3
# Si number density = 19.192311 Si / 1000 Ang^3
#
#
#
# Elastic Constant Matrix: (Units=GPa)
#
#
# Indices 1 2 3 4 5 6 
#
# 1 115.9800 46.9108 58.4274 0.0000 -9.1378 0.0000
# 2 46.9108 87.0909 40.7032 0.0000 -7.4962 0.0000
# 3 58.4274 40.7032 90.4779 0.0000 -0.4733 0.0000
# 4 0.0000 0.0000 0.0000 33.6075 0.0000 -8.8457
# 5 -9.1378 -7.4962 -0.4733 0.0000 31.7763 0.0000
# 6 0.0000 0.0000 0.0000 -8.8457 0.0000 30.5597
#
#
#
# Elastic Compliance Matrix: (Units=1/GPa)
#
#
# Indices 1 2 3 4 5 6 
#
# 1 0.014157 -0.003924 -0.007361 0.000000 0.003036 0.000000
# 2 -0.003924 0.015988 -0.004645 0.000000 0.002574 0.000000
# 3 -0.007361 -0.004645 0.017880 0.000000 -0.002946 0.000000
# 4 0.000000 0.000000 0.000000 0.032209 0.000000 0.009323
# 5 0.003036 0.002574 -0.002946 0.000000 0.032906 0.000000
# 6 0.000000 0.000000 0.000000 0.009323 0.000000 0.035421
#
#
# Mechanical properties :
#
#
# Convention : Reuss Voigt Hill
#
# Bulk Modulus (GPa) = 61.86101 65.07016 63.46558
# Shear Modulus (GPa) = 26.90918 29.02254 27.96586
#
# Velocity S-wave (km/s) = 3.74850 3.89292 3.82139
# Velocity P-wave (km/s) = 7.14403 7.36100 7.25332
#
# Compressibility (1/GPa) = 0.01616527
#
# Stress axis : x y z
#
# Youngs Moduli (GPa) = 70.63868 62.54506 55.92827
#
# Poissons Ratio (x) = 0.24542 0.41167
# Poissons Ratio (y) = 0.27718 0.25980
# Poissons Ratio (z) = 0.51995 0.29054
#
# Static dielectric constant tensor:
#      x y z
#    x 3.633040 0.000000 -0.455090 
#    y 0.000000 3.953880 0.000000 
#    z -0.455090 0.000000 3.725110 
# 
# 
# High freq. dielectric constant tensor:
#      x y z
#    x 1.739990 0.000000 -0.020350 
#    y 0.000000 1.745980 0.000000 
#    z -0.020350 0.000000 1.738690 
# 
# From -- ./inp_files/41769.got.cif
#   From: 2010.03.12/outbox.cif.g09.slc.cpg/sg14_21_cif.got.tgz:41769.got - 2010.03.31 13:35:05.
