data_PCOD8123671
_publ_section_title
;
Structure prediction by ZEFSAII (Michael W. Deem and Ramdas Pophale) SiO2 
 PCOD8123671
Probable space group: P 21/C
;
_chemical_formula_sum "Si O2"
_cell_formula_units_Z 28
_cell_length_a 10.638759
_cell_length_b 28.706641
_cell_length_c 5.233904
_cell_angle_alpha 90.000000
_cell_angle_beta 60.412299
_cell_angle_gamma 90.000000
_cell_volume 1390.013766
_symmetry_space_group_name_H-M "P 21/C"
_symmetry_group_IT_number 14
_symmetry_cell_setting 'monoclinic'
loop_
_space_group_symop_operation_xyz
x,y,z
-x,1/2+y,1/2-z
-x,-y,-z
x,1/2-y,1/2+z
loop_
_atom_site_type_symbol
_atom_site_label
_atom_site_fract_x
_atom_site_fract_y
_atom_site_fract_z
Si Si1 0.784322 0.792021 0.728686
Si Si2 0.163860 0.867792 0.802787
Si Si3 0.846151 0.025766 0.153342
Si Si4 0.465331 0.773808 0.082336
Si Si5 0.345985 0.525692 0.656018
Si Si6 0.105399 0.193541 0.882705
Si Si7 0.333134 0.868149 0.133432
O O1 0.902866 0.750002 0.588300
O O2 0.795617 0.822094 0.458496
O O3 0.635696 0.764367 0.916979
O O4 0.820103 0.825602 0.931893
O O5 0.107054 0.920314 0.890350
O O6 0.205902 0.858844 0.466183
O O7 0.291305 0.860879 0.880181
O O8 0.048753 0.829434 0.998237
O O9 0.748562 0.012544 0.498506
O O10 0.751241 0.013839 0.995851
O O11 0.000000 0.000000 0.000000
O O12 0.394081 0.752923 0.411634
O O13 0.453292 0.829567 0.074631
O O14 0.500000 0.500000 0.500000
O O15 0.391797 0.579950 0.617842
#
# Coordination Sequence:
#
# PCOD8123671 Si02
#       7
#     4   4   4   4   4   4   4
#     4  10  19  35  53  74 109 140 182 246 279 322
#     4  10  21  40  58  82 121 152 190 242 296 355
#     4  10  21  40  64  93 128 158 202 256 313 367
#     4  12  21  40  57  78 116 153 196 243 297 336
#     4  10  21  42  66  91 128 165 205 255 314 376
#     4  10  18  35  54  74 105 147 181 225 295 324
#     4  10  23  40  58  86 117 157 195 245 294 360
#
# _framework density 20.143685999999999
#
# number of rings (size 3 to 8) (size 9 to 14) (size 15 to 20)
#    0.000    1.714    2.857    2.571    0.000    0.000 
#   20.571    0.000    0.000    0.000    0.000    0.000 
#    0.000    0.000    0.000    0.000    0.000    0.000 
#
# Total GULP energy -346909.238007 kJ/mol
# GULP energy per Si atom -12389.615643 kJ/mol
# Density = 2.009784 g / cm^3
# Si number density = 20.143686 Si / 1000 Ang^3
#
#
#
# Elastic Constant Matrix: (Units=GPa)
#
#
# Indices 1 2 3 4 5 6 
#
# 1 97.0527 49.3312 58.1979 0.0000 13.3772 0.0000
# 2 49.3312 87.6820 32.1507 0.0000 -10.8566 0.0000
# 3 58.1979 32.1507 124.3966 0.0000 29.2270 0.0000
# 4 0.0000 0.0000 0.0000 25.9482 0.0000 -4.8201
# 5 13.3772 -10.8566 29.2270 0.0000 42.4072 0.0000
# 6 0.0000 0.0000 0.0000 -4.8201 0.0000 30.7306
#
#
#
# Elastic Compliance Matrix: (Units=1/GPa)
#
#
# Indices 1 2 3 4 5 6 
#
# 1 0.018819 -0.009199 -0.005344 0.000000 -0.004608 0.000000
# 2 -0.009199 0.018816 -0.002831 0.000000 0.009670 0.000000
# 3 -0.005344 -0.002831 0.013179 0.000000 -0.008122 0.000000
# 4 0.000000 0.000000 0.000000 0.039695 0.000000 0.006226
# 5 -0.004608 0.009670 -0.008122 0.000000 0.033108 0.000000
# 6 0.000000 0.000000 0.000000 0.006226 0.000000 0.033517
#
#
# Mechanical properties :
#
#
# Convention : Reuss Voigt Hill
#
# Bulk Modulus (GPa) = 62.24673 65.38788 63.81730
# Shear Modulus (GPa) = 25.34995 31.11395 28.23195
#
# Velocity S-wave (km/s) = 3.55132 3.93440 3.74776
# Velocity P-wave (km/s) = 6.91262 7.29182 7.10475
#
# Compressibility (1/GPa) = 0.01606510
#
# Stress axis : x y z
#
# Youngs Moduli (GPa) = 53.13680 53.14654 75.87767
#
# Poissons Ratio (x) = 0.48890 0.40551
# Poissons Ratio (y) = 0.48881 0.21484
# Poissons Ratio (z) = 0.28398 0.15048
#
# Static dielectric constant tensor:
#      x y z
#    x 3.669890 0.000000 0.573780 
#    y 0.000000 3.497910 0.000000 
#    z 0.573780 0.000000 4.153340 
# 
# 
# High freq. dielectric constant tensor:
#      x y z
#    x 1.780020 0.000000 0.031700 
#    y 0.000000 1.762750 0.000000 
#    z 0.031700 0.000000 1.805850 
# 
# From -- ./inp_files/2072.got.cif
#   From: 2010.03.12/outbox.cif.g09.slc.cpg/sg14_2_cif.got.tgz:2072.got - 2010.03.31 13:35:05.
