data_PCOD8123003
_publ_section_title
;
Structure prediction by ZEFSAII (Michael W. Deem and Ramdas Pophale) SiO2 
 PCOD8123003
Probable space group: P 2/C
;
_chemical_formula_sum "Si O2"
_cell_formula_units_Z 32
_cell_length_a 7.801613
_cell_length_b 11.597921
_cell_length_c 18.394240
_cell_angle_alpha 90.000000
_cell_angle_beta 56.590042
_cell_angle_gamma 90.000000
_cell_volume 1389.325345
_symmetry_space_group_name_H-M "P 2/C"
_symmetry_group_IT_number 13
_symmetry_cell_setting 'monoclinic'
loop_
_space_group_symop_operation_xyz
x,y,z
-x,y,1/2-z
-x,-y,-z
x,-y,1/2+z
loop_
_atom_site_type_symbol
_atom_site_label
_atom_site_fract_x
_atom_site_fract_y
_atom_site_fract_z
Si Si1 0.123375 0.345917 0.538414
Si Si2 0.561752 0.734662 0.986343
Si Si3 0.282021 0.758975 0.794586
Si Si4 0.957863 0.601010 0.917842
Si Si5 0.151590 0.980743 0.898946
Si Si6 0.085564 0.164639 0.809971
Si Si7 0.455793 0.124552 0.649069
Si Si8 0.232900 0.100226 0.172897
O O1 0.366968 0.317272 0.487713
O O2 0.048286 0.464473 0.593091
O O3 0.061187 0.356201 0.468886
O O4 0.997775 0.246899 0.608072
O O5 0.720937 0.633256 0.964787
O O6 0.688356 0.837270 0.918407
O O7 0.490421 0.779574 0.080744
O O8 0.500000 0.692129 0.750000
O O9 0.349979 0.838956 0.711564
O O10 0.104128 0.663029 0.823510
O O11 0.206865 0.846473 0.876852
O O12 0.048806 0.031714 0.848065
O O13 0.345550 0.059723 0.870485
O O14 0.000000 0.000000 0.000000
O O15 0.332817 0.182945 0.745165
O O16 0.000000 0.189788 0.750000
O O17 0.291904 0.033748 0.652515
O O18 0.000000 0.123736 0.250000
#
# Coordination Sequence:
#
# PCOD8123003 Si02
#       8
#     4   4   4   4   4   4   4   4
#     4  11  26  49  75 101 142 188 245 308 357 425
#     4  12  25  46  73 106 141 191 240 295 367 430
#     4  12  22  44  67  99 142 186 231 296 356 427
#     4  11  26  50  73 102 136 192 250 298 360 428
#     4  12  26  41  70 104 146 193 235 289 369 455
#     4  12  24  45  69 103 146 183 236 300 366 432
#     4  12  25  42  69 106 147 190 230 288 367 444
#     4  12  25  41  65 104 147 179 227 286 353 443
#
# _framework density 23.032762999999999
#
# number of rings (size 3 to 8) (size 9 to 14) (size 15 to 20)
#    0.000    0.250    5.000    4.500    1.750    0.000 
#    2.250    3.750    0.000    0.000    0.000    0.000 
#    0.000    0.000    0.000    0.000    0.000    0.000 
#
# Total GULP energy -396549.955005 kJ/mol
# GULP energy per Si atom -12392.186094 kJ/mol
# Density = 2.298034 g / cm^3
# Si number density = 23.032763 Si / 1000 Ang^3
#
#
#
# Elastic Constant Matrix: (Units=GPa)
#
#
# Indices 1 2 3 4 5 6 
#
# 1 82.6374 6.1290 1.2264 0.0000 -31.2186 0.0000
# 2 6.1290 96.3353 17.9743 0.0000 -23.1256 0.0000
# 3 1.2264 17.9743 93.0471 0.0000 -30.1723 0.0000
# 4 0.0000 0.0000 0.0000 21.6123 0.0000 -6.4677
# 5 -31.2186 -23.1256 -30.1723 0.0000 41.7644 0.0000
# 6 0.0000 0.0000 0.0000 -6.4677 0.0000 24.2437
#
#
#
# Elastic Compliance Matrix: (Units=1/GPa)
#
#
# Indices 1 2 3 4 5 6 
#
# 1 0.019407 0.002505 0.005765 0.000000 0.020059 0.000000
# 2 0.002505 0.012298 0.000531 0.000000 0.009066 0.000000
# 3 0.005765 0.000531 0.015751 0.000000 0.015982 0.000000
# 4 0.000000 0.000000 0.000000 0.050285 0.000000 0.013415
# 5 0.020059 0.009066 0.015982 0.000000 0.055504 0.000000
# 6 0.000000 0.000000 0.000000 0.013415 0.000000 0.044827
#
#
# Mechanical properties :
#
#
# Convention : Reuss Voigt Hill
#
# Bulk Modulus (GPa) = 15.37091 35.85322 25.61207
# Shear Modulus (GPa) = 24.73329 33.97008 29.35168
#
# Velocity S-wave (km/s) = 3.28049 3.84456 3.57367
# Velocity P-wave (km/s) = 4.58659 5.94201 5.30774
#
# Compressibility (1/GPa) = 0.06505795
#
# Stress axis : x y z
#
# Youngs Moduli (GPa) = 51.52673 81.31258 63.48674
#
# Poissons Ratio (x) = -0.20367 -0.36598
# Poissons Ratio (y) = -0.12906 -0.03371
# Poissons Ratio (z) = -0.29704 -0.04318
#
# Static dielectric constant tensor:
#      x y z
#    x 4.703170 0.000000 -0.135840 
#    y 0.000000 4.098830 0.000000 
#    z -0.135840 0.000000 4.599410 
# 
# 
# High freq. dielectric constant tensor:
#      x y z
#    x 1.927980 0.000000 -0.013930 
#    y 0.000000 1.890050 0.000000 
#    z -0.013930 0.000000 1.924780 
# 
# From -- ./inp_files/76450.got.cif
#   From: 2010.06.25/outbox.cif.g09.slc.cpg/sg13_39_cif.got.tgz:76450.got - 2010.06.28 04:50:58.
