data_PCOD8123285
_publ_section_title
;
Structure prediction by ZEFSAII (Michael W. Deem and Ramdas Pophale) SiO2 
 PCOD8123285
Probable space group: P 21/C
;
_chemical_formula_sum "Si O2"
_cell_formula_units_Z 32
_cell_length_a 9.081481
_cell_length_b 10.658548
_cell_length_c 17.315647
_cell_angle_alpha 90.000000
_cell_angle_beta 78.836964
_cell_angle_gamma 90.000000
_cell_volume 1644.364095
_symmetry_space_group_name_H-M "P 21/C"
_symmetry_group_IT_number 14
_symmetry_cell_setting 'monoclinic'
loop_
_space_group_symop_operation_xyz
x,y,z
-x,1/2+y,1/2-z
-x,-y,-z
x,1/2-y,1/2+z
loop_
_atom_site_type_symbol
_atom_site_label
_atom_site_fract_x
_atom_site_fract_y
_atom_site_fract_z
Si Si1 0.119617 0.130403 0.771803
Si Si2 0.309718 0.158855 0.892058
Si Si3 0.459312 0.402920 0.836993
Si Si4 0.015275 0.857799 0.804722
Si Si5 0.677195 0.259011 0.729210
Si Si6 0.574939 0.840539 0.352643
Si Si7 0.727755 0.858645 0.929318
Si Si8 0.394165 0.976925 0.189609
O O1 0.156525 0.142398 0.859386
O O2 0.279375 0.126696 0.712519
O O3 0.027794 0.255147 0.756447
O O4 0.025250 0.000167 0.769079
O O5 0.352950 0.306526 0.893581
O O6 0.439906 0.081029 0.835904
O O7 0.281724 0.106083 0.980386
O O8 0.623978 0.345695 0.805951
O O9 0.483665 0.531763 0.882390
O O10 0.390250 0.420077 0.757714
O O11 0.176447 0.820203 0.824351
O O12 0.900259 0.843866 0.887096
O O13 0.544085 0.247338 0.679913
O O14 0.718981 0.128072 0.766060
O O15 0.630027 0.767225 0.423229
O O16 0.661174 0.972343 0.886167
#
# Coordination Sequence:
#
# PCOD8123285 Si02
#       8
#     4   4   4   4   4   4   4   4
#     4  11  21  40  61  89 114 161 206 260 295 359
#     4  11  22  36  62  86 122 157 196 252 306 362
#     4  10  16  34  62  86 105 148 209 249 282 334
#     4  11  23  37  61  89 125 158 202 250 308 367
#     4  10  17  33  63  89 106 154 206 252 285 335
#     4  10  19  35  64  86 117 149 209 250 296 351
#     4  11  23  36  53  92 129 159 186 241 321 372
#     4  10  18  35  60  89 109 151 210 255 278 345
#
# _framework density 19.46041
#
# number of rings (size 3 to 8) (size 9 to 14) (size 15 to 20)
#    0.000    1.500    6.250    1.875    0.000    2.000 
#    0.000    0.000    2.750    9.000    0.000    0.000 
#    0.000    0.000    0.000    0.000    0.000    0.000 
#
# Total GULP energy -396503.744835 kJ/mol
# GULP energy per Si atom -12390.742026 kJ/mol
# Density = 1.941612 g / cm^3
# Si number density = 19.460410 Si / 1000 Ang^3
#
#
#
# Elastic Constant Matrix: (Units=GPa)
#
#
# Indices 1 2 3 4 5 6 
#
# 1 72.5489 31.5875 14.1013 0.0000 -3.2060 0.0000
# 2 31.5875 88.6800 5.1726 0.0000 -0.5423 0.0000
# 3 14.1013 5.1726 58.3208 0.0000 10.5472 0.0000
# 4 0.0000 0.0000 0.0000 21.2920 0.0000 0.3002
# 5 -3.2060 -0.5423 10.5472 0.0000 21.9901 0.0000
# 6 0.0000 0.0000 0.0000 0.3002 0.0000 33.7578
#
#
#
# Elastic Compliance Matrix: (Units=1/GPa)
#
#
# Indices 1 2 3 4 5 6 
#
# 1 0.017442 -0.005921 -0.004517 0.000000 0.004564 0.000000
# 2 -0.005921 0.013359 0.000376 0.000000 -0.000714 0.000000
# 3 -0.004517 0.000376 0.020063 0.000000 -0.010272 0.000000
# 4 0.000000 0.000000 0.000000 0.046972 0.000000 -0.000418
# 5 0.004564 -0.000714 -0.010272 0.000000 0.051050 0.000000
# 6 0.000000 0.000000 0.000000 -0.000418 0.000000 0.029626
#
#
# Mechanical properties :
#
#
# Convention : Reuss Voigt Hill
#
# Bulk Modulus (GPa) = 32.53204 35.69695 34.11450
# Shear Modulus (GPa) = 23.93678 26.65387 25.29532
#
# Velocity S-wave (km/s) = 3.51098 3.70489 3.60923
# Velocity P-wave (km/s) = 5.76101 6.05680 5.91075
#
# Compressibility (1/GPa) = 0.03073892
#
# Stress axis : x y z
#
# Youngs Moduli (GPa) = 57.33422 74.85404 49.84261
#
# Poissons Ratio (x) = 0.44323 0.22515
# Poissons Ratio (y) = 0.33949 -0.01874
# Poissons Ratio (z) = 0.25900 -0.02814
#
# Static dielectric constant tensor:
#      x y z
#    x 3.544090 0.000000 -0.028450 
#    y 0.000000 3.978300 0.000000 
#    z -0.028450 0.000000 3.064970 
# 
# 
# High freq. dielectric constant tensor:
#      x y z
#    x 1.754050 0.000000 -0.001270 
#    y 0.000000 1.781380 0.000000 
#    z -0.001270 0.000000 1.709040 
# 
# From -- ./inp_files/55365.got.cif
#   From: 2010.03.12/outbox.cif.g09.slc.cpg/sg14_28_cif.got.tgz:55365.got - 2010.03.31 13:35:05.
