data_PCOD8123179
_publ_section_title
;
Structure prediction by ZEFSAII (Michael W. Deem and Ramdas Pophale) SiO2 
 PCOD8123179
Probable space group: P 2/C
;
_chemical_formula_sum "Si O2"
_cell_formula_units_Z 18
_cell_length_a 9.950906
_cell_length_b 7.544291
_cell_length_c 20.432968
_cell_angle_alpha 90.000000
_cell_angle_beta 30.302017
_cell_angle_gamma 90.000000
_cell_volume 773.969100
_symmetry_space_group_name_H-M "P 2/C"
_symmetry_group_IT_number 13
_symmetry_cell_setting 'monoclinic'
loop_
_space_group_symop_operation_xyz
x,y,z
-x,y,1/2-z
-x,-y,-z
x,-y,1/2+z
loop_
_atom_site_type_symbol
_atom_site_label
_atom_site_fract_x
_atom_site_fract_y
_atom_site_fract_z
Si Si1 0.146406 0.642717 0.478370
Si Si2 0.557694 0.595243 0.544701
Si Si3 0.205758 0.929039 0.105273
Si Si4 0.793454 0.167172 0.217869
Si Si5 0.500000 0.093663 0.750000
O O1 0.359483 0.556937 0.438978
O O2 0.270161 0.785081 0.376902
O O3 0.000000 0.500000 0.500000
O O4 0.876514 0.709746 0.624424
O O5 0.500000 0.500000 0.500000
O O6 0.786834 0.740638 0.435200
O O7 0.314626 0.713706 0.676243
O O8 0.000000 0.897655 0.250000
O O9 0.076662 0.078909 0.115436
O O10 0.500000 0.000000 0.000000
O O11 0.587547 0.022717 0.276200
#
# Coordination Sequence:
#
# PCOD8123179 Si02
#       5
#     4   4   4   4   2
#     4  12  26  46  74 109 152 199 253 317 383 452
#     4  12  28  45  74 114 154 193 248 323 387 447
#     4  12  26  48  75 107 151 200 248 305 380 463
#     4  12  26  48  77 108 149 201 260 308 379 463
#     4  12  26  50  78 108 148 206 264 312 376 462
#
# _framework density 23.256741999999999
#
# number of rings (size 3 to 8) (size 9 to 14) (size 15 to 20)
#    0.000    0.000    2.222    7.333    6.222    0.000 
#    0.000    0.000    0.000    0.000    0.000    0.000 
#    0.000    0.000    0.000    0.000    0.000    0.000 
#
# Total GULP energy -223035.183694 kJ/mol
# GULP energy per Si atom -12390.843539 kJ/mol
# Density = 2.320381 g / cm^3
# Si number density = 23.256742 Si / 1000 Ang^3
#
#
#
# Elastic Constant Matrix: (Units=GPa)
#
#
# Indices 1 2 3 4 5 6 
#
# 1 115.6998 51.4275 41.3557 0.0000 6.3500 0.0000
# 2 51.4275 139.0995 64.0397 0.0000 14.4002 0.0000
# 3 41.3557 64.0397 156.3770 0.0000 19.7943 0.0000
# 4 0.0000 0.0000 0.0000 54.9493 0.0000 20.3051
# 5 6.3500 14.4002 19.7943 0.0000 44.4507 0.0000
# 6 0.0000 0.0000 0.0000 20.3051 0.0000 35.5650
#
#
#
# Elastic Compliance Matrix: (Units=1/GPa)
#
#
# Indices 1 2 3 4 5 6 
#
# 1 0.010615 -0.003255 -0.001500 0.000000 0.000206 0.000000
# 2 -0.003255 0.009932 -0.003029 0.000000 -0.001404 0.000000
# 3 -0.001500 -0.003029 0.008351 0.000000 -0.002523 0.000000
# 4 0.000000 0.000000 0.000000 0.023065 0.000000 -0.013168
# 5 0.000206 -0.001404 -0.002523 0.000000 0.024046 0.000000
# 6 0.000000 0.000000 0.000000 -0.013168 0.000000 0.035636
#
#
# Mechanical properties :
#
#
# Convention : Reuss Voigt Hill
#
# Bulk Modulus (GPa) = 75.01928 80.53578 77.77753
# Shear Modulus (GPa) = 37.97750 43.94990 40.96370
#
# Velocity S-wave (km/s) = 4.04538 4.35187 4.20142
# Velocity P-wave (km/s) = 7.35848 7.74311 7.55324
#
# Compressibility (1/GPa) = 0.01332991
#
# Stress axis : x y z
#
# Youngs Moduli (GPa) = 94.20740 100.68048 119.74025
#
# Poissons Ratio (x) = 0.32773 0.17964
# Poissons Ratio (y) = 0.30666 0.36269
# Poissons Ratio (z) = 0.14134 0.30496
#
# Static dielectric constant tensor:
#      x y z
#    x 4.061940 0.000000 0.825770 
#    y 0.000000 4.557800 0.000000 
#    z 0.825770 0.000000 3.059780 
# 
# 
# High freq. dielectric constant tensor:
#      x y z
#    x 1.925420 0.000000 0.016580 
#    y 0.000000 1.947310 0.000000 
#    z 0.016580 0.000000 1.933230 
# 
# From -- ./inp_files/75497.got.cif
#   From: 2010.06.25/outbox.cif.g09.slc.cpg/sg13_38_cif.got.tgz:75497.got - 2010.06.28 04:50:58.
