data_PCOD8123650
_publ_section_title
;
Structure prediction by ZEFSAII (Michael W. Deem and Ramdas Pophale) SiO2 
 PCOD8123650
Probable space group: P 21/C
;
_chemical_formula_sum "Si O2"
_cell_formula_units_Z 28
_cell_length_a 30.369144
_cell_length_b 7.505675
_cell_length_c 15.472810
_cell_angle_alpha 90.000000
_cell_angle_beta 21.515193
_cell_angle_gamma 90.000000
_cell_volume 1293.478370
_symmetry_space_group_name_H-M "P 21/C"
_symmetry_group_IT_number 14
_symmetry_cell_setting 'monoclinic'
loop_
_space_group_symop_operation_xyz
x,y,z
-x,1/2+y,1/2-z
-x,-y,-z
x,1/2-y,1/2+z
loop_
_atom_site_type_symbol
_atom_site_label
_atom_site_fract_x
_atom_site_fract_y
_atom_site_fract_z
Si Si1 0.251200 0.609999 0.726481
Si Si2 0.921068 0.411729 0.456757
Si Si3 0.783135 0.530288 0.387023
Si Si4 0.665841 0.759928 0.849449
Si Si5 0.604132 0.248561 0.679870
Si Si6 0.102540 0.370827 0.659651
Si Si7 0.727791 0.895465 0.414744
O O1 0.170180 0.526747 0.794375
O O2 0.287754 0.463833 0.729746
O O3 0.372909 0.692567 0.462231
O O4 0.173384 0.767671 0.909654
O O5 0.966416 0.521319 0.290266
O O6 0.858350 0.534804 0.643805
O O7 0.035478 0.318231 0.292392
O O8 0.674980 0.392858 0.610747
O O9 0.889920 0.522499 0.263178
O O10 0.739821 0.735802 0.461493
O O11 0.758656 0.652465 0.621480
O O12 0.654687 0.675117 0.965104
O O13 0.536103 0.751194 0.041311
O O14 0.657153 0.049988 0.594704
#
# Coordination Sequence:
#
# PCOD8123650 Si02
#       7
#     4   4   4   4   4   4   4
#     4   8  18  37  57  85 111 153 199 237 277 350
#     4  10  21  40  60  82 117 155 203 236 300 348
#     4   9  21  39  58  90 119 144 198 242 300 331
#     4  10  18  34  60  83 121 154 194 232 293 348
#     4   9  18  35  59  87 115 152 198 236 283 346
#     4  11  23  38  58  86 116 157 187 250 297 354
#     4   9  19  37  60  87 112 155 198 241 277 351
#
# _framework density 21.647055999999999
#
# number of rings (size 3 to 8) (size 9 to 14) (size 15 to 20)
#    0.857    1.714    0.000    1.714    0.000    1.714 
#    7.714    0.714    0.000    0.000    0.000    0.000 
#    0.000    0.000    0.000    0.000    0.000    0.000 
#
# Total GULP energy -346994.359660 kJ/mol
# GULP energy per Si atom -12392.655702 kJ/mol
# Density = 2.159779 g / cm^3
# Si number density = 21.647056 Si / 1000 Ang^3
#
#
#
# Elastic Constant Matrix: (Units=GPa)
#
#
# Indices 1 2 3 4 5 6 
#
# 1 34.8690 2.2085 8.6034 0.0000 -7.6930 0.0000
# 2 2.2085 111.2633 9.1693 0.0000 -2.0724 0.0000
# 3 8.6034 9.1693 49.5144 0.0000 -5.5582 0.0000
# 4 0.0000 0.0000 0.0000 24.4271 0.0000 -3.1347
# 5 -7.6930 -2.0724 -5.5582 0.0000 17.1666 0.0000
# 6 0.0000 0.0000 0.0000 -3.1347 0.0000 19.1356
#
#
#
# Elastic Compliance Matrix: (Units=1/GPa)
#
#
# Indices 1 2 3 4 5 6 
#
# 1 0.032639 -0.000057 -0.004171 0.000000 0.013269 0.000000
# 2 -0.000057 0.009133 -0.001619 0.000000 0.000553 0.000000
# 3 -0.004171 -0.001619 0.021781 0.000000 0.004987 0.000000
# 4 0.000000 0.000000 0.000000 0.041817 0.000000 0.006850
# 5 0.013269 0.000553 0.004987 0.000000 0.065881 0.000000
# 6 0.000000 0.000000 0.000000 0.006850 0.000000 0.053381
#
#
# Mechanical properties :
#
#
# Convention : Reuss Voigt Hill
#
# Bulk Modulus (GPa) = 19.28360 26.17880 22.73120
# Shear Modulus (GPa) = 19.71520 23.85690 21.78605
#
# Velocity S-wave (km/s) = 3.02115 3.32337 3.17586
# Velocity P-wave (km/s) = 4.59318 5.18132 4.89609
#
# Compressibility (1/GPa) = 0.05185753
#
# Stress axis : x y z
#
# Youngs Moduli (GPa) = 30.63807 109.49833 45.91234
#
# Poissons Ratio (x) = 0.00624 0.19151
# Poissons Ratio (y) = 0.00175 0.07434
# Poissons Ratio (z) = 0.12780 0.17731
#
# Static dielectric constant tensor:
#      x y z
#    x 3.415570 0.000000 0.008520 
#    y 0.000000 4.051820 0.000000 
#    z 0.008520 0.000000 3.575230 
# 
# 
# High freq. dielectric constant tensor:
#      x y z
#    x 1.802650 0.000000 0.001920 
#    y 0.000000 1.862800 0.000000 
#    z 0.001920 0.000000 1.835390 
# 
# From -- ./inp_files/62585.got.cif
#   From: 2010.03.12/outbox.cif.g09.slc.cpg/sg14_32_cif.got.tgz:62585.got - 2010.03.31 13:35:05.
