data_PCOD8123682
_publ_section_title
;
Structure prediction by ZEFSAII (Michael W. Deem and Ramdas Pophale) SiO2 
 PCOD8123682
Probable space group: P 21/C
;
_chemical_formula_sum "Si O2"
_cell_formula_units_Z 20
_cell_length_a 30.994517
_cell_length_b 7.468631
_cell_length_c 16.106607
_cell_angle_alpha 90.000000
_cell_angle_beta 16.163434
_cell_angle_gamma 90.000000
_cell_volume 1037.923031
_symmetry_space_group_name_H-M "P 21/C"
_symmetry_group_IT_number 14
_symmetry_cell_setting 'monoclinic'
loop_
_space_group_symop_operation_xyz
x,y,z
-x,1/2+y,1/2-z
-x,-y,-z
x,1/2-y,1/2+z
loop_
_atom_site_type_symbol
_atom_site_label
_atom_site_fract_x
_atom_site_fract_y
_atom_site_fract_z
Si Si1 0.133208 0.815730 0.963100
Si Si2 0.680045 0.933493 0.477781
Si Si3 0.417044 0.806048 0.851374
Si Si4 0.059094 0.479145 0.759453
Si Si5 0.237201 0.088856 0.088266
O O1 0.984474 0.705195 0.206662
O O2 0.111750 0.868023 0.098266
O O3 0.288862 0.694388 0.663333
O O4 0.156722 0.995226 0.863004
O O5 0.585736 0.841527 0.576701
O O6 0.709458 0.793778 0.496891
O O7 0.584711 0.107504 0.687859
O O8 0.374714 0.955197 0.861223
O O9 0.202761 0.438658 0.554883
O O10 0.915132 0.554326 0.076589
#
# Coordination Sequence:
#
# PCOD8123682 Si02
#       5
#     4   4   4   4   4
#     4   9  20  34  55  80 110 146 178 223 277 320
#     4  10  18  35  58  78 106 147 185 220 264 331
#     4   9  19  34  57  82 101 151 180 222 270 318
#     4  10  20  36  53  86 112 144 176 231 276 324
#     4  10  19  35  58  81 114 137 185 228 270 324
#
# _framework density 19.26925
#
# number of rings (size 3 to 8) (size 9 to 14) (size 15 to 20)
#    1.200    1.200    2.000    1.200    0.000    0.800 
#    3.600    4.000    0.000    2.400    0.000    0.000 
#    0.000    0.000    0.000    0.000    0.000    0.000 
#
# Total GULP energy -247818.837905 kJ/mol
# GULP energy per Si atom -12390.941895 kJ/mol
# Density = 1.922539 g / cm^3
# Si number density = 19.269250 Si / 1000 Ang^3
#
#
#
# Elastic Constant Matrix: (Units=GPa)
#
#
# Indices 1 2 3 4 5 6 
#
# 1 106.4281 37.6209 27.1817 0.0000 -10.0235 0.0000
# 2 37.6209 105.3863 18.6831 0.0000 -5.4463 0.0000
# 3 27.1817 18.6831 27.7035 0.0000 -13.3049 0.0000
# 4 0.0000 0.0000 0.0000 23.5142 0.0000 -9.2294
# 5 -10.0235 -5.4463 -13.3049 0.0000 21.9353 0.0000
# 6 0.0000 0.0000 0.0000 -9.2294 0.0000 29.7745
#
#
#
# Elastic Compliance Matrix: (Units=1/GPa)
#
#
# Indices 1 2 3 4 5 6 
#
# 1 0.013262 -0.002682 -0.012153 0.000000 -0.001977 0.000000
# 2 -0.002682 0.011413 -0.006058 0.000000 -0.002066 0.000000
# 3 -0.012153 -0.006058 0.068741 0.000000 0.034637 0.000000
# 4 0.000000 0.000000 0.000000 0.048418 0.000000 0.015009
# 5 -0.001977 -0.002066 0.034637 0.000000 0.065181 0.000000
# 6 0.000000 0.000000 0.000000 0.015009 0.000000 0.038238
#
#
# Mechanical properties :
#
#
# Convention : Reuss Voigt Hill
#
# Bulk Modulus (GPa) = 19.36843 45.16547 32.26695
# Shear Modulus (GPa) = 16.43389 25.44697 20.94043
#
# Velocity S-wave (km/s) = 2.92354 3.63795 3.30013
# Velocity P-wave (km/s) = 4.63351 6.41375 5.59489
#
# Compressibility (1/GPa) = 0.05163042
#
# Stress axis : x y z
#
# Youngs Moduli (GPa) = 75.40568 87.61555 14.54739
#
# Poissons Ratio (x) = 0.23497 0.17679
# Poissons Ratio (y) = 0.20223 0.08813
# Poissons Ratio (z) = 0.91638 0.53079
#
# Static dielectric constant tensor:
#      x y z
#    x 3.289190 0.000000 -0.197980 
#    y 0.000000 3.617750 0.000000 
#    z -0.197980 0.000000 3.248480 
# 
# 
# High freq. dielectric constant tensor:
#      x y z
#    x 1.720690 0.000000 -0.018750 
#    y 0.000000 1.759930 0.000000 
#    z -0.018750 0.000000 1.724860 
# 
# From -- ./inp_files/27836.got.cif
#   From: 2010.03.12/outbox.cif.g09.slc.cpg/sg14_14_cif.got.tgz:27836.got - 2010.03.31 13:35:05.
