data_PCOD8123079
_publ_section_title
;
Structure prediction by ZEFSAII (Michael W. Deem and Ramdas Pophale) SiO2 
 PCOD8123079
Probable space group: P 2/C
;
_chemical_formula_sum "Si O2"
_cell_formula_units_Z 20
_cell_length_a 16.334243
_cell_length_b 6.787707
_cell_length_c 23.794010
_cell_angle_alpha 90.000000
_cell_angle_beta 160.677515
_cell_angle_gamma 90.000000
_cell_volume 872.904014
_symmetry_space_group_name_H-M "P 2/C"
_symmetry_group_IT_number 13
_symmetry_cell_setting 'monoclinic'
loop_
_space_group_symop_operation_xyz
x,y,z
-x,y,1/2-z
-x,-y,-z
x,-y,1/2+z
loop_
_atom_site_type_symbol
_atom_site_label
_atom_site_fract_x
_atom_site_fract_y
_atom_site_fract_z
Si Si1 0.724829 0.119752 0.171400
Si Si2 0.600450 0.641133 0.953849
Si Si3 0.828368 0.875967 0.014900
Si Si4 0.238188 0.537732 0.621081
Si Si5 0.500000 0.178620 0.750000
Si Si6 0.000000 0.335190 0.250000
O O1 0.601803 0.284498 0.131998
O O2 0.911869 0.208892 0.246248
O O3 0.898478 0.967935 0.318439
O O4 0.500000 0.000000 0.000000
O O5 0.464958 0.588896 0.808135
O O6 0.803506 0.800249 0.063531
O O7 0.753489 0.458941 0.076859
O O8 0.795949 0.703423 0.948032
O O9 0.610934 0.037705 0.869854
O O10 0.275885 0.319733 0.621403
O O11 0.000000 0.500000 0.500000
#
# Coordination Sequence:
#
# PCOD8123079 Si02
#       6
#     4   4   4   4   2   2
#     4  12  28  47  75 105 146 200 246 311 367 438
#     4  12  25  48  72 108 148 188 249 303 369 438
#     4  12  26  48  74 114 150 189 249 304 371 448
#     4  12  27  43  75 110 146 194 235 308 373 438
#     4  12  22  48  68 108 154 188 234 296 372 432
#     4  12  28  50  76 106 146 204 256 304 364 448
#
# _framework density 22.912027999999999
#
# number of rings (size 3 to 8) (size 9 to 14) (size 15 to 20)
#    0.000    0.000    4.000    5.400    8.400    1.600 
#    0.000    0.000    0.000    0.000    0.000    0.000 
#    0.000    0.000    0.000    0.000    0.000    0.000 
#
# Total GULP energy -247834.689805 kJ/mol
# GULP energy per Si atom -12391.734490 kJ/mol
# Density = 2.285988 g / cm^3
# Si number density = 22.912028 Si / 1000 Ang^3
#
#
#
# Elastic Constant Matrix: (Units=GPa)
#
#
# Indices 1 2 3 4 5 6 
#
# 1 133.9694 49.7707 33.9026 0.0000 27.0952 0.0000
# 2 49.7707 122.4592 40.6446 0.0000 1.9565 0.0000
# 3 33.9026 40.6446 115.6422 0.0000 7.3704 0.0000
# 4 0.0000 0.0000 0.0000 53.9057 0.0000 10.9074
# 5 27.0952 1.9565 7.3704 0.0000 49.8606 0.0000
# 6 0.0000 0.0000 0.0000 10.9074 0.0000 34.3988
#
#
#
# Elastic Compliance Matrix: (Units=1/GPa)
#
#
# Indices 1 2 3 4 5 6 
#
# 1 0.010207 -0.003602 -0.001395 0.000000 -0.005199 0.000000
# 2 -0.003602 0.010516 -0.002765 0.000000 0.001954 0.000000
# 3 -0.001395 -0.002765 0.010068 0.000000 -0.000622 0.000000
# 4 0.000000 0.000000 0.000000 0.019823 0.000000 -0.006286
# 5 -0.005199 0.001954 -0.000622 0.000000 0.022897 0.000000
# 6 0.000000 0.000000 0.000000 -0.006286 0.000000 0.031064
#
#
# Mechanical properties :
#
#
# Convention : Reuss Voigt Hill
#
# Bulk Modulus (GPa) = 65.49905 68.96738 67.23322
# Shear Modulus (GPa) = 39.94007 44.14990 42.04499
#
# Velocity S-wave (km/s) = 4.17969 4.39444 4.28841
# Velocity P-wave (km/s) = 7.20710 7.47760 7.34359
#
# Compressibility (1/GPa) = 0.01526740
#
# Stress axis : x y z
#
# Youngs Moduli (GPa) = 97.96929 95.08881 99.32855
#
# Poissons Ratio (x) = 0.34255 0.13856
# Poissons Ratio (y) = 0.35293 0.27460
# Poissons Ratio (z) = 0.13666 0.26288
#
# Static dielectric constant tensor:
#      x y z
#    x 4.360100 0.000000 0.131920 
#    y 0.000000 4.804810 0.000000 
#    z 0.131920 0.000000 4.343970 
# 
# 
# High freq. dielectric constant tensor:
#      x y z
#    x 1.908930 0.000000 0.007700 
#    y 0.000000 1.920810 0.000000 
#    z 0.007700 0.000000 1.925370 
# 
# From -- ./inp_files/91918.got.cif
#   From: 2010.06.25/outbox.cif.g09.slc.cpg/sg13_46_cif.got.tgz:91918.got - 2010.06.28 04:50:58.
