data_PCOD8123549
_publ_section_title
;
Structure prediction by ZEFSAII (Michael W. Deem and Ramdas Pophale) SiO2 
 PCOD8123549
Probable space group: P 21/C
;
_chemical_formula_sum "Si O2"
_cell_formula_units_Z 28
_cell_length_a 9.949427
_cell_length_b 16.169247
_cell_length_c 20.241675
_cell_angle_alpha 90.000000
_cell_angle_beta 24.361202
_cell_angle_gamma 90.000000
_cell_volume 1343.214207
_symmetry_space_group_name_H-M "P 21/C"
_symmetry_group_IT_number 14
_symmetry_cell_setting 'monoclinic'
loop_
_space_group_symop_operation_xyz
x,y,z
-x,1/2+y,1/2-z
-x,-y,-z
x,1/2-y,1/2+z
loop_
_atom_site_type_symbol
_atom_site_label
_atom_site_fract_x
_atom_site_fract_y
_atom_site_fract_z
Si Si1 0.800864 0.714447 0.958253
Si Si2 0.477282 0.839316 0.196437
Si Si3 0.862965 0.141774 0.272833
Si Si4 0.052171 0.345620 0.834003
Si Si5 0.526374 0.284506 0.158910
Si Si6 0.681087 0.392945 0.611578
Si Si7 0.014072 0.460631 0.584492
O O1 0.637108 0.756581 0.095128
O O2 0.522021 0.660013 0.048031
O O3 0.093118 0.656086 0.852377
O O4 0.936827 0.781302 0.845936
O O5 0.548415 0.838213 0.242680
O O6 0.644572 0.919517 0.090497
O O7 0.001749 0.121877 0.282674
O O8 0.920763 0.060903 0.201351
O O9 0.203103 0.251979 0.767919
O O10 0.305587 0.407346 0.757099
O O11 0.710472 0.344396 0.025407
O O12 0.757707 0.205587 0.076160
O O13 0.927408 0.441151 0.451050
O O14 0.726894 0.426838 0.665445
#
# Coordination Sequence:
#
# PCOD8123549 Si02
#       7
#     4   4   4   4   4   4   4
#     4   9  18  30  53  83 108 134 188 228 273 305
#     4  10  18  32  57  83 105 141 181 232 270 318
#     4  10  19  33  55  81 110 144 177 231 266 327
#     4  10  21  33  55  80 110 140 182 220 273 319
#     4  10  19  33  56  80 109 140 177 232 264 321
#     4   9  21  36  56  82 110 144 183 223 272 331
#     4  10  20  37  58  80 110 144 185 222 275 323
#
# _framework density 20.84552
#
# number of rings (size 3 to 8) (size 9 to 14) (size 15 to 20)
#    0.857    1.429    0.000    5.143    2.000    0.571 
#    0.000    0.714    3.143    0.857    0.000    0.000 
#    0.000    0.000    0.000    0.000    0.000    0.000 
#
# Total GULP energy -347067.677388 kJ/mol
# GULP energy per Si atom -12395.274192 kJ/mol
# Density = 2.079807 g / cm^3
# Si number density = 20.845520 Si / 1000 Ang^3
#
#
#
# Elastic Constant Matrix: (Units=GPa)
#
#
# Indices 1 2 3 4 5 6 
#
# 1 119.7265 -6.5088 42.5590 0.0000 3.1128 0.0000
# 2 -6.5088 25.7334 -2.7936 0.0000 0.2954 0.0000
# 3 42.5590 -2.7936 86.5913 0.0000 -7.3362 0.0000
# 4 0.0000 0.0000 0.0000 14.5796 0.0000 3.1798
# 5 3.1128 0.2954 -7.3362 0.0000 34.7405 0.0000
# 6 0.0000 0.0000 0.0000 3.1798 0.0000 18.1929
#
#
#
# Elastic Compliance Matrix: (Units=1/GPa)
#
#
# Indices 1 2 3 4 5 6 
#
# 1 0.010368 0.002081 -0.005202 0.000000 -0.002045 0.000000
# 2 0.002081 0.039415 0.000208 0.000000 -0.000478 0.000000
# 3 -0.005202 0.000208 0.014409 0.000000 0.003507 0.000000
# 4 0.000000 0.000000 0.000000 0.071307 0.000000 -0.012463
# 5 -0.002045 -0.000478 0.003507 0.000000 0.029713 0.000000
# 6 0.000000 0.000000 0.000000 -0.012463 0.000000 0.057145
#
#
# Mechanical properties :
#
#
# Convention : Reuss Voigt Hill
#
# Bulk Modulus (GPa) = 17.13313 33.17381 25.15347
# Shear Modulus (GPa) = 20.19089 26.75558 23.47324
#
# Velocity S-wave (km/s) = 3.11560 3.58651 3.35932
# Velocity P-wave (km/s) = 4.60213 5.75321 5.20956
#
# Compressibility (1/GPa) = 0.05836646
#
# Stress axis : x y z
#
# Youngs Moduli (GPa) = 96.45296 25.37135 69.40113
#
# Poissons Ratio (x) = -0.05280 0.36101
# Poissons Ratio (y) = -0.20073 -0.01445
# Poissons Ratio (z) = 0.50173 -0.00528
#
# Static dielectric constant tensor:
#      x y z
#    x 3.628830 0.000000 -0.149260 
#    y 0.000000 3.388120 0.000000 
#    z -0.149260 0.000000 3.705330 
# 
# 
# High freq. dielectric constant tensor:
#      x y z
#    x 1.810660 0.000000 -0.009820 
#    y 0.000000 1.775910 0.000000 
#    z -0.009820 0.000000 1.814750 
# 
# From -- ./inp_files/56193.got.cif
#   From: 2010.03.12/outbox.cif.g09.slc.cpg/sg14_29_cif.got.tgz:56193.got - 2010.03.31 13:35:05.
