data_PCOD8123975
_publ_section_title
;
Structure prediction by ZEFSAII (Michael W. Deem and Ramdas Pophale) SiO2 
 PCOD8123975
Probable space group: P 21/C
;
_chemical_formula_sum "Si O2"
_cell_formula_units_Z 20
_cell_length_a 21.256325
_cell_length_b 8.481872
_cell_length_c 5.197029
_cell_angle_alpha 90.000000
_cell_angle_beta 79.560634
_cell_angle_gamma 90.000000
_cell_volume 921.480371
_symmetry_space_group_name_H-M "P 21/C"
_symmetry_group_IT_number 14
_symmetry_cell_setting 'monoclinic'
loop_
_space_group_symop_operation_xyz
x,y,z
-x,1/2+y,1/2-z
-x,-y,-z
x,1/2-y,1/2+z
loop_
_atom_site_type_symbol
_atom_site_label
_atom_site_fract_x
_atom_site_fract_y
_atom_site_fract_z
Si Si1 0.014346 0.184445 0.513703
Si Si2 0.452041 0.143721 0.515100
Si Si3 0.125450 0.676494 0.340177
Si Si4 0.313811 0.155574 0.703259
Si Si5 0.824144 0.850345 0.292602
O O1 0.053394 0.239766 0.742022
O O2 0.949064 0.281137 0.593290
O O3 0.000000 0.000000 0.500000
O O4 0.462583 0.230960 0.236073
O O5 0.380341 0.066658 0.587620
O O6 0.500000 0.000000 0.500000
O O7 0.159070 0.727532 0.581567
O O8 0.126222 0.491072 0.287741
O O9 0.313684 0.305665 0.507463
O O10 0.246810 0.068722 0.687810
O O11 0.833473 0.787987 0.576152
#
# Coordination Sequence:
#
# PCOD8123975 Si02
#       5
#     4   4   4   4   4
#     4  10  21  40  60  81 109 142 176 213 259 313
#     4  10  19  33  51  74 105 140 179 222 264 314
#     4  10  21  38  55  81 113 139 169 216 268 311
#     4   8  16  30  50  73 101 137 175 214 262 316
#     4  10  19  35  58  81 103 138 182 219 260 316
#
# _framework density 21.704205000000002
#
# number of rings (size 3 to 8) (size 9 to 14) (size 15 to 20)
#    0.000    2.400    0.000    2.400    0.000    0.000 
#    0.000   26.000    0.000    0.000    0.000    0.000 
#    0.000    0.000    0.000    0.000    0.000    0.000 
#
# Total GULP energy -247771.023614 kJ/mol
# GULP energy per Si atom -12388.551181 kJ/mol
# Density = 2.165481 g / cm^3
# Si number density = 21.704205 Si / 1000 Ang^3
#
#
#
# Elastic Constant Matrix: (Units=GPa)
#
#
# Indices 1 2 3 4 5 6 
#
# 1 56.8203 28.9748 11.5355 0.0000 -2.3109 0.0000
# 2 28.9748 73.5084 20.4595 0.0000 -4.7531 0.0000
# 3 11.5355 20.4595 165.0814 0.0000 19.1460 0.0000
# 4 0.0000 0.0000 0.0000 34.4026 0.0000 -1.3679
# 5 -2.3109 -4.7531 19.1460 0.0000 30.4279 0.0000
# 6 0.0000 0.0000 0.0000 -1.3679 0.0000 29.2062
#
#
#
# Elastic Compliance Matrix: (Units=1/GPa)
#
#
# Indices 1 2 3 4 5 6 
#
# 1 0.022077 -0.008497 -0.000572 0.000000 0.000709 0.000000
# 2 -0.008497 0.017727 -0.001995 0.000000 0.003379 0.000000
# 3 -0.000572 -0.001995 0.006889 0.000000 -0.004690 0.000000
# 4 0.000000 0.000000 0.000000 0.029122 0.000000 0.001364
# 5 0.000709 0.003379 -0.004690 0.000000 0.036397 0.000000
# 6 0.000000 0.000000 0.000000 0.001364 0.000000 0.034303
#
#
# Mechanical properties :
#
#
# Convention : Reuss Voigt Hill
#
# Bulk Modulus (GPa) = 40.70884 46.37216 43.54050
# Shear Modulus (GPa) = 28.27545 34.43670 31.35607
#
# Velocity S-wave (km/s) = 3.61330 3.98758 3.80504
# Velocity P-wave (km/s) = 6.01704 6.52786 6.27765
#
# Compressibility (1/GPa) = 0.02456469
#
# Stress axis : x y z
#
# Youngs Moduli (GPa) = 45.29537 56.41105 145.16408
#
# Poissons Ratio (x) = 0.47933 0.08301
# Poissons Ratio (y) = 0.38488 0.28963
# Poissons Ratio (z) = 0.02590 0.11255
#
# Static dielectric constant tensor:
#      x y z
#    x 2.836250 0.000000 -5.498080 
#    y 0.000000 3.547040 0.000000 
#    z -5.498080 0.000000 -15.967780 
# 
# 
# High freq. dielectric constant tensor:
#      x y z
#    x 1.853390 0.000000 0.007420 
#    y 0.000000 1.804250 0.000000 
#    z 0.007420 0.000000 1.894760 
# 
# From -- ./inp_files/4313.got.cif
#   From: 2010.03.12/outbox.cif.g09.slc.cpg/sg14_3_cif.got.tgz:4313.got - 2010.03.31 13:35:05.
