data_PCOD8123049
_publ_section_title
;
Structure prediction by ZEFSAII (Michael W. Deem and Ramdas Pophale) SiO2 
 PCOD8123049
Probable space group: P 2/C
;
_chemical_formula_sum "Si O2"
_cell_formula_units_Z 14
_cell_length_a 7.395344
_cell_length_b 6.733150
_cell_length_c 15.963481
_cell_angle_alpha 90.000000
_cell_angle_beta 126.772616
_cell_angle_gamma 90.000000
_cell_volume 636.716810
_symmetry_space_group_name_H-M "P 2/C"
_symmetry_group_IT_number 13
_symmetry_cell_setting 'monoclinic'
loop_
_space_group_symop_operation_xyz
x,y,z
-x,y,1/2-z
-x,-y,-z
x,-y,1/2+z
loop_
_atom_site_type_symbol
_atom_site_label
_atom_site_fract_x
_atom_site_fract_y
_atom_site_fract_z
Si Si1 0.500000 0.565941 0.750000
Si Si2 0.565747 0.892148 0.639597
Si Si3 0.151300 0.997348 0.930022
Si Si4 0.258727 0.203576 0.618187
O O1 0.613781 0.701987 0.710595
O O2 0.304506 0.430821 0.654795
O O3 0.350492 0.853222 0.517775
O O4 0.790693 0.924378 0.647216
O O5 0.500769 0.086035 0.678333
O O6 0.907725 0.103376 0.859062
O O7 0.136375 0.813167 0.992743
#
# Coordination Sequence:
#
# PCOD8123049 Si02
#       4
#     2   4   4   4
#     4  12  22  32  62  94 128 140 198 256 310 318
#     4   9  19  39  59  84 115 160 191 249 283 357
#     4   8  18  41  65  72 118 166 202 218 298 358
#     4   9  19  39  59  84 115 160 191 249 283 357
#
# _framework density 21.987794999999998
#
# number of rings (size 3 to 8) (size 9 to 14) (size 15 to 20)
#    1.714    1.143    0.000    0.857    0.000    2.286 
#    0.000    8.571    0.000    0.000    0.000    0.000 
#    0.000    0.000    0.000    0.000    0.000    0.000 
#
# Total GULP energy -173463.010294 kJ/mol
# GULP energy per Si atom -12390.215021 kJ/mol
# Density = 2.193775 g / cm^3
# Si number density = 21.987795 Si / 1000 Ang^3
#
#
#
# Elastic Constant Matrix: (Units=GPa)
#
#
# Indices 1 2 3 4 5 6 
#
# 1 190.6587 57.2728 45.9165 0.0000 -42.7500 0.0000
# 2 57.2728 124.7557 39.1855 0.0000 -31.9554 0.0000
# 3 45.9165 39.1855 55.3617 0.0000 -20.4338 0.0000
# 4 0.0000 0.0000 0.0000 27.9773 0.0000 -6.2458
# 5 -42.7500 -31.9554 -20.4338 0.0000 38.1109 0.0000
# 6 0.0000 0.0000 0.0000 -6.2458 0.0000 -0.2999
#
#
#
# Elastic Compliance Matrix: (Units=1/GPa)
#
#
# Indices 1 2 3 4 5 6 
#
# 1 0.007713 -0.000887 -0.003554 0.000000 0.006003 0.000000
# 2 -0.000887 0.011595 -0.005299 0.000000 0.005886 0.000000
# 3 -0.003554 -0.005299 0.026991 0.000000 0.006043 0.000000
# 4 0.000000 0.000000 0.000000 0.006327 0.000000 -0.131766
# 5 0.006003 0.005886 0.006043 0.000000 0.041148 0.000000
# 6 0.000000 0.000000 0.000000 -0.131766 0.000000 -0.590225
#
#
# Mechanical properties :
#
#
# Convention : Reuss Voigt Hill
#
# Bulk Modulus (GPa) = 37.28518 72.83619 55.06068
# Shear Modulus (GPa) = -10.68303 28.38442 8.85069
#
# Velocity S-wave (km/s) = -2.20662 3.59683 2.00849
# Velocity P-wave (km/s) = 3.24065 7.10262 5.52037
#
# Compressibility (1/GPa) = 0.02682031
#
# Stress axis : x y z
#
# Youngs Moduli (GPa) = 129.64581 86.24482 37.04913
#
# Poissons Ratio (x) = 0.07652 0.13166
# Poissons Ratio (y) = 0.11502 0.19631
# Poissons Ratio (z) = 0.46072 0.45698
#
# Static dielectric constant tensor:
#      x y z
#    x 3.860510 0.000000 -0.184770 
#    y 0.000000 3.389590 0.000000 
#    z -0.184770 0.000000 3.803520 
# 
# 
# High freq. dielectric constant tensor:
#      x y z
#    x 1.869630 0.000000 -0.008850 
#    y 0.000000 1.808960 0.000000 
#    z -0.008850 0.000000 1.877400 
# 
# From -- ./inp_files/62006.got.cif
#   From: 2010.06.25/outbox.cif.g09.slc.cpg/sg13_32_cif.got.tgz:62006.got - 2010.06.28 04:50:58.
