data_PCOD8123825
_publ_section_title
;
Structure prediction by ZEFSAII (Michael W. Deem and Ramdas Pophale) SiO2 
 PCOD8123825
Probable space group: P 21/C
;
_chemical_formula_sum "Si O2"
_cell_formula_units_Z 32
_cell_length_a 11.808509
_cell_length_b 10.424231
_cell_length_c 23.788969
_cell_angle_alpha 90.000000
_cell_angle_beta 147.906176
_cell_angle_gamma 90.000000
_cell_volume 1555.823996
_symmetry_space_group_name_H-M "P 21/C"
_symmetry_group_IT_number 14
_symmetry_cell_setting 'monoclinic'
loop_
_space_group_symop_operation_xyz
x,y,z
-x,1/2+y,1/2-z
-x,-y,-z
x,1/2-y,1/2+z
loop_
_atom_site_type_symbol
_atom_site_label
_atom_site_fract_x
_atom_site_fract_y
_atom_site_fract_z
Si Si1 0.855106 0.229974 0.553331
Si Si2 0.535661 0.927766 0.644079
Si Si3 0.176593 0.072657 0.340122
Si Si4 0.183111 0.729233 0.836650
Si Si5 0.848556 0.679567 0.471315
Si Si6 0.396780 0.324867 0.041548
Si Si7 0.700347 0.766664 0.295100
Si Si8 0.740060 0.101447 0.907619
O O1 0.701970 0.126896 0.460592
O O2 0.785451 0.269854 0.585946
O O3 0.843434 0.357489 0.510459
O O4 0.098519 0.177564 0.655536
O O5 0.673574 0.883620 0.648103
O O6 0.646022 0.875930 0.747505
O O7 0.505829 0.081014 0.633579
O O8 0.298131 0.086228 0.450715
O O9 0.981964 0.172835 0.261372
O O10 0.112183 0.922224 0.304181
O O11 0.409357 0.757776 0.902097
O O12 0.779819 0.734777 0.503225
O O13 0.766306 0.773718 0.387886
O O14 0.728076 0.550002 0.405082
O O15 0.104891 0.657307 0.576694
O O16 0.500604 0.856875 0.201867
#
# Coordination Sequence:
#
# PCOD8123825 Si02
#       8
#     4   4   4   4   4   4   4   4
#     4  10  18  38  63  86 116 160 203 244 308 370
#     4  10  19  39  65  85 121 164 201 248 309 370
#     4  11  22  40  63  92 129 166 205 258 313 374
#     4  11  22  39  63  95 125 165 212 250 316 380
#     4  10  23  42  59  87 125 160 205 255 313 366
#     4  11  23  40  61  92 126 162 197 262 311 366
#     4  10  21  37  66  87 111 162 208 248 298 371
#     4   9  22  42  61  84 122 163 201 259 310 365
#
# _framework density 20.567879999999999
#
# number of rings (size 3 to 8) (size 9 to 14) (size 15 to 20)
#    0.000    1.750    3.750    0.750    1.750    3.000 
#    6.750    3.125    0.000    0.000    0.000    0.000 
#    0.000    0.000    0.000    0.000    0.000    0.000 
#
# Total GULP energy -396638.319265 kJ/mol
# GULP energy per Si atom -12394.947477 kJ/mol
# Density = 2.052107 g / cm^3
# Si number density = 20.567880 Si / 1000 Ang^3
#
#
#
# Elastic Constant Matrix: (Units=GPa)
#
#
# Indices 1 2 3 4 5 6 
#
# 1 105.2942 25.5005 16.5664 0.0000 14.9275 0.0000
# 2 25.5005 46.7067 5.3617 0.0000 8.3023 0.0000
# 3 16.5664 5.3617 59.2628 0.0000 16.5232 0.0000
# 4 0.0000 0.0000 0.0000 23.0606 0.0000 1.7977
# 5 14.9275 8.3023 16.5232 0.0000 29.3226 0.0000
# 6 0.0000 0.0000 0.0000 1.7977 0.0000 30.8038
#
#
#
# Elastic Compliance Matrix: (Units=1/GPa)
#
#
# Indices 1 2 3 4 5 6 
#
# 1 0.011592 -0.005532 -0.001817 0.000000 -0.003311 0.000000
# 2 -0.005532 0.025189 0.000558 0.000000 -0.004631 0.000000
# 3 -0.001817 0.000558 0.020308 0.000000 -0.010677 0.000000
# 4 0.000000 0.000000 0.000000 0.043562 0.000000 -0.002542
# 5 -0.003311 -0.004631 -0.010677 0.000000 0.043117 0.000000
# 6 0.000000 0.000000 0.000000 -0.002542 0.000000 0.032612
#
#
# Mechanical properties :
#
#
# Convention : Reuss Voigt Hill
#
# Bulk Modulus (GPa) = 22.98350 34.01344 28.49847
# Shear Modulus (GPa) = 24.45419 27.55974 26.00697
#
# Velocity S-wave (km/s) = 3.45186 3.66449 3.55976
# Velocity P-wave (km/s) = 5.20440 5.87177 5.54813
#
# Compressibility (1/GPa) = 0.04350947
#
# Stress axis : x y z
#
# Youngs Moduli (GPa) = 86.26487 39.69922 49.24126
#
# Poissons Ratio (x) = 0.21961 0.08946
# Poissons Ratio (y) = 0.47720 -0.02750
# Poissons Ratio (z) = 0.15672 -0.02217
#
# Static dielectric constant tensor:
#      x y z
#    x 3.927640 0.000000 0.106000 
#    y 0.000000 3.504000 0.000000 
#    z 0.106000 0.000000 3.701720 
# 
# 
# High freq. dielectric constant tensor:
#      x y z
#    x 1.813590 0.000000 0.008500 
#    y 0.000000 1.783200 0.000000 
#    z 0.008500 0.000000 1.802490 
# 
# From -- ./inp_files/73318.got.cif
#   From: 2010.03.12/outbox.cif.g09.slc.cpg/sg14_37_cif.got.tgz:73318.got - 2010.03.31 13:35:05.
