data_PCOD8123817
_publ_section_title
;
Structure prediction by ZEFSAII (Michael W. Deem and Ramdas Pophale) SiO2 
 PCOD8123817
Probable space group: P 21/C
;
_chemical_formula_sum "Si O2"
_cell_formula_units_Z 32
_cell_length_a 11.945392
_cell_length_b 17.557686
_cell_length_c 9.391776
_cell_angle_alpha 90.000000
_cell_angle_beta 127.947116
_cell_angle_gamma 90.000000
_cell_volume 1553.318224
_symmetry_space_group_name_H-M "P 21/C"
_symmetry_group_IT_number 14
_symmetry_cell_setting 'monoclinic'
loop_
_space_group_symop_operation_xyz
x,y,z
-x,1/2+y,1/2-z
-x,-y,-z
x,1/2-y,1/2+z
loop_
_atom_site_type_symbol
_atom_site_label
_atom_site_fract_x
_atom_site_fract_y
_atom_site_fract_z
Si Si1 0.041515 0.825588 0.632211
Si Si2 0.795519 0.139903 0.488154
Si Si3 0.482915 0.097666 0.841428
Si Si4 0.253198 0.177516 0.491440
Si Si5 0.733361 0.664358 0.331074
Si Si6 0.956535 0.152160 0.901434
Si Si7 0.498740 0.077371 0.177729
Si Si8 0.251426 0.685025 0.532856
O O1 0.075981 0.878167 0.522317
O O2 0.003688 0.740787 0.553626
O O3 0.909419 0.853044 0.624073
O O4 0.190726 0.824084 0.828692
O O5 0.869155 0.126007 0.696084
O O6 0.659976 0.086540 0.359726
O O7 0.743654 0.226494 0.420147
O O8 0.336237 0.113808 0.646467
O O9 0.590502 0.153594 0.843918
O O10 0.533553 0.011757 0.859171
O O11 0.474230 0.116064 0.003628
O O12 0.295552 0.182156 0.358422
O O13 0.274744 0.259325 0.581113
O O14 0.608151 0.610622 0.289170
O O15 0.883575 0.617591 0.466150
O O16 0.850546 0.133357 0.947433
#
# Coordination Sequence:
#
# PCOD8123817 Si02
#       8
#     4   4   4   4   4   4   4   4
#     4   9  18  35  60  88 120 149 193 251 302 359
#     4  10  20  36  63  89 119 153 199 252 301 359
#     4  11  25  42  61  83 124 170 206 251 297 353
#     4  11  23  39  65  94 121 157 195 249 307 359
#     4  11  23  40  64  94 124 153 197 249 304 364
#     4   9  20  33  60  94 117 150 193 252 309 355
#     4  11  25  43  58  86 124 167 210 247 298 358
#     4  10  18  38  61  88 118 154 197 250 303 355
#
# _framework density 20.60106
#
# number of rings (size 3 to 8) (size 9 to 14) (size 15 to 20)
#    0.000    1.750    2.500    1.500    8.750    0.500 
#    0.000    2.500    0.000    0.000    0.000    0.000 
#    0.000    0.000    0.000    0.000    0.000    0.000 
#
# Total GULP energy -396613.005494 kJ/mol
# GULP energy per Si atom -12394.156422 kJ/mol
# Density = 2.055417 g / cm^3
# Si number density = 20.601060 Si / 1000 Ang^3
#
#
#
# Elastic Constant Matrix: (Units=GPa)
#
#
# Indices 1 2 3 4 5 6 
#
# 1 112.7998 18.1046 26.4050 0.0000 -8.1043 0.0000
# 2 18.1046 34.2959 13.6774 0.0000 -3.6202 0.0000
# 3 26.4050 13.6774 92.2795 0.0000 -6.0791 0.0000
# 4 0.0000 0.0000 0.0000 18.8430 0.0000 -5.5072
# 5 -8.1043 -3.6202 -6.0791 0.0000 37.4105 0.0000
# 6 0.0000 0.0000 0.0000 -5.5072 0.0000 9.1637
#
#
#
# Elastic Compliance Matrix: (Units=1/GPa)
#
#
# Indices 1 2 3 4 5 6 
#
# 1 0.010175 -0.004354 -0.002172 0.000000 0.001430 0.000000
# 2 -0.004354 0.033046 -0.003541 0.000000 0.001679 0.000000
# 3 -0.002172 -0.003541 0.012059 0.000000 0.001146 0.000000
# 4 0.000000 0.000000 0.000000 0.064378 0.000000 0.038690
# 5 0.001430 0.001679 0.001146 0.000000 0.027389 0.000000
# 6 0.000000 0.000000 0.000000 0.038690 0.000000 0.132378
#
#
# Mechanical properties :
#
#
# Convention : Reuss Voigt Hill
#
# Bulk Modulus (GPa) = 28.45390 39.52769 33.99079
# Shear Modulus (GPa) = 16.06294 25.16265 20.61279
#
# Velocity S-wave (km/s) = 2.79537 3.49868 3.16661
# Velocity P-wave (km/s) = 4.92551 5.96237 5.46857
#
# Compressibility (1/GPa) = 0.03514457
#
# Stress axis : x y z
#
# Youngs Moduli (GPa) = 98.27704 30.26063 82.92870
#
# Poissons Ratio (x) = 0.13176 0.18012
# Poissons Ratio (y) = 0.42793 0.29369
# Poissons Ratio (z) = 0.21346 0.10717
#
# Static dielectric constant tensor:
#      x y z
#    x 4.017970 0.000000 0.015420 
#    y 0.000000 3.250520 0.000000 
#    z 0.015420 0.000000 3.733450 
# 
# 
# High freq. dielectric constant tensor:
#      x y z
#    x 1.826990 0.000000 -0.001740 
#    y 0.000000 1.753610 0.000000 
#    z -0.001740 0.000000 1.816020 
# 
# From -- ./inp_files/14344.got.cif
#   From: 2010.03.12/outbox.cif.g09.slc.cpg/sg14_8_cif.got.tgz:14344.got - 2010.03.31 13:35:05.
