data_PCOD8123759
_publ_section_title
;
Structure prediction by ZEFSAII (Michael W. Deem and Ramdas Pophale) SiO2 
 PCOD8123759
Probable space group: P 21/C
;
_chemical_formula_sum "Si O2"
_cell_formula_units_Z 28
_cell_length_a 29.801053
_cell_length_b 12.510946
_cell_length_c 23.373853
_cell_angle_alpha 90.000000
_cell_angle_beta 9.394942
_cell_angle_gamma 90.000000
_cell_volume 1422.576542
_symmetry_space_group_name_H-M "P 21/C"
_symmetry_group_IT_number 14
_symmetry_cell_setting 'monoclinic'
loop_
_space_group_symop_operation_xyz
x,y,z
-x,1/2+y,1/2-z
-x,-y,-z
x,1/2-y,1/2+z
loop_
_atom_site_type_symbol
_atom_site_label
_atom_site_fract_x
_atom_site_fract_y
_atom_site_fract_z
Si Si1 0.675937 0.225067 0.836326
Si Si2 0.548904 0.681152 0.770419
Si Si3 0.323939 0.557812 0.950222
Si Si4 0.254822 0.066383 0.333885
Si Si5 0.930059 0.529707 0.151363
Si Si6 0.047077 0.476323 0.679644
Si Si7 0.027329 0.352280 0.311350
O O1 0.904456 0.135149 0.540290
O O2 0.782446 0.321079 0.662557
O O3 0.649286 0.257208 0.936392
O O4 0.371441 0.185317 0.199718
O O5 0.346427 0.636845 0.975750
O O6 0.685685 0.581676 0.631926
O O7 0.790386 0.753178 0.440106
O O8 0.611392 0.551606 0.556369
O O9 0.229521 0.438186 0.088367
O O10 0.107713 0.598745 0.173363
O O11 0.164170 0.005487 0.504819
O O12 0.009256 0.066315 0.595973
O O13 0.500000 0.000000 0.000000
O O14 0.000000 0.500000 0.000000
O O15 0.124057 0.589242 0.551988
#
# Coordination Sequence:
#
# PCOD8123759 Si02
#       7
#     4   4   4   4   4   4   4
#     4  11  22  39  65  89 131 171 210 264 318 378
#     4  12  21  44  67  89 136 170 206 275 313 376
#     4  10  22  41  65  91 131 165 212 261 319 380
#     4  10  18  36  64  91 121 166 211 269 314 356
#     4  11  20  37  64  96 125 162 218 275 312 368
#     4  10  22  42  63  93 127 170 209 263 322 374
#     4  10  23  43  61  97 130 165 217 265 312 386
#
# _framework density 19.682597999999999
#
# number of rings (size 3 to 8) (size 9 to 14) (size 15 to 20)
#    0.857    0.571    4.286    3.429    0.000    1.143 
#    7.714    1.429    0.000    0.000    0.000    0.000 
#    0.000    0.000    0.000    0.000    0.000    0.000 
#
# Total GULP energy -346961.886051 kJ/mol
# GULP energy per Si atom -12391.495930 kJ/mol
# Density = 1.963780 g / cm^3
# Si number density = 19.682598 Si / 1000 Ang^3
#
#
#
# Elastic Constant Matrix: (Units=GPa)
#
#
# Indices 1 2 3 4 5 6 
#
# 1 124.8898 26.9743 21.6942 0.0000 3.4980 0.0000
# 2 26.9743 64.6582 11.3679 0.0000 0.7525 0.0000
# 3 21.6942 11.3679 49.6216 0.0000 8.5760 0.0000
# 4 0.0000 0.0000 0.0000 30.5080 0.0000 4.8424
# 5 3.4980 0.7525 8.5760 0.0000 34.2399 0.0000
# 6 0.0000 0.0000 0.0000 4.8424 0.0000 39.8760
#
#
#
# Elastic Compliance Matrix: (Units=1/GPa)
#
#
# Indices 1 2 3 4 5 6 
#
# 1 0.009294 -0.003296 -0.003299 0.000000 -0.000051 0.000000
# 2 -0.003296 0.017296 -0.002627 0.000000 0.000615 0.000000
# 3 -0.003299 -0.002627 0.023130 0.000000 -0.005398 0.000000
# 4 0.000000 0.000000 0.000000 0.033423 0.000000 -0.004059
# 5 -0.000051 0.000615 -0.005398 0.000000 0.030549 0.000000
# 6 0.000000 0.000000 0.000000 -0.004059 0.000000 0.025571
#
#
# Mechanical properties :
#
#
# Convention : Reuss Voigt Hill
#
# Bulk Modulus (GPa) = 31.97616 39.91582 35.94599
# Shear Modulus (GPa) = 29.73848 32.86700 31.30274
#
# Velocity S-wave (km/s) = 3.89125 4.09081 3.99228
# Velocity P-wave (km/s) = 6.03906 6.52969 6.28916
#
# Compressibility (1/GPa) = 0.03127329
#
# Stress axis : x y z
#
# Youngs Moduli (GPa) = 107.60156 57.81701 43.23425
#
# Poissons Ratio (x) = 0.19059 0.14264
# Poissons Ratio (y) = 0.35471 0.11359
# Poissons Ratio (z) = 0.35499 0.15191
#
# Static dielectric constant tensor:
#      x y z
#    x 1.019090 0.000000 1.035640 
#    y 0.000000 3.615680 0.000000 
#    z 1.035640 0.000000 3.070790 
# 
# 
# High freq. dielectric constant tensor:
#      x y z
#    x 1.779420 0.000000 0.009370 
#    y 0.000000 1.752230 0.000000 
#    z 0.009370 0.000000 1.755930 
# 
# From -- ./inp_files/75310.got.cif
#   From: 2010.03.12/outbox.cif.g09.slc.cpg/sg14_38_cif.got.tgz:75310.got - 2010.03.31 13:35:05.
