data_PCOD8123653
_publ_section_title
;
Structure prediction by ZEFSAII (Michael W. Deem and Ramdas Pophale) SiO2 
 PCOD8123653
Probable space group: P 21/C
;
_chemical_formula_sum "Si O2"
_cell_formula_units_Z 32
_cell_length_a 9.312355
_cell_length_b 17.172308
_cell_length_c 12.364452
_cell_angle_alpha 90.000000
_cell_angle_beta 52.058257
_cell_angle_gamma 90.000000
_cell_volume 1559.336515
_symmetry_space_group_name_H-M "P 21/C"
_symmetry_group_IT_number 14
_symmetry_cell_setting 'monoclinic'
loop_
_space_group_symop_operation_xyz
x,y,z
-x,1/2+y,1/2-z
-x,-y,-z
x,1/2-y,1/2+z
loop_
_atom_site_type_symbol
_atom_site_label
_atom_site_fract_x
_atom_site_fract_y
_atom_site_fract_z
Si Si1 0.372241 0.913083 0.745539
Si Si2 0.089580 0.151014 0.388283
Si Si3 0.556087 0.375768 0.439634
Si Si4 0.727685 0.992530 0.006594
Si Si5 0.713131 0.153249 0.648902
Si Si6 0.748552 0.517919 0.042206
Si Si7 0.936617 0.437705 0.766697
Si Si8 0.469984 0.218026 0.182761
O O1 0.557976 0.941175 0.603265
O O2 0.229443 0.894916 0.716992
O O3 0.406519 0.835180 0.797105
O O4 0.294356 0.980258 0.860176
O O5 0.136498 0.071500 0.429623
O O6 0.256307 0.212124 0.314243
O O7 0.909774 0.189874 0.524753
O O8 0.046997 0.126497 0.284505
O O9 0.384253 0.412996 0.457656
O O10 0.660026 0.441980 0.456087
O O11 0.688109 0.337585 0.289148
O O12 0.489049 0.307593 0.549690
O O13 0.937453 0.976566 0.882454
O O14 0.547701 0.195295 0.661370
O O15 0.709287 0.063096 0.619526
O O16 0.858675 0.505652 0.880490
#
# Coordination Sequence:
#
# PCOD8123653 Si02
#       8
#     4   4   4   4   4   4   4   4
#     4  10  21  36  56  88 124 150 198 259 303 349
#     4  10  21  40  63  87 119 163 209 242 303 375
#     4  10  19  37  61  83 116 160 198 248 301 368
#     4  10  18  34  60  88 114 153 206 247 303 361
#     4  11  21  37  62  91 116 157 207 254 296 365
#     4  10  20  37  62  88 118 157 205 253 300 366
#     4  11  19  32  59  90 118 151 194 256 306 346
#     4  10  23  41  57  86 121 161 198 243 308 367
#
# _framework density 20.521547999999999
#
# number of rings (size 3 to 8) (size 9 to 14) (size 15 to 20)
#    0.000    1.750    2.500    3.750    0.000    2.000 
#    2.250    2.500    0.000    1.500    0.000    0.000 
#    0.000    0.000    0.000    0.000    0.000    0.000 
#
# Total GULP energy -396838.257289 kJ/mol
# GULP energy per Si atom -12401.195540 kJ/mol
# Density = 2.047484 g / cm^3
# Si number density = 20.521548 Si / 1000 Ang^3
#
#
#
# Elastic Constant Matrix: (Units=GPa)
#
#
# Indices 1 2 3 4 5 6 
#
# 1 115.4035 23.6791 28.5643 0.0000 -4.7398 0.0000
# 2 23.6791 50.3072 20.0503 0.0000 -8.0825 0.0000
# 3 28.5643 20.0503 100.2862 0.0000 -18.3188 0.0000
# 4 0.0000 0.0000 0.0000 16.5803 0.0000 -7.2901
# 5 -4.7398 -8.0825 -18.3188 0.0000 32.5595 0.0000
# 6 0.0000 0.0000 0.0000 -7.2901 0.0000 24.8382
#
#
#
# Elastic Compliance Matrix: (Units=1/GPa)
#
#
# Indices 1 2 3 4 5 6 
#
# 1 0.009987 -0.003949 -0.002194 0.000000 -0.000761 0.000000
# 2 -0.003949 0.023477 -0.002908 0.000000 0.003617 0.000000
# 3 -0.002194 -0.002908 0.012246 0.000000 0.005849 0.000000
# 4 0.000000 0.000000 0.000000 0.069249 0.000000 0.020325
# 5 -0.000761 0.003617 0.005849 0.000000 0.034791 0.000000
# 6 0.000000 0.000000 0.000000 0.020325 0.000000 0.046226
#
#
# Mechanical properties :
#
#
# Convention : Reuss Voigt Hill
#
# Bulk Modulus (GPa) = 36.22166 45.62050 40.92108
# Shear Modulus (GPa) = 22.39330 27.70914 25.05122
#
# Velocity S-wave (km/s) = 3.30693 3.67856 3.49768
# Velocity P-wave (km/s) = 5.68066 6.34989 6.02458
#
# Compressibility (1/GPa) = 0.02760779
#
# Stress axis : x y z
#
# Youngs Moduli (GPa) = 100.12710 42.59545 81.65764
#
# Poissons Ratio (x) = 0.16819 0.17917
# Poissons Ratio (y) = 0.39537 0.23749
# Poissons Ratio (z) = 0.21970 0.12388
#
# Static dielectric constant tensor:
#      x y z
#    x 3.705460 0.000000 -0.159740 
#    y 0.000000 3.341310 0.000000 
#    z -0.159740 0.000000 3.993480 
# 
# 
# High freq. dielectric constant tensor:
#      x y z
#    x 1.802280 0.000000 -0.009100 
#    y 0.000000 1.766510 0.000000 
#    z -0.009100 0.000000 1.817230 
# 
# From -- ./inp_files/26645.got.cif
#   From: 2010.03.12/outbox.cif.g09.slc.cpg/sg14_14_cif.got.tgz:26645.got - 2010.03.31 13:35:05.
