data_PCOD8123184
_publ_section_title
;
Structure prediction by ZEFSAII (Michael W. Deem and Ramdas Pophale) SiO2 
 PCOD8123184
Probable space group: P 2/C
;
_chemical_formula_sum "Si O2"
_cell_formula_units_Z 28
_cell_length_a 15.679587
_cell_length_b 5.154404
_cell_length_c 17.680608
_cell_angle_alpha 90.000000
_cell_angle_beta 124.313252
_cell_angle_gamma 90.000000
_cell_volume 1180.248500
_symmetry_space_group_name_H-M "P 2/C"
_symmetry_group_IT_number 13
_symmetry_cell_setting 'monoclinic'
loop_
_space_group_symop_operation_xyz
x,y,z
-x,y,1/2-z
-x,-y,-z
x,-y,1/2+z
loop_
_atom_site_type_symbol
_atom_site_label
_atom_site_fract_x
_atom_site_fract_y
_atom_site_fract_z
Si Si1 0.461640 0.545285 0.896848
Si Si2 0.044578 0.638144 0.449448
Si Si3 0.090703 0.263906 0.346585
Si Si4 0.217804 0.550078 0.775122
Si Si5 0.855404 0.943089 0.342840
Si Si6 0.540603 0.040642 0.854565
Si Si7 0.217894 0.017085 0.035654
O O1 0.339862 0.542625 0.834562
O O2 0.511531 0.329575 0.866687
O O3 0.491182 0.832289 0.885347
O O4 0.500000 0.500000 0.000000
O O5 0.028168 0.471066 0.365888
O O6 0.000000 0.500000 0.500000
O O7 0.980280 0.910159 0.408250
O O8 0.166878 0.696690 0.523243
O O9 0.177128 0.401519 0.338793
O O10 0.155724 0.072715 0.430900
O O11 0.000000 0.128744 0.250000
O O12 0.185527 0.261099 0.737751
O O13 0.174216 0.765816 0.695303
O O14 0.805960 0.861586 0.399185
O O15 0.500000 0.996501 0.750000
O O16 0.661997 0.985640 0.919845
#
# Coordination Sequence:
#
# PCOD8123184 Si02
#       7
#     4   4   4   4   4   4   4
#     4  12  27  50  77 111 156 204 256 329 399 467
#     4  12  26  47  74 110 155 202 255 313 382 471
#     4  12  27  46  72 113 151 200 247 313 372 473
#     4  12  27  48  78 108 155 198 257 311 393 453
#     4  12  26  49  74 112 149 203 250 313 381 465
#     4  12  28  51  81 116 152 200 272 330 386 462
#     4  12  28  45  80 105 156 200 262 313 390 446
#
# _framework density 23.72382
#
# number of rings (size 3 to 8) (size 9 to 14) (size 15 to 20)
#    0.000    0.000    2.857    6.429    6.000    0.571 
#    0.000    0.000    0.000    0.000    0.000    0.000 
#    0.000    0.000    0.000    0.000    0.000    0.000 
#
# Total GULP energy -347166.835409 kJ/mol
# GULP energy per Si atom -12398.815550 kJ/mol
# Density = 2.366982 g / cm^3
# Si number density = 23.723820 Si / 1000 Ang^3
#
#
#
# Elastic Constant Matrix: (Units=GPa)
#
#
# Indices 1 2 3 4 5 6 
#
# 1 143.7893 13.3763 59.8827 0.0000 12.7002 0.0000
# 2 13.3763 69.7804 24.7220 0.0000 -0.3704 0.0000
# 3 59.8827 24.7220 131.0454 0.0000 -1.6317 0.0000
# 4 0.0000 0.0000 0.0000 5.9842 0.0000 -2.1337
# 5 12.7002 -0.3704 -1.6317 0.0000 56.5274 0.0000
# 6 0.0000 0.0000 0.0000 -2.1337 0.0000 21.8199
#
#
#
# Elastic Compliance Matrix: (Units=1/GPa)
#
#
# Indices 1 2 3 4 5 6 
#
# 1 0.008837 -0.000284 -0.004011 0.000000 -0.002103 0.000000
# 2 -0.000284 0.015366 -0.002768 0.000000 0.000085 0.000000
# 3 -0.004011 -0.002768 0.010000 0.000000 0.001172 0.000000
# 4 0.000000 0.000000 0.000000 0.173142 0.000000 0.016931
# 5 -0.002103 0.000085 0.001172 0.000000 0.018197 0.000000
# 6 0.000000 0.000000 0.000000 0.016931 0.000000 0.047485
#
#
# Mechanical properties :
#
#
# Convention : Reuss Voigt Hill
#
# Bulk Modulus (GPa) = 49.80584 60.06410 54.93497
# Shear Modulus (GPa) = 17.01563 33.30859 25.16211
#
# Velocity S-wave (km/s) = 2.68104 3.75108 3.26026
# Velocity P-wave (km/s) = 5.53385 6.64333 6.11381
#
# Compressibility (1/GPa) = 0.02007797
#
# Stress axis : x y z
#
# Youngs Moduli (GPa) = 113.15851 65.07773 99.99502
#
# Poissons Ratio (x) = 0.01850 0.40106
# Poissons Ratio (y) = 0.03216 0.27678
# Poissons Ratio (z) = 0.45386 0.18013
#
# Static dielectric constant tensor:
#      x y z
#    x 5.352270 0.000000 1.093500 
#    y 0.000000 4.244420 0.000000 
#    z 1.093500 0.000000 6.348800 
# 
# 
# High freq. dielectric constant tensor:
#      x y z
#    x 1.963090 0.000000 -0.005750 
#    y 0.000000 1.939150 0.000000 
#    z -0.005750 0.000000 1.959700 
# 
# From -- ./inp_files/67618.got.cif
#   From: 2010.06.25/outbox.cif.g09.slc.cpg/sg13_34_cif.got.tgz:67618.got - 2010.06.28 04:50:58.
