data_PCOD8123173
_publ_section_title
;
Structure prediction by ZEFSAII (Michael W. Deem and Ramdas Pophale) SiO2 
 PCOD8123173
Probable space group: P 2/C
;
_chemical_formula_sum "Si O2"
_cell_formula_units_Z 26
_cell_length_a 16.283230
_cell_length_b 6.574882
_cell_length_c 10.343862
_cell_angle_alpha 90.000000
_cell_angle_beta 88.117035
_cell_angle_gamma 90.000000
_cell_volume 1106.819160
_symmetry_space_group_name_H-M "P 2/C"
_symmetry_group_IT_number 13
_symmetry_cell_setting 'monoclinic'
loop_
_space_group_symop_operation_xyz
x,y,z
-x,y,1/2-z
-x,-y,-z
x,-y,1/2+z
loop_
_atom_site_type_symbol
_atom_site_label
_atom_site_fract_x
_atom_site_fract_y
_atom_site_fract_z
Si Si1 0.299476 0.898799 0.304903
Si Si2 0.595236 0.716061 0.749827
Si Si3 0.054275 0.669757 0.062722
Si Si4 0.343962 0.433699 0.984316
Si Si5 0.841265 0.186231 0.173548
Si Si6 0.000000 0.987578 0.250000
Si Si7 0.211990 0.546395 0.163345
O O1 0.347304 0.789134 0.419356
O O2 0.270559 0.729743 0.203923
O O3 0.358422 0.067813 0.239206
O O4 0.215081 0.996150 0.360045
O O5 0.500000 0.767855 0.750000
O O6 0.617769 0.599736 0.614819
O O7 0.612060 0.577375 0.876653
O O8 0.113484 0.586527 0.173396
O O9 0.996386 0.847188 0.121538
O O10 0.121887 0.748017 0.962358
O O11 0.000000 0.500000 0.000000
O O12 0.247920 0.488486 0.019545
O O13 0.780436 0.352334 0.241728
O O14 0.918093 0.124469 0.262300
#
# Coordination Sequence:
#
# PCOD8123173 Si02
#       7
#     4   4   4   4   4   2   4
#     4  12  26  48  77 113 149 206 258 317 390 469
#     4  12  29  52  83 119 160 203 254 321 394 477
#     4  12  26  43  70 102 148 197 256 321 387 451
#     4  12  27  50  81 116 160 203 259 317 391 468
#     4  12  26  45  69 105 144 200 255 317 385 459
#     4  12  26  44  66 102 148 200 256 318 388 454
#     4  12  25  49  74 108 153 203 256 323 384 457
#
# _framework density 23.490739000000001
#
# number of rings (size 3 to 8) (size 9 to 14) (size 15 to 20)
#    0.000    0.000    4.615    4.615    8.615    1.231 
#    0.000    0.000    0.000    0.000    0.000    0.000 
#    0.000    0.000    0.000    0.000    0.000    0.000 
#
# Total GULP energy -322333.245001 kJ/mol
# GULP energy per Si atom -12397.432500 kJ/mol
# Density = 2.343727 g / cm^3
# Si number density = 23.490739 Si / 1000 Ang^3
#
#
#
# Elastic Constant Matrix: (Units=GPa)
#
#
# Indices 1 2 3 4 5 6 
#
# 1 127.6793 54.9759 27.6168 0.0000 -1.3194 0.0000
# 2 54.9759 138.8979 48.3365 0.0000 -7.2167 0.0000
# 3 27.6168 48.3365 109.7078 0.0000 -7.9040 0.0000
# 4 0.0000 0.0000 0.0000 38.0219 0.0000 3.0533
# 5 -1.3194 -7.2167 -7.9040 0.0000 38.3161 0.0000
# 6 0.0000 0.0000 0.0000 3.0533 0.0000 35.4039
#
#
#
# Elastic Compliance Matrix: (Units=1/GPa)
#
#
# Indices 1 2 3 4 5 6 
#
# 1 0.009521 -0.003482 -0.000900 0.000000 -0.000514 0.000000
# 2 -0.003482 0.009804 -0.003369 0.000000 0.001032 0.000000
# 3 -0.000900 -0.003369 0.010940 0.000000 0.001591 0.000000
# 4 0.000000 0.000000 0.000000 0.026484 0.000000 -0.002284
# 5 -0.000514 0.001032 0.001591 0.000000 0.026604 0.000000
# 6 0.000000 0.000000 0.000000 -0.002284 0.000000 0.028442
#
#
# Mechanical properties :
#
#
# Convention : Reuss Voigt Hill
#
# Bulk Modulus (GPa) = 67.72969 70.90481 69.31725
# Shear Modulus (GPa) = 37.81689 38.70544 38.26116
#
# Velocity S-wave (km/s) = 4.01666 4.06358 4.04019
# Velocity P-wave (km/s) = 7.09976 7.22956 7.16495
#
# Compressibility (1/GPa) = 0.01476457
#
# Stress axis : x y z
#
# Youngs Moduli (GPa) = 105.03523 102.00404 91.40469
#
# Poissons Ratio (x) = 0.35517 0.08222
# Poissons Ratio (y) = 0.36572 0.30790
# Poissons Ratio (z) = 0.09448 0.34360
#
# Static dielectric constant tensor:
#      x y z
#    x 4.404360 0.000000 0.033660 
#    y 0.000000 4.433740 0.000000 
#    z 0.033660 0.000000 4.153320 
# 
# 
# High freq. dielectric constant tensor:
#      x y z
#    x 1.935360 0.000000 -0.002860 
#    y 0.000000 1.940040 0.000000 
#    z -0.002860 0.000000 1.930470 
# 
# From -- ./inp_files/38214.got.cif
#   From: 2010.06.25/outbox.cif.g09.slc.cpg/sg13_20_cif.got.tgz:38214.got - 2010.06.28 04:50:58.
