data_PCOD8123720
_publ_section_title
;
Structure prediction by ZEFSAII (Michael W. Deem and Ramdas Pophale) SiO2 
 PCOD8123720
Probable space group: P 21/C
;
_chemical_formula_sum "Si O2"
_cell_formula_units_Z 20
_cell_length_a 8.812793
_cell_length_b 7.396790
_cell_length_c 23.237892
_cell_angle_alpha 90.000000
_cell_angle_beta 31.083633
_cell_angle_gamma 90.000000
_cell_volume 782.071057
_symmetry_space_group_name_H-M "P 21/C"
_symmetry_group_IT_number 14
_symmetry_cell_setting 'monoclinic'
loop_
_space_group_symop_operation_xyz
x,y,z
-x,1/2+y,1/2-z
-x,-y,-z
x,1/2-y,1/2+z
loop_
_atom_site_type_symbol
_atom_site_label
_atom_site_fract_x
_atom_site_fract_y
_atom_site_fract_z
Si Si1 0.260199 0.881509 0.303359
Si Si2 0.610460 0.620699 0.030678
Si Si3 0.312479 0.494718 0.427632
Si Si4 0.699601 0.337833 0.456123
Si Si5 0.674771 0.983245 0.267368
O O1 0.433468 0.009097 0.202367
O O2 0.248353 0.676875 0.285070
O O3 0.932355 0.964603 0.414396
O O4 0.416487 0.887937 0.314747
O O5 0.661100 0.812163 0.044856
O O6 0.429317 0.651721 0.029317
O O7 0.424385 0.495976 0.134104
O O8 0.329999 0.667295 0.464767
O O9 0.000000 0.500000 0.500000
O O10 0.500000 0.500000 0.500000
O O11 0.034930 0.361685 0.327568
#
# Coordination Sequence:
#
# PCOD8123720 Si02
#       5
#     4   4   4   4   4
#     4  11  20  39  68 104 136 179 232 281 338 412
#     4  10  22  38  67  98 139 175 231 288 337 405
#     4  10  18  35  67  95 129 183 225 263 339 420
#     4  10  19  41  66  93 137 187 224 269 351 417
#     4  11  22  39  70 101 137 182 230 285 344 407
#
# _framework density 25.573122999999999
#
# number of rings (size 3 to 8) (size 9 to 14) (size 15 to 20)
#    0.000    1.600    6.000    0.600    0.000    0.000 
#    0.000   10.000    4.400   12.000    0.000    0.000 
#    0.000    0.000    0.000    0.000    0.000    0.000 
#
# Total GULP energy -248075.213858 kJ/mol
# GULP energy per Si atom -12403.760693 kJ/mol
# Density = 2.551492 g / cm^3
# Si number density = 25.573123 Si / 1000 Ang^3
#
#
#
# Elastic Constant Matrix: (Units=GPa)
#
#
# Indices 1 2 3 4 5 6 
#
# 1 186.8764 24.9463 88.8887 0.0000 -6.8596 0.0000
# 2 24.9463 64.9766 38.3236 0.0000 -1.8885 0.0000
# 3 88.8887 38.3236 205.6688 0.0000 -10.5000 0.0000
# 4 0.0000 0.0000 0.0000 25.0772 0.0000 -10.1015
# 5 -6.8596 -1.8885 -10.5000 0.0000 53.5085 0.0000
# 6 0.0000 0.0000 0.0000 -10.1015 0.0000 32.6343
#
#
#
# Elastic Compliance Matrix: (Units=1/GPa)
#
#
# Indices 1 2 3 4 5 6 
#
# 1 0.006796 -0.000985 -0.002738 0.000000 0.000299 0.000000
# 2 -0.000985 0.017433 -0.002826 0.000000 -0.000066 0.000000
# 3 -0.002738 -0.002826 0.006616 0.000000 0.000847 0.000000
# 4 0.000000 0.000000 0.000000 0.045557 0.000000 0.014102
# 5 0.000299 -0.000066 0.000847 0.000000 0.018891 0.000000
# 6 0.000000 0.000000 0.000000 0.014102 0.000000 0.035008
#
#
# Mechanical properties :
#
#
# Convention : Reuss Voigt Hill
#
# Bulk Modulus (GPa) = 56.35205 84.64877 70.50041
# Shear Modulus (GPa) = 33.48614 42.60155 38.04384
#
# Velocity S-wave (km/s) = 3.62253 4.08594 3.86119
# Velocity P-wave (km/s) = 6.29130 7.44529 6.89249
#
# Compressibility (1/GPa) = 0.01774558
#
# Stress axis : x y z
#
# Youngs Moduli (GPa) = 147.14156 57.36144 151.15958
#
# Poissons Ratio (x) = 0.05653 0.41393
# Poissons Ratio (y) = 0.14500 0.42716
# Poissons Ratio (z) = 0.40293 0.16210
#
# Static dielectric constant tensor:
#      x y z
#    x 5.368000 0.000000 0.104870 
#    y 0.000000 4.666270 0.000000 
#    z 0.104870 0.000000 4.512440 
# 
# 
# High freq. dielectric constant tensor:
#      x y z
#    x 2.039490 0.000000 0.002600 
#    y 0.000000 2.026480 0.000000 
#    z 0.002600 0.000000 2.029520 
# 
# From -- ./inp_files/23087.got.cif
#   From: 2010.03.12/outbox.cif.g09.slc.cpg/sg14_12_cif.got.tgz:23087.got - 2010.03.31 13:35:05.
