data_PCOD8123221
_publ_section_title
;
Structure prediction by ZEFSAII (Michael W. Deem and Ramdas Pophale) SiO2 
 PCOD8123221
Probable space group: P 2/C
;
_chemical_formula_sum "Si O2"
_cell_formula_units_Z 18
_cell_length_a 18.411516
_cell_length_b 10.135379
_cell_length_c 9.973142
_cell_angle_alpha 90.000000
_cell_angle_beta 144.347305
_cell_angle_gamma 90.000000
_cell_volume 1084.759960
_symmetry_space_group_name_H-M "P 2/C"
_symmetry_group_IT_number 13
_symmetry_cell_setting 'monoclinic'
loop_
_space_group_symop_operation_xyz
x,y,z
-x,y,1/2-z
-x,-y,-z
x,-y,1/2+z
loop_
_atom_site_type_symbol
_atom_site_label
_atom_site_fract_x
_atom_site_fract_y
_atom_site_fract_z
Si Si1 0.260476 0.891745 0.291810
Si Si2 0.739507 0.108296 0.010384
Si Si3 0.854967 0.617203 0.378509
Si Si4 0.145053 0.617167 0.813677
Si Si5 0.500000 0.999997 0.250000
O O1 0.221668 0.746204 0.279923
O O2 0.197028 0.000041 0.295506
O O3 0.411249 0.906301 0.525846
O O4 0.213696 0.918037 0.070520
O O5 0.778280 0.253862 0.114822
O O6 0.588737 0.093706 0.792075
O O7 0.827536 0.577707 0.491275
O O8 0.809096 0.500036 0.213603
O O9 0.000014 0.647656 0.573965
#
# Coordination Sequence:
#
# PCOD8123221 Si02
#       5
#     4   4   4   4   2
#     4   9  18  31  50  71  95 125 158 195 235 277
#     4   9  18  31  50  71  95 125 158 195 235 277
#     4   9  18  33  50  71  98 125 155 194 236 281
#     4   9  18  33  50  71  98 125 155 194 236 281
#     4   8  18  32  50  68  98 124 156 198 234 276
#
# _framework density 16.593533999999998
#
# number of rings (size 3 to 8) (size 9 to 14) (size 15 to 20)
#    1.333    1.778    0.000    0.667    0.000    2.667 
#    0.000    1.111    0.000    5.333    0.000    0.000 
#    0.000    0.000    0.000    0.000    0.000    0.000 
#
# Total GULP energy -223046.960558 kJ/mol
# GULP energy per Si atom -12391.497809 kJ/mol
# Density = 1.655577 g / cm^3
# Si number density = 16.593534 Si / 1000 Ang^3
#
#
#
# Elastic Constant Matrix: (Units=GPa)
#
#
# Indices 1 2 3 4 5 6 
#
# 1 59.2229 73.5608 38.8373 0.0000 -11.8610 0.0000
# 2 73.5608 169.0069 73.7747 0.0000 -16.0739 0.0000
# 3 38.8373 73.7747 59.6184 0.0000 -12.1658 0.0000
# 4 0.0000 0.0000 0.0000 30.6729 0.0000 -6.6916
# 5 -11.8610 -16.0739 -12.1658 0.0000 25.3445 0.0000
# 6 0.0000 0.0000 0.0000 -6.6916 0.0000 30.5459
#
#
#
# Elastic Compliance Matrix: (Units=1/GPa)
#
#
# Indices 1 2 3 4 5 6 
#
# 1 0.040021 -0.013050 -0.008635 0.000000 0.006308 0.000000
# 2 -0.013050 0.017130 -0.012999 0.000000 -0.001483 0.000000
# 3 -0.008635 -0.012999 0.039884 0.000000 0.006860 0.000000
# 4 0.000000 0.000000 0.000000 0.034238 0.000000 0.007500
# 5 0.006308 -0.001483 0.006860 0.000000 0.044761 0.000000
# 6 0.000000 0.000000 0.000000 0.007500 0.000000 0.034381
#
#
# Mechanical properties :
#
#
# Convention : Reuss Voigt Hill
#
# Bulk Modulus (GPa) = 36.14442 73.35487 54.74965
# Shear Modulus (GPa) = 17.30068 24.09102 20.69585
#
# Velocity S-wave (km/s) = 3.23246 3.81443 3.53544
# Velocity P-wave (km/s) = 5.98007 7.98139 7.05209
#
# Compressibility (1/GPa) = 0.02766679
#
# Stress axis : x y z
#
# Youngs Moduli (GPa) = 24.98714 58.37580 25.07244
#
# Poissons Ratio (x) = 0.76179 0.21650
# Poissons Ratio (y) = 0.32608 0.32593
# Poissons Ratio (z) = 0.21576 0.75886
#
# Static dielectric constant tensor:
#      x y z
#    x 2.985620 0.000000 -0.104090 
#    y 0.000000 3.031380 0.000000 
#    z -0.104090 0.000000 2.987610 
# 
# 
# High freq. dielectric constant tensor:
#      x y z
#    x 1.629090 0.000000 -0.013330 
#    y 0.000000 1.632900 0.000000 
#    z -0.013330 0.000000 1.629340 
# 
# From -- ./inp_files/20995.got.cif
#   From: 2010.06.25/outbox.cif.g09.slc.cpg/sg13_11_cif.got.tgz:20995.got - 2010.06.28 04:50:58.
