data_PCOD8123288
_publ_section_title
;
Structure prediction by ZEFSAII (Michael W. Deem and Ramdas Pophale) SiO2 
 PCOD8123288
Probable space group: P 21/C
;
_chemical_formula_sum "Si O2"
_cell_formula_units_Z 24
_cell_length_a 22.502802
_cell_length_b 9.185351
_cell_length_c 17.223039
_cell_angle_alpha 90.000000
_cell_angle_beta 161.043509
_cell_angle_gamma 90.000000
_cell_volume 1156.445281
_symmetry_space_group_name_H-M "P 21/C"
_symmetry_group_IT_number 14
_symmetry_cell_setting 'monoclinic'
loop_
_space_group_symop_operation_xyz
x,y,z
-x,1/2+y,1/2-z
-x,-y,-z
x,1/2-y,1/2+z
loop_
_atom_site_type_symbol
_atom_site_label
_atom_site_fract_x
_atom_site_fract_y
_atom_site_fract_z
Si Si1 0.533405 0.169271 0.533410
Si Si2 0.324647 0.419344 0.324649
Si Si3 0.068767 0.062090 0.378286
Si Si4 0.550271 0.562091 0.359789
Si Si5 0.777465 0.230597 0.468285
Si Si6 0.604157 0.769406 0.294971
O O1 0.360392 0.246753 0.360395
O O2 0.716928 0.219698 0.806383
O O3 0.538022 0.219698 0.448571
O O4 0.500000 0.000000 0.500000
O O5 0.500000 0.500000 0.500000
O O6 0.305831 0.457321 0.391863
O O7 0.133774 0.457318 0.047743
O O8 0.207092 0.173028 0.506800
O O9 0.073548 0.899873 0.349055
O O10 0.866762 0.130123 0.121960
O O11 0.392332 0.673037 0.192035
O O12 0.643636 0.630127 0.398830
O O13 0.477458 0.399875 0.252960
#
# Coordination Sequence:
#
# PCOD8123288 Si02
#       6
#     4   4   4   4   4   4
#     4  10  20  34  57  82 107 145 197 225 263 335
#     4  10  16  38  57  74 107 153 181 225 268 330
#     4  10  20  36  57  83 112 144 188 227 279 327
#     4  10  20  36  57  83 112 144 188 227 279 327
#     4  10  21  36  56  84 112 145 185 233 273 331
#     4  10  21  36  56  84 112 145 185 233 273 331
#
# _framework density 20.753250999999999
#
# number of rings (size 3 to 8) (size 9 to 14) (size 15 to 20)
#    0.000    2.000    6.667    0.000    9.333    0.000 
#    0.000    1.667    0.000    8.000    0.000    0.000 
#    0.000    0.000    0.000    0.000    0.000    0.000 
#
# Total GULP energy -297352.353851 kJ/mol
# GULP energy per Si atom -12389.681410 kJ/mol
# Density = 2.070602 g / cm^3
# Si number density = 20.753251 Si / 1000 Ang^3
#
#
#
# Elastic Constant Matrix: (Units=GPa)
#
#
# Indices 1 2 3 4 5 6 
#
# 1 53.2238 15.3201 18.8527 0.0000 -25.3047 0.0000
# 2 15.3201 109.8784 16.5600 0.0000 -3.3537 0.0000
# 3 18.8527 16.5600 72.7220 0.0000 -28.1037 0.0000
# 4 0.0000 0.0000 0.0000 27.6129 0.0000 9.1785
# 5 -25.3047 -3.3537 -28.1037 0.0000 29.4807 0.0000
# 6 0.0000 0.0000 0.0000 9.1785 0.0000 30.9731
#
#
#
# Elastic Compliance Matrix: (Units=1/GPa)
#
#
# Indices 1 2 3 4 5 6 
#
# 1 0.034424 -0.004555 0.005275 0.000000 0.034058 0.000000
# 2 -0.004555 0.010072 -0.003453 0.000000 -0.006056 0.000000
# 3 0.005275 -0.003453 0.023382 0.000000 0.026424 0.000000
# 4 0.000000 0.000000 0.000000 0.040172 0.000000 -0.011905
# 5 0.034058 -0.006056 0.026424 0.000000 0.087655 0.000000
# 6 0.000000 0.000000 0.000000 -0.011905 0.000000 0.035814
#
#
# Mechanical properties :
#
#
# Convention : Reuss Voigt Hill
#
# Bulk Modulus (GPa) = 16.02285 37.47666 26.74975
# Shear Modulus (GPa) = 19.39583 29.95278 24.67431
#
# Velocity S-wave (km/s) = 3.06043 3.80318 3.45184
# Velocity P-wave (km/s) = 4.49730 6.11416 5.36697
#
# Compressibility (1/GPa) = 0.06241089
#
# Stress axis : x y z
#
# Youngs Moduli (GPa) = 29.04973 99.28887 42.76882
#
# Poissons Ratio (x) = 0.45227 -0.22560
# Poissons Ratio (y) = 0.13232 0.14767
# Poissons Ratio (z) = -0.15323 0.34283
#
# Static dielectric constant tensor:
#      x y z
#    x 3.465790 0.000000 -0.441720 
#    y 0.000000 3.985100 0.000000 
#    z -0.441720 0.000000 3.626580 
# 
# 
# High freq. dielectric constant tensor:
#      x y z
#    x 1.775290 0.000000 -0.035300 
#    y 0.000000 1.836860 0.000000 
#    z -0.035300 0.000000 1.788150 
# 
# From -- ./inp_files/55322.got.cif
#   From: 2010.03.12/outbox.cif.g09.slc.cpg/sg14_28_cif.got.tgz:55322.got - 2010.03.31 13:35:05.
