data_PCOD8123777
_publ_section_title
;
Structure prediction by ZEFSAII (Michael W. Deem and Ramdas Pophale) SiO2 
 PCOD8123777
Probable space group: P 21/C
;
_chemical_formula_sum "Si O2"
_cell_formula_units_Z 24
_cell_length_a 11.353504
_cell_length_b 15.535092
_cell_length_c 9.569438
_cell_angle_alpha 90.000000
_cell_angle_beta 129.887670
_cell_angle_gamma 90.000000
_cell_volume 1295.081722
_symmetry_space_group_name_H-M "P 21/C"
_symmetry_group_IT_number 14
_symmetry_cell_setting 'monoclinic'
loop_
_space_group_symop_operation_xyz
x,y,z
-x,1/2+y,1/2-z
-x,-y,-z
x,1/2-y,1/2+z
loop_
_atom_site_type_symbol
_atom_site_label
_atom_site_fract_x
_atom_site_fract_y
_atom_site_fract_z
Si Si1 0.113277 0.173134 0.022364
Si Si2 0.668627 0.981289 0.796590
Si Si3 0.959883 0.408114 0.174948
Si Si4 0.069895 0.581368 0.376618
Si Si5 0.107685 0.132214 0.506063
Si Si6 0.324221 0.998485 0.529213
O O1 0.261587 0.112357 0.112216
O O2 0.162874 0.271421 0.083929
O O3 0.011881 0.140931 0.072923
O O4 0.008808 0.174630 0.801852
O O5 0.672947 0.993205 0.634820
O O6 0.494167 0.984623 0.719054
O O7 0.756209 0.059847 0.943388
O O8 0.986130 0.489154 0.299856
O O9 0.061761 0.415804 0.113785
O O10 0.777568 0.414307 0.003804
O O11 0.045352 0.629631 0.209162
O O12 0.250077 0.083987 0.541745
#
# Coordination Sequence:
#
# PCOD8123777 Si02
#       6
#     4   4   4   4   4   4
#     4  11  19  36  56  85 109 152 192 233 276 328
#     4  10  19  35  63  77 109 150 193 217 270 351
#     4  10  19  35  57  80 109 147 189 231 270 334
#     4  10  18  37  57  79 105 148 194 218 266 348
#     4  11  22  33  56  87 119 136 188 250 282 304
#     4  10  19  36  58  84 106 152 187 225 272 343
#
# _framework density 18.531649000000002
#
# number of rings (size 3 to 8) (size 9 to 14) (size 15 to 20)
#    0.000    1.667    5.000    4.000    0.000    0.000 
#    0.000   10.833    0.000    0.000    0.000    0.000 
#    0.000    0.000    0.000    0.000    0.000    0.000 
#
# Total GULP energy -297350.524543 kJ/mol
# GULP energy per Si atom -12389.605189 kJ/mol
# Density = 1.848947 g / cm^3
# Si number density = 18.531649 Si / 1000 Ang^3
#
#
#
# Elastic Constant Matrix: (Units=GPa)
#
#
# Indices 1 2 3 4 5 6 
#
# 1 99.4852 36.0950 49.6043 0.0000 15.3353 0.0000
# 2 36.0950 78.7664 25.0559 0.0000 14.9452 0.0000
# 3 49.6043 25.0559 78.5163 0.0000 14.4070 0.0000
# 4 0.0000 0.0000 0.0000 20.6500 0.0000 -3.6440
# 5 15.3353 14.9452 14.4070 0.0000 38.5488 0.0000
# 6 0.0000 0.0000 0.0000 -3.6440 0.0000 20.5483
#
#
#
# Elastic Compliance Matrix: (Units=1/GPa)
#
#
# Indices 1 2 3 4 5 6 
#
# 1 0.016121 -0.004392 -0.008502 0.000000 -0.001533 0.000000
# 2 -0.004392 0.015948 -0.001611 0.000000 -0.003834 0.000000
# 3 -0.008502 -0.001611 0.019203 0.000000 -0.003170 0.000000
# 4 0.000000 0.000000 0.000000 0.049991 0.000000 0.008865
# 5 -0.001533 -0.003834 -0.003170 0.000000 0.029222 0.000000
# 6 0.000000 0.000000 0.000000 0.008865 0.000000 0.050238
#
#
# Mechanical properties :
#
#
# Convention : Reuss Voigt Hill
#
# Bulk Modulus (GPa) = 44.91894 53.14204 49.03049
# Shear Modulus (GPa) = 23.02522 25.68361 24.35441
#
# Velocity S-wave (km/s) = 3.52871 3.72685 3.62913
# Velocity P-wave (km/s) = 6.39484 6.87443 6.63897
#
# Compressibility (1/GPa) = 0.02226233
#
# Stress axis : x y z
#
# Youngs Moduli (GPa) = 62.03247 62.70230 52.07473
#
# Poissons Ratio (x) = 0.27539 0.44272
# Poissons Ratio (y) = 0.27245 0.08390
# Poissons Ratio (z) = 0.52738 0.10102
#
# Static dielectric constant tensor:
#      x y z
#    x 3.386250 0.000000 0.144100 
#    y 0.000000 3.318140 0.000000 
#    z 0.144100 0.000000 3.810210 
# 
# 
# High freq. dielectric constant tensor:
#      x y z
#    x 1.703580 0.000000 -0.013720 
#    y 0.000000 1.701230 0.000000 
#    z -0.013720 0.000000 1.725120 
# 
# From -- ./inp_files/13796.got.cif
#   From: 2010.03.12/outbox.cif.g09.slc.cpg/sg14_7_cif.got.tgz:13796.got - 2010.03.31 13:35:05.
