data_PCOD8123634
_publ_section_title
;
Structure prediction by ZEFSAII (Michael W. Deem and Ramdas Pophale) SiO2 
 PCOD8123634
Probable space group: P 21/C
;
_chemical_formula_sum "Si O2"
_cell_formula_units_Z 32
_cell_length_a 9.111425
_cell_length_b 14.610413
_cell_length_c 26.214277
_cell_angle_alpha 90.000000
_cell_angle_beta 29.327134
_cell_angle_gamma 90.000000
_cell_volume 1709.233413
_symmetry_space_group_name_H-M "P 21/C"
_symmetry_group_IT_number 14
_symmetry_cell_setting 'monoclinic'
loop_
_space_group_symop_operation_xyz
x,y,z
-x,1/2+y,1/2-z
-x,-y,-z
x,1/2-y,1/2+z
loop_
_atom_site_type_symbol
_atom_site_label
_atom_site_fract_x
_atom_site_fract_y
_atom_site_fract_z
Si Si1 0.695407 0.912537 0.325657
Si Si2 0.795527 0.369665 0.193470
Si Si3 0.325703 0.226503 0.582534
Si Si4 0.094765 0.506854 0.029752
Si Si5 0.782771 0.511166 0.284442
Si Si6 0.415175 0.576208 0.484085
Si Si7 0.053099 0.850826 0.626663
Si Si8 0.222115 0.157667 0.806155
O O1 0.695337 0.814234 0.354004
O O2 0.453431 0.982776 0.422181
O O3 0.631169 0.894940 0.285929
O O4 0.012420 0.961664 0.235587
O O5 0.696121 0.440251 0.267001
O O6 0.479823 0.330804 0.270107
O O7 0.008904 0.289437 0.150114
O O8 0.989512 0.415915 0.089999
O O9 0.387240 0.334185 0.563592
O O10 0.594155 0.170796 0.473791
O O11 0.971450 0.594788 0.098916
O O12 0.000000 0.500000 0.000000
O O13 0.490336 0.543008 0.403977
O O14 0.957207 0.595304 0.206149
O O15 0.500000 0.500000 0.500000
O O16 0.063400 0.599530 0.588389
O O17 0.869396 0.758188 0.682001
#
# Coordination Sequence:
#
# PCOD8123634 Si02
#       8
#     4   4   4   4   4   4   4   4
#     4  10  18  34  63  84 111 153 188 240 285 339
#     4  10  21  38  59  89 116 144 191 250 290 340
#     4   9  20  38  60  84 113 147 196 233 286 348
#     4  10  18  34  58  87 113 139 186 243 296 332
#     4  10  20  38  60  82 112 154 196 232 284 343
#     4  11  22  39  59  83 117 162 199 228 278 355
#     4   9  20  36  59  82 113 153 186 232 295 350
#     4  11  21  37  57  84 123 151 193 237 290 339
#
# _framework density 18.721841999999999
#
# number of rings (size 3 to 8) (size 9 to 14) (size 15 to 20)
#    0.000    2.000    2.500    1.500    0.000    3.500 
#    6.750    1.250    0.000    0.000    0.000    0.000 
#    0.000    0.000    0.000    0.000    0.000    0.000 
#
# Total GULP energy -396670.178689 kJ/mol
# GULP energy per Si atom -12395.943084 kJ/mol
# Density = 1.867923 g / cm^3
# Si number density = 18.721842 Si / 1000 Ang^3
#
#
#
# Elastic Constant Matrix: (Units=GPa)
#
#
# Indices 1 2 3 4 5 6 
#
# 1 103.0174 27.3345 44.5438 0.0000 -9.2240 0.0000
# 2 27.3345 83.0607 40.0405 0.0000 -5.0731 0.0000
# 3 44.5438 40.0405 106.4465 0.0000 2.5921 0.0000
# 4 0.0000 0.0000 0.0000 25.5089 0.0000 -0.1283
# 5 -9.2240 -5.0731 2.5921 0.0000 38.2200 0.0000
# 6 0.0000 0.0000 0.0000 -0.1283 0.0000 17.3791
#
#
#
# Elastic Compliance Matrix: (Units=1/GPa)
#
#
# Indices 1 2 3 4 5 6 
#
# 1 0.012438 -0.001660 -0.004656 0.000000 0.003097 0.000000
# 2 -0.001660 0.015138 -0.005047 0.000000 0.001951 0.000000
# 3 -0.004656 -0.005047 0.013307 0.000000 -0.002696 0.000000
# 4 0.000000 0.000000 0.000000 0.039203 0.000000 0.000289
# 5 0.003097 0.001951 -0.002696 0.000000 0.027354 0.000000
# 6 0.000000 0.000000 0.000000 0.000289 0.000000 0.057542
#
#
# Mechanical properties :
#
#
# Convention : Reuss Voigt Hill
#
# Bulk Modulus (GPa) = 55.07469 57.37356 56.22413
# Shear Modulus (GPa) = 25.80511 28.26200 27.03356
#
# Velocity S-wave (km/s) = 3.71663 3.88954 3.80407
# Velocity P-wave (km/s) = 6.92091 7.13324 7.02788
#
# Compressibility (1/GPa) = 0.01815716
#
# Stress axis : x y z
#
# Youngs Moduli (GPa) = 80.39901 66.05995 75.14888
#
# Poissons Ratio (x) = 0.10963 0.34989
# Poissons Ratio (y) = 0.13343 0.37929
# Poissons Ratio (z) = 0.37434 0.33342
#
# Static dielectric constant tensor:
#      x y z
#    x 3.316690 0.000000 0.065490 
#    y 0.000000 3.395600 0.000000 
#    z 0.065490 0.000000 3.541500 
# 
# 
# High freq. dielectric constant tensor:
#      x y z
#    x 1.715590 0.000000 0.007420 
#    y 0.000000 1.722820 0.000000 
#    z 0.007420 0.000000 1.736880 
# 
# From -- ./inp_files/72468.got.cif
#   From: 2010.03.12/outbox.cif.g09.slc.cpg/sg14_37_cif.got.tgz:72468.got - 2010.03.31 13:35:05.
