data_PCOD8123806
_publ_section_title
;
Structure prediction by ZEFSAII (Michael W. Deem and Ramdas Pophale) SiO2 
 PCOD8123806
Probable space group: P 21/C
;
_chemical_formula_sum "Si O2"
_cell_formula_units_Z 28
_cell_length_a 15.659934
_cell_length_b 8.984632
_cell_length_c 17.052948
_cell_angle_alpha 90.000000
_cell_angle_beta 32.961990
_cell_angle_gamma 90.000000
_cell_volume 1305.432676
_symmetry_space_group_name_H-M "P 21/C"
_symmetry_group_IT_number 14
_symmetry_cell_setting 'monoclinic'
loop_
_space_group_symop_operation_xyz
x,y,z
-x,1/2+y,1/2-z
-x,-y,-z
x,1/2-y,1/2+z
loop_
_atom_site_type_symbol
_atom_site_label
_atom_site_fract_x
_atom_site_fract_y
_atom_site_fract_z
Si Si1 0.873564 0.918773 0.293156
Si Si2 0.316241 0.005302 0.157629
Si Si3 0.823114 0.693676 0.671921
Si Si4 0.368409 0.195057 0.828490
Si Si5 0.882758 0.130040 0.567779
Si Si6 0.163012 0.405130 0.623613
Si Si7 0.317556 0.976196 0.415722
O O1 0.807707 0.925203 0.254693
O O2 0.909432 0.747611 0.287280
O O3 0.745561 0.988591 0.449412
O O4 0.033696 0.009434 0.173521
O O5 0.275368 0.159755 0.230613
O O6 0.222221 0.990489 0.148641
O O7 0.259172 0.869617 0.258727
O O8 0.500000 0.000000 0.000000
O O9 0.745514 0.632674 0.652198
O O10 0.010501 0.721581 0.513546
O O11 0.370580 0.374493 0.829624
O O12 0.542603 0.138650 0.679522
O O13 0.310739 0.129265 0.954977
O O14 0.817284 0.104383 0.530906
O O15 0.000000 0.000000 0.500000
#
# Coordination Sequence:
#
# PCOD8123806 Si02
#       7
#     4   4   4   4   4   4   4
#     4  10  22  42  61  90 123 162 213 260 309 374
#     4  10  19  36  62  92 121 158 215 257 294 369
#     4  10  22  40  62  89 128 166 206 261 317 378
#     4  11  24  40  62  90 130 165 207 260 319 381
#     4  10  18  37  68  88 115 169 216 249 303 377
#     4  10  23  38  64  91 122 158 208 261 307 374
#     4  11  22  40  65  91 126 167 209 263 318 373
#
# _framework density 21.448827000000001
#
# number of rings (size 3 to 8) (size 9 to 14) (size 15 to 20)
#    0.000    1.714    2.857    3.429    2.000    3.429 
#    0.000    0.000    0.000    0.000    0.000    0.000 
#    0.000    0.000    0.000    0.000    0.000    0.000 
#
# Total GULP energy -347215.217979 kJ/mol
# GULP energy per Si atom -12400.543499 kJ/mol
# Density = 2.140001 g / cm^3
# Si number density = 21.448827 Si / 1000 Ang^3
#
#
#
# Elastic Constant Matrix: (Units=GPa)
#
#
# Indices 1 2 3 4 5 6 
#
# 1 110.1726 21.2580 28.5627 0.0000 4.4062 0.0000
# 2 21.2580 24.1164 14.3774 0.0000 -10.6532 0.0000
# 3 28.5627 14.3774 110.3686 0.0000 -11.9862 0.0000
# 4 0.0000 0.0000 0.0000 28.7070 0.0000 -9.4538
# 5 4.4062 -10.6532 -11.9862 0.0000 40.0145 0.0000
# 6 0.0000 0.0000 0.0000 -9.4538 0.0000 27.9148
#
#
#
# Elastic Compliance Matrix: (Units=1/GPa)
#
#
# Indices 1 2 3 4 5 6 
#
# 1 0.012077 -0.011592 -0.002166 0.000000 -0.005065 0.000000
# 2 -0.011592 0.060857 -0.003131 0.000000 0.016541 0.000000
# 3 -0.002166 -0.003131 0.010299 0.000000 0.002490 0.000000
# 4 0.000000 0.000000 0.000000 0.039208 0.000000 0.013278
# 5 -0.005065 0.016541 0.002490 0.000000 0.030698 0.000000
# 6 0.000000 0.000000 0.000000 0.013278 0.000000 0.040320
#
#
# Mechanical properties :
#
#
# Convention : Reuss Voigt Hill
#
# Bulk Modulus (GPa) = 20.22010 41.45044 30.83527
# Shear Modulus (GPa) = 20.51506 31.35790 25.93648
#
# Velocity S-wave (km/s) = 3.09603 3.82774 3.48117
# Velocity P-wave (km/s) = 4.71467 6.23720 5.52860
#
# Compressibility (1/GPa) = 0.04945575
#
# Stress axis : x y z
#
# Youngs Moduli (GPa) = 82.79931 16.43186 97.09403
#
# Poissons Ratio (x) = 0.19048 0.21026
# Poissons Ratio (y) = 0.95983 0.30404
# Poissons Ratio (z) = 0.17930 0.05145
#
# Static dielectric constant tensor:
#      x y z
#    x 3.989060 0.000000 0.229260 
#    y 0.000000 3.728930 0.000000 
#    z 0.229260 0.000000 4.193280 
# 
# 
# High freq. dielectric constant tensor:
#      x y z
#    x 1.850670 0.000000 0.010780 
#    y 0.000000 1.806000 0.000000 
#    z 0.010780 0.000000 1.851890 
# 
# From -- ./inp_files/60301.got.cif
#   From: 2010.03.12/outbox.cif.g09.slc.cpg/sg14_31_cif.got.tgz:60301.got - 2010.03.31 13:35:05.
