data_PCOD8123315
_publ_section_title
;
Structure prediction by ZEFSAII (Michael W. Deem and Ramdas Pophale) SiO2 
 PCOD8123315
Probable space group: P 21/C
;
_chemical_formula_sum "Si O2"
_cell_formula_units_Z 24
_cell_length_a 13.244747
_cell_length_b 5.334430
_cell_length_c 16.715910
_cell_angle_alpha 90.000000
_cell_angle_beta 110.874120
_cell_angle_gamma 90.000000
_cell_volume 1103.515691
_symmetry_space_group_name_H-M "P 21/C"
_symmetry_group_IT_number 14
_symmetry_cell_setting 'monoclinic'
loop_
_space_group_symop_operation_xyz
x,y,z
-x,1/2+y,1/2-z
-x,-y,-z
x,1/2-y,1/2+z
loop_
_atom_site_type_symbol
_atom_site_label
_atom_site_fract_x
_atom_site_fract_y
_atom_site_fract_z
Si Si1 0.305283 0.249457 0.829415
Si Si2 0.942709 0.736292 0.763597
Si Si3 0.369255 0.250740 0.529659
Si Si4 0.019562 0.750016 0.955566
Si Si5 0.382963 0.749474 0.854123
Si Si6 0.732416 0.249231 0.508879
O O1 0.177437 0.250953 0.805220
O O2 0.348374 0.498586 0.795430
O O3 0.347943 0.999995 0.795254
O O4 0.365019 0.248942 0.932342
O O5 0.991863 0.469907 0.752872
O O6 0.937261 0.752151 0.857997
O O7 0.492084 0.250185 0.591040
O O8 0.311068 0.500162 0.547860
O O9 0.310758 0.001679 0.547762
O O10 0.139145 0.749712 0.953680
O O11 0.000000 0.500000 0.000000
O O12 0.000000 0.000000 0.000000
O O13 0.308283 0.748828 0.911909
#
# Coordination Sequence:
#
# PCOD8123315 Si02
#       6
#     4   4   4   4   4   4
#     4  10  18  29  48  79 115 145 179 238 305 353
#     4  12  23  40  64  91 121 161 212 269 311 353
#     4  10  17  30  53  88 117 144 188 256 312 352
#     4  12  26  43  61  89 128 173 212 247 304 381
#     4  10  18  30  52  88 119 144 187 255 313 354
#     4  10  18  32  52  77 112 151 194 241 291 353
#
# _framework density 21.748673
#
# number of rings (size 3 to 8) (size 9 to 14) (size 15 to 20)
#    0.000    1.333    0.000   12.000    0.000    0.000 
#    0.000    0.000    0.000    0.000    0.000   39.667 
#    0.000    0.000    0.000    0.000    0.000    0.000 
#
# Total GULP energy -297497.998120 kJ/mol
# GULP energy per Si atom -12395.749922 kJ/mol
# Density = 2.169917 g / cm^3
# Si number density = 21.748673 Si / 1000 Ang^3
#
#
#
# Elastic Constant Matrix: (Units=GPa)
#
#
# Indices 1 2 3 4 5 6 
#
# 1 73.1870 30.0223 7.9288 0.0000 28.4461 0.0000
# 2 30.0223 233.0911 19.7233 0.0000 13.1785 0.0000
# 3 7.9288 19.7233 43.5863 0.0000 2.2593 0.0000
# 4 0.0000 0.0000 0.0000 20.7444 0.0000 7.7884
# 5 28.4461 13.1785 2.2593 0.0000 31.4584 0.0000
# 6 0.0000 0.0000 0.0000 7.7884 0.0000 46.4603
#
#
#
# Elastic Compliance Matrix: (Units=1/GPa)
#
#
# Indices 1 2 3 4 5 6 
#
# 1 0.021947 -0.001556 -0.002302 0.000000 -0.019028 0.000000
# 2 -0.001556 0.004667 -0.001807 0.000000 -0.000418 0.000000
# 3 -0.002302 -0.001807 0.024122 0.000000 0.001106 0.000000
# 4 0.000000 0.000000 0.000000 0.051444 0.000000 -0.008624
# 5 -0.019028 -0.000418 0.001106 0.000000 0.049090 0.000000
# 6 0.000000 0.000000 0.000000 -0.008624 0.000000 0.022969
#
#
# Mechanical properties :
#
#
# Convention : Reuss Voigt Hill
#
# Bulk Modulus (GPa) = 25.37680 51.69036 38.53358
# Shear Modulus (GPa) = 25.16285 39.21195 32.18740
#
# Velocity S-wave (km/s) = 3.40514 4.25073 3.85121
# Velocity P-wave (km/s) = 5.21090 6.92173 6.12633
#
# Compressibility (1/GPa) = 0.03940607
#
# Stress axis : x y z
#
# Youngs Moduli (GPa) = 45.56368 214.26254 41.45567
#
# Poissons Ratio (x) = 0.33344 0.09543
# Poissons Ratio (y) = 0.07091 0.07492
# Poissons Ratio (z) = 0.10488 0.38721
#
# Static dielectric constant tensor:
#      x y z
#    x 3.768780 0.000000 0.336910 
#    y 0.000000 6.468660 0.000000 
#    z 0.336910 0.000000 3.478610 
# 
# 
# High freq. dielectric constant tensor:
#      x y z
#    x 1.845570 0.000000 0.042330 
#    y 0.000000 1.905930 0.000000 
#    z 0.042330 0.000000 1.798310 
# 
# From -- ./inp_files/56546.got.cif
#   From: 2010.03.12/outbox.cif.g09.slc.cpg/sg14_29_cif.got.tgz:56546.got - 2010.03.31 13:35:05.
