data_PCOD8123436
_publ_section_title
;
Structure prediction by ZEFSAII (Michael W. Deem and Ramdas Pophale) SiO2 
 PCOD8123436
Probable space group: P 21/C
;
_chemical_formula_sum "Si O2"
_cell_formula_units_Z 32
_cell_length_a 16.000436
_cell_length_b 14.971963
_cell_length_c 8.045321
_cell_angle_alpha 90.000000
_cell_angle_beta 59.816879
_cell_angle_gamma 90.000000
_cell_volume 1666.020067
_symmetry_space_group_name_H-M "P 21/C"
_symmetry_group_IT_number 14
_symmetry_cell_setting 'monoclinic'
loop_
_space_group_symop_operation_xyz
x,y,z
-x,1/2+y,1/2-z
-x,-y,-z
x,1/2-y,1/2+z
loop_
_atom_site_type_symbol
_atom_site_label
_atom_site_fract_x
_atom_site_fract_y
_atom_site_fract_z
Si Si1 0.631894 0.715501 0.542088
Si Si2 0.815257 0.670760 0.920236
Si Si3 0.054349 0.208442 0.993774
Si Si4 0.640259 0.976431 0.924571
Si Si5 0.546546 0.856228 0.444517
Si Si6 0.456471 0.985735 0.315577
Si Si7 0.842857 0.516069 0.137724
Si Si8 0.014257 0.874873 0.623071
O O1 0.717594 0.788167 0.440482
O O2 0.643856 0.631933 0.404636
O O3 0.534276 0.770396 0.579577
O O4 0.627594 0.677912 0.732895
O O5 0.894498 0.648840 0.698559
O O6 0.858788 0.747832 0.991091
O O7 0.799867 0.578899 0.034711
O O8 0.989282 0.145903 0.176876
O O9 0.985262 0.283923 0.983339
O O10 0.607613 0.021781 0.783988
O O11 0.750287 0.010120 0.845382
O O12 0.568163 0.005882 0.145357
O O13 0.582472 0.938545 0.522097
O O14 0.456570 0.891724 0.420751
O O15 0.920955 0.565951 0.171884
O O16 0.887360 0.427037 0.013744
#
# Coordination Sequence:
#
# PCOD8123436 Si02
#       8
#     4   4   4   4   4   4   4   4
#     4  11  19  29  53  81 102 129 162 211 271 313
#     4  10  18  28  48  80 108 128 160 209 265 309
#     4   9  17  31  48  68 104 140 169 205 243 301
#     4  10  19  34  54  75 104 134 167 212 261 306
#     4  10  19  31  48  72 102 130 164 200 247 312
#     4   9  20  34  49  71 102 140 168 199 254 309
#     4  10  19  32  52  79 106 130 165 212 259 307
#     4   9  19  33  52  75 100 137 173 207 254 299
#
# _framework density 19.207452
#
# number of rings (size 3 to 8) (size 9 to 14) (size 15 to 20)
#    0.000    2.250    0.000    5.250    0.000    1.500 
#    0.000    0.000    0.000   10.500    0.000    0.000 
#    0.000    0.000    0.000    0.000    0.000    0.000 
#
# Total GULP energy -396433.468260 kJ/mol
# GULP energy per Si atom -12388.545883 kJ/mol
# Density = 1.916373 g / cm^3
# Si number density = 19.207452 Si / 1000 Ang^3
#
#
#
# Elastic Constant Matrix: (Units=GPa)
#
#
# Indices 1 2 3 4 5 6 
#
# 1 51.7490 26.9563 29.1383 0.0000 -2.0700 0.0000
# 2 26.9563 74.0889 44.0856 0.0000 -6.0678 0.0000
# 3 29.1383 44.0856 96.9340 0.0000 -0.7648 0.0000
# 4 0.0000 0.0000 0.0000 29.6098 0.0000 2.3251
# 5 -2.0700 -6.0678 -0.7648 0.0000 31.9611 0.0000
# 6 0.0000 0.0000 0.0000 2.3251 0.0000 26.5780
#
#
#
# Elastic Compliance Matrix: (Units=1/GPa)
#
#
# Indices 1 2 3 4 5 6 
#
# 1 0.025310 -0.006385 -0.004702 0.000000 0.000314 0.000000
# 2 -0.006385 0.020474 -0.007366 0.000000 0.003297 0.000000
# 3 -0.004702 -0.007366 0.015069 0.000000 -0.001342 0.000000
# 4 0.000000 0.000000 0.000000 0.034006 0.000000 -0.002975
# 5 0.000314 0.003297 -0.001342 0.000000 0.031902 0.000000
# 6 0.000000 0.000000 0.000000 -0.002975 0.000000 0.037885
#
#
# Mechanical properties :
#
#
# Convention : Reuss Voigt Hill
#
# Bulk Modulus (GPa) = 41.75918 47.01471 44.38694
# Shear Modulus (GPa) = 23.86240 25.80256 24.83248
#
# Velocity S-wave (km/s) = 3.52852 3.66917 3.59953
# Velocity P-wave (km/s) = 6.19588 6.51773 6.35884
#
# Compressibility (1/GPa) = 0.02394683
#
# Stress axis : x y z
#
# Youngs Moduli (GPa) = 39.50985 48.84353 66.36126
#
# Poissons Ratio (x) = 0.31188 0.31201
# Poissons Ratio (y) = 0.25228 0.48881
# Poissons Ratio (z) = 0.18576 0.35978
#
# Static dielectric constant tensor:
#      x y z
#    x 3.337080 0.000000 0.223140 
#    y 0.000000 3.577650 0.000000 
#    z 0.223140 0.000000 3.738840 
# 
# 
# High freq. dielectric constant tensor:
#      x y z
#    x 1.720810 0.000000 0.024060 
#    y 0.000000 1.729410 0.000000 
#    z 0.024060 0.000000 1.750880 
# 
# From -- ./inp_files/16240.got.cif
#   From: 2010.03.12/outbox.cif.g09.slc.cpg/sg14_9_cif.got.tgz:16240.got - 2010.03.31 13:35:05.
