data_PCOD8123077
_publ_section_title
;
Structure prediction by ZEFSAII (Michael W. Deem and Ramdas Pophale) SiO2 
 PCOD8123077
Probable space group: P 2/C
;
_chemical_formula_sum "Si O2"
_cell_formula_units_Z 14
_cell_length_a 19.504223
_cell_length_b 6.699425
_cell_length_c 9.979173
_cell_angle_alpha 90.000000
_cell_angle_beta 150.413327
_cell_angle_gamma 90.000000
_cell_volume 643.811461
_symmetry_space_group_name_H-M "P 2/C"
_symmetry_group_IT_number 13
_symmetry_cell_setting 'monoclinic'
loop_
_space_group_symop_operation_xyz
x,y,z
-x,y,1/2-z
-x,-y,-z
x,-y,1/2+z
loop_
_atom_site_type_symbol
_atom_site_label
_atom_site_fract_x
_atom_site_fract_y
_atom_site_fract_z
Si Si1 0.157620 0.789597 0.518465
Si Si2 0.354371 0.420799 0.804124
Si Si3 0.735043 0.074687 0.023353
Si Si4 0.500000 0.851227 0.750000
O O1 0.257908 0.600763 0.685122
O O2 0.187534 0.915544 0.703105
O O3 0.000000 0.712541 0.250000
O O4 0.178605 0.931244 0.426668
O O5 0.276597 0.296252 0.556973
O O6 0.500000 0.500000 0.000000
O O7 0.381880 0.281261 0.978935
O O8 0.578859 0.988808 0.775886
#
# Coordination Sequence:
#
# PCOD8123077 Si02
#       4
#     4   4   4   2
#     4  12  28  47  71 105 143 190 234 285 355 422
#     4  12  24  44  73 104 143 183 237 291 347 415
#     4  12  25  47  73 102 144 185 233 293 348 419
#     4  12  22  46  70 108 138 182 234 290 354 412
#
# _framework density 21.745498000000001
#
# number of rings (size 3 to 8) (size 9 to 14) (size 15 to 20)
#    0.000    0.000    5.714    5.143    0.000    2.286 
#    0.000    0.000    0.000    0.000    0.000    0.000 
#    0.000    0.000    0.000    0.000    0.000    0.000 
#
# Total GULP energy -173718.572290 kJ/mol
# GULP energy per Si atom -12408.469449 kJ/mol
# Density = 2.169600 g / cm^3
# Si number density = 21.745498 Si / 1000 Ang^3
#
#
#
# Elastic Constant Matrix: (Units=GPa)
#
#
# Indices 1 2 3 4 5 6 
#
# 1 117.6629 45.2505 64.7100 0.0000 -2.5674 0.0000
# 2 45.2505 101.4332 49.4112 0.0000 -2.3697 0.0000
# 3 64.7100 49.4112 114.2266 0.0000 4.4568 0.0000
# 4 0.0000 0.0000 0.0000 31.8013 0.0000 -5.9118
# 5 -2.5674 -2.3697 4.4568 0.0000 47.0155 0.0000
# 6 0.0000 0.0000 0.0000 -5.9118 0.0000 32.6189
#
#
#
# Elastic Compliance Matrix: (Units=1/GPa)
#
#
# Indices 1 2 3 4 5 6 
#
# 1 0.013002 -0.002741 -0.006226 0.000000 0.001162 0.000000
# 2 -0.002741 0.013130 -0.004163 0.000000 0.000907 0.000000
# 3 -0.006226 -0.004163 0.014156 0.000000 -0.001892 0.000000
# 4 0.000000 0.000000 0.000000 0.032542 0.000000 0.005898
# 5 0.001162 0.000907 -0.001892 0.000000 0.021558 0.000000
# 6 0.000000 0.000000 0.000000 0.005898 0.000000 0.031726
#
#
# Mechanical properties :
#
#
# Convention : Reuss Voigt Hill
#
# Bulk Modulus (GPa) = 71.27295 72.45179 71.86237
# Shear Modulus (GPa) = 31.83742 33.88386 32.86064
#
# Velocity S-wave (km/s) = 3.83050 3.95169 3.89156
# Velocity P-wave (km/s) = 7.23952 7.36285 7.30145
#
# Compressibility (1/GPa) = 0.01403057
#
# Stress axis : x y z
#
# Youngs Moduli (GPa) = 76.91148 76.16034 70.64257
#
# Poissons Ratio (x) = 0.20872 0.43979
# Poissons Ratio (y) = 0.21078 0.29406
# Poissons Ratio (z) = 0.47882 0.31703
#
# Static dielectric constant tensor:
#      x y z
#    x 4.025650 0.000000 -0.128940 
#    y 0.000000 4.075570 0.000000 
#    z -0.128940 0.000000 3.963700 
# 
# 
# High freq. dielectric constant tensor:
#      x y z
#    x 1.865170 0.000000 -0.011850 
#    y 0.000000 1.866030 0.000000 
#    z -0.011850 0.000000 1.853170 
# 
# From -- ./inp_files/14140.got.cif
#   From: 2010.06.25/outbox.cif.g09.slc.cpg/sg13_8_cif.got.tgz:14140.got - 2010.06.28 04:50:58.
