data_PCOD8123111
_publ_section_title
;
Structure prediction by ZEFSAII (Michael W. Deem and Ramdas Pophale) SiO2 
 PCOD8123111
Probable space group: P 2/C
;
_chemical_formula_sum "Si O2"
_cell_formula_units_Z 16
_cell_length_a 4.996950
_cell_length_b 18.993439
_cell_length_c 8.816229
_cell_angle_alpha 90.000000
_cell_angle_beta 58.496092
_cell_angle_gamma 90.000000
_cell_volume 713.409857
_symmetry_space_group_name_H-M "P 2/C"
_symmetry_group_IT_number 13
_symmetry_cell_setting 'monoclinic'
loop_
_space_group_symop_operation_xyz
x,y,z
-x,y,1/2-z
-x,-y,-z
x,-y,1/2+z
loop_
_atom_site_type_symbol
_atom_site_label
_atom_site_fract_x
_atom_site_fract_y
_atom_site_fract_z
Si Si1 0.701597 0.452945 0.046191
Si Si2 0.365893 0.067466 0.623440
Si Si3 0.363627 0.198962 0.127883
Si Si4 0.336124 0.682099 0.140960
O O1 0.500000 0.429595 0.250000
O O2 0.500000 0.500000 0.000000
O O3 0.776648 0.382922 0.930218
O O4 0.000000 0.500000 0.000000
O O5 0.500000 0.077551 0.750000
O O6 0.445992 0.134682 0.499040
O O7 0.000000 0.057589 0.750000
O O8 0.500000 0.000000 0.500000
O O9 0.500000 0.217230 0.250000
O O10 0.000000 0.179132 0.250000
O O11 0.405004 0.268116 0.012517
O O12 0.500000 0.657499 0.250000
O O13 0.000000 0.723639 0.250000
#
# Coordination Sequence:
#
# PCOD8123111 Si02
#       4
#     4   4   4   4
#     4  12  25  43  66  94 127 166 212 265 326 394
#     4  12  24  43  68 100 139 184 230 281 335 397
#     4  12  25  44  68 100 135 177 226 280 337 400
#     4  12  25  44  67  96 131 173 219 274 335 401
#
# _framework density 22.427499000000001
#
# number of rings (size 3 to 8) (size 9 to 14) (size 15 to 20)
#    0.000    0.000    0.000   12.000    0.000    2.000 
#    0.000    0.000    0.000    0.000    0.000    0.000 
#    0.000    0.000    0.000    0.000    0.000    0.000 
#
# Total GULP energy -198425.876178 kJ/mol
# GULP energy per Si atom -12401.617261 kJ/mol
# Density = 2.237645 g / cm^3
# Si number density = 22.427499 Si / 1000 Ang^3
#
#
#
# Elastic Constant Matrix: (Units=GPa)
#
#
# Indices 1 2 3 4 5 6 
#
# 1 164.1164 29.8401 59.1202 0.0000 -9.5186 0.0000
# 2 29.8401 134.3863 51.5741 0.0000 0.2374 0.0000
# 3 59.1202 51.5741 144.6413 0.0000 -4.2043 0.0000
# 4 0.0000 0.0000 0.0000 52.1182 0.0000 0.0568
# 5 -9.5186 0.2374 -4.2043 0.0000 56.3273 0.0000
# 6 0.0000 0.0000 0.0000 0.0568 0.0000 34.6739
#
#
#
# Elastic Compliance Matrix: (Units=1/GPa)
#
#
# Indices 1 2 3 4 5 6 
#
# 1 0.007237 -0.000562 -0.002728 0.000000 0.001022 0.000000
# 2 -0.000562 0.008669 -0.002871 0.000000 -0.000346 0.000000
# 3 -0.002728 -0.002871 0.009059 0.000000 0.000227 0.000000
# 4 0.000000 0.000000 0.000000 0.019187 0.000000 -0.000031
# 5 0.001022 -0.000346 0.000227 0.000000 0.017944 0.000000
# 6 0.000000 0.000000 0.000000 -0.000031 0.000000 0.028840
#
#
# Mechanical properties :
#
#
# Convention : Reuss Voigt Hill
#
# Bulk Modulus (GPa) = 79.09831 80.46808 79.78319
# Shear Modulus (GPa) = 46.52296 48.79784 47.66040
#
# Velocity S-wave (km/s) = 4.55947 4.66961 4.61487
# Velocity P-wave (km/s) = 7.94124 8.06417 8.00294
#
# Compressibility (1/GPa) = 0.01264250
#
# Stress axis : x y z
#
# Youngs Moduli (GPa) = 138.17050 115.35967 110.38535
#
# Poissons Ratio (x) = 0.06481 0.30115
# Poissons Ratio (y) = 0.07763 0.31695
# Poissons Ratio (z) = 0.37695 0.33123
#
# Static dielectric constant tensor:
#      x y z
#    x 4.065500 0.000000 -0.062550 
#    y 0.000000 6.298920 0.000000 
#    z -0.062550 0.000000 4.275040 
# 
# 
# High freq. dielectric constant tensor:
#      x y z
#    x 1.905300 0.000000 0.000060 
#    y 0.000000 1.889270 0.000000 
#    z 0.000060 0.000000 1.912070 
# 
# From -- ./inp_files/9287.got.cif
#   From: 2010.06.25/outbox.cif.g09.slc.cpg/sg13_5_cif.got.tgz:9287.got - 2010.06.28 04:50:58.
