data_PCOD8123328
_publ_section_title
;
Structure prediction by ZEFSAII (Michael W. Deem and Ramdas Pophale) SiO2 
 PCOD8123328
Probable space group: P 21/C
;
_chemical_formula_sum "Si O2"
_cell_formula_units_Z 32
_cell_length_a 16.061676
_cell_length_b 11.234395
_cell_length_c 15.112250
_cell_angle_alpha 90.000000
_cell_angle_beta 143.367178
_cell_angle_gamma 90.000000
_cell_volume 1627.101187
_symmetry_space_group_name_H-M "P 21/C"
_symmetry_group_IT_number 14
_symmetry_cell_setting 'monoclinic'
loop_
_space_group_symop_operation_xyz
x,y,z
-x,1/2+y,1/2-z
-x,-y,-z
x,1/2-y,1/2+z
loop_
_atom_site_type_symbol
_atom_site_label
_atom_site_fract_x
_atom_site_fract_y
_atom_site_fract_z
Si Si1 0.112986 0.527107 0.022191
Si Si2 0.269175 0.208548 0.635336
Si Si3 0.045655 0.409596 0.673735
Si Si4 0.002419 0.660268 0.553345
Si Si5 0.529978 0.857900 0.033525
Si Si6 0.101380 0.022812 0.795458
Si Si7 0.773549 0.347204 0.730990
Si Si8 0.722886 0.755462 0.048240
O O1 0.175675 0.405568 0.042687
O O2 0.225335 0.613904 0.163762
O O3 0.000000 0.500000 0.000000
O O4 0.036395 0.577727 0.869995
O O5 0.381970 0.183534 0.806997
O O6 0.345466 0.221641 0.604903
O O7 0.162248 0.317363 0.566466
O O8 0.066230 0.538096 0.645247
O O9 0.191263 0.352723 0.832590
O O10 0.981300 0.328813 0.539917
O O11 0.936763 0.427565 0.660949
O O12 0.101826 0.757208 0.683701
O O13 0.603248 0.805257 0.009420
O O14 0.379849 0.793440 0.916287
O O15 0.500000 0.000000 0.000000
O O16 0.173123 0.139892 0.893930
O O17 0.205017 0.961642 0.813595
#
# Coordination Sequence:
#
# PCOD8123328 Si02
#       8
#     4   4   4   4   4   4   4   4
#     4  10  17  31  61  95 118 151 206 270 315 365
#     4  12  21  39  65  95 130 165 216 274 330 381
#     4  11  23  38  64  96 130 165 209 266 345 386
#     4  11  22  41  65  92 128 168 209 269 330 395
#     4  12  24  43  65  94 131 178 221 264 320 391
#     4  11  20  35  66  99 123 157 218 275 319 378
#     4  11  22  41  63  94 124 162 221 268 310 378
#     4  12  23  41  65  96 135 174 213 274 332 388
#
# _framework density 19.666879000000002
#
# number of rings (size 3 to 8) (size 9 to 14) (size 15 to 20)
#    0.000    0.750    8.750    1.500    0.000    0.000 
#    2.250    1.875    0.000    0.000    0.000    0.000 
#    0.000    0.000    0.000    0.000    0.000    0.000 
#
# Total GULP energy -396461.855365 kJ/mol
# GULP energy per Si atom -12389.432980 kJ/mol
# Density = 1.962212 g / cm^3
# Si number density = 19.666879 Si / 1000 Ang^3
#
#
#
# Elastic Constant Matrix: (Units=GPa)
#
#
# Indices 1 2 3 4 5 6 
#
# 1 111.7495 28.2443 69.1724 0.0000 -18.2118 0.0000
# 2 28.2443 63.5385 35.4576 0.0000 -1.1405 0.0000
# 3 69.1724 35.4576 124.3543 0.0000 -2.8386 0.0000
# 4 0.0000 0.0000 0.0000 27.5447 0.0000 -3.9030
# 5 -18.2118 -1.1405 -2.8386 0.0000 32.0326 0.0000
# 6 0.0000 0.0000 0.0000 -3.9030 0.0000 28.4617
#
#
#
# Elastic Compliance Matrix: (Units=1/GPa)
#
#
# Indices 1 2 3 4 5 6 
#
# 1 0.015794 -0.002468 -0.007895 0.000000 0.008192 0.000000
# 2 -0.002468 0.019104 -0.004099 0.000000 -0.001086 0.000000
# 3 -0.007895 -0.004099 0.013523 0.000000 -0.003436 0.000000
# 4 0.000000 0.000000 0.000000 0.037024 0.000000 0.005077
# 5 0.008192 -0.001086 -0.003436 0.000000 0.035533 0.000000
# 6 0.000000 0.000000 0.000000 0.005077 0.000000 0.035831
#
#
# Mechanical properties :
#
#
# Convention : Reuss Voigt Hill
#
# Bulk Modulus (GPa) = 51.28903 62.82119 57.05511
# Shear Modulus (GPa) = 26.01019 28.72568 27.36793
#
# Velocity S-wave (km/s) = 3.64062 3.82594 3.73443
# Velocity P-wave (km/s) = 6.61873 7.17838 6.90423
#
# Compressibility (1/GPa) = 0.01949735
#
# Stress axis : x y z
#
# Youngs Moduli (GPa) = 63.31355 52.34625 73.94583
#
# Poissons Ratio (x) = 0.12920 0.58380
# Poissons Ratio (y) = 0.15627 0.30310
# Poissons Ratio (z) = 0.49986 0.21456
#
# Static dielectric constant tensor:
#      x y z
#    x 3.541850 0.000000 -0.242030 
#    y 0.000000 3.594310 0.000000 
#    z -0.242030 0.000000 3.917810 
# 
# 
# High freq. dielectric constant tensor:
#      x y z
#    x 1.758040 0.000000 -0.023930 
#    y 0.000000 1.759380 0.000000 
#    z -0.023930 0.000000 1.765610 
# 
# From -- ./inp_files/47153.got.cif
#   From: 2010.03.12/outbox.cif.g09.slc.cpg/sg14_24_cif.got.tgz:47153.got - 2010.03.31 13:35:05.
