data_PCOD8123699
_publ_section_title
;
Structure prediction by ZEFSAII (Michael W. Deem and Ramdas Pophale) SiO2 
 PCOD8123699
Probable space group: P 21/C
;
_chemical_formula_sum "Si O2"
_cell_formula_units_Z 32
_cell_length_a 28.601506
_cell_length_b 8.662836
_cell_length_c 22.459726
_cell_angle_alpha 90.000000
_cell_angle_beta 163.577999
_cell_angle_gamma 90.000000
_cell_volume 1573.237593
_symmetry_space_group_name_H-M "P 21/C"
_symmetry_group_IT_number 14
_symmetry_cell_setting 'monoclinic'
loop_
_space_group_symop_operation_xyz
x,y,z
-x,1/2+y,1/2-z
-x,-y,-z
x,1/2-y,1/2+z
loop_
_atom_site_type_symbol
_atom_site_label
_atom_site_fract_x
_atom_site_fract_y
_atom_site_fract_z
Si Si1 0.599263 0.373190 0.343566
Si Si2 0.769729 0.579875 0.109615
Si Si3 0.098117 0.076040 0.352438
Si Si4 0.064275 0.864248 0.038218
Si Si5 0.348501 0.346267 0.678425
Si Si6 0.301176 0.738399 0.916213
Si Si7 0.673003 0.447417 0.237529
Si Si8 0.223921 0.734569 0.043101
O O1 0.633191 0.539873 0.356260
O O2 0.699043 0.356082 0.528046
O O3 0.654248 0.238247 0.365034
O O4 0.404768 0.338503 0.119410
O O5 0.868257 0.515241 0.172946
O O6 0.726570 0.436760 0.098181
O O7 0.900145 0.696662 0.302438
O O8 0.209503 0.224128 0.496261
O O9 0.911018 0.130070 0.133437
O O10 0.142808 0.934889 0.451708
O O11 0.155245 0.729778 0.188886
O O12 0.192805 0.944745 0.150195
O O13 0.000000 0.000000 0.000000
O O14 0.284643 0.429814 0.659539
O O15 0.522254 0.258233 0.901657
O O16 0.674105 0.278865 0.272200
O O17 0.500000 0.500000 0.000000
#
# Coordination Sequence:
#
# PCOD8123699 Si02
#       8
#     4   4   4   4   4   4   4   4
#     4  10  20  37  61  94 122 161 214 266 323 378
#     4  10  20  35  58  90 127 161 209 262 314 383
#     4  12  22  40  61  96 124 161 213 268 328 371
#     4  10  21  35  59  92 126 166 210 262 316 387
#     4  10  22  35  62  94 123 167 213 273 321 380
#     4  10  18  35  60  92 121 159 213 265 315 375
#     4  11  21  40  62  90 128 171 222 252 317 394
#     4  11  24  38  63  94 128 164 211 271 318 379
#
# _framework density 20.340222000000001
#
# number of rings (size 3 to 8) (size 9 to 14) (size 15 to 20)
#    0.000    1.500    5.000    1.500    1.750    0.000 
#    0.000    0.625    0.000    0.750    3.250    0.000 
#    0.000    0.000    0.000    0.000    0.000    0.000 
#
# Total GULP energy -396460.505501 kJ/mol
# GULP energy per Si atom -12389.390797 kJ/mol
# Density = 2.029393 g / cm^3
# Si number density = 20.340222 Si / 1000 Ang^3
#
#
#
# Elastic Constant Matrix: (Units=GPa)
#
#
# Indices 1 2 3 4 5 6 
#
# 1 111.9464 16.9457 38.7274 0.0000 2.4881 0.0000
# 2 16.9457 62.7785 38.1990 0.0000 -13.4048 0.0000
# 3 38.7274 38.1990 142.6140 0.0000 -15.0962 0.0000
# 4 0.0000 0.0000 0.0000 26.6130 0.0000 -1.5602
# 5 2.4881 -13.4048 -15.0962 0.0000 36.1257 0.0000
# 6 0.0000 0.0000 0.0000 -1.5602 0.0000 23.0169
#
#
#
# Elastic Compliance Matrix: (Units=1/GPa)
#
#
# Indices 1 2 3 4 5 6 
#
# 1 0.010124 -0.001692 -0.002549 0.000000 -0.002390 0.000000
# 2 -0.001692 0.020279 -0.004356 0.000000 0.005821 0.000000
# 3 -0.002549 -0.004356 0.009122 0.000000 0.002371 0.000000
# 4 0.000000 0.000000 0.000000 0.037725 0.000000 0.002557
# 5 -0.002390 0.005821 0.002371 0.000000 0.030997 0.000000
# 6 0.000000 0.000000 0.000000 0.002557 0.000000 0.043620
#
#
# Mechanical properties :
#
#
# Convention : Reuss Voigt Hill
#
# Bulk Modulus (GPa) = 44.78149 56.12036 50.45093
# Shear Modulus (GPa) = 28.32782 32.04890 30.18836
#
# Velocity S-wave (km/s) = 3.73594 3.97374 3.85667
# Velocity P-wave (km/s) = 6.37759 6.97889 6.68500
#
# Compressibility (1/GPa) = 0.02233065
#
# Stress axis : x y z
#
# Youngs Moduli (GPa) = 98.77589 49.31136 109.62654
#
# Poissons Ratio (x) = 0.08344 0.27944
# Poissons Ratio (y) = 0.16714 0.47754
# Poissons Ratio (z) = 0.25178 0.21481
#
# Static dielectric constant tensor:
#      x y z
#    x 4.072070 0.000000 -0.019530 
#    y 0.000000 3.295260 0.000000 
#    z -0.019530 0.000000 4.630350 
# 
# 
# High freq. dielectric constant tensor:
#      x y z
#    x 1.804240 0.000000 0.008980 
#    y 0.000000 1.746330 0.000000 
#    z 0.008980 0.000000 1.810420 
# 
# From -- ./inp_files/70525.got.cif
#   From: 2010.03.12/outbox.cif.g09.slc.cpg/sg14_36_cif.got.tgz:70525.got - 2010.03.31 13:35:05.
