data_PCOD8123249
_publ_section_title
;
Structure prediction by ZEFSAII (Michael W. Deem and Ramdas Pophale) SiO2 
 PCOD8123249
Probable space group: P 21/C
;
_chemical_formula_sum "Si O2"
_cell_formula_units_Z 28
_cell_length_a 32.620158
_cell_length_b 5.225880
_cell_length_c 28.938156
_cell_angle_alpha 90.000000
_cell_angle_beta 19.391884
_cell_angle_gamma 90.000000
_cell_volume 1637.911486
_symmetry_space_group_name_H-M "P 21/C"
_symmetry_group_IT_number 14
_symmetry_cell_setting 'monoclinic'
loop_
_space_group_symop_operation_xyz
x,y,z
-x,1/2+y,1/2-z
-x,-y,-z
x,1/2-y,1/2+z
loop_
_atom_site_type_symbol
_atom_site_label
_atom_site_fract_x
_atom_site_fract_y
_atom_site_fract_z
Si Si1 0.939370 0.479091 0.294928
Si Si2 0.921682 0.022567 0.707066
Si Si3 0.409463 0.472526 0.895267
Si Si4 0.100010 0.008354 0.434969
Si Si5 0.779384 0.981476 0.331007
Si Si6 0.659659 0.027596 0.086633
Si Si7 0.148200 0.508376 0.348140
O O1 0.958743 0.532412 0.220136
O O2 0.796095 0.490060 0.462510
O O3 0.990322 0.198947 0.252156
O O4 0.834824 0.797592 0.781010
O O5 0.856983 0.298290 0.773926
O O6 0.042513 0.028562 0.546775
O O7 0.352412 0.705631 0.927151
O O8 0.558627 0.484605 0.735432
O O9 0.360943 0.206627 0.926168
O O10 0.360046 0.489088 0.000442
O O11 0.188706 0.252486 0.332180
O O12 0.182604 0.752462 0.343190
O O13 0.000000 0.000000 0.500000
O O14 0.778225 0.034344 0.277861
O O15 0.000000 0.500000 0.500000
#
# Coordination Sequence:
#
# PCOD8123249 Si02
#       7
#     4   4   4   4   4   4   4
#     4  12  24  37  50  71  99 138 182 208 236 283
#     4  12  20  30  48  67 100 135 160 200 243 294
#     4  10  19  32  52  74  95 127 165 203 264 306
#     4  10  16  28  40  67  96 129 148 185 251 305
#     4  12  17  28  47  72  99 127 158 187 249 310
#     4  10  20  35  51  69  96 128 167 217 250 290
#     4  10  16  24  40  66  98 130 140 184 237 312
#
# _framework density 17.094942
#
# number of rings (size 3 to 8) (size 9 to 14) (size 15 to 20)
#    0.000    1.143    8.571    1.714    0.000    0.000 
#    0.000    0.000    0.000    0.000    0.000    0.000 
#    0.000    6.857    0.000    0.000    0.000    0.000 
#
# Total GULP energy -347049.027204 kJ/mol
# GULP energy per Si atom -12394.608114 kJ/mol
# Density = 1.705603 g / cm^3
# Si number density = 17.094942 Si / 1000 Ang^3
#
#
#
# Elastic Constant Matrix: (Units=GPa)
#
#
# Indices 1 2 3 4 5 6 
#
# 1 45.3294 16.0499 49.4496 0.0000 21.8123 0.0000
# 2 16.0499 129.4734 37.6890 0.0000 13.3036 0.0000
# 3 49.4496 37.6890 140.6330 0.0000 34.7181 0.0000
# 4 0.0000 0.0000 0.0000 25.8984 0.0000 6.3967
# 5 21.8123 13.3036 34.7181 0.0000 38.1053 0.0000
# 6 0.0000 0.0000 0.0000 6.3967 0.0000 22.3506
#
#
#
# Elastic Compliance Matrix: (Units=1/GPa)
#
#
# Indices 1 2 3 4 5 6 
#
# 1 0.040323 -0.000508 -0.010822 0.000000 -0.013044 0.000000
# 2 -0.000508 0.008422 -0.001838 0.000000 -0.000975 0.000000
# 3 -0.010822 -0.001838 0.012542 0.000000 -0.004590 0.000000
# 4 0.000000 0.000000 0.000000 0.041550 0.000000 -0.011891
# 5 -0.013044 -0.000975 -0.004590 0.000000 0.038233 0.000000
# 6 0.000000 0.000000 0.000000 -0.011891 0.000000 0.048145
#
#
# Mechanical properties :
#
#
# Convention : Reuss Voigt Hill
#
# Bulk Modulus (GPa) = 28.61124 57.97920 43.29522
# Shear Modulus (GPa) = 22.00704 31.42067 26.71385
#
# Velocity S-wave (km/s) = 3.59185 4.29185 3.95736
# Velocity P-wave (km/s) = 5.82879 7.65177 6.80163
#
# Compressibility (1/GPa) = 0.03495130
#
# Stress axis : x y z
#
# Youngs Moduli (GPa) = 24.79952 118.74104 79.73376
#
# Poissons Ratio (x) = 0.06032 0.86289
# Poissons Ratio (y) = 0.01260 0.14652
# Poissons Ratio (z) = 0.26838 0.21820
#
# Static dielectric constant tensor:
#      x y z
#    x 2.821100 0.000000 0.423810 
#    y 0.000000 5.619450 0.000000 
#    z 0.423810 0.000000 3.211020 
# 
# 
# High freq. dielectric constant tensor:
#      x y z
#    x 1.603980 0.000000 0.052680 
#    y 0.000000 1.701240 0.000000 
#    z 0.052680 0.000000 1.641860 
# 
# From -- ./inp_files/78392.got.cif
#   From: 2010.03.12/outbox.cif.g09.slc.cpg/sg14_40_cif.got.tgz:78392.got - 2010.03.31 13:35:05.
