data_PCOD8123457
_publ_section_title
;
Structure prediction by ZEFSAII (Michael W. Deem and Ramdas Pophale) SiO2 
 PCOD8123457
Probable space group: P 21/C
;
_chemical_formula_sum "Si O2"
_cell_formula_units_Z 28
_cell_length_a 13.715136
_cell_length_b 19.956964
_cell_length_c 5.107599
_cell_angle_alpha 90.000000
_cell_angle_beta 87.327584
_cell_angle_gamma 90.000000
_cell_volume 1396.493139
_symmetry_space_group_name_H-M "P 21/C"
_symmetry_group_IT_number 14
_symmetry_cell_setting 'monoclinic'
loop_
_space_group_symop_operation_xyz
x,y,z
-x,1/2+y,1/2-z
-x,-y,-z
x,1/2-y,1/2+z
loop_
_atom_site_type_symbol
_atom_site_label
_atom_site_fract_x
_atom_site_fract_y
_atom_site_fract_z
Si Si1 0.893460 0.555338 0.731262
Si Si2 0.500448 0.453333 0.253641
Si Si3 0.698201 0.583149 0.530114
Si Si4 0.826884 0.408586 0.815106
Si Si5 0.214904 0.207378 0.225617
Si Si6 0.030243 0.376341 0.769703
Si Si7 0.708001 0.433100 0.336366
O O1 0.783711 0.585546 0.735199
O O2 0.887510 0.476829 0.779752
O O3 0.947427 0.567417 0.450256
O O4 0.951365 0.592508 0.949262
O O5 0.500000 0.500000 0.500000
O O6 0.402603 0.408791 0.292912
O O7 0.599176 0.408836 0.263838
O O8 0.500000 0.500000 0.000000
O O9 0.712813 0.644138 0.325999
O O10 0.707143 0.513964 0.362119
O O11 0.915063 0.354227 0.774440
O O12 0.742760 0.400244 0.605914
O O13 0.779809 0.406013 0.105999
O O14 0.237763 0.236063 0.508183
O O15 0.100595 0.187167 0.213986
#
# Coordination Sequence:
#
# PCOD8123457 Si02
#       7
#     4   4   4   4   4   4   4
#     4  10  18  30  48  74 101 131 166 198 250 319
#     4  10  19  32  52  78 107 138 167 201 257 323
#     4   9  20  35  53  75 109 142 165 212 264 300
#     4  11  19  31  48  73 105 134 162 202 252 307
#     4  11  23  37  52  74 100 135 183 219 248 300
#     4  11  21  33  49  70  99 134 168 211 255 293
#     4  10  20  32  51  80 107 132 169 201 248 326
#
# _framework density 20.050224
#
# number of rings (size 3 to 8) (size 9 to 14) (size 15 to 20)
#    0.000    1.714    0.000    8.571    0.000    5.714 
#    0.000    0.000    0.000    0.000    0.000    6.000 
#    0.000    0.000    0.000    0.000    0.000    0.000 
#
# Total GULP energy -347054.504309 kJ/mol
# GULP energy per Si atom -12394.803725 kJ/mol
# Density = 2.000459 g / cm^3
# Si number density = 20.050224 Si / 1000 Ang^3
#
#
#
# Elastic Constant Matrix: (Units=GPa)
#
#
# Indices 1 2 3 4 5 6 
#
# 1 152.0151 8.1752 37.9650 0.0000 -12.3625 0.0000
# 2 8.1752 21.1984 5.2874 0.0000 -8.3687 0.0000
# 3 37.9650 5.2874 101.6481 0.0000 -1.2633 0.0000
# 4 0.0000 0.0000 0.0000 16.7717 0.0000 -7.4319
# 5 -12.3625 -8.3687 -1.2633 0.0000 38.4163 0.0000
# 6 0.0000 0.0000 0.0000 -7.4319 0.0000 19.2266
#
#
#
# Elastic Compliance Matrix: (Units=1/GPa)
#
#
# Indices 1 2 3 4 5 6 
#
# 1 0.007493 -0.001422 -0.002699 0.000000 0.002013 0.000000
# 2 -0.001422 0.052549 -0.002067 0.000000 0.010922 0.000000
# 3 -0.002699 -0.002067 0.010942 0.000000 -0.000959 0.000000
# 4 0.000000 0.000000 0.000000 0.071948 0.000000 0.027811
# 5 0.002013 0.010922 -0.000959 0.000000 0.029026 0.000000
# 6 0.000000 0.000000 0.000000 0.027811 0.000000 0.062761
#
#
# Mechanical properties :
#
#
# Convention : Reuss Voigt Hill
#
# Bulk Modulus (GPa) = 17.06268 41.96852 29.51560
# Shear Modulus (GPa) = 18.75258 29.77853 24.26556
#
# Velocity S-wave (km/s) = 3.06155 3.85801 3.48262
# Velocity P-wave (km/s) = 4.58540 6.38927 5.56097
#
# Compressibility (1/GPa) = 0.05860746
#
# Stress axis : x y z
#
# Youngs Moduli (GPa) = 133.46487 19.02994 91.39359
#
# Poissons Ratio (x) = 0.02705 0.24672
# Poissons Ratio (y) = 0.18974 0.18888
# Poissons Ratio (z) = 0.36029 0.03933
#
# Static dielectric constant tensor:
#      x y z
#    x 5.299090 0.000000 -0.304480 
#    y 0.000000 3.235430 0.000000 
#    z -0.304480 0.000000 3.724270 
# 
# 
# High freq. dielectric constant tensor:
#      x y z
#    x 1.795380 0.000000 -0.003280 
#    y 0.000000 1.709070 0.000000 
#    z -0.003280 0.000000 1.802160 
# 
# From -- ./inp_files/3076.got.cif
#   From: 2010.03.12/outbox.cif.g09.slc.cpg/sg14_2_cif.got.tgz:3076.got - 2010.03.31 13:35:05.
