data_PCOD8123970
_publ_section_title
;
Structure prediction by ZEFSAII (Michael W. Deem and Ramdas Pophale) SiO2 
 PCOD8123970
Probable space group: P 21/C
;
_chemical_formula_sum "Si O2"
_cell_formula_units_Z 28
_cell_length_a 11.133789
_cell_length_b 12.066241
_cell_length_c 19.041161
_cell_angle_alpha 90.000000
_cell_angle_beta 142.431144
_cell_angle_gamma 90.000000
_cell_volume 1559.677719
_symmetry_space_group_name_H-M "P 21/C"
_symmetry_group_IT_number 14
_symmetry_cell_setting 'monoclinic'
loop_
_space_group_symop_operation_xyz
x,y,z
-x,1/2+y,1/2-z
-x,-y,-z
x,1/2-y,1/2+z
loop_
_atom_site_type_symbol
_atom_site_label
_atom_site_fract_x
_atom_site_fract_y
_atom_site_fract_z
Si Si1 0.694588 0.502186 0.833051
Si Si2 0.328207 0.578487 0.333018
Si Si3 0.998038 0.323263 0.012599
Si Si4 0.082008 0.605382 0.454312
Si Si5 0.241336 0.058068 0.919456
Si Si6 0.080140 0.777776 0.171515
Si Si7 0.274704 0.965374 0.186732
O O1 0.641081 0.459196 0.731866
O O2 0.837985 0.419797 0.940282
O O3 0.502097 0.503559 0.791958
O O4 0.789512 0.624430 0.870898
O O5 0.543483 0.608156 0.463306
O O6 0.232752 0.478435 0.333959
O O7 0.179206 0.683547 0.265753
O O8 0.020250 0.268845 0.945953
O O9 0.931076 0.238075 0.042895
O O10 0.199238 0.557414 0.441744
O O11 0.199732 0.556706 0.574076
O O12 0.855749 0.565774 0.344165
O O13 0.084045 0.154943 0.860853
O O14 0.253611 0.859585 0.227554
#
# Coordination Sequence:
#
# PCOD8123970 Si02
#       7
#     4   4   4   4   4   4   4
#     4  10  19  33  49  80 108 133 175 213 262 313
#     4  10  21  35  55  77 104 142 171 212 258 305
#     4   9  20  31  51  80 105 138 167 218 269 299
#     4   9  17  32  49  75 100 131 169 216 254 298
#     4  10  20  36  55  78 105 134 183 210 242 326
#     4   9  20  35  55  77 102 142 169 212 270 299
#     4   9  17  30  52  74 101 129 170 215 255 309
#
# _framework density 17.952427
#
# number of rings (size 3 to 8) (size 9 to 14) (size 15 to 20)
#    0.000    2.571    1.429    0.857    2.000    3.429 
#    0.000    0.000    3.143    0.857    0.000    0.000 
#    0.000    0.000    0.000    0.000    0.000    0.000 
#
# Total GULP energy -347068.535545 kJ/mol
# GULP energy per Si atom -12395.304841 kJ/mol
# Density = 1.791157 g / cm^3
# Si number density = 17.952427 Si / 1000 Ang^3
#
#
#
# Elastic Constant Matrix: (Units=GPa)
#
#
# Indices 1 2 3 4 5 6 
#
# 1 54.6554 22.7867 26.1183 0.0000 21.7376 0.0000
# 2 22.7867 93.1979 35.7075 0.0000 8.4416 0.0000
# 3 26.1183 35.7075 69.4842 0.0000 16.5599 0.0000
# 4 0.0000 0.0000 0.0000 21.5553 0.0000 0.6245
# 5 21.7376 8.4416 16.5599 0.0000 25.3686 0.0000
# 6 0.0000 0.0000 0.0000 0.6245 0.0000 29.5060
#
#
#
# Elastic Compliance Matrix: (Units=1/GPa)
#
#
# Indices 1 2 3 4 5 6 
#
# 1 0.030845 -0.003880 -0.004274 0.000000 -0.022349 0.000000
# 2 -0.003880 0.013848 -0.006338 0.000000 0.002854 0.000000
# 3 -0.004274 -0.006338 0.021174 0.000000 -0.008050 0.000000
# 4 0.000000 0.000000 0.000000 0.046421 0.000000 -0.000983
# 5 -0.022349 0.002854 -0.008050 0.000000 0.062875 0.000000
# 6 0.000000 0.000000 0.000000 -0.000983 0.000000 0.033912
#
#
# Mechanical properties :
#
#
# Convention : Reuss Voigt Hill
#
# Bulk Modulus (GPa) = 27.11248 42.95139 35.03193
# Shear Modulus (GPa) = 19.97166 24.13431 22.05298
#
# Velocity S-wave (km/s) = 3.33900 3.67051 3.50867
# Velocity P-wave (km/s) = 5.47726 6.47616 5.99754
#
# Compressibility (1/GPa) = 0.03688339
#
# Stress axis : x y z
#
# Youngs Moduli (GPa) = 32.41988 72.21032 47.22705
#
# Poissons Ratio (x) = 0.28015 0.20186
# Poissons Ratio (y) = 0.12578 0.29935
# Poissons Ratio (z) = 0.13857 0.45770
#
# Static dielectric constant tensor:
#      x y z
#    x 3.239190 0.000000 0.131710 
#    y 0.000000 3.405670 0.000000 
#    z 0.131710 0.000000 3.207190 
# 
# 
# High freq. dielectric constant tensor:
#      x y z
#    x 1.684960 0.000000 0.015160 
#    y 0.000000 1.694040 0.000000 
#    z 0.015160 0.000000 1.682610 
# 
# From -- ./inp_files/28564.got.cif
#   From: 2010.03.12/outbox.cif.g09.slc.cpg/sg14_15_cif.got.tgz:28564.got - 2010.03.31 13:35:05.
