data_PCOD8123267
_publ_section_title
;
Structure prediction by ZEFSAII (Michael W. Deem and Ramdas Pophale) SiO2 
 PCOD8123267
Probable space group: P 21/C
;
_chemical_formula_sum "Si O2"
_cell_formula_units_Z 20
_cell_length_a 13.740304
_cell_length_b 15.332832
_cell_length_c 5.192323
_cell_angle_alpha 90.000000
_cell_angle_beta 118.852311
_cell_angle_gamma 90.000000
_cell_volume 958.116507
_symmetry_space_group_name_H-M "P 21/C"
_symmetry_group_IT_number 14
_symmetry_cell_setting 'monoclinic'
loop_
_space_group_symop_operation_xyz
x,y,z
-x,1/2+y,1/2-z
-x,-y,-z
x,1/2-y,1/2+z
loop_
_atom_site_type_symbol
_atom_site_label
_atom_site_fract_x
_atom_site_fract_y
_atom_site_fract_z
Si Si1 0.250442 0.443037 0.733339
Si Si2 0.014904 0.442245 0.270666
Si Si3 0.787100 0.388385 0.038150
Si Si4 0.333556 0.890553 0.123048
Si Si5 0.432794 0.193358 0.588356
O O1 0.140226 0.404326 0.449804
O O2 0.220985 0.505501 0.940052
O O3 0.318959 0.504281 0.619210
O O4 0.321215 0.361732 0.917129
O O5 0.000000 0.500000 0.500000
O O6 0.918248 0.367361 0.155144
O O7 0.000000 0.500000 0.000000
O O8 0.737489 0.344414 0.235382
O O9 0.714074 0.354820 0.706483
O O10 0.462320 0.869396 0.315581
O O11 0.434928 0.268488 0.377713
#
# Coordination Sequence:
#
# PCOD8123267 Si02
#       5
#     4   4   4   4   4
#     4   9  22  35  64  84 116 143 197 236 288 333
#     4  10  16  31  55  96 111 132 172 246 285 329
#     4   9  18  32  62  91 107 136 187 242 281 329
#     4  10  20  37  60  83 110 147 196 235 277 334
#     4  12  27  40  55  80 120 158 191 236 292 344
#
# _framework density 20.874289000000001
#
# number of rings (size 3 to 8) (size 9 to 14) (size 15 to 20)
#    1.200    0.800    2.000    1.800    2.800    0.800 
#    0.000    0.000    0.000    7.200    0.000    0.000 
#    0.000    0.000    0.000    0.000    0.000    0.000 
#
# Total GULP energy -247775.976954 kJ/mol
# GULP energy per Si atom -12388.798848 kJ/mol
# Density = 2.082678 g / cm^3
# Si number density = 20.874289 Si / 1000 Ang^3
#
#
#
# Elastic Constant Matrix: (Units=GPa)
#
#
# Indices 1 2 3 4 5 6 
#
# 1 94.3368 17.5654 59.7236 0.0000 22.6790 0.0000
# 2 17.5654 31.4852 14.2727 0.0000 15.4833 0.0000
# 3 59.7236 14.2727 153.6937 0.0000 12.2921 0.0000
# 4 0.0000 0.0000 0.0000 12.1363 0.0000 -2.4144
# 5 22.6790 15.4833 12.2921 0.0000 61.9736 0.0000
# 6 0.0000 0.0000 0.0000 -2.4144 0.0000 10.8539
#
#
#
# Elastic Compliance Matrix: (Units=1/GPa)
#
#
# Indices 1 2 3 4 5 6 
#
# 1 0.015724 -0.004584 -0.005402 0.000000 -0.003537 0.000000
# 2 -0.004584 0.038668 -0.001190 0.000000 -0.007747 0.000000
# 3 -0.005402 -0.001190 0.008672 0.000000 0.000554 0.000000
# 4 0.000000 0.000000 0.000000 0.086213 0.000000 0.019178
# 5 -0.003537 -0.007747 0.000554 0.000000 0.019256 0.000000
# 6 0.000000 0.000000 0.000000 0.019178 0.000000 0.096398
#
#
# Mechanical properties :
#
#
# Convention : Reuss Voigt Hill
#
# Bulk Modulus (GPa) = 24.56277 51.40435 37.98356
# Shear Modulus (GPa) = 16.61947 29.52303 23.07125
#
# Velocity S-wave (km/s) = 2.82471 3.76483 3.32813
# Velocity P-wave (km/s) = 4.73616 6.60134 5.74495
#
# Compressibility (1/GPa) = 0.04071203
#
# Stress axis : x y z
#
# Youngs Moduli (GPa) = 63.59727 25.86148 115.31880
#
# Poissons Ratio (x) = 0.11855 0.62290
# Poissons Ratio (y) = 0.29154 0.13722
# Poissons Ratio (z) = 0.34352 0.03077
#
# Static dielectric constant tensor:
#      x y z
#    x 4.073870 0.000000 0.255870 
#    y 0.000000 3.125220 0.000000 
#    z 0.255870 0.000000 3.990420 
# 
# 
# High freq. dielectric constant tensor:
#      x y z
#    x 1.828060 0.000000 0.006850 
#    y 0.000000 1.754200 0.000000 
#    z 0.006850 0.000000 1.836810 
# 
# From -- ./inp_files/3640.got.cif
#   From: 2010.03.12/outbox.cif.g09.slc.cpg/sg14_2_cif.got.tgz:3640.got - 2010.03.31 13:35:05.
