data_PCOD8123404
_publ_section_title
;
Structure prediction by ZEFSAII (Michael W. Deem and Ramdas Pophale) SiO2 
 PCOD8123404
Probable space group: P 21/C
;
_chemical_formula_sum "Si O2"
_cell_formula_units_Z 28
_cell_length_a 6.441421
_cell_length_b 16.540256
_cell_length_c 16.688136
_cell_angle_alpha 90.000000
_cell_angle_beta 126.180486
_cell_angle_gamma 90.000000
_cell_volume 1435.132950
_symmetry_space_group_name_H-M "P 21/C"
_symmetry_group_IT_number 14
_symmetry_cell_setting 'monoclinic'
loop_
_space_group_symop_operation_xyz
x,y,z
-x,1/2+y,1/2-z
-x,-y,-z
x,1/2-y,1/2+z
loop_
_atom_site_type_symbol
_atom_site_label
_atom_site_fract_x
_atom_site_fract_y
_atom_site_fract_z
Si Si1 0.662181 0.276480 0.311727
Si Si2 0.733378 0.639403 0.271247
Si Si3 0.039834 0.347667 0.836464
Si Si4 0.996399 0.269943 0.537416
Si Si5 0.392790 0.651457 0.992365
Si Si6 0.393529 0.129045 0.621247
Si Si7 0.727053 0.452508 0.880731
O O1 0.430623 0.219789 0.290806
O O2 0.839338 0.304801 0.426100
O O3 0.551946 0.352967 0.238714
O O4 0.836039 0.224538 0.290623
O O5 0.948862 0.620686 0.252770
O O6 0.535435 0.564179 0.229680
O O7 0.868759 0.654341 0.387731
O O8 0.965017 0.417230 0.883823
O O9 0.323304 0.316831 0.922562
O O10 0.801282 0.227024 0.554727
O O11 0.206208 0.203772 0.556694
O O12 0.405378 0.613476 0.905722
O O13 0.294705 0.587906 0.036507
O O14 0.227150 0.047988 0.598215
#
# Coordination Sequence:
#
# PCOD8123404 Si02
#       7
#     4   4   4   4   4   4   4
#     4  10  19  37  53  81 106 139 190 226 262 323
#     4   9  20  35  55  75 111 142 181 224 272 316
#     4  10  17  36  55  75 111 140 176 226 268 318
#     4  11  20  36  57  83 104 144 186 229 266 317
#     4  11  19  34  56  83 111 141 181 220 278 318
#     4  11  23  34  57  82 113 145 178 225 277 319
#     4  10  21  36  52  84 116 143 176 221 274 333
#
# _framework density 19.510389
#
# number of rings (size 3 to 8) (size 9 to 14) (size 15 to 20)
#    0.000    1.714    5.714    1.286    0.000    4.571 
#    0.000    0.714    0.000    0.857    0.000    0.000 
#    0.000    0.000    0.000    0.000    0.000    0.000 
#
# Total GULP energy -347052.595228 kJ/mol
# GULP energy per Si atom -12394.735544 kJ/mol
# Density = 1.946598 g / cm^3
# Si number density = 19.510389 Si / 1000 Ang^3
#
#
#
# Elastic Constant Matrix: (Units=GPa)
#
#
# Indices 1 2 3 4 5 6 
#
# 1 99.9426 15.9311 30.8678 0.0000 -11.5270 0.0000
# 2 15.9311 35.3265 4.6935 0.0000 -8.6390 0.0000
# 3 30.8678 4.6935 98.3860 0.0000 -7.7317 0.0000
# 4 0.0000 0.0000 0.0000 26.1829 0.0000 5.6119
# 5 -11.5270 -8.6390 -7.7317 0.0000 25.6298 0.0000
# 6 0.0000 0.0000 0.0000 5.6119 0.0000 17.5482
#
#
#
# Elastic Compliance Matrix: (Units=1/GPa)
#
#
# Indices 1 2 3 4 5 6 
#
# 1 0.012063 -0.004267 -0.003347 0.000000 0.002977 0.000000
# 2 -0.004267 0.032403 0.000513 0.000000 0.009158 0.000000
# 3 -0.003347 0.000513 0.011354 0.000000 0.002093 0.000000
# 4 0.000000 0.000000 0.000000 0.041003 0.000000 -0.013113
# 5 0.002977 0.009158 0.002093 0.000000 0.044074 0.000000
# 6 0.000000 0.000000 0.000000 -0.013113 0.000000 0.061179
#
#
# Mechanical properties :
#
#
# Convention : Reuss Voigt Hill
#
# Bulk Modulus (GPa) = 24.02870 37.40444 30.71657
# Shear Modulus (GPa) = 21.72468 26.01636 23.87052
#
# Velocity S-wave (km/s) = 3.34052 3.65562 3.50162
# Velocity P-wave (km/s) = 5.21741 6.08533 5.66801
#
# Compressibility (1/GPa) = 0.04161690
#
# Stress axis : x y z
#
# Youngs Moduli (GPa) = 82.89710 30.86124 88.07323
#
# Poissons Ratio (x) = 0.13169 0.29480
# Poissons Ratio (y) = 0.35375 -0.04516
# Poissons Ratio (z) = 0.27747 -0.01582
#
# Static dielectric constant tensor:
#      x y z
#    x 3.899610 0.000000 -0.070680 
#    y 0.000000 3.123370 0.000000 
#    z -0.070680 0.000000 3.666370 
# 
# 
# High freq. dielectric constant tensor:
#      x y z
#    x 1.778740 0.000000 -0.000210 
#    y 0.000000 1.704550 0.000000 
#    z -0.000210 0.000000 1.758800 
# 
# From -- ./inp_files/37533.got.cif
#   From: 2010.03.12/outbox.cif.g09.slc.cpg/sg14_19_cif.got.tgz:37533.got - 2010.03.31 13:35:05.
