data_PCOD8123419
_publ_section_title
;
Structure prediction by ZEFSAII (Michael W. Deem and Ramdas Pophale) SiO2 
 PCOD8123419
Probable space group: P 21/C
;
_chemical_formula_sum "Si O2"
_cell_formula_units_Z 32
_cell_length_a 9.728311
_cell_length_b 15.449116
_cell_length_c 12.612349
_cell_angle_alpha 90.000000
_cell_angle_beta 58.294575
_cell_angle_gamma 90.000000
_cell_volume 1612.667421
_symmetry_space_group_name_H-M "P 21/C"
_symmetry_group_IT_number 14
_symmetry_cell_setting 'monoclinic'
loop_
_space_group_symop_operation_xyz
x,y,z
-x,1/2+y,1/2-z
-x,-y,-z
x,1/2-y,1/2+z
loop_
_atom_site_type_symbol
_atom_site_label
_atom_site_fract_x
_atom_site_fract_y
_atom_site_fract_z
Si Si1 0.393376 0.385487 0.649383
Si Si2 0.123394 0.922731 0.761338
Si Si3 0.909182 0.392019 0.950625
Si Si4 0.261036 0.572035 0.421423
Si Si5 0.222852 0.381330 0.507601
Si Si6 0.178442 0.535344 0.806732
Si Si7 0.163480 0.252117 0.849180
Si Si8 0.998769 0.607284 0.693840
O O1 0.584039 0.382187 0.590930
O O2 0.361388 0.365337 0.539091
O O3 0.333941 0.482880 0.703064
O O4 0.310046 0.313922 0.756908
O O5 0.181859 0.879341 0.626028
O O6 0.248206 0.898443 0.803764
O O7 0.121469 0.026333 0.751247
O O8 0.942859 0.889614 0.859641
O O9 0.031606 0.469962 0.880303
O O10 0.006769 0.307337 0.946677
O O11 0.785600 0.416755 0.095677
O O12 0.265151 0.468306 0.426895
O O13 0.099698 0.605770 0.543677
O O14 0.221537 0.302503 0.426479
O O15 0.123185 0.607132 0.742501
O O16 0.112821 0.192669 0.768514
#
# Coordination Sequence:
#
# PCOD8123419 Si02
#       8
#     4   4   4   4   4   4   4   4
#     4  11  23  38  58  92 125 154 198 250 309 353
#     4  10  17  37  60  88 111 153 211 238 277 365
#     4   9  19  33  55  83 119 151 196 243 284 354
#     4  11  20  37  63  88 116 157 201 252 292 359
#     4  11  19  37  62  87 115 153 207 249 290 359
#     4   9  18  35  55  83 113 157 197 232 293 355
#     4  11  21  35  56  93 119 153 195 258 307 337
#     4  10  18  33  61  87 111 152 204 246 289 347
#
# _framework density 19.8429
#
# number of rings (size 3 to 8) (size 9 to 14) (size 15 to 20)
#    0.000    1.750    7.500    1.125    1.750    0.000 
#    0.000    3.125    0.000    0.000    0.000    0.000 
#    0.000    0.000    0.000    0.000    0.000    0.000 
#
# Total GULP energy -396699.597281 kJ/mol
# GULP energy per Si atom -12396.862415 kJ/mol
# Density = 1.979774 g / cm^3
# Si number density = 19.842900 Si / 1000 Ang^3
#
#
#
# Elastic Constant Matrix: (Units=GPa)
#
#
# Indices 1 2 3 4 5 6 
#
# 1 96.7304 31.0117 32.3848 0.0000 31.7441 0.0000
# 2 31.0117 73.4908 29.0803 0.0000 9.2797 0.0000
# 3 32.3848 29.0803 82.5567 0.0000 40.8144 0.0000
# 4 0.0000 0.0000 0.0000 16.4768 0.0000 10.6464
# 5 31.7441 9.2797 40.8144 0.0000 37.4058 0.0000
# 6 0.0000 0.0000 0.0000 10.6464 0.0000 24.8185
#
#
#
# Elastic Compliance Matrix: (Units=1/GPa)
#
#
# Indices 1 2 3 4 5 6 
#
# 1 0.016632 -0.006535 0.004243 0.000000 -0.017123 0.000000
# 2 -0.006535 0.018765 -0.009742 0.000000 0.011520 0.000000
# 3 0.004243 -0.009742 0.031407 0.000000 -0.035453 0.000000
# 4 0.000000 0.000000 0.000000 0.083964 0.000000 -0.036018
# 5 -0.017123 0.011520 -0.035453 0.000000 0.077091 0.000000
# 6 0.000000 0.000000 0.000000 -0.036018 0.000000 0.055743
#
#
# Mechanical properties :
#
#
# Convention : Reuss Voigt Hill
#
# Bulk Modulus (GPa) = 23.39920 48.63684 36.01802
# Shear Modulus (GPa) = 15.53200 26.42696 20.97948
#
# Velocity S-wave (km/s) = 2.80080 3.65336 3.25511
# Velocity P-wave (km/s) = 4.71987 6.50847 5.68495
#
# Compressibility (1/GPa) = 0.04273651
#
# Stress axis : x y z
#
# Youngs Moduli (GPa) = 60.12558 53.29075 31.83958
#
# Poissons Ratio (x) = 0.34826 -0.13509
# Poissons Ratio (y) = 0.39293 0.31017
# Poissons Ratio (z) = -0.25511 0.51914
#
# Static dielectric constant tensor:
#      x y z
#    x 3.424210 0.000000 0.433410 
#    y 0.000000 3.571290 0.000000 
#    z 0.433410 0.000000 3.805150 
# 
# 
# High freq. dielectric constant tensor:
#      x y z
#    x 1.749190 0.000000 0.035970 
#    y 0.000000 1.761970 0.000000 
#    z 0.035970 0.000000 1.764320 
# 
# From -- ./inp_files/26042.got.cif
#   From: 2010.03.12/outbox.cif.g09.slc.cpg/sg14_14_cif.got.tgz:26042.got - 2010.03.31 13:35:05.
