data_PCOD8123537
_publ_section_title
;
Structure prediction by ZEFSAII (Michael W. Deem and Ramdas Pophale) SiO2 
 PCOD8123537
Probable space group: P 21/C
;
_chemical_formula_sum "Si O2"
_cell_formula_units_Z 28
_cell_length_a 21.549879
_cell_length_b 11.181357
_cell_length_c 12.388681
_cell_angle_alpha 90.000000
_cell_angle_beta 155.029605
_cell_angle_gamma 90.000000
_cell_volume 1260.175765
_symmetry_space_group_name_H-M "P 21/C"
_symmetry_group_IT_number 14
_symmetry_cell_setting 'monoclinic'
loop_
_space_group_symop_operation_xyz
x,y,z
-x,1/2+y,1/2-z
-x,-y,-z
x,1/2-y,1/2+z
loop_
_atom_site_type_symbol
_atom_site_label
_atom_site_fract_x
_atom_site_fract_y
_atom_site_fract_z
Si Si1 0.929112 0.087807 0.721891
Si Si2 0.451163 0.990981 0.071454
Si Si3 0.818396 0.629666 0.952319
Si Si4 0.621205 0.325557 0.721972
Si Si5 0.672501 0.410920 0.407587
Si Si6 0.984061 0.300533 0.930614
Si Si7 0.827705 0.869226 0.066983
O O1 0.793138 0.167879 0.463094
O O2 0.975912 0.153739 0.907966
O O3 0.054979 0.083661 0.832000
O O4 0.875014 0.950348 0.643704
O O5 0.303660 0.061669 0.808185
O O6 0.474141 0.874288 0.030160
O O7 0.441898 0.945790 0.178870
O O8 0.585734 0.084212 0.267090
O O9 0.751696 0.750385 0.898728
O O10 0.955149 0.655384 0.088989
O O11 0.588738 0.187744 0.701877
O O12 0.823324 0.357974 0.696445
O O13 0.704166 0.529912 0.388275
O O14 0.092478 0.339870 0.194971
#
# Coordination Sequence:
#
# PCOD8123537 Si02
#       7
#     4   4   4   4   4   4   4
#     4   9  19  34  55  82 117 151 189 241 292 344
#     4  10  20  41  63  80 117 161 187 237 297 343
#     4  10  19  34  54  83 119 153 191 236 296 339
#     4   9  21  39  60  85 113 154 195 240 286 351
#     4  11  20  37  65  88 110 149 203 238 294 352
#     4  10  18  32  55  86 114 147 191 239 294 341
#     4  11  20  32  59  88 114 150 196 246 289 353
#
# _framework density 22.219121999999999
#
# number of rings (size 3 to 8) (size 9 to 14) (size 15 to 20)
#    0.000    2.000    2.857    2.143    0.000    0.571 
#    7.714    0.714    6.286    0.000    0.000    0.000 
#    0.000    0.000    0.000    0.000    0.000    0.000 
#
# Total GULP energy -346952.989751 kJ/mol
# GULP energy per Si atom -12391.178205 kJ/mol
# Density = 2.216855 g / cm^3
# Si number density = 22.219122 Si / 1000 Ang^3
#
#
#
# Elastic Constant Matrix: (Units=GPa)
#
#
# Indices 1 2 3 4 5 6 
#
# 1 82.3000 39.1365 -9.7831 0.0000 6.9834 0.0000
# 2 39.1365 154.3612 17.0508 0.0000 -11.4668 0.0000
# 3 -9.7831 17.0508 17.8855 0.0000 -0.7245 0.0000
# 4 0.0000 0.0000 0.0000 35.6805 0.0000 -1.5526
# 5 6.9834 -11.4668 -0.7245 0.0000 19.2912 0.0000
# 6 0.0000 0.0000 0.0000 -1.5526 0.0000 22.6915
#
#
#
# Elastic Compliance Matrix: (Units=1/GPa)
#
#
# Indices 1 2 3 4 5 6 
#
# 1 0.018482 -0.007297 0.016645 0.000000 -0.010403 0.000000
# 2 -0.007297 0.010452 -0.013618 0.000000 0.008343 0.000000
# 3 0.016645 -0.013618 0.077544 0.000000 -0.011208 0.000000
# 4 0.000000 0.000000 0.000000 0.028110 0.000000 0.001923
# 5 -0.010403 0.008343 -0.011208 0.000000 0.060141 0.000000
# 6 0.000000 0.000000 0.000000 0.001923 0.000000 0.044201
#
#
# Mechanical properties :
#
#
# Convention : Reuss Voigt Hill
#
# Bulk Modulus (GPa) = 10.21066 38.59500 24.40283
# Shear Modulus (GPa) = 17.84963 29.40883 23.62923
#
# Velocity S-wave (km/s) = 2.83741 3.64205 3.26462
# Velocity P-wave (km/s) = 3.91662 5.92402 5.02165
#
# Compressibility (1/GPa) = 0.09793688
#
# Stress axis : x y z
#
# Youngs Moduli (GPa) = 54.10663 95.67108 12.89592
#
# Poissons Ratio (x) = 0.69814 -0.21465
# Poissons Ratio (y) = 0.39483 0.17562
# Poissons Ratio (z) = -0.90058 1.30286
#
# Static dielectric constant tensor:
#      x y z
#    x 3.998200 0.000000 0.204250 
#    y 0.000000 4.489910 0.000000 
#    z 0.204250 0.000000 3.515410 
# 
# 
# High freq. dielectric constant tensor:
#      x y z
#    x 1.870400 0.000000 0.024020 
#    y 0.000000 1.891370 0.000000 
#    z 0.024020 0.000000 1.829800 
# 
# From -- ./inp_files/35131.got.cif
#   From: 2010.03.12/outbox.cif.g09.slc.cpg/sg14_18_cif.got.tgz:35131.got - 2010.03.31 13:35:05.
