data_PCOD8123620
_publ_section_title
;
Structure prediction by ZEFSAII (Michael W. Deem and Ramdas Pophale) SiO2 
 PCOD8123620
Probable space group: P 21/C
;
_chemical_formula_sum "Si O2"
_cell_formula_units_Z 32
_cell_length_a 11.448030
_cell_length_b 11.467261
_cell_length_c 13.756702
_cell_angle_alpha 90.000000
_cell_angle_beta 117.279255
_cell_angle_gamma 90.000000
_cell_volume 1605.094626
_symmetry_space_group_name_H-M "P 21/C"
_symmetry_group_IT_number 14
_symmetry_cell_setting 'monoclinic'
loop_
_space_group_symop_operation_xyz
x,y,z
-x,1/2+y,1/2-z
-x,-y,-z
x,1/2-y,1/2+z
loop_
_atom_site_type_symbol
_atom_site_label
_atom_site_fract_x
_atom_site_fract_y
_atom_site_fract_z
Si Si1 0.701628 0.689120 0.404801
Si Si2 0.918634 0.508640 0.774453
Si Si3 0.482343 0.136799 0.005180
Si Si4 0.903371 0.358842 0.290579
Si Si5 0.248784 0.274495 0.282257
Si Si6 0.103848 0.172697 0.403829
Si Si7 0.775213 0.183341 0.109092
Si Si8 0.146720 0.541808 0.540259
O O1 0.559460 0.678693 0.401961
O O2 0.693074 0.701822 0.285855
O O3 0.780709 0.802261 0.475313
O O4 0.768376 0.567818 0.462410
O O5 0.843690 0.619461 0.792376
O O6 0.809872 0.412027 0.704976
O O7 0.990252 0.545302 0.702009
O O8 0.035703 0.455338 0.887505
O O9 0.371897 0.177089 0.887950
O O10 0.619895 0.198098 0.034718
O O11 0.500000 0.000000 0.000000
O O12 0.828364 0.308252 0.167077
O O13 0.805036 0.411876 0.334720
O O14 0.985538 0.260922 0.378659
O O15 0.160447 0.189516 0.315396
O O16 0.841535 0.147022 0.032562
O O17 0.000000 0.500000 0.500000
#
# Coordination Sequence:
#
# PCOD8123620 Si02
#       8
#     4   4   4   4   4   4   4   4
#     4  11  22  37  63  84 114 161 198 243 289 355
#     4  10  18  34  56  87 126 150 185 246 306 349
#     4  11  21  43  60  81 118 160 203 237 286 342
#     4  10  21  32  56  92 118 148 189 239 299 347
#     4  10  21  35  61  87 112 162 205 241 291 352
#     4   9  19  34  54  86 123 153 185 241 307 352
#     4  11  22  38  61  84 121 158 192 247 288 350
#     4  12  20  35  60  90 116 151 196 235 297 362
#
# _framework density 19.936520000000002
#
# number of rings (size 3 to 8) (size 9 to 14) (size 15 to 20)
#    0.000    1.500    5.000    1.500    3.500    1.500 
#    0.000    1.250    2.750    2.250    0.000    0.000 
#    0.000    0.000    0.000    0.000    0.000    0.000 
#
# Total GULP energy -396596.092566 kJ/mol
# GULP energy per Si atom -12393.627893 kJ/mol
# Density = 1.989114 g / cm^3
# Si number density = 19.936520 Si / 1000 Ang^3
#
#
#
# Elastic Constant Matrix: (Units=GPa)
#
#
# Indices 1 2 3 4 5 6 
#
# 1 110.6238 25.7052 35.0557 0.0000 -1.3018 0.0000
# 2 25.7052 52.4357 26.2559 0.0000 2.0650 0.0000
# 3 35.0557 26.2559 71.1009 0.0000 -15.0893 0.0000
# 4 0.0000 0.0000 0.0000 30.7481 0.0000 -0.0891
# 5 -1.3018 2.0650 -15.0893 0.0000 32.5331 0.0000
# 6 0.0000 0.0000 0.0000 -0.0891 0.0000 27.5174
#
#
#
# Elastic Compliance Matrix: (Units=1/GPa)
#
#
# Indices 1 2 3 4 5 6 
#
# 1 0.011236 -0.003078 -0.004732 0.000000 -0.001550 0.000000
# 2 -0.003078 0.025382 -0.009121 0.000000 -0.005965 0.000000
# 3 -0.004732 -0.009121 0.022016 0.000000 0.010601 0.000000
# 4 0.000000 0.000000 0.000000 0.032523 0.000000 0.000105
# 5 -0.001550 -0.005965 0.010601 0.000000 0.035971 0.000000
# 6 0.000000 0.000000 0.000000 0.000105 0.000000 0.036341
#
#
# Mechanical properties :
#
#
# Convention : Reuss Voigt Hill
#
# Bulk Modulus (GPa) = 40.36955 45.35490 42.86222
# Shear Modulus (GPa) = 24.32039 27.96930 26.14484
#
# Velocity S-wave (km/s) = 3.49648 3.74962 3.62526
# Velocity P-wave (km/s) = 6.04926 6.44556 6.25055
#
# Compressibility (1/GPa) = 0.02477115
#
# Stress axis : x y z
#
# Youngs Moduli (GPa) = 88.99816 39.39813 45.42174
#
# Poissons Ratio (x) = 0.12125 0.21495
# Poissons Ratio (y) = 0.27390 0.41431
# Poissons Ratio (z) = 0.42117 0.35937
#
# Static dielectric constant tensor:
#      x y z
#    x 3.778210 0.000000 -0.050490 
#    y 0.000000 3.742960 0.000000 
#    z -0.050490 0.000000 3.530410 
# 
# 
# High freq. dielectric constant tensor:
#      x y z
#    x 1.770420 0.000000 -0.008710 
#    y 0.000000 1.767150 0.000000 
#    z -0.008710 0.000000 1.759850 
# 
# From -- ./inp_files/29167.got.cif
#   From: 2010.03.12/outbox.cif.g09.slc.cpg/sg14_15_cif.got.tgz:29167.got - 2010.03.31 13:35:05.
