data_PCOD8123627
_publ_section_title
;
Structure prediction by ZEFSAII (Michael W. Deem and Ramdas Pophale) SiO2 
 PCOD8123627
Probable space group: P 21/C
;
_chemical_formula_sum "Si O2"
_cell_formula_units_Z 32
_cell_length_a 9.929277
_cell_length_b 10.711128
_cell_length_c 18.417545
_cell_angle_alpha 90.000000
_cell_angle_beta 54.884404
_cell_angle_gamma 90.000000
_cell_volume 1602.264656
_symmetry_space_group_name_H-M "P 21/C"
_symmetry_group_IT_number 14
_symmetry_cell_setting 'monoclinic'
loop_
_space_group_symop_operation_xyz
x,y,z
-x,1/2+y,1/2-z
-x,-y,-z
x,1/2-y,1/2+z
loop_
_atom_site_type_symbol
_atom_site_label
_atom_site_fract_x
_atom_site_fract_y
_atom_site_fract_z
Si Si1 0.665047 0.549722 0.736316
Si Si2 0.856338 0.697904 0.181410
Si Si3 0.220726 0.731027 0.085925
Si Si4 0.350876 0.534481 0.743632
Si Si5 0.463980 0.393205 0.066856
Si Si6 0.159710 0.266154 0.644025
Si Si7 0.319463 0.505982 0.584350
Si Si8 0.796772 0.290332 0.740091
O O1 0.771546 0.672192 0.680557
O O2 0.536855 0.519530 0.712565
O O3 0.558289 0.569139 0.842700
O O4 0.777367 0.425457 0.708373
O O5 0.763494 0.572117 0.181021
O O6 0.851826 0.703248 0.268464
O O7 0.050707 0.686072 0.100398
O O8 0.211358 0.879719 0.090491
O O9 0.244858 0.684873 0.161844
O O10 0.378565 0.697885 0.987316
O O11 0.335830 0.501907 0.665017
O O12 0.307640 0.681656 0.767188
O O13 0.291387 0.341729 0.089373
O O14 0.500000 0.500000 0.000000
O O15 0.222078 0.388259 0.583000
O O16 0.979294 0.233507 0.671507
O O17 0.500000 0.500000 0.500000
#
# Coordination Sequence:
#
# PCOD8123627 Si02
#       8
#     4   4   4   4   4   4   4   4
#     4  11  21  38  57  80 111 151 186 218 276 334
#     4   9  20  35  57  81 109 144 185 228 266 326
#     4  10  19  34  57  85 109 136 184 233 277 312
#     4  10  22  36  57  80 109 147 185 220 269 336
#     4  11  21  33  57  84 111 143 179 232 276 323
#     4   9  19  33  56  85 106 137 186 229 271 315
#     4  10  18  34  57  83 104 139 180 230 271 315
#     4  10  20  35  58  81 108 143 185 230 264 324
#
# _framework density 19.971731999999999
#
# number of rings (size 3 to 8) (size 9 to 14) (size 15 to 20)
#    0.000    2.000    2.500    1.500    1.750    3.000 
#    0.000    0.625    2.750    1.500    0.000    0.000 
#    0.000    0.000    0.000    0.000    0.000    0.000 
#
# Total GULP energy -396465.211349 kJ/mol
# GULP energy per Si atom -12389.537855 kJ/mol
# Density = 1.992628 g / cm^3
# Si number density = 19.971732 Si / 1000 Ang^3
#
#
#
# Elastic Constant Matrix: (Units=GPa)
#
#
# Indices 1 2 3 4 5 6 
#
# 1 66.5884 31.4504 9.3305 0.0000 -32.2662 0.0000
# 2 31.4504 97.8958 14.2485 0.0000 -5.1646 0.0000
# 3 9.3305 14.2485 60.1602 0.0000 -28.0729 0.0000
# 4 0.0000 0.0000 0.0000 22.4984 0.0000 -8.6877
# 5 -32.2662 -5.1646 -28.0729 0.0000 27.1712 0.0000
# 6 0.0000 0.0000 0.0000 -8.6877 0.0000 25.9721
#
#
#
# Elastic Compliance Matrix: (Units=1/GPa)
#
#
# Indices 1 2 3 4 5 6 
#
# 1 -0.831235 0.283508 -0.721594 0.000000 -1.678755 0.000000
# 2 0.283508 -0.086099 0.243082 0.000000 0.571453 0.000000
# 3 -0.721594 0.243082 -0.593450 0.000000 -1.423842 0.000000
# 4 0.000000 0.000000 0.000000 0.051040 0.000000 0.017073
# 5 -1.678755 0.571453 -1.423842 0.000000 -3.319213 0.000000
# 6 0.000000 0.000000 0.000000 0.017073 0.000000 0.044214
#
#
# Mechanical properties :
#
#
# Convention : Reuss Voigt Hill
#
# Bulk Modulus (GPa) = -0.52610 37.18926 18.33158
# Shear Modulus (GPa) = -1.00435 26.43601 12.71583
#
# Velocity S-wave (km/s) = -0.70991 3.64218 2.52601
# Velocity P-wave (km/s) = 0.96745 6.02898 4.20789
#
# Compressibility (1/GPa) = -1.90079114
#
# Stress axis : x y z
#
# Youngs Moduli (GPa) = -1.20303 -11.61458 -1.68506
#
# Poissons Ratio (x) = 3.29283 -1.21593
# Poissons Ratio (y) = 0.34107 0.40961
# Poissons Ratio (z) = -0.86810 2.82329
#
# Static dielectric constant tensor:
#      x y z
#    x 3.561590 0.000000 -0.476860 
#    y 0.000000 4.052080 0.000000 
#    z -0.476860 0.000000 3.757490 
# 
# 
# High freq. dielectric constant tensor:
#      x y z
#    x 1.760540 0.000000 -0.033700 
#    y 0.000000 1.797940 0.000000 
#    z -0.033700 0.000000 1.755270 
# 
# From -- ./inp_files/65591.got.cif
#   From: 2010.03.12/outbox.cif.g09.slc.cpg/sg14_33_cif.got.tgz:65591.got - 2010.03.31 13:35:05.
