data_PCOD8123080
_publ_section_title
;
Structure prediction by ZEFSAII (Michael W. Deem and Ramdas Pophale) SiO2 
 PCOD8123080
Probable space group: P 2/C
;
_chemical_formula_sum "Si O2"
_cell_formula_units_Z 22
_cell_length_a 21.410965
_cell_length_b 6.575576
_cell_length_c 22.678028
_cell_angle_alpha 90.000000
_cell_angle_beta 161.337198
_cell_angle_gamma 90.000000
_cell_volume 1021.698018
_symmetry_space_group_name_H-M "P 2/C"
_symmetry_group_IT_number 13
_symmetry_cell_setting 'monoclinic'
loop_
_space_group_symop_operation_xyz
x,y,z
-x,y,1/2-z
-x,-y,-z
x,-y,1/2+z
loop_
_atom_site_type_symbol
_atom_site_label
_atom_site_fract_x
_atom_site_fract_y
_atom_site_fract_z
Si Si1 0.857288 0.178141 0.251835
Si Si2 0.536167 0.210970 0.659634
Si Si3 0.796320 0.895123 0.822768
Si Si4 0.108824 0.162387 0.907153
Si Si5 0.500000 0.044612 0.750000
Si Si6 0.843391 0.471325 0.448368
O O1 0.727765 0.116502 0.193295
O O2 0.985792 0.364572 0.390752
O O3 0.692547 0.243712 0.058072
O O4 0.990949 0.001654 0.342158
O O5 0.632650 0.017502 0.712778
O O6 0.564101 0.182160 0.753600
O O7 0.646562 0.421497 0.749054
O O8 0.863858 0.686214 0.913621
O O9 0.000000 0.000000 0.000000
O O10 0.162503 0.357233 0.994294
O O11 0.000000 0.228429 0.750000
O O12 0.312818 0.084862 0.064131
#
# Coordination Sequence:
#
# PCOD8123080 Si02
#       6
#     4   4   4   4   2   4
#     4  12  26  46  73 104 141 181 237 285 347 413
#     4  12  27  44  74 103 142 183 232 289 345 414
#     4  12  23  48  73 100 145 187 225 287 354 408
#     4  12  26  46  75 100 141 187 229 287 352 414
#     4  12  22  48  70  98 140 184 226 282 350 406
#     4  12  25  45  71 109 132 188 231 290 342 410
#
# _framework density 21.532782999999998
#
# number of rings (size 3 to 8) (size 9 to 14) (size 15 to 20)
#    0.000    0.000    9.091    1.091    0.000    6.545 
#    0.000    0.000    0.000    0.000    0.000    0.000 
#    0.000    0.000    0.000    0.000    0.000    0.000 
#
# Total GULP energy -272574.666283 kJ/mol
# GULP energy per Si atom -12389.757558 kJ/mol
# Density = 2.148377 g / cm^3
# Si number density = 21.532783 Si / 1000 Ang^3
#
#
#
# Elastic Constant Matrix: (Units=GPa)
#
#
# Indices 1 2 3 4 5 6 
#
# 1 98.5141 24.1972 1.1404 0.0000 -5.8344 0.0000
# 2 24.1972 103.3321 27.2136 0.0000 4.4558 0.0000
# 3 1.1404 27.2136 113.7208 0.0000 6.3308 0.0000
# 4 0.0000 0.0000 0.0000 17.8972 0.0000 -9.4076
# 5 -5.8344 4.4558 6.3308 0.0000 37.4215 0.0000
# 6 0.0000 0.0000 0.0000 -9.4076 0.0000 21.2086
#
#
#
# Elastic Compliance Matrix: (Units=1/GPa)
#
#
# Indices 1 2 3 4 5 6 
#
# 1 0.010940 -0.002763 0.000442 0.000000 0.001960 0.000000
# 2 -0.002763 0.011051 -0.002544 0.000000 -0.001316 0.000000
# 3 0.000442 -0.002544 0.009466 0.000000 -0.001230 0.000000
# 4 0.000000 0.000000 0.000000 0.072864 0.000000 0.032321
# 5 0.001960 -0.001316 -0.001230 0.000000 0.027393 0.000000
# 6 0.000000 0.000000 0.000000 0.032321 0.000000 0.061487
#
#
# Mechanical properties :
#
#
# Convention : Reuss Voigt Hill
#
# Bulk Modulus (GPa) = 46.02046 46.74104 46.38075
# Shear Modulus (GPa) = 23.78986 32.83984 28.31485
#
# Velocity S-wave (km/s) = 3.32749 3.90950 3.63018
# Velocity P-wave (km/s) = 6.01511 6.49099 6.25758
#
# Compressibility (1/GPa) = 0.02172946
#
# Stress axis : x y z
#
# Youngs Moduli (GPa) = 91.40419 90.48813 105.63937
#
# Poissons Ratio (x) = 0.25001 -0.04673
# Poissons Ratio (y) = 0.25254 0.26870
# Poissons Ratio (z) = -0.04043 0.23016
#
# Static dielectric constant tensor:
#      x y z
#    x 3.888250 0.000000 -0.080550 
#    y 0.000000 4.146500 0.000000 
#    z -0.080550 0.000000 3.985650 
# 
# 
# High freq. dielectric constant tensor:
#      x y z
#    x 1.862780 0.000000 -0.009490 
#    y 0.000000 1.840610 0.000000 
#    z -0.009490 0.000000 1.859170 
# 
# From -- ./inp_files/88802.got.cif
#   From: 2010.06.25/outbox.cif.g09.slc.cpg/sg13_45_cif.got.tgz:88802.got - 2010.06.28 04:50:58.
