data_PCOD8123250
_publ_section_title
;
Structure prediction by ZEFSAII (Michael W. Deem and Ramdas Pophale) SiO2 
 PCOD8123250
Probable space group: P 21/C
;
_chemical_formula_sum "Si O2"
_cell_formula_units_Z 32
_cell_length_a 15.477277
_cell_length_b 5.296326
_cell_length_c 36.007465
_cell_angle_alpha 90.000000
_cell_angle_beta 143.483217
_cell_angle_gamma 90.000000
_cell_volume 1756.391289
_symmetry_space_group_name_H-M "P 21/C"
_symmetry_group_IT_number 14
_symmetry_cell_setting 'monoclinic'
loop_
_space_group_symop_operation_xyz
x,y,z
-x,1/2+y,1/2-z
-x,-y,-z
x,1/2-y,1/2+z
loop_
_atom_site_type_symbol
_atom_site_label
_atom_site_fract_x
_atom_site_fract_y
_atom_site_fract_z
Si Si1 0.280934 0.246423 0.745391
Si Si2 0.737044 0.246760 0.728239
Si Si3 0.422149 0.751082 0.605404
Si Si4 0.504482 0.725430 0.549113
Si Si5 0.091909 0.717477 0.285775
Si Si6 0.339654 0.774413 0.421395
Si Si7 0.411270 0.290489 0.714452
Si Si8 0.392009 0.248925 0.123701
O O1 0.194623 0.493485 0.729943
O O2 0.439905 0.240178 0.819259
O O3 0.289241 0.249846 0.703599
O O4 0.195622 0.993506 0.728232
O O5 0.778711 0.254575 0.699508
O O6 0.564802 0.240799 0.675256
O O7 0.464746 0.771465 0.577631
O O8 0.328597 0.497738 0.580882
O O9 0.325807 0.995941 0.583033
O O10 0.362424 0.746730 0.473592
O O11 0.570468 0.445971 0.568281
O O12 0.615957 0.944546 0.575977
O O13 0.169753 0.741042 0.352740
O O14 0.023581 0.440252 0.258927
O O15 0.468187 0.575071 0.738605
O O16 0.347067 0.261955 0.651196
#
# Coordination Sequence:
#
# PCOD8123250 Si02
#       8
#     4   4   4   4   4   4   4   4
#     4  10  17  26  44  62  93 127 152 193 228 301
#     4  10  18  30  43  61  83 122 166 192 235 280
#     4  10  16  25  38  62  87 118 155 179 228 275
#     4  10  19  32  54  73  95 126 162 219 249 313
#     4  12  24  37  52  71  99 136 175 223 253 291
#     4  10  20  35  51  73  95 123 169 210 272 298
#     4  12  16  27  38  65  95 129 161 179 239 291
#     4  10  18  26  42  63  93 129 152 191 228 301
#
# _framework density 18.219175
#
# number of rings (size 3 to 8) (size 9 to 14) (size 15 to 20)
#    0.000    1.500    5.000    5.250    0.000    0.000 
#    0.000    0.000    0.000    0.000    0.000    0.000 
#    0.000    0.000    0.000   38.250    0.000    0.000 
#
# Total GULP energy -396523.375941 kJ/mol
# GULP energy per Si atom -12391.355498 kJ/mol
# Density = 1.817771 g / cm^3
# Si number density = 18.219175 Si / 1000 Ang^3
#
#
#
# Elastic Constant Matrix: (Units=GPa)
#
#
# Indices 1 2 3 4 5 6 
#
# 1 48.7227 5.5232 16.1480 0.0000 -20.7287 0.0000
# 2 5.5232 142.7448 1.1859 0.0000 -2.6171 0.0000
# 3 16.1480 1.1859 52.7827 0.0000 -5.0776 0.0000
# 4 0.0000 0.0000 0.0000 18.9072 0.0000 -8.8660
# 5 -20.7287 -2.6171 -5.0776 0.0000 18.2235 0.0000
# 6 0.0000 0.0000 0.0000 -8.8660 0.0000 28.0998
#
#
#
# Elastic Compliance Matrix: (Units=1/GPa)
#
#
# Indices 1 2 3 4 5 6 
#
# 1 0.043464 -0.000749 -0.008770 0.000000 0.046887 0.000000
# 2 -0.000749 0.007037 0.000089 0.000000 0.000183 0.000000
# 3 -0.008770 0.000089 0.021237 0.000000 -0.004045 0.000000
# 4 0.000000 0.000000 0.000000 0.062074 0.000000 0.019586
# 5 0.046887 0.000183 -0.004045 0.000000 0.107106 0.000000
# 6 0.000000 0.000000 0.000000 0.019586 0.000000 0.041767
#
#
# Mechanical properties :
#
#
# Convention : Reuss Voigt Hill
#
# Bulk Modulus (GPa) = 18.91154 32.21828 25.56491
# Shear Modulus (GPa) = 15.66554 27.80563 21.73559
#
# Velocity S-wave (km/s) = 2.93548 3.91087 3.45774
# Velocity P-wave (km/s) = 4.67888 6.17376 5.47756
#
# Compressibility (1/GPa) = 0.05287777
#
# Stress axis : x y z
#
# Youngs Moduli (GPa) = 23.00778 142.10357 47.08672
#
# Poissons Ratio (x) = 0.10647 0.41293
# Poissons Ratio (y) = 0.01724 -0.00418
# Poissons Ratio (z) = 0.20177 -0.01261
#
# Static dielectric constant tensor:
#      x y z
#    x 3.149140 0.000000 -0.484180 
#    y 0.000000 5.484840 0.000000 
#    z -0.484180 0.000000 3.048460 
# 
# 
# High freq. dielectric constant tensor:
#      x y z
#    x 1.672610 0.000000 -0.058070 
#    y 0.000000 1.754510 0.000000 
#    z -0.058070 0.000000 1.644400 
# 
# From -- ./inp_files/70612.got.cif
#   From: 2010.03.12/outbox.cif.g09.slc.cpg/sg14_36_cif.got.tgz:70612.got - 2010.03.31 13:35:05.
