data_PCOD8123993
_publ_section_title
;
Structure prediction by ZEFSAII (Michael W. Deem and Ramdas Pophale) SiO2 
 PCOD8123993
Probable space group: P 21/C
;
_chemical_formula_sum "Si O2"
_cell_formula_units_Z 28
_cell_length_a 22.743718
_cell_length_b 11.576808
_cell_length_c 27.573884
_cell_angle_alpha 90.000000
_cell_angle_beta 168.460121
_cell_angle_gamma 90.000000
_cell_volume 1452.401361
_symmetry_space_group_name_H-M "P 21/C"
_symmetry_group_IT_number 14
_symmetry_cell_setting 'monoclinic'
loop_
_space_group_symop_operation_xyz
x,y,z
-x,1/2+y,1/2-z
-x,-y,-z
x,1/2-y,1/2+z
loop_
_atom_site_type_symbol
_atom_site_label
_atom_site_fract_x
_atom_site_fract_y
_atom_site_fract_z
Si Si1 0.225288 0.301150 0.564298
Si Si2 0.311606 0.042117 0.919106
Si Si3 0.693210 0.449250 0.387446
Si Si4 0.312749 0.225771 0.531742
Si Si5 0.132144 0.601918 0.186723
Si Si6 0.579289 0.461798 0.733668
Si Si7 0.093870 0.745993 0.887040
O O1 0.154683 0.437806 0.512896
O O2 0.143727 0.263409 0.443868
O O3 0.023344 0.227428 0.437524
O O4 0.567136 0.277696 0.852002
O O5 0.037941 0.130410 0.695623
O O6 0.250790 0.932564 0.835963
O O7 0.602790 0.110617 0.136972
O O8 0.361306 0.997205 0.014124
O O9 0.467903 0.397804 0.165470
O O10 0.515649 0.480067 0.292791
O O11 0.929771 0.350880 0.593186
O O12 0.562418 0.322577 0.722715
O O13 0.079001 0.215299 0.300325
O O14 0.908460 0.502748 0.987662
#
# Coordination Sequence:
#
# PCOD8123993 Si02
#       7
#     4   4   4   4   4   4   4
#     4  10  21  33  53  80 107 141 183 220 269 317
#     4  10  23  35  57  81 110 144 181 218 275 323
#     4  10  19  33  54  80 107 140 181 229 266 313
#     4   9  19  32  53  79 109 139 180 225 270 312
#     4  11  20  37  55  80 113 143 178 224 269 326
#     4  10  19  35  55  80 109 142 179 223 272 317
#     4  10  20  35  54  78 108 143 179 228 265 319
#
# _framework density 19.278419
#
# number of rings (size 3 to 8) (size 9 to 14) (size 15 to 20)
#    0.000    2.000    2.857    3.000    2.000    2.286 
#    0.000    0.714    0.000    3.429    0.000    0.000 
#    0.000    0.000    0.000    0.000    0.000    0.000 
#
# Total GULP energy -347138.304103 kJ/mol
# GULP energy per Si atom -12397.796575 kJ/mol
# Density = 1.923454 g / cm^3
# Si number density = 19.278419 Si / 1000 Ang^3
#
#
#
# Elastic Constant Matrix: (Units=GPa)
#
#
# Indices 1 2 3 4 5 6 
#
# 1 52.5140 18.7413 21.1865 0.0000 -15.6184 0.0000
# 2 18.7413 82.8393 17.8493 0.0000 -9.2968 0.0000
# 3 21.1865 17.8493 69.3488 0.0000 -6.5015 0.0000
# 4 0.0000 0.0000 0.0000 29.0225 0.0000 1.0815
# 5 -15.6184 -9.2968 -6.5015 0.0000 28.1922 0.0000
# 6 0.0000 0.0000 0.0000 1.0815 0.0000 21.8953
#
#
#
# Elastic Compliance Matrix: (Units=1/GPa)
#
#
# Indices 1 2 3 4 5 6 
#
# 1 0.026237 -0.003281 -0.006041 0.000000 0.012061 0.000000
# 2 -0.003281 0.013544 -0.002285 0.000000 0.002122 0.000000
# 3 -0.006041 -0.002285 0.016833 0.000000 -0.000218 0.000000
# 4 0.000000 0.000000 0.000000 0.034520 0.000000 -0.001705
# 5 0.012061 0.002122 -0.000218 0.000000 0.042802 0.000000
# 6 0.000000 0.000000 0.000000 -0.001705 0.000000 0.045756
#
#
# Mechanical properties :
#
#
# Convention : Reuss Voigt Hill
#
# Bulk Modulus (GPa) = 29.93816 35.58401 32.76108
# Shear Modulus (GPa) = 23.36028 25.61701 24.48864
#
# Velocity S-wave (km/s) = 3.48477 3.64921 3.56794
# Velocity P-wave (km/s) = 5.63512 6.02111 5.83131
#
# Compressibility (1/GPa) = 0.03340219
#
# Stress axis : x y z
#
# Youngs Moduli (GPa) = 38.11349 73.83201 59.40738
#
# Poissons Ratio (x) = 0.24223 0.35886
# Poissons Ratio (y) = 0.12504 0.13574
# Poissons Ratio (z) = 0.23023 0.16869
#
# Static dielectric constant tensor:
#      x y z
#    x 3.416870 0.000000 -0.238800 
#    y 0.000000 3.790920 0.000000 
#    z -0.238800 0.000000 3.415010 
# 
# 
# High freq. dielectric constant tensor:
#      x y z
#    x 1.730640 0.000000 -0.031140 
#    y 0.000000 1.753610 0.000000 
#    z -0.031140 0.000000 1.737520 
# 
# From -- ./inp_files/61324.got.cif
#   From: 2010.03.12/outbox.cif.g09.slc.cpg/sg14_31_cif.got.tgz:61324.got - 2010.03.31 13:35:05.
