data_PCOD8123237
_publ_section_title
;
Structure prediction by ZEFSAII (Michael W. Deem and Ramdas Pophale) SiO2 
 PCOD8123237
Probable space group: P 21/C
;
_chemical_formula_sum "Si O2"
_cell_formula_units_Z 32
_cell_length_a 17.969750
_cell_length_b 18.537725
_cell_length_c 8.559238
_cell_angle_alpha 90.000000
_cell_angle_beta 34.644799
_cell_angle_gamma 90.000000
_cell_volume 1620.892615
_symmetry_space_group_name_H-M "P 21/C"
_symmetry_group_IT_number 14
_symmetry_cell_setting 'monoclinic'
loop_
_space_group_symop_operation_xyz
x,y,z
-x,1/2+y,1/2-z
-x,-y,-z
x,1/2-y,1/2+z
loop_
_atom_site_type_symbol
_atom_site_label
_atom_site_fract_x
_atom_site_fract_y
_atom_site_fract_z
Si Si1 0.557691 0.725770 0.042029
Si Si2 0.959506 0.081750 0.398218
Si Si3 0.604539 0.646142 0.672095
Si Si4 0.178748 0.630258 0.144719
Si Si5 0.179297 0.710335 0.712829
Si Si6 0.212157 0.019833 0.096931
Si Si7 0.387168 0.807515 0.098292
Si Si8 0.304968 0.607771 0.243421
O O1 0.646096 0.678559 0.771433
O O2 0.435699 0.753696 0.148692
O O3 0.632071 0.794204 0.989696
O O4 0.505405 0.673526 0.273471
O O5 0.930439 0.085397 0.261924
O O6 0.109114 0.059706 0.162139
O O7 0.862725 0.022429 0.638172
O O8 0.935936 0.159641 0.520497
O O9 0.694618 0.578013 0.479934
O O10 0.451549 0.625272 0.933894
O O11 0.126409 0.713135 0.242099
O O12 0.314548 0.625379 0.806472
O O13 0.206675 0.597880 0.266173
O O14 0.279540 0.733025 0.677513
O O15 0.251374 0.669084 0.449010
O O16 0.304204 0.968104 0.835554
#
# Coordination Sequence:
#
# PCOD8123237 Si02
#       8
#     4   4   4   4   4   4   4   4
#     4  10  18  30  55  85 116 142 170 230 300 326
#     4   9  22  40  58  76 112 162 189 232 274 325
#     4  11  20  37  59  85 114 148 182 232 285 346
#     4  11  18  31  58  91 110 136 198 246 278 319
#     4  10  17  31  59  88 114 138 186 244 286 321
#     4  10  23  43  55  73 117 163 193 216 277 344
#     4  10  15  27  49  84 118 134 162 226 289 331
#     4  11  20  33  60  87 111 149 185 235 284 336
#
# _framework density 19.742208999999999
#
# number of rings (size 3 to 8) (size 9 to 14) (size 15 to 20)
#    0.000    1.750    3.750    3.375    0.000    0.500 
#    2.250    3.125    0.000    0.000    0.000    0.000 
#    0.000    0.000    0.000    0.000    0.000    0.000 
#
# Total GULP energy -396479.472744 kJ/mol
# GULP energy per Si atom -12389.983523 kJ/mol
# Density = 1.969727 g / cm^3
# Si number density = 19.742209 Si / 1000 Ang^3
#
#
#
# Elastic Constant Matrix: (Units=GPa)
#
#
# Indices 1 2 3 4 5 6 
#
# 1 87.6425 35.0567 18.9999 0.0000 18.3539 0.0000
# 2 35.0567 80.8491 14.5528 0.0000 0.1633 0.0000
# 3 18.9999 14.5528 30.6438 0.0000 5.8966 0.0000
# 4 0.0000 0.0000 0.0000 12.0021 0.0000 -5.9843
# 5 18.3539 0.1633 5.8966 0.0000 24.9122 0.0000
# 6 0.0000 0.0000 0.0000 -5.9843 0.0000 32.9470
#
#
#
# Elastic Compliance Matrix: (Units=1/GPa)
#
#
# Indices 1 2 3 4 5 6 
#
# 1 0.017735 -0.006662 -0.005581 0.000000 -0.011702 0.000000
# 2 -0.006662 0.016081 -0.004642 0.000000 0.005901 0.000000
# 3 -0.005581 -0.004642 0.039290 0.000000 -0.005158 0.000000
# 4 0.000000 0.000000 0.000000 0.091615 0.000000 0.016640
# 5 -0.011702 0.005901 -0.005158 0.000000 0.049944 0.000000
# 6 0.000000 0.000000 0.000000 0.016640 0.000000 0.033374
#
#
# Mechanical properties :
#
#
# Convention : Reuss Voigt Hill
#
# Bulk Modulus (GPa) = 25.42131 37.37270 31.39700
# Shear Modulus (GPa) = 16.95366 22.67401 19.81383
#
# Velocity S-wave (km/s) = 2.93363 3.39264 3.17145
# Velocity P-wave (km/s) = 4.93756 5.85816 5.41745
#
# Compressibility (1/GPa) = 0.03933707
#
# Stress axis : x y z
#
# Youngs Moduli (GPa) = 56.38541 62.18530 25.45164
#
# Poissons Ratio (x) = 0.41427 0.14204
# Poissons Ratio (y) = 0.37563 0.11815
# Poissons Ratio (z) = 0.31467 0.28866
#
# Static dielectric constant tensor:
#      x y z
#    x 3.707710 0.000000 0.363410 
#    y 0.000000 3.562560 0.000000 
#    z 0.363410 0.000000 3.453750 
# 
# 
# High freq. dielectric constant tensor:
#      x y z
#    x 1.770530 0.000000 0.029130 
#    y 0.000000 1.752260 0.000000 
#    z 0.029130 0.000000 1.740880 
# 
# From -- ./inp_files/18122.got.cif
#   From: 2010.03.12/outbox.cif.g09.slc.cpg/sg14_10_cif.got.tgz:18122.got - 2010.03.31 13:35:05.
