data_PCOD8123637
_publ_section_title
;
Structure prediction by ZEFSAII (Michael W. Deem and Ramdas Pophale) SiO2 
 PCOD8123637
Probable space group: P 21/C
;
_chemical_formula_sum "Si O2"
_cell_formula_units_Z 32
_cell_length_a 17.842445
_cell_length_b 9.418164
_cell_length_c 21.399980
_cell_angle_alpha 90.000000
_cell_angle_beta 25.684940
_cell_angle_gamma 90.000000
_cell_volume 1558.637639
_symmetry_space_group_name_H-M "P 21/C"
_symmetry_group_IT_number 14
_symmetry_cell_setting 'monoclinic'
loop_
_space_group_symop_operation_xyz
x,y,z
-x,1/2+y,1/2-z
-x,-y,-z
x,1/2-y,1/2+z
loop_
_atom_site_type_symbol
_atom_site_label
_atom_site_fract_x
_atom_site_fract_y
_atom_site_fract_z
Si Si1 0.080019 0.636679 0.911438
Si Si2 0.855198 0.153716 0.374390
Si Si3 0.032240 0.553587 0.647618
Si Si4 0.542985 0.702735 0.828397
Si Si5 0.102225 0.385242 0.383848
Si Si6 0.851937 0.923574 0.477020
Si Si7 0.325184 0.149410 0.907609
Si Si8 0.607977 0.481859 0.270834
O O1 0.287352 0.618257 0.758882
O O2 0.000000 0.500000 0.000000
O O3 0.000472 0.748023 0.018410
O O4 0.017311 0.650631 0.887017
O O5 0.924439 0.312675 0.339010
O O6 0.650534 0.148937 0.512363
O O7 0.907723 0.053416 0.392437
O O8 0.948650 0.081399 0.245517
O O9 0.206552 0.489705 0.486288
O O10 0.909755 0.598089 0.682022
O O11 0.692757 0.618165 0.753454
O O12 0.572357 0.681366 0.732775
O O13 0.552531 0.867791 0.842088
O O14 0.000000 0.500000 0.500000
O O15 0.770742 0.793663 0.498796
O O16 0.717370 0.986439 0.627044
O O17 0.446489 0.114460 0.874562
#
# Coordination Sequence:
#
# PCOD8123637 Si02
#       8
#     4   4   4   4   4   4   4   4
#     4  10  18  34  58  94 127 163 205 260 321 382
#     4  12  26  43  65  94 133 181 220 267 331 396
#     4  12  26  43  65  94 132 180 217 268 331 396
#     4  11  22  39  65  98 132 165 218 279 323 384
#     4  12  23  39  66 102 133 165 213 276 335 382
#     4  10  20  36  62  93 128 165 210 268 320 389
#     4  11  20  39  64  99 128 162 221 275 323 386
#     4  10  19  33  63  97 128 165 212 269 320 380
#
# _framework density 20.530749
#
# number of rings (size 3 to 8) (size 9 to 14) (size 15 to 20)
#    0.000    1.000    7.500    2.250    0.000    1.500 
#    0.000    0.000    0.000    6.000    0.000    0.000 
#    0.000    0.000    0.000    0.000    0.000    0.000 
#
# Total GULP energy -396508.878123 kJ/mol
# GULP energy per Si atom -12390.902441 kJ/mol
# Density = 2.048402 g / cm^3
# Si number density = 20.530749 Si / 1000 Ang^3
#
#
#
# Elastic Constant Matrix: (Units=GPa)
#
#
# Indices 1 2 3 4 5 6 
#
# 1 104.1554 31.4456 46.6270 0.0000 -26.4081 0.0000
# 2 31.4456 110.3109 38.9427 0.0000 -2.6919 0.0000
# 3 46.6270 38.9427 65.9833 0.0000 -16.3345 0.0000
# 4 0.0000 0.0000 0.0000 31.2963 0.0000 -5.2557
# 5 -26.4081 -2.6919 -16.3345 0.0000 30.5976 0.0000
# 6 0.0000 0.0000 0.0000 -5.2557 0.0000 34.8085
#
#
#
# Elastic Compliance Matrix: (Units=1/GPa)
#
#
# Indices 1 2 3 4 5 6 
#
# 1 0.016085 -0.001470 -0.008174 0.000000 0.009389 0.000000
# 2 -0.001470 0.011829 -0.006912 0.000000 -0.003919 0.000000
# 3 -0.008174 -0.006912 0.026634 0.000000 0.006555 0.000000
# 4 0.000000 0.000000 0.000000 0.032784 0.000000 0.004950
# 5 0.009389 -0.003919 0.006555 0.000000 0.043941 0.000000
# 6 0.000000 0.000000 0.000000 0.004950 0.000000 0.029476
#
#
# Mechanical properties :
#
#
# Convention : Reuss Voigt Hill
#
# Bulk Modulus (GPa) = 46.65455 57.16445 51.90950
# Shear Modulus (GPa) = 24.87467 30.23609 27.55538
#
# Velocity S-wave (km/s) = 3.48455 3.84177 3.66751
# Velocity P-wave (km/s) = 6.24204 6.89802 6.57821
#
# Compressibility (1/GPa) = 0.02143414
#
# Stress axis : x y z
#
# Youngs Moduli (GPa) = 62.17006 84.53741 37.54593
#
# Poissons Ratio (x) = 0.12430 0.30691
# Poissons Ratio (y) = 0.09141 0.25953
# Poissons Ratio (z) = 0.50819 0.58436
#
# Static dielectric constant tensor:
#      x y z
#    x 3.317570 0.000000 -0.155270 
#    y 0.000000 3.867760 0.000000 
#    z -0.155270 0.000000 3.468280 
# 
# 
# High freq. dielectric constant tensor:
#      x y z
#    x 1.801770 0.000000 -0.023870 
#    y 0.000000 1.820590 0.000000 
#    z -0.023870 0.000000 1.773110 
# 
# From -- ./inp_files/69154.got.cif
#   From: 2010.03.12/outbox.cif.g09.slc.cpg/sg14_35_cif.got.tgz:69154.got - 2010.03.31 13:35:05.
