data_PCOD8123837
_publ_section_title
;
Structure prediction by ZEFSAII (Michael W. Deem and Ramdas Pophale) SiO2 
 PCOD8123837
Probable space group: P 21/C
;
_chemical_formula_sum "Si O2"
_cell_formula_units_Z 20
_cell_length_a 11.381843
_cell_length_b 9.410381
_cell_length_c 13.531590
_cell_angle_alpha 90.000000
_cell_angle_beta 45.178772
_cell_angle_gamma 90.000000
_cell_volume 1028.026901
_symmetry_space_group_name_H-M "P 21/C"
_symmetry_group_IT_number 14
_symmetry_cell_setting 'monoclinic'
loop_
_space_group_symop_operation_xyz
x,y,z
-x,1/2+y,1/2-z
-x,-y,-z
x,1/2-y,1/2+z
loop_
_atom_site_type_symbol
_atom_site_label
_atom_site_fract_x
_atom_site_fract_y
_atom_site_fract_z
Si Si1 0.379219 0.351656 0.183215
Si Si2 0.318930 0.058901 0.117171
Si Si3 0.299308 0.010054 0.534151
Si Si4 0.759531 0.709352 0.527311
Si Si5 0.989082 0.066168 0.612834
O O1 0.329921 0.193964 0.181443
O O2 0.301406 0.463637 0.151386
O O3 0.306685 0.369235 0.335839
O O4 0.577178 0.381732 0.068225
O O5 0.199029 0.941368 0.237367
O O6 0.241886 0.091221 0.056305
O O7 0.500000 0.000000 0.000000
O O8 0.353716 0.155713 0.442579
O O9 0.111455 0.973305 0.612161
O O10 0.947615 0.769836 0.429439
O O11 0.000000 0.000000 0.500000
#
# Coordination Sequence:
#
# PCOD8123837 Si02
#       5
#     4   4   4   4   4
#     4  10  18  39  59  89 119 157 200 254 298 365
#     4  11  23  37  63  94 117 157 213 252 302 368
#     4   8  20  36  62  82 126 158 196 248 309 352
#     4   9  21  36  63  85 123 159 203 245 305 365
#     4  10  20  39  59  84 125 163 196 247 302 360
#
# _framework density 19.454743000000001
#
# number of rings (size 3 to 8) (size 9 to 14) (size 15 to 20)
#    1.200    1.200    2.000    0.000    5.600    1.600 
#    0.000    1.000    0.000    0.000    0.000    0.000 
#    0.000    0.000    0.000    0.000    0.000    0.000 
#
# Total GULP energy -247790.366357 kJ/mol
# GULP energy per Si atom -12389.518318 kJ/mol
# Density = 1.941046 g / cm^3
# Si number density = 19.454743 Si / 1000 Ang^3
#
#
#
# Elastic Constant Matrix: (Units=GPa)
#
#
# Indices 1 2 3 4 5 6 
#
# 1 98.1235 16.8886 59.1441 0.0000 -4.9219 0.0000
# 2 16.8886 40.3227 39.1746 0.0000 -1.3755 0.0000
# 3 59.1441 39.1746 148.5261 0.0000 -0.1494 0.0000
# 4 0.0000 0.0000 0.0000 34.2804 0.0000 -6.6270
# 5 -4.9219 -1.3755 -0.1494 0.0000 43.2467 0.0000
# 6 0.0000 0.0000 0.0000 -6.6270 0.0000 34.2042
#
#
#
# Elastic Compliance Matrix: (Units=1/GPa)
#
#
# Indices 1 2 3 4 5 6 
#
# 1 0.013517 -0.000514 -0.005245 0.000000 0.001504 0.000000
# 2 -0.000514 0.033410 -0.008606 0.000000 0.000974 0.000000
# 3 -0.005245 -0.008606 0.011091 0.000000 -0.000832 0.000000
# 4 0.000000 0.000000 0.000000 0.030306 0.000000 0.005872
# 5 0.001504 0.000974 -0.000832 0.000000 0.023322 0.000000
# 6 0.000000 0.000000 0.000000 0.005872 0.000000 0.030374
#
#
# Mechanical properties :
#
#
# Convention : Reuss Voigt Hill
#
# Bulk Modulus (GPa) = 34.14622 57.48742 45.81682
# Shear Modulus (GPa) = 27.69877 33.79724 30.74801
#
# Velocity S-wave (km/s) = 3.77736 4.17252 3.97985
# Velocity P-wave (km/s) = 6.05098 7.26820 6.68734
#
# Compressibility (1/GPa) = 0.02928582
#
# Stress axis : x y z
#
# Youngs Moduli (GPa) = 73.98192 29.93134 90.16539
#
# Poissons Ratio (x) = 0.01538 0.47295
# Poissons Ratio (y) = 0.03802 0.77600
# Poissons Ratio (z) = 0.38807 0.25760
#
# Static dielectric constant tensor:
#      x y z
#    x 3.729920 0.000000 0.082500 
#    y 0.000000 3.547370 0.000000 
#    z 0.082500 0.000000 3.464130 
# 
# 
# High freq. dielectric constant tensor:
#      x y z
#    x 1.767290 0.000000 0.015970 
#    y 0.000000 1.722660 0.000000 
#    z 0.015970 0.000000 1.748720 
# 
# From -- ./inp_files/27964.got.cif
#   From: 2010.03.12/outbox.cif.g09.slc.cpg/sg14_14_cif.got.tgz:27964.got - 2010.03.31 13:35:05.
