data_PCOD8123047
_publ_section_title
;
Structure prediction by ZEFSAII (Michael W. Deem and Ramdas Pophale) SiO2 
 PCOD8123047
Probable space group: P 2/C
;
_chemical_formula_sum "Si O2"
_cell_formula_units_Z 18
_cell_length_a 11.413387
_cell_length_b 7.263620
_cell_length_c 17.598344
_cell_angle_alpha 90.000000
_cell_angle_beta 31.700813
_cell_angle_gamma 90.000000
_cell_volume 766.652808
_symmetry_space_group_name_H-M "P 2/C"
_symmetry_group_IT_number 13
_symmetry_cell_setting 'monoclinic'
loop_
_space_group_symop_operation_xyz
x,y,z
-x,y,1/2-z
-x,-y,-z
x,-y,1/2+z
loop_
_atom_site_type_symbol
_atom_site_label
_atom_site_fract_x
_atom_site_fract_y
_atom_site_fract_z
Si Si1 0.000000 0.306851 0.750000
Si Si2 0.318207 0.828608 0.195406
Si Si3 0.356117 0.532663 0.461063
Si Si4 0.091762 0.305237 0.972271
Si Si5 0.386581 0.177232 0.234875
O O1 0.122373 0.171262 0.741257
O O2 0.164120 0.443441 0.616256
O O3 0.493111 0.671521 0.071976
O O4 0.224448 0.785313 0.330478
O O5 0.433356 0.030378 0.140566
O O6 0.256983 0.665574 0.451269
O O7 0.513953 0.375746 0.339312
O O8 0.880800 0.179561 0.109994
O O9 0.000000 0.500000 0.000000
O O10 0.500000 0.106490 0.250000
#
# Coordination Sequence:
#
# PCOD8123047 Si02
#       5
#     2   4   4   4   4
#     4  12  26  46  66  92 142 184 226 276 330 398
#     4  12  26  43  69 102 133 178 224 273 340 398
#     4  12  24  46  69  98 134 177 227 278 333 398
#     4  12  21  43  74 101 132 169 219 280 338 393
#     4  12  23  42  71 101 134 169 219 285 334 394
#
# _framework density 23.478684999999999
#
# number of rings (size 3 to 8) (size 9 to 14) (size 15 to 20)
#    0.000    0.000    6.667    3.333    0.000    2.667 
#    0.000    5.556    0.000    0.000    0.000    0.000 
#    0.000    0.000    0.000    0.000    0.000    0.000 
#
# Total GULP energy -223257.574036 kJ/mol
# GULP energy per Si atom -12403.198558 kJ/mol
# Density = 2.342525 g / cm^3
# Si number density = 23.478685 Si / 1000 Ang^3
#
#
#
# Elastic Constant Matrix: (Units=GPa)
#
#
# Indices 1 2 3 4 5 6 
#
# 1 153.4173 66.5663 34.0900 0.0000 -19.3935 0.0000
# 2 66.5663 103.8010 -1.6013 0.0000 -17.3524 0.0000
# 3 34.0900 -1.6013 54.6150 0.0000 -12.9160 0.0000
# 4 0.0000 0.0000 0.0000 16.3500 0.0000 -0.7283
# 5 -19.3935 -17.3524 -12.9160 0.0000 32.6398 0.0000
# 6 0.0000 0.0000 0.0000 -0.7283 0.0000 22.3943
#
#
#
# Elastic Compliance Matrix: (Units=1/GPa)
#
#
# Indices 1 2 3 4 5 6 
#
# 1 0.011346 -0.007404 -0.007321 0.000000 -0.000092 0.000000
# 2 -0.007404 0.015570 0.006614 0.000000 0.006496 0.000000
# 3 -0.007321 0.006614 0.025238 0.000000 0.009154 0.000000
# 4 0.000000 0.000000 0.000000 0.061251 0.000000 0.001992
# 5 -0.000092 0.006496 0.009154 0.000000 0.037658 0.000000
# 6 0.000000 0.000000 0.000000 0.001992 0.000000 0.044719
#
#
# Mechanical properties :
#
#
# Convention : Reuss Voigt Hill
#
# Bulk Modulus (GPa) = 27.82990 56.66037 42.24513
# Shear Modulus (GPa) = 22.32328 28.46206 25.39267
#
# Velocity S-wave (km/s) = 3.08683 3.48552 3.29222
# Velocity P-wave (km/s) = 4.95820 6.35480 5.69944
#
# Compressibility (1/GPa) = 0.03593258
#
# Stress axis : x y z
#
# Youngs Moduli (GPa) = 88.13744 64.22611 39.62239
#
# Poissons Ratio (x) = 0.47555 0.29007
# Poissons Ratio (y) = 0.65260 -0.26208
# Poissons Ratio (z) = 0.64524 -0.42481
#
# Static dielectric constant tensor:
#      x y z
#    x 4.384350 0.000000 -0.349710 
#    y 0.000000 3.398210 0.000000 
#    z -0.349710 0.000000 4.489170 
# 
# 
# High freq. dielectric constant tensor:
#      x y z
#    x 1.938950 0.000000 -0.017940 
#    y 0.000000 1.938210 0.000000 
#    z -0.017940 0.000000 1.926420 
# 
# From -- ./inp_files/66249.got.cif
#   From: 2010.06.25/outbox.cif.g09.slc.cpg/sg13_34_cif.got.tgz:66249.got - 2010.06.28 04:50:58.
