data_PCOD8123219
_publ_section_title
;
Structure prediction by ZEFSAII (Michael W. Deem and Ramdas Pophale) SiO2 
 PCOD8123219
Probable space group: P 2/C
;
_chemical_formula_sum "Si O2"
_cell_formula_units_Z 26
_cell_length_a 9.224537
_cell_length_b 9.223148
_cell_length_c 29.238968
_cell_angle_alpha 90.000000
_cell_angle_beta 132.283947
_cell_angle_gamma 90.000000
_cell_volume 1840.397543
_symmetry_space_group_name_H-M "P 2/C"
_symmetry_group_IT_number 13
_symmetry_cell_setting 'monoclinic'
loop_
_space_group_symop_operation_xyz
x,y,z
-x,y,1/2-z
-x,-y,-z
x,-y,1/2+z
loop_
_atom_site_type_symbol
_atom_site_label
_atom_site_fract_x
_atom_site_fract_y
_atom_site_fract_z
Si Si1 0.871118 0.574278 0.368143
Si Si2 0.006899 0.156179 0.053150
Si Si3 0.419509 0.636869 0.543321
Si Si4 0.769799 0.393569 0.053376
Si Si5 0.645186 0.348039 0.368386
Si Si6 0.500000 0.466472 0.250000
Si Si7 0.044161 0.827125 0.456533
O O1 0.808281 0.476656 0.398922
O O2 0.695186 0.567851 0.293266
O O3 0.067929 0.500557 0.389344
O O4 0.905908 0.737496 0.392484
O O5 0.235985 0.196364 0.110303
O O6 0.862205 0.250129 0.052596
O O7 0.959294 0.183663 0.989758
O O8 0.964565 0.993286 0.060609
O O9 0.337864 0.481345 0.509944
O O10 0.622611 0.664832 0.560721
O O11 0.465975 0.634495 0.607256
O O12 0.264698 0.764883 0.499952
O O13 0.492011 0.363932 0.293604
#
# Coordination Sequence:
#
# PCOD8123219 Si02
#       7
#     4   4   4   4   4   2   4
#     4   8  15  28  44  57  84 104 144 175 205 236
#     4   9  16  26  42  63  89 110 136 166 214 253
#     4   9  16  26  42  65  89 109 134 167 211 256
#     4   9  16  26  42  64  87 111 135 167 213 255
#     4   8  15  28  44  59  84 106 142 178 201 239
#     4   8  16  28  46  60  78 104 150 180 202 232
#     4   9  16  26  42  65  86 113 134 168 211 258
#
# _framework density 14.127382000000001
#
# number of rings (size 3 to 8) (size 9 to 14) (size 15 to 20)
#    0.923    2.462    0.000    0.923    0.000    4.308 
#    0.000    1.538    0.000    0.000    0.000    0.000 
#   13.846    0.000    0.000    0.000    0.000    0.000 
#
# Total GULP energy -322110.921770 kJ/mol
# GULP energy per Si atom -12388.881607 kJ/mol
# Density = 1.409523 g / cm^3
# Si number density = 14.127382 Si / 1000 Ang^3
#
#
#
# Elastic Constant Matrix: (Units=GPa)
#
#
# Indices 1 2 3 4 5 6 
#
# 1 97.3604 42.2621 39.2969 0.0000 -2.6745 0.0000
# 2 42.2621 96.8442 38.9534 0.0000 -1.9548 0.0000
# 3 39.2969 38.9534 100.2380 0.0000 -2.4746 0.0000
# 4 0.0000 0.0000 0.0000 16.1355 0.0000 -0.1141
# 5 -2.6745 -1.9548 -2.4746 0.0000 16.2326 0.0000
# 6 0.0000 0.0000 0.0000 -0.1141 0.0000 16.2840
#
#
#
# Elastic Compliance Matrix: (Units=1/GPa)
#
#
# Indices 1 2 3 4 5 6 
#
# 1 0.013713 -0.004516 -0.003592 0.000000 0.001168 0.000000
# 2 -0.004516 0.013735 -0.003558 0.000000 0.000368 0.000000
# 3 -0.003592 -0.003558 0.012790 0.000000 0.000929 0.000000
# 4 0.000000 0.000000 0.000000 0.061978 0.000000 0.000434
# 5 0.001168 0.000368 0.000929 0.000000 0.061983 0.000000
# 6 0.000000 0.000000 0.000000 0.000434 0.000000 0.061413
#
#
# Mechanical properties :
#
#
# Convention : Reuss Voigt Hill
#
# Bulk Modulus (GPa) = 59.15065 59.49638 59.32352
# Shear Modulus (GPa) = 19.64009 21.32576 20.48293
#
# Velocity S-wave (km/s) = 3.73260 3.88949 3.81185
# Velocity P-wave (km/s) = 7.78054 7.89788 7.83943
#
# Compressibility (1/GPa) = 0.01690599
#
# Stress axis : x y z
#
# Youngs Moduli (GPa) = 72.92114 72.80576 78.18438
#
# Poissons Ratio (x) = 0.32878 0.28087
# Poissons Ratio (y) = 0.32931 0.27819
# Poissons Ratio (z) = 0.26196 0.25905
#
# Static dielectric constant tensor:
#      x y z
#    x 2.683260 0.000000 0.057520 
#    y 0.000000 2.678430 0.000000 
#    z 0.057520 0.000000 2.569980 
# 
# 
# High freq. dielectric constant tensor:
#      x y z
#    x 1.530070 0.000000 0.003730 
#    y 0.000000 1.529910 0.000000 
#    z 0.003730 0.000000 1.516480 
# 
# From -- ./inp_files/84471.got.cif
#   From: 2010.06.25/outbox.cif.g09.slc.cpg/sg13_43_cif.got.tgz:84471.got - 2010.06.28 04:50:58.
