data_PCOD8123409
_publ_section_title
;
Structure prediction by ZEFSAII (Michael W. Deem and Ramdas Pophale) SiO2 
 PCOD8123409
Probable space group: P 21/C
;
_chemical_formula_sum "Si O2"
_cell_formula_units_Z 32
_cell_length_a 9.824990
_cell_length_b 14.025940
_cell_length_c 15.754799
_cell_angle_alpha 90.000000
_cell_angle_beta 128.672781
_cell_angle_gamma 90.000000
_cell_volume 1695.025956
_symmetry_space_group_name_H-M "P 21/C"
_symmetry_group_IT_number 14
_symmetry_cell_setting 'monoclinic'
loop_
_space_group_symop_operation_xyz
x,y,z
-x,1/2+y,1/2-z
-x,-y,-z
x,1/2-y,1/2+z
loop_
_atom_site_type_symbol
_atom_site_label
_atom_site_fract_x
_atom_site_fract_y
_atom_site_fract_z
Si Si1 0.067768 0.034176 0.645810
Si Si2 0.573987 0.230925 0.349978
Si Si3 0.467764 0.430192 0.269136
Si Si4 0.262937 0.891043 0.006544
Si Si5 0.925056 0.152421 0.443881
Si Si6 0.691990 0.923876 0.767879
Si Si7 0.021541 0.009987 0.818480
Si Si8 0.050338 0.139107 0.991458
O O1 0.267424 0.046853 0.698824
O O2 0.953948 0.109624 0.549207
O O3 0.032027 0.055784 0.730093
O O4 0.014495 0.925458 0.602116
O O5 0.498219 0.317299 0.262155
O O6 0.673519 0.279655 0.471120
O O7 0.718877 0.173698 0.352460
O O8 0.415667 0.163215 0.316542
O O9 0.570579 0.454040 0.398013
O O10 0.553960 0.491343 0.227827
O O11 0.116326 0.902678 0.023728
O O12 0.177140 0.930223 0.886917
O O13 0.039831 0.247041 0.475718
O O14 0.776151 0.887352 0.888801
O O15 0.836402 0.958047 0.757357
O O16 0.054782 0.092177 0.900316
#
# Coordination Sequence:
#
# PCOD8123409 Si02
#       8
#     4   4   4   4   4   4   4   4
#     4  11  24  37  59  83 123 157 187 239 298 357
#     4   9  18  34  61  82 108 153 206 228 269 360
#     4  10  18  36  58  88 107 158 192 233 291 345
#     4   8  17  34  57  83 112 143 188 239 287 334
#     4  10  21  41  56  79 120 165 188 229 307 353
#     4  11  17  34  65  83 111 156 196 236 287 351
#     4  11  20  37  59  90 117 146 195 249 293 334
#     4  10  17  36  60  84 110 150 196 238 283 353
#
# _framework density 18.878765999999999
#
# number of rings (size 3 to 8) (size 9 to 14) (size 15 to 20)
#    0.750    1.250    3.750    1.500    0.000    0.500 
#    9.000    0.625    0.000    0.000    0.000    0.000 
#    0.000    0.000    0.000    0.000    0.000    0.000 
#
# Total GULP energy -396490.387627 kJ/mol
# GULP energy per Si atom -12390.324613 kJ/mol
# Density = 1.883580 g / cm^3
# Si number density = 18.878766 Si / 1000 Ang^3
#
#
#
# Elastic Constant Matrix: (Units=GPa)
#
#
# Indices 1 2 3 4 5 6 
#
# 1 41.4311 25.9406 36.2678 0.0000 10.8027 0.0000
# 2 25.9406 114.2386 32.3268 0.0000 3.7582 0.0000
# 3 36.2678 32.3268 68.3850 0.0000 -8.7287 0.0000
# 4 0.0000 0.0000 0.0000 24.0667 0.0000 10.1437
# 5 10.8027 3.7582 -8.7287 0.0000 28.5968 0.0000
# 6 0.0000 0.0000 0.0000 10.1437 0.0000 17.9619
#
#
#
# Elastic Compliance Matrix: (Units=1/GPa)
#
#
# Indices 1 2 3 4 5 6 
#
# 1 0.074997 -0.003389 -0.043424 0.000000 -0.041140 0.000000
# 2 -0.003389 0.010495 -0.003305 0.000000 -0.001108 0.000000
# 3 -0.043424 -0.003305 0.043042 0.000000 0.029976 0.000000
# 4 0.000000 0.000000 0.000000 0.054531 0.000000 -0.030795
# 5 -0.041140 -0.001108 0.029976 0.000000 0.059805 0.000000
# 6 0.000000 0.000000 0.000000 -0.030795 0.000000 0.073065
#
#
# Mechanical properties :
#
#
# Convention : Reuss Voigt Hill
#
# Bulk Modulus (GPa) = 35.33841 45.90279 40.62060
# Shear Modulus (GPa) = 11.74805 22.75970 17.25388
#
# Velocity S-wave (km/s) = 2.49728 3.47590 3.02641
# Velocity P-wave (km/s) = 5.20331 6.36211 5.81167
#
# Compressibility (1/GPa) = 0.02829782
#
# Stress axis : x y z
#
# Youngs Moduli (GPa) = 13.33384 95.28451 23.23339
#
# Poissons Ratio (x) = 0.32288 1.00888
# Poissons Ratio (y) = 0.04518 0.07680
# Poissons Ratio (z) = 0.57901 0.31496
#
# Static dielectric constant tensor:
#      x y z
#    x 3.130170 0.000000 0.364150 
#    y 0.000000 3.626190 0.000000 
#    z 0.364150 0.000000 3.344180 
# 
# 
# High freq. dielectric constant tensor:
#      x y z
#    x 1.703510 0.000000 0.039600 
#    y 0.000000 1.746080 0.000000 
#    z 0.039600 0.000000 1.711650 
# 
# From -- ./inp_files/41238.got.cif
#   From: 2010.03.12/outbox.cif.g09.slc.cpg/sg14_21_cif.got.tgz:41238.got - 2010.03.31 13:35:05.
