data_PCOD8123226
_publ_section_title
;
Structure prediction by ZEFSAII (Michael W. Deem and Ramdas Pophale) SiO2 
 PCOD8123226
Probable space group: P 2/C
;
_chemical_formula_sum "Si O2"
_cell_formula_units_Z 24
_cell_length_a 18.904817
_cell_length_b 9.117307
_cell_length_c 24.844789
_cell_angle_alpha 90.000000
_cell_angle_beta 19.028911
_cell_angle_gamma 90.000000
_cell_volume 1396.214677
_symmetry_space_group_name_H-M "P 2/C"
_symmetry_group_IT_number 13
_symmetry_cell_setting 'monoclinic'
loop_
_space_group_symop_operation_xyz
x,y,z
-x,y,1/2-z
-x,-y,-z
x,-y,1/2+z
loop_
_atom_site_type_symbol
_atom_site_label
_atom_site_fract_x
_atom_site_fract_y
_atom_site_fract_z
Si Si1 0.499836 0.595046 0.419256
Si Si2 0.846301 0.646029 0.494541
Si Si3 0.821426 0.832378 0.673327
Si Si4 0.823415 0.405064 0.257464
Si Si5 0.157691 0.832441 0.337069
Si Si6 0.482919 0.645923 0.676258
O O1 0.662307 0.499959 0.337649
O O2 0.281291 0.631449 0.609370
O O3 0.617075 0.745671 0.318309
O O4 0.440756 0.500703 0.409251
O O5 0.688287 0.709047 0.561706
O O6 0.710798 0.599378 0.644587
O O7 0.959350 0.499387 0.390681
O O8 0.018442 0.771967 0.386620
O O9 0.875599 0.745563 0.689003
O O10 0.601855 0.771813 0.803224
O O11 0.026325 0.815084 0.486821
O O12 0.782080 0.999941 0.717922
#
# Coordination Sequence:
#
# PCOD8123226 Si02
#       6
#     4   4   4   4   4   4
#     4   9  17  29  46  67  90 118 152 188 227 274
#     4   9  17  30  48  68  90 119 156 196 235 275
#     4   9  17  30  48  69  94 124 157 192 231 277
#     4   9  17  29  46  67  90 118 152 188 227 274
#     4   9  17  30  48  69  94 124 157 192 231 277
#     4   9  17  30  48  68  90 119 156 196 235 275
#
# _framework density 17.189333999999999
#
# number of rings (size 3 to 8) (size 9 to 14) (size 15 to 20)
#    0.000    3.000    0.000    1.000    0.000    5.333 
#    0.000    1.667    0.000    6.000    0.000    0.000 
#    0.000    0.000    0.000    0.000    0.000    0.000 
#
# Total GULP energy -297560.916019 kJ/mol
# GULP energy per Si atom -12398.371501 kJ/mol
# Density = 1.715021 g / cm^3
# Si number density = 17.189334 Si / 1000 Ang^3
#
#
#
# Elastic Constant Matrix: (Units=GPa)
#
#
# Indices 1 2 3 4 5 6 
#
# 1 67.7218 46.0823 36.7956 0.0000 -2.8807 0.0000
# 2 46.0823 137.2647 53.2220 0.0000 6.2189 0.0000
# 3 36.7956 53.2220 70.5362 0.0000 5.3527 0.0000
# 4 0.0000 0.0000 0.0000 17.8319 0.0000 -0.5134
# 5 -2.8807 6.2189 5.3527 0.0000 21.0731 0.0000
# 6 0.0000 0.0000 0.0000 -0.5134 0.0000 18.4231
#
#
#
# Elastic Compliance Matrix: (Units=1/GPa)
#
#
# Indices 1 2 3 4 5 6 
#
# 1 0.023107 -0.004512 -0.009167 0.000000 0.006819 0.000000
# 2 -0.004512 0.011203 -0.005916 0.000000 -0.002420 0.000000
# 3 -0.009167 -0.005916 0.023845 0.000000 -0.005564 0.000000
# 4 0.000000 0.000000 0.000000 0.056124 0.000000 0.001564
# 5 0.006819 -0.002420 -0.005564 0.000000 0.050514 0.000000
# 6 0.000000 0.000000 0.000000 0.001564 0.000000 0.054323
#
#
# Mechanical properties :
#
#
# Convention : Reuss Voigt Hill
#
# Bulk Modulus (GPa) = 52.72629 60.85804 56.79217
# Shear Modulus (GPa) = 18.89435 20.76048 19.82741
#
# Velocity S-wave (km/s) = 3.31900 3.47904 3.39996
# Velocity P-wave (km/s) = 6.74004 7.18469 6.96591
#
# Compressibility (1/GPa) = 0.01896587
#
# Stress axis : x y z
#
# Youngs Moduli (GPa) = 43.27601 89.25804 41.93728
#
# Poissons Ratio (x) = 0.40275 0.38444
# Poissons Ratio (y) = 0.19527 0.24810
# Poissons Ratio (z) = 0.39671 0.52804
#
# Static dielectric constant tensor:
#      x y z
#    x 3.130620 0.000000 0.120670 
#    y 0.000000 3.129040 0.000000 
#    z 0.120670 0.000000 3.266080 
# 
# 
# High freq. dielectric constant tensor:
#      x y z
#    x 1.648880 0.000000 0.009540 
#    y 0.000000 1.647860 0.000000 
#    z 0.009540 0.000000 1.659610 
# 
# From -- ./inp_files/63357.got.cif
#   From: 2010.06.25/outbox.cif.g09.slc.cpg/sg13_32_cif.got.tgz:63357.got - 2010.06.28 04:50:58.
