data_PCOD8123793
_publ_section_title
;
Structure prediction by ZEFSAII (Michael W. Deem and Ramdas Pophale) SiO2 
 PCOD8123793
Probable space group: P 21/C
;
_chemical_formula_sum "Si O2"
_cell_formula_units_Z 28
_cell_length_a 9.934586
_cell_length_b 12.382760
_cell_length_c 13.786758
_cell_angle_alpha 90.000000
_cell_angle_beta 62.035467
_cell_angle_gamma 90.000000
_cell_volume 1497.983895
_symmetry_space_group_name_H-M "P 21/C"
_symmetry_group_IT_number 14
_symmetry_cell_setting 'monoclinic'
loop_
_space_group_symop_operation_xyz
x,y,z
-x,1/2+y,1/2-z
-x,-y,-z
x,1/2-y,1/2+z
loop_
_atom_site_type_symbol
_atom_site_label
_atom_site_fract_x
_atom_site_fract_y
_atom_site_fract_z
Si Si1 0.253829 0.312529 0.722683
Si Si2 0.926347 0.676226 0.862322
Si Si3 0.048687 0.442327 0.387700
Si Si4 0.956838 0.057187 0.307319
Si Si5 0.506743 0.627660 0.510358
Si Si6 0.171181 0.718219 0.640610
Si Si7 0.737318 0.790258 0.088136
O O1 0.409771 0.331259 0.613533
O O2 0.304525 0.300490 0.818017
O O3 0.170131 0.208158 0.702222
O O4 0.136204 0.413042 0.755558
O O5 0.102211 0.701854 0.773250
O O6 0.913497 0.547755 0.886645
O O7 0.870584 0.744078 0.973117
O O8 0.920424 0.354767 0.404216
O O9 0.000000 0.500000 0.500000
O O10 0.073754 0.529688 0.294786
O O11 0.206315 0.386546 0.363011
O O12 0.849381 0.155143 0.379606
O O13 0.500000 0.500000 0.500000
O O14 0.345076 0.684253 0.575548
O O15 0.595836 0.665623 0.575913
#
# Coordination Sequence:
#
# PCOD8123793 Si02
#       7
#     4   4   4   4   4   4   4
#     4  10  20  40  57  89 121 158 198 242 303 365
#     4   9  19  37  63  84 122 154 193 266 294 336
#     4  11  19  35  65  87 108 159 205 241 289 351
#     4  10  18  37  62  84 122 152 201 258 290 341
#     4  11  23  41  60  85 128 159 192 250 302 351
#     4  10  20  38  56  92 118 148 204 250 289 351
#     4  11  21  40  61  88 118 161 202 233 309 368
#
# _framework density 18.691789
#
# number of rings (size 3 to 8) (size 9 to 14) (size 15 to 20)
#    0.000    1.714    4.286    5.143    0.000    0.571 
#    7.714    4.286    0.000    0.000    0.000    0.000 
#    0.000    0.000    0.000    0.000    0.000    0.000 
#
# Total GULP energy -346958.023775 kJ/mol
# GULP energy per Si atom -12391.357992 kJ/mol
# Density = 1.864925 g / cm^3
# Si number density = 18.691789 Si / 1000 Ang^3
#
#
#
# Elastic Constant Matrix: (Units=GPa)
#
#
# Indices 1 2 3 4 5 6 
#
# 1 94.7210 38.3316 49.5723 0.0000 -16.4063 0.0000
# 2 38.3316 113.7275 27.0114 0.0000 -9.1927 0.0000
# 3 49.5723 27.0114 103.4682 0.0000 -2.5510 0.0000
# 4 0.0000 0.0000 0.0000 18.8479 0.0000 10.2974
# 5 -16.4063 -9.1927 -2.5510 0.0000 39.8757 0.0000
# 6 0.0000 0.0000 0.0000 10.2974 0.0000 28.8539
#
#
#
# Elastic Compliance Matrix: (Units=1/GPa)
#
#
# Indices 1 2 3 4 5 6 
#
# 1 0.016527 -0.003490 -0.006870 0.000000 0.005556 0.000000
# 2 -0.003490 0.010274 -0.000989 0.000000 0.000870 0.000000
# 3 -0.006870 -0.000989 0.013160 0.000000 -0.002213 0.000000
# 4 0.000000 0.000000 0.000000 0.065907 0.000000 -0.023521
# 5 0.005556 0.000870 -0.002213 0.000000 0.027423 0.000000
# 6 0.000000 0.000000 0.000000 -0.023521 0.000000 0.043052
#
#
# Mechanical properties :
#
#
# Convention : Reuss Voigt Hill
#
# Bulk Modulus (GPa) = 57.92416 60.19414 59.05915
# Shear Modulus (GPa) = 24.41459 30.64892 27.53176
#
# Velocity S-wave (km/s) = 3.61801 4.05371 3.84204
# Velocity P-wave (km/s) = 6.96489 7.36095 7.16566
#
# Compressibility (1/GPa) = 0.01726395
#
# Stress axis : x y z
#
# Youngs Moduli (GPa) = 60.50524 97.33044 75.98752
#
# Poissons Ratio (x) = 0.33965 0.52207
# Poissons Ratio (y) = 0.21114 0.07514
# Poissons Ratio (z) = 0.41570 0.09624
#
# Static dielectric constant tensor:
#      x y z
#    x 3.379000 0.000000 -0.031260 
#    y 0.000000 3.579330 0.000000 
#    z -0.031260 0.000000 3.581300 
# 
# 
# High freq. dielectric constant tensor:
#      x y z
#    x 1.703420 0.000000 0.005780 
#    y 0.000000 1.738380 0.000000 
#    z 0.005780 0.000000 1.725960 
# 
# From -- ./inp_files/40000.got.cif
#   From: 2010.03.12/outbox.cif.g09.slc.cpg/sg14_20_cif.got.tgz:40000.got - 2010.03.31 13:35:05.
