data_PCOD8123239
_publ_section_title
;
Structure prediction by ZEFSAII (Michael W. Deem and Ramdas Pophale) SiO2 
 PCOD8123239
Probable space group: P 21/C
;
_chemical_formula_sum "Si O2"
_cell_formula_units_Z 28
_cell_length_a 13.097189
_cell_length_b 20.309946
_cell_length_c 8.434967
_cell_angle_alpha 90.000000
_cell_angle_beta 143.315388
_cell_angle_gamma 90.000000
_cell_volume 1340.425211
_symmetry_space_group_name_H-M "P 21/C"
_symmetry_group_IT_number 14
_symmetry_cell_setting 'monoclinic'
loop_
_space_group_symop_operation_xyz
x,y,z
-x,1/2+y,1/2-z
-x,-y,-z
x,1/2-y,1/2+z
loop_
_atom_site_type_symbol
_atom_site_label
_atom_site_fract_x
_atom_site_fract_y
_atom_site_fract_z
Si Si1 0.444969 0.292324 0.336357
Si Si2 0.426744 0.049776 0.281269
Si Si3 0.790164 0.282138 0.165377
Si Si4 0.409737 0.329307 0.966253
Si Si5 0.832136 0.035721 0.234230
Si Si6 0.646331 0.110101 0.283921
Si Si7 0.181641 0.661922 0.480937
O O1 0.604574 0.246049 0.482579
O O2 0.338739 0.324544 0.058263
O O3 0.337750 0.238313 0.299666
O O4 0.489734 0.353751 0.503212
O O5 0.344549 0.110283 0.278282
O O6 0.580432 0.071665 0.356908
O O7 0.500000 0.000000 0.500000
O O8 0.281262 0.018329 0.993751
O O9 0.887803 0.320203 0.429709
O O10 0.776947 0.333603 0.003866
O O11 0.891557 0.218242 0.228487
O O12 0.613227 0.337423 0.248714
O O13 0.735939 0.062566 0.269518
O O14 0.879351 0.092344 0.165154
O O15 0.000000 0.000000 0.500000
#
# Coordination Sequence:
#
# PCOD8123239 Si02
#       7
#     4   4   4   4   4   4   4
#     4  10  15  28  55  96 113 132 183 274 302 338
#     4  12  22  38  59  85 118 157 203 245 283 358
#     4  10  15  28  61  93 106 134 195 273 286 336
#     4  10  16  29  55  88 113 136 190 257 297 329
#     4  12  26  40  54  82 131 168 199 238 291 361
#     4  12  19  35  62  89 113 154 206 249 302 346
#     4  10  16  33  54  86 112 144 193 246 293 340
#
# _framework density 20.888895000000002
#
# number of rings (size 3 to 8) (size 9 to 14) (size 15 to 20)
#    0.000    1.143   11.429    0.429    0.000    0.000 
#    0.000    2.857    0.000    6.857    0.000    0.000 
#    0.000    0.000    0.000    0.000    0.000    0.000 
#
# Total GULP energy -346875.449022 kJ/mol
# GULP energy per Si atom -12388.408894 kJ/mol
# Density = 2.084135 g / cm^3
# Si number density = 20.888895 Si / 1000 Ang^3
#
#
#
# Elastic Constant Matrix: (Units=GPa)
#
#
# Indices 1 2 3 4 5 6 
#
# 1 45.9438 40.8665 28.9944 0.0000 -35.6607 0.0000
# 2 40.8665 138.4289 49.5937 0.0000 -18.3402 0.0000
# 3 28.9944 49.5937 66.2239 0.0000 -20.8375 0.0000
# 4 0.0000 0.0000 0.0000 48.6803 0.0000 -29.4838
# 5 -35.6607 -18.3402 -20.8375 0.0000 34.2149 0.0000
# 6 0.0000 0.0000 0.0000 -29.4838 0.0000 32.8842
#
#
#
# Elastic Compliance Matrix: (Units=1/GPa)
#
#
# Indices 1 2 3 4 5 6 
#
# 1 0.196740 -0.032191 -0.003636 0.000000 0.185584 0.000000
# 2 -0.032191 0.015166 -0.006510 0.000000 -0.029386 0.000000
# 3 -0.003636 -0.006510 0.023847 0.000000 0.007244 0.000000
# 4 0.000000 0.000000 0.000000 0.044953 0.000000 0.040305
# 5 0.185584 -0.029386 0.007244 0.000000 0.211313 0.000000
# 6 0.000000 0.000000 0.000000 0.040305 0.000000 0.066547
#
#
# Mechanical properties :
#
#
# Convention : Reuss Voigt Hill
#
# Bulk Modulus (GPa) = 6.61905 54.38953 30.50429
# Shear Modulus (GPa) = 7.20877 31.89869 19.55373
#
# Velocity S-wave (km/s) = 1.85970 3.91201 3.06287
# Velocity P-wave (km/s) = 2.79050 6.81903 5.20990
#
# Compressibility (1/GPa) = 0.15107915
#
# Stress axis : x y z
#
# Youngs Moduli (GPa) = 5.08285 65.93619 41.93415
#
# Poissons Ratio (x) = 2.12252 0.15248
# Poissons Ratio (y) = 0.16362 0.27300
# Poissons Ratio (z) = 0.01848 0.42926
#
# Static dielectric constant tensor:
#      x y z
#    x 4.196440 0.000000 -1.493850 
#    y 0.000000 3.225120 0.000000 
#    z -1.493850 0.000000 4.646690 
# 
# 
# High freq. dielectric constant tensor:
#      x y z
#    x 1.784340 0.000000 -0.067490 
#    y 0.000000 1.835450 0.000000 
#    z -0.067490 0.000000 1.792020 
# 
# From -- ./inp_files/16690.got.cif
#   From: 2010.03.12/outbox.cif.g09.slc.cpg/sg14_9_cif.got.tgz:16690.got - 2010.03.31 13:35:05.
