data_PCOD8123383
_publ_section_title
;
Structure prediction by ZEFSAII (Michael W. Deem and Ramdas Pophale) SiO2 
 PCOD8123383
Probable space group: P 21/C
;
_chemical_formula_sum "Si O2"
_cell_formula_units_Z 32
_cell_length_a 11.851535
_cell_length_b 18.285654
_cell_length_c 9.798341
_cell_angle_alpha 90.000000
_cell_angle_beta 125.012740
_cell_angle_gamma 90.000000
_cell_volume 1739.139972
_symmetry_space_group_name_H-M "P 21/C"
_symmetry_group_IT_number 14
_symmetry_cell_setting 'monoclinic'
loop_
_space_group_symop_operation_xyz
x,y,z
-x,1/2+y,1/2-z
-x,-y,-z
x,1/2-y,1/2+z
loop_
_atom_site_type_symbol
_atom_site_label
_atom_site_fract_x
_atom_site_fract_y
_atom_site_fract_z
Si Si1 0.969370 0.799538 0.110227
Si Si2 0.380879 0.025863 0.320253
Si Si3 0.092724 0.359701 0.934812
Si Si4 0.241218 0.333492 0.303886
Si Si5 0.912001 0.468529 0.656863
Si Si6 0.245212 0.326353 0.769626
Si Si7 0.121187 0.927620 0.158525
Si Si8 0.377438 0.469514 0.506026
O O1 0.999413 0.713690 0.108236
O O2 0.888751 0.812301 0.194101
O O3 0.115566 0.844119 0.212804
O O4 0.879901 0.832756 0.923526
O O5 0.358504 0.112760 0.313375
O O6 0.419022 0.011866 0.189738
O O7 0.500000 0.000000 0.500000
O O8 0.251477 0.977833 0.282887
O O9 0.199812 0.345681 0.889700
O O10 0.996494 0.428689 0.834982
O O11 0.181731 0.376761 0.131548
O O12 0.310382 0.255660 0.307863
O O13 0.355380 0.382984 0.459532
O O14 0.888833 0.415843 0.511582
O O15 0.769241 0.492699 0.627704
O O16 0.988095 0.537798 0.641650
O O17 0.500000 0.500000 0.500000
#
# Coordination Sequence:
#
# PCOD8123383 Si02
#       8
#     4   4   4   4   4   4   4   4
#     4  10  17  35  57  86 114 143 185 236 290 327
#     4  11  23  39  59  83 110 153 201 233 271 341
#     4  10  20  30  58  91 114 139 187 239 277 342
#     4  10  21  34  56  87 116 147 179 234 294 331
#     4  10  18  35  58  82 109 145 185 226 279 333
#     4  10  18  36  61  82 110 147 195 231 271 344
#     4  10  17  34  61  80 106 144 188 230 274 328
#     4  11  24  40  55  81 122 154 184 235 293 333
#
# _framework density 18.399899000000001
#
# number of rings (size 3 to 8) (size 9 to 14) (size 15 to 20)
#    0.000    1.750    5.000    0.750    1.750    0.500 
#    2.250    1.250    0.000    3.000    0.000    0.000 
#    0.000    0.000    0.000    0.000    0.000    0.000 
#
# Total GULP energy -396541.896064 kJ/mol
# GULP energy per Si atom -12391.934252 kJ/mol
# Density = 1.835802 g / cm^3
# Si number density = 18.399899 Si / 1000 Ang^3
#
#
#
# Elastic Constant Matrix: (Units=GPa)
#
#
# Indices 1 2 3 4 5 6 
#
# 1 89.8699 31.4961 22.2875 0.0000 0.0302 0.0000
# 2 31.4961 93.8320 24.2327 0.0000 6.2055 0.0000
# 3 22.2875 24.2327 94.7615 0.0000 -7.0916 0.0000
# 4 0.0000 0.0000 0.0000 28.2435 0.0000 -2.0781
# 5 0.0302 6.2055 -7.0916 0.0000 22.0302 0.0000
# 6 0.0000 0.0000 0.0000 -2.0781 0.0000 21.0811
#
#
#
# Elastic Compliance Matrix: (Units=1/GPa)
#
#
# Indices 1 2 3 4 5 6 
#
# 1 0.012985 -0.003860 -0.002036 0.000000 0.000414 0.000000
# 2 -0.003860 0.012962 -0.002746 0.000000 -0.004530 0.000000
# 3 -0.002036 -0.002746 0.012083 0.000000 0.004666 0.000000
# 4 0.000000 0.000000 0.000000 0.035665 0.000000 0.003516
# 5 0.000414 -0.004530 0.004666 0.000000 0.048169 0.000000
# 6 0.000000 0.000000 0.000000 0.003516 0.000000 0.047782
#
#
# Mechanical properties :
#
#
# Convention : Reuss Voigt Hill
#
# Bulk Modulus (GPa) = 48.20196 48.27734 48.23965
# Shear Modulus (GPa) = 25.79378 27.63409 26.71394
#
# Velocity S-wave (km/s) = 3.74818 3.87959 3.81445
# Velocity P-wave (km/s) = 6.70713 6.80904 6.75828
#
# Compressibility (1/GPa) = 0.02074604
#
# Stress axis : x y z
#
# Youngs Moduli (GPa) = 77.01316 77.15017 82.76136
#
# Poissons Ratio (x) = 0.29781 0.16849
# Poissons Ratio (y) = 0.29728 0.22724
# Poissons Ratio (z) = 0.15679 0.21183
#
# Static dielectric constant tensor:
#      x y z
#    x 3.208110 0.000000 -0.274460 
#    y 0.000000 3.683900 0.000000 
#    z -0.274460 0.000000 3.313560 
# 
# 
# High freq. dielectric constant tensor:
#      x y z
#    x 1.686260 0.000000 -0.032970 
#    y 0.000000 1.723180 0.000000 
#    z -0.032970 0.000000 1.700510 
# 
# From -- ./inp_files/13879.got.cif
#   From: 2010.03.12/outbox.cif.g09.slc.cpg/sg14_7_cif.got.tgz:13879.got - 2010.03.31 13:35:05.
