data_PCOD8123795
_publ_section_title
;
Structure prediction by ZEFSAII (Michael W. Deem and Ramdas Pophale) SiO2 
 PCOD8123795
Probable space group: P 21/C
;
_chemical_formula_sum "Si O2"
_cell_formula_units_Z 24
_cell_length_a 13.904240
_cell_length_b 11.375126
_cell_length_c 20.609021
_cell_angle_alpha 90.000000
_cell_angle_beta 158.345978
_cell_angle_gamma 90.000000
_cell_volume 1202.786162
_symmetry_space_group_name_H-M "P 21/C"
_symmetry_group_IT_number 14
_symmetry_cell_setting 'monoclinic'
loop_
_space_group_symop_operation_xyz
x,y,z
-x,1/2+y,1/2-z
-x,-y,-z
x,1/2-y,1/2+z
loop_
_atom_site_type_symbol
_atom_site_label
_atom_site_fract_x
_atom_site_fract_y
_atom_site_fract_z
Si Si1 0.282921 0.975896 0.649626
Si Si2 0.272197 0.902645 0.005977
Si Si3 0.849624 0.281684 0.439803
Si Si4 0.386121 0.200073 0.322532
Si Si5 0.482430 0.060178 0.641518
Si Si6 0.724870 0.910196 0.620565
O O1 0.314366 0.837583 0.654052
O O2 0.494216 0.004291 0.838270
O O3 0.324174 0.053063 0.610123
O O4 0.000000 0.000000 0.500000
O O5 0.177025 0.867789 0.016847
O O6 0.369324 0.786993 0.028481
O O7 0.022460 0.959967 0.812833
O O8 0.741208 0.358387 0.311389
O O9 0.159161 0.252054 0.631242
O O10 0.299526 0.199570 0.344474
O O11 0.450569 0.069724 0.339596
O O12 0.312883 0.123670 0.478741
O O13 0.500000 0.000000 0.500000
#
# Coordination Sequence:
#
# PCOD8123795 Si02
#       6
#     4   4   4   4   4   4
#     4  11  21  37  59  89 123 148 196 247 298 349
#     4  10  20  37  60  86 120 160 190 242 300 348
#     4  10  20  36  59  87 116 155 194 245 294 341
#     4  10  18  37  63  82 117 156 195 239 295 350
#     4  10  21  39  58  87 115 155 203 240 282 359
#     4   9  21  41  58  85 116 161 202 233 288 359
#
# _framework density 19.953671
#
# number of rings (size 3 to 8) (size 9 to 14) (size 15 to 20)
#    0.000    2.000    3.333    0.500    0.000    1.333 
#    9.000    0.833    0.000    0.000    0.000    0.000 
#    0.000    0.000    0.000    0.000    0.000    0.000 
#
# Total GULP energy -297389.342852 kJ/mol
# GULP energy per Si atom -12391.222619 kJ/mol
# Density = 1.990826 g / cm^3
# Si number density = 19.953671 Si / 1000 Ang^3
#
#
#
# Elastic Constant Matrix: (Units=GPa)
#
#
# Indices 1 2 3 4 5 6 
#
# 1 81.0612 7.0823 55.3921 0.0000 -11.2193 0.0000
# 2 7.0823 60.1016 47.2101 0.0000 -4.9963 0.0000
# 3 55.3921 47.2101 192.5056 0.0000 -5.5782 0.0000
# 4 0.0000 0.0000 0.0000 27.7749 0.0000 4.0973
# 5 -11.2193 -4.9963 -5.5782 0.0000 35.5813 0.0000
# 6 0.0000 0.0000 0.0000 4.0973 0.0000 15.0957
#
#
#
# Elastic Compliance Matrix: (Units=1/GPa)
#
#
# Indices 1 2 3 4 5 6 
#
# 1 0.016300 0.002534 -0.005176 0.000000 0.004684 0.000000
# 2 0.002534 0.021162 -0.005836 0.000000 0.002856 0.000000
# 3 -0.005176 -0.005836 0.008081 0.000000 -0.001185 0.000000
# 4 0.000000 0.000000 0.000000 0.037505 0.000000 -0.010180
# 5 0.004684 0.002856 -0.001185 0.000000 0.029797 0.000000
# 6 0.000000 0.000000 0.000000 -0.010180 0.000000 0.069007
#
#
# Mechanical properties :
#
#
# Convention : Reuss Voigt Hill
#
# Bulk Modulus (GPa) = 34.98079 61.44861 48.21470
# Shear Modulus (GPa) = 23.99957 30.62263 27.31110
#
# Velocity S-wave (km/s) = 3.47185 3.92176 3.70364
# Velocity P-wave (km/s) = 5.80006 7.16725 6.51959
#
# Compressibility (1/GPa) = 0.02858712
#
# Stress axis : x y z
#
# Youngs Moduli (GPa) = 61.34875 47.25544 123.74746
#
# Poissons Ratio (x) = -0.11977 0.64053
# Poissons Ratio (y) = -0.15548 0.72221
# Poissons Ratio (z) = 0.31755 0.27579
#
# Static dielectric constant tensor:
#      x y z
#    x 3.819150 0.000000 -0.274870 
#    y 0.000000 3.495060 0.000000 
#    z -0.274870 0.000000 4.329630 
# 
# 
# High freq. dielectric constant tensor:
#      x y z
#    x 1.766370 0.000000 0.001180 
#    y 0.000000 1.755230 0.000000 
#    z 0.001180 0.000000 1.791830 
# 
# From -- ./inp_files/24077.got.cif
#   From: 2010.03.12/outbox.cif.g09.slc.cpg/sg14_13_cif.got.tgz:24077.got - 2010.03.31 13:35:05.
