data_PCOD8123032
_publ_section_title
;
Structure prediction by ZEFSAII (Michael W. Deem and Ramdas Pophale) SiO2 
 PCOD8123032
Probable space group: P 2/C
;
_chemical_formula_sum "Si O2"
_cell_formula_units_Z 30
_cell_length_a 8.226039
_cell_length_b 11.702829
_cell_length_c 27.777260
_cell_angle_alpha 90.000000
_cell_angle_beta 32.160771
_cell_angle_gamma 90.000000
_cell_volume 1423.393143
_symmetry_space_group_name_H-M "P 2/C"
_symmetry_group_IT_number 13
_symmetry_cell_setting 'monoclinic'
loop_
_space_group_symop_operation_xyz
x,y,z
-x,y,1/2-z
-x,-y,-z
x,-y,1/2+z
loop_
_atom_site_type_symbol
_atom_site_label
_atom_site_fract_x
_atom_site_fract_y
_atom_site_fract_z
Si Si1 0.150410 0.642580 0.588700
Si Si2 0.181641 0.051152 0.599887
Si Si3 0.116117 0.524924 0.418640
Si Si4 0.000000 0.974324 0.750000
Si Si5 0.820201 0.858996 0.646594
Si Si6 0.756883 0.728392 0.470517
Si Si7 0.755645 0.436999 0.273898
Si Si8 0.474645 0.196943 0.372982
O O1 0.506225 0.637518 0.513739
O O2 0.062484 0.576796 0.562907
O O3 0.081739 0.777353 0.602067
O O4 0.941081 0.584652 0.680106
O O5 0.147287 0.185257 0.595943
O O6 0.500000 0.000000 0.500000
O O7 0.130814 0.044629 0.670922
O O8 0.911006 0.986864 0.638773
O O9 0.484228 0.521813 0.326511
O O10 0.000000 0.500000 0.500000
O O11 0.036273 0.650412 0.418455
O O12 0.266269 0.894949 0.703670
O O13 0.500000 0.821603 0.750000
O O14 0.800302 0.836901 0.594129
O O15 0.637629 0.808557 0.544009
O O16 0.605819 0.323273 0.333032
O O17 0.000000 0.491331 0.250000
#
# Coordination Sequence:
#
# PCOD8123032 Si02
#       8
#     4   4   4   2   4   4   4   4
#     4  12  21  40  72  97 134 179 233 295 350 416
#     4  12  25  44  70 103 143 186 236 297 363 429
#     4  12  24  42  65 102 139 178 231 298 360 425
#     4  12  22  42  72 102 142 186 240 298 356 430
#     4  12  21  37  67 106 135 174 238 295 351 409
#     4  12  25  44  67 105 145 183 233 291 366 432
#     4  12  21  37  68 103 129 177 230 294 354 414
#     4  12  20  38  70 103 136 170 233 303 344 408
#
# _framework density 21.076398000000001
#
# number of rings (size 3 to 8) (size 9 to 14) (size 15 to 20)
#    0.000    0.000   10.000    0.800    0.000    0.533 
#    0.000    1.333    7.333    0.000    0.000    0.000 
#    0.000    0.000    0.000    0.000    0.000    0.000 
#
# Total GULP energy -371969.499722 kJ/mol
# GULP energy per Si atom -12398.983324 kJ/mol
# Density = 2.102843 g / cm^3
# Si number density = 21.076398 Si / 1000 Ang^3
#
#
#
# Elastic Constant Matrix: (Units=GPa)
#
#
# Indices 1 2 3 4 5 6 
#
# 1 148.0251 44.4109 58.3336 0.0000 -3.5575 0.0000
# 2 44.4109 96.7827 46.3763 0.0000 -3.9005 0.0000
# 3 58.3336 46.3763 87.0911 0.0000 7.4308 0.0000
# 4 0.0000 0.0000 0.0000 34.9235 0.0000 -0.1454
# 5 -3.5575 -3.9005 7.4308 0.0000 39.0150 0.0000
# 6 0.0000 0.0000 0.0000 -0.1454 0.0000 34.9153
#
#
#
# Elastic Compliance Matrix: (Units=1/GPa)
#
#
# Indices 1 2 3 4 5 6 
#
# 1 0.009511 -0.001565 -0.005690 0.000000 0.001794 0.000000
# 2 -0.001565 0.014446 -0.006867 0.000000 0.002609 0.000000
# 3 -0.005690 -0.006867 0.019367 0.000000 -0.004894 0.000000
# 4 0.000000 0.000000 0.000000 0.028635 0.000000 0.000119
# 5 0.001794 0.002609 -0.004894 0.000000 0.026988 0.000000
# 6 0.000000 0.000000 0.000000 0.000119 0.000000 0.028641
#
#
# Mechanical properties :
#
#
# Convention : Reuss Voigt Hill
#
# Bulk Modulus (GPa) = 66.31134 70.01562 68.16348
# Shear Modulus (GPa) = 31.08323 33.95599 32.51961
#
# Velocity S-wave (km/s) = 3.84446 4.01819 3.93229
# Velocity P-wave (km/s) = 7.15802 7.40404 7.28207
#
# Compressibility (1/GPa) = 0.01508038
#
# Stress axis : x y z
#
# Youngs Moduli (GPa) = 105.14600 69.22155 51.63334
#
# Poissons Ratio (x) = 0.10836 0.29378
# Poissons Ratio (y) = 0.16460 0.35456
# Poissons Ratio (z) = 0.59825 0.47533
#
# Static dielectric constant tensor:
#      x y z
#    x 3.192560 0.000000 -1.757870 
#    y 0.000000 3.581370 0.000000 
#    z -1.757870 0.000000 -1.053640 
# 
# 
# High freq. dielectric constant tensor:
#      x y z
#    x 1.851200 0.000000 0.002780 
#    y 0.000000 1.801690 0.000000 
#    z 0.002780 0.000000 1.816660 
# 
# From -- ./inp_files/96078.got.cif
#   From: 2010.06.25/outbox.cif.g09.slc.cpg/sg13_49_cif.got.tgz:96078.got - 2010.06.28 04:50:58.
