data_PCOD8123822
_publ_section_title
;
Structure prediction by ZEFSAII (Michael W. Deem and Ramdas Pophale) SiO2 
 PCOD8123822
Probable space group: P 21/C
;
_chemical_formula_sum "Si O2"
_cell_formula_units_Z 28
_cell_length_a 8.982895
_cell_length_b 17.863442
_cell_length_c 9.240604
_cell_angle_alpha 90.000000
_cell_angle_beta 82.679506
_cell_angle_gamma 90.000000
_cell_volume 1470.711051
_symmetry_space_group_name_H-M "P 21/C"
_symmetry_group_IT_number 14
_symmetry_cell_setting 'monoclinic'
loop_
_space_group_symop_operation_xyz
x,y,z
-x,1/2+y,1/2-z
-x,-y,-z
x,1/2-y,1/2+z
loop_
_atom_site_type_symbol
_atom_site_label
_atom_site_fract_x
_atom_site_fract_y
_atom_site_fract_z
Si Si1 0.938710 0.945797 0.321176
Si Si2 0.428540 0.666626 0.611721
Si Si3 0.909794 0.392745 0.923968
Si Si4 0.285648 0.724337 0.919497
Si Si5 0.239674 0.112964 0.916285
Si Si6 0.966354 0.341534 0.610182
Si Si7 0.199185 0.956314 0.063493
O O1 0.819254 0.902076 0.238339
O O2 0.976583 0.893193 0.453889
O O3 0.092519 0.963283 0.216219
O O4 0.865100 0.022711 0.386778
O O5 0.352813 0.702820 0.759217
O O6 0.409192 0.725698 0.484718
O O7 0.602437 0.653407 0.617322
O O8 0.348255 0.588823 0.584868
O O9 0.986733 0.350195 0.779642
O O10 0.755938 0.349736 0.983889
O O11 0.131584 0.769727 0.916715
O O12 0.127650 0.169028 0.014564
O O13 0.253337 0.037079 0.006144
O O14 0.891747 0.417601 0.556191
#
# Coordination Sequence:
#
# PCOD8123822 Si02
#       7
#     4   4   4   4   4   4   4
#     4  10  20  35  66  94 116 147 205 259 291 338
#     4  11  24  40  61  84 124 161 197 236 307 358
#     4  11  19  37  66  90 114 150 209 248 288 344
#     4  11  23  42  60  83 118 170 198 236 292 376
#     4  11  21  40  59  94 121 149 199 254 294 350
#     4  10  20  37  66  85 114 159 205 240 291 352
#     4  10  18  38  62  88 116 161 194 239 297 365
#
# _framework density 19.038409999999999
#
# number of rings (size 3 to 8) (size 9 to 14) (size 15 to 20)
#    0.000    1.429    5.714    1.286    0.000    0.000 
#    5.143    0.714    0.000    0.000    0.000    0.000 
#    0.000    0.000    0.000    0.000    0.000    0.000 
#
# Total GULP energy -347295.350420 kJ/mol
# GULP energy per Si atom -12403.405372 kJ/mol
# Density = 1.899508 g / cm^3
# Si number density = 19.038410 Si / 1000 Ang^3
#
#
#
# Elastic Constant Matrix: (Units=GPa)
#
#
# Indices 1 2 3 4 5 6 
#
# 1 83.0930 15.4618 15.0424 0.0000 8.1164 0.0000
# 2 15.4618 46.1484 13.1590 0.0000 0.4804 0.0000
# 3 15.0424 13.1590 99.0376 0.0000 19.2835 0.0000
# 4 0.0000 0.0000 0.0000 20.3368 0.0000 -7.0510
# 5 8.1164 0.4804 19.2835 0.0000 25.0347 0.0000
# 6 0.0000 0.0000 0.0000 -7.0510 0.0000 21.6065
#
#
#
# Elastic Compliance Matrix: (Units=1/GPa)
#
#
# Indices 1 2 3 4 5 6 
#
# 1 0.013311 -0.004208 -0.000751 0.000000 -0.003656 0.000000
# 2 -0.004208 0.023956 -0.003200 0.000000 0.003369 0.000000
# 3 -0.000751 -0.003200 0.012443 0.000000 -0.009280 0.000000
# 4 0.000000 0.000000 0.000000 0.055445 0.000000 0.018094
# 5 -0.003656 0.003369 -0.009280 0.000000 0.048213 0.000000
# 6 0.000000 0.000000 0.000000 0.018094 0.000000 0.052187
#
#
# Mechanical properties :
#
#
# Convention : Reuss Voigt Hill
#
# Bulk Modulus (GPa) = 29.94576 35.06727 32.50651
# Shear Modulus (GPa) = 21.45886 25.70332 23.58109
#
# Velocity S-wave (km/s) = 3.36093 3.67833 3.52320
# Velocity P-wave (km/s) = 5.55197 6.04147 5.80188
#
# Compressibility (1/GPa) = 0.03339371
#
# Stress axis : x y z
#
# Youngs Moduli (GPa) = 75.12748 41.74255 80.36477
#
# Poissons Ratio (x) = 0.17564 0.06033
# Poissons Ratio (y) = 0.31610 0.25717
# Poissons Ratio (z) = 0.05640 0.13358
#
# Static dielectric constant tensor:
#      x y z
#    x 3.324490 0.000000 0.046850 
#    y 0.000000 3.523480 0.000000 
#    z 0.046850 0.000000 3.682630 
# 
# 
# High freq. dielectric constant tensor:
#      x y z
#    x 1.711500 0.000000 0.006670 
#    y 0.000000 1.742290 0.000000 
#    z 0.006670 0.000000 1.757340 
# 
# From -- ./inp_files/9379.got.cif
#   From: 2010.03.12/outbox.cif.g09.slc.cpg/sg14_5_cif.got.tgz:9379.got - 2010.03.31 13:35:05.
