data_PCOD8123751
_publ_section_title
;
Structure prediction by ZEFSAII (Michael W. Deem and Ramdas Pophale) SiO2 
 PCOD8123751
Probable space group: P 21/C
;
_chemical_formula_sum "Si O2"
_cell_formula_units_Z 28
_cell_length_a 18.908902
_cell_length_b 16.649537
_cell_length_c 9.284756
_cell_angle_alpha 90.000000
_cell_angle_beta 30.172681
_cell_angle_gamma 90.000000
_cell_volume 1469.156934
_symmetry_space_group_name_H-M "P 21/C"
_symmetry_group_IT_number 14
_symmetry_cell_setting 'monoclinic'
loop_
_space_group_symop_operation_xyz
x,y,z
-x,1/2+y,1/2-z
-x,-y,-z
x,1/2-y,1/2+z
loop_
_atom_site_type_symbol
_atom_site_label
_atom_site_fract_x
_atom_site_fract_y
_atom_site_fract_z
Si Si1 0.957835 0.612871 0.311701
Si Si2 0.553813 0.704342 0.925053
Si Si3 0.491937 0.842478 0.834146
Si Si4 0.165089 0.216624 0.467417
Si Si5 0.747321 0.035971 0.694222
Si Si6 0.205365 0.090518 0.624503
Si Si7 0.763334 0.899712 0.898232
O O1 0.943066 0.709482 0.342621
O O2 0.898081 0.571805 0.561408
O O3 0.872381 0.574018 0.329530
O O4 0.120454 0.592574 0.006870
O O5 0.465861 0.761841 0.973531
O O6 0.677116 0.754114 0.784314
O O7 0.616131 0.629127 0.726720
O O8 0.455947 0.673243 0.228765
O O9 0.652996 0.870493 0.562874
O O10 0.391278 0.910697 0.073167
O O11 0.124280 0.152540 0.661983
O O12 0.163568 0.174512 0.314276
O O13 0.762546 0.991758 0.514804
O O14 0.727912 0.972850 0.856813
#
# Coordination Sequence:
#
# PCOD8123751 Si02
#       7
#     4   4   4   4   4   4   4
#     4  11  19  37  58  85 113 152 195 236 276 338
#     4  10  18  36  63  82 109 148 199 229 272 340
#     4  11  21  40  59  87 113 150 190 242 279 339
#     4   9  17  34  63  83 101 150 208 231 258 338
#     4  11  25  36  54  90 127 141 179 247 302 322
#     4  10  20  38  62  80 112 156 198 225 279 349
#     4  10  19  37  61  83 108 158 199 228 269 352
#
# _framework density 19.058548999999999
#
# number of rings (size 3 to 8) (size 9 to 14) (size 15 to 20)
#    0.000    1.714    4.286    3.000    0.000    0.571 
#    5.143    0.000    0.000    0.000    0.000    0.000 
#    0.000    0.000    0.000    0.000    0.000    0.000 
#
# Total GULP energy -347271.562696 kJ/mol
# GULP energy per Si atom -12402.555811 kJ/mol
# Density = 1.901517 g / cm^3
# Si number density = 19.058549 Si / 1000 Ang^3
#
#
#
# Elastic Constant Matrix: (Units=GPa)
#
#
# Indices 1 2 3 4 5 6 
#
# 1 64.0741 29.0353 39.6933 0.0000 25.3605 0.0000
# 2 29.0353 83.3162 45.2394 0.0000 7.6933 0.0000
# 3 39.6933 45.2394 70.8104 0.0000 21.2466 0.0000
# 4 0.0000 0.0000 0.0000 19.2776 0.0000 -1.7370
# 5 25.3605 7.6933 21.2466 0.0000 26.3260 0.0000
# 6 0.0000 0.0000 0.0000 -1.7370 0.0000 24.5145
#
#
#
# Elastic Compliance Matrix: (Units=1/GPa)
#
#
# Indices 1 2 3 4 5 6 
#
# 1 0.031598 -0.004583 -0.007987 0.000000 -0.022654 0.000000
# 2 -0.004583 0.019647 -0.012648 0.000000 0.008881 0.000000
# 3 -0.007987 -0.012648 0.030696 0.000000 -0.013383 0.000000
# 4 0.000000 0.000000 0.000000 0.052207 0.000000 0.003699
# 5 -0.022654 0.008881 -0.013383 0.000000 0.068013 0.000000
# 6 0.000000 0.000000 0.000000 0.003699 0.000000 0.041054
#
#
# Mechanical properties :
#
#
# Convention : Reuss Voigt Hill
#
# Bulk Modulus (GPa) = 31.74171 49.57073 40.65622
# Shear Modulus (GPa) = 16.43909 20.97249 18.70579
#
# Velocity S-wave (km/s) = 2.94012 3.32086 3.13627
# Velocity P-wave (km/s) = 5.31194 6.38517 5.87312
#
# Compressibility (1/GPa) = 0.03150429
#
# Stress axis : x y z
#
# Youngs Moduli (GPa) = 31.64750 50.89784 32.57799
#
# Poissons Ratio (x) = 0.23326 0.26021
# Poissons Ratio (y) = 0.14504 0.41204
# Poissons Ratio (z) = 0.25278 0.64375
#
# Static dielectric constant tensor:
#      x y z
#    x 3.476380 0.000000 0.377170 
#    y 0.000000 3.514910 0.000000 
#    z 0.377170 0.000000 3.324530 
# 
# 
# High freq. dielectric constant tensor:
#      x y z
#    x 1.735310 0.000000 0.034450 
#    y 0.000000 1.738060 0.000000 
#    z 0.034450 0.000000 1.726370 
# 
# From -- ./inp_files/9466.got.cif
#   From: 2010.03.12/outbox.cif.g09.slc.cpg/sg14_5_cif.got.tgz:9466.got - 2010.03.31 13:35:05.
