data_PCOD8123672
_publ_section_title
;
Structure prediction by ZEFSAII (Michael W. Deem and Ramdas Pophale) SiO2 
 PCOD8123672
Probable space group: P 21/C
;
_chemical_formula_sum "Si O2"
_cell_formula_units_Z 28
_cell_length_a 17.709373
_cell_length_b 7.008949
_cell_length_c 21.195869
_cell_angle_alpha 90.000000
_cell_angle_beta 143.259104
_cell_angle_gamma 90.000000
_cell_volume 1573.807985
_symmetry_space_group_name_H-M "P 21/C"
_symmetry_group_IT_number 14
_symmetry_cell_setting 'monoclinic'
loop_
_space_group_symop_operation_xyz
x,y,z
-x,1/2+y,1/2-z
-x,-y,-z
x,1/2-y,1/2+z
loop_
_atom_site_type_symbol
_atom_site_label
_atom_site_fract_x
_atom_site_fract_y
_atom_site_fract_z
Si Si1 0.312862 0.408537 0.343995
Si Si2 0.731734 0.560719 0.265804
Si Si3 0.854882 0.151086 0.345078
Si Si4 0.857160 0.672656 0.942789
Si Si5 0.521437 0.163739 0.341662
Si Si6 0.625224 0.704573 0.872009
Si Si7 0.436278 0.015763 0.055197
O O1 0.298738 0.182855 0.318314
O O2 0.184595 0.518210 0.240227
O O3 0.420145 0.518419 0.374323
O O4 0.338827 0.428445 0.435264
O O5 0.778176 0.347063 0.286123
O O6 0.840390 0.672589 0.376354
O O7 0.601728 0.550504 0.217053
O O8 0.002781 0.189098 0.436637
O O9 0.827808 0.038204 0.393241
O O10 0.764891 0.733492 0.937811
O O11 0.481477 0.284438 0.253509
O O12 0.586127 0.300579 0.436335
O O13 0.628068 0.010696 0.398669
O O14 0.588947 0.845257 0.903784
#
# Coordination Sequence:
#
# PCOD8123672 Si02
#       7
#     4   4   4   4   4   4   4
#     4   9  20  35  55  77 104 142 179 218 269 317
#     4   9  18  32  55  81 103 135 177 214 266 318
#     4  10  18  35  55  74 110 138 181 226 257 316
#     4   9  21  32  51  83 106 138 178 222 270 310
#     4  10  20  30  52  82 104 136 165 216 281 323
#     4  11  20  32  52  77 109 135 173 214 276 326
#     4  10  20  36  52  78 111 134 174 229 267 327
#
# _framework density 17.791242
#
# number of rings (size 3 to 8) (size 9 to 14) (size 15 to 20)
#    0.000    2.286    1.429    2.143    2.000    1.143 
#    0.000    4.286    6.286    0.000    0.000    0.000 
#    0.000    0.000    0.000    0.000    0.000    0.000 
#
# Total GULP energy -347047.213658 kJ/mol
# GULP energy per Si atom -12394.543345 kJ/mol
# Density = 1.775075 g / cm^3
# Si number density = 17.791242 Si / 1000 Ang^3
#
#
#
# Elastic Constant Matrix: (Units=GPa)
#
#
# Indices 1 2 3 4 5 6 
#
# 1 58.8941 27.5254 24.7997 0.0000 -13.7708 0.0000
# 2 27.5254 97.8620 23.3990 0.0000 -9.0560 0.0000
# 3 24.7997 23.3990 74.5025 0.0000 -12.6191 0.0000
# 4 0.0000 0.0000 0.0000 20.7598 0.0000 0.0982
# 5 -13.7708 -9.0560 -12.6191 0.0000 14.5280 0.0000
# 6 0.0000 0.0000 0.0000 0.0982 0.0000 26.1536
#
#
#
# Elastic Compliance Matrix: (Units=1/GPa)
#
#
# Indices 1 2 3 4 5 6 
#
# 1 0.024739 -0.004421 -0.003918 0.000000 0.017290 0.000000
# 2 -0.004421 0.012100 -0.002065 0.000000 0.001558 0.000000
# 3 -0.003918 -0.002065 0.017034 0.000000 0.009795 0.000000
# 4 0.000000 0.000000 0.000000 0.048171 0.000000 -0.000181
# 5 0.017290 0.001558 0.009795 0.000000 0.094701 0.000000
# 6 0.000000 0.000000 0.000000 -0.000181 0.000000 0.038236
#
#
# Mechanical properties :
#
#
# Convention : Reuss Voigt Hill
#
# Bulk Modulus (GPa) = 30.24306 42.52298 36.38302
# Shear Modulus (GPa) = 18.73995 22.65725 20.69860
#
# Velocity S-wave (km/s) = 3.24902 3.57249 3.41459
# Velocity P-wave (km/s) = 5.57768 6.40077 6.00335
#
# Compressibility (1/GPa) = 0.03306544
#
# Stress axis : x y z
#
# Youngs Moduli (GPa) = 40.42270 82.64527 58.70634
#
# Poissons Ratio (x) = 0.36541 0.22998
# Poissons Ratio (y) = 0.17873 0.12120
# Poissons Ratio (z) = 0.15836 0.17062
#
# Static dielectric constant tensor:
#      x y z
#    x 3.130430 0.000000 -0.049430 
#    y 0.000000 3.329560 0.000000 
#    z -0.049430 0.000000 3.234600 
# 
# 
# High freq. dielectric constant tensor:
#      x y z
#    x 1.663840 0.000000 -0.002080 
#    y 0.000000 1.698060 0.000000 
#    z -0.002080 0.000000 1.677500 
# 
# From -- ./inp_files/66556.got.cif
#   From: 2010.03.12/outbox.cif.g09.slc.cpg/sg14_34_cif.got.tgz:66556.got - 2010.03.31 13:35:05.
