data_PCOD8123796
_publ_section_title
;
Structure prediction by ZEFSAII (Michael W. Deem and Ramdas Pophale) SiO2 
 PCOD8123796
Probable space group: P 21/C
;
_chemical_formula_sum "Si O2"
_cell_formula_units_Z 32
_cell_length_a 7.059729
_cell_length_b 9.343278
_cell_length_c 23.130124
_cell_angle_alpha 90.000000
_cell_angle_beta 118.409438
_cell_angle_gamma 90.000000
_cell_volume 1341.948274
_symmetry_space_group_name_H-M "P 21/C"
_symmetry_group_IT_number 14
_symmetry_cell_setting 'monoclinic'
loop_
_space_group_symop_operation_xyz
x,y,z
-x,1/2+y,1/2-z
-x,-y,-z
x,1/2-y,1/2+z
loop_
_atom_site_type_symbol
_atom_site_label
_atom_site_fract_x
_atom_site_fract_y
_atom_site_fract_z
Si Si1 0.301408 0.075451 0.090886
Si Si2 0.580243 0.853885 0.643991
Si Si3 0.614929 0.882193 0.347032
Si Si4 0.924580 0.826445 0.145975
Si Si5 0.995001 0.585352 0.066982
Si Si6 0.394942 0.859051 0.198973
Si Si7 0.805033 0.458217 0.543390
Si Si8 0.266685 0.653358 0.999880
O O1 0.361735 0.240356 0.110655
O O2 0.056361 0.032047 0.065794
O O3 0.438057 0.984080 0.157916
O O4 0.342906 0.029997 0.029365
O O5 0.805861 0.765655 0.679224
O O6 0.412514 0.789752 0.666496
O O7 0.488699 0.834114 0.566352
O O8 0.590269 0.023556 0.659350
O O9 0.580410 0.852189 0.274254
O O10 0.827806 0.976488 0.382802
O O11 0.960943 0.727488 0.096637
O O12 0.165260 0.874587 0.199406
O O13 0.778036 0.959560 0.101295
O O14 0.058184 0.645946 0.012900
O O15 0.764663 0.498711 0.037285
O O16 0.746176 0.291340 0.543493
#
# Coordination Sequence:
#
# PCOD8123796 Si02
#       8
#     4   4   4   4   4   4   4   4
#     4  10  19  34  64  93 118 165 215 254 318 378
#     4  11  24  43  64  95 127 161 213 261 320 382
#     4  11  22  39  67  91 120 172 220 255 312 381
#     4  11  24  41  64  93 130 166 203 266 325 373
#     4  10  20  36  61  92 127 165 210 259 314 375
#     4  11  22  44  64  89 123 171 212 266 311 367
#     4  10  19  35  61  93 128 161 204 264 323 375
#     4  10  18  37  63  91 125 168 206 257 318 377
#
# _framework density 23.845925999999999
#
# number of rings (size 3 to 8) (size 9 to 14) (size 15 to 20)
#    0.000    1.500    5.000    2.250    3.500    1.000 
#    2.250    0.000    0.000    0.000    0.000    0.000 
#    0.000    0.000    0.000    0.000    0.000    0.000 
#
# Total GULP energy -396469.895496 kJ/mol
# GULP energy per Si atom -12389.684234 kJ/mol
# Density = 2.379165 g / cm^3
# Si number density = 23.845926 Si / 1000 Ang^3
#
#
#
# Elastic Constant Matrix: (Units=GPa)
#
#
# Indices 1 2 3 4 5 6 
#
# 1 42.0427 5.5683 1.3472 0.0000 0.1499 0.0000
# 2 5.5683 142.5161 24.1821 0.0000 -1.5555 0.0000
# 3 1.3472 24.1821 86.5048 0.0000 11.6476 0.0000
# 4 0.0000 0.0000 0.0000 19.9117 0.0000 -1.9263
# 5 0.1499 -1.5555 11.6476 0.0000 15.9271 0.0000
# 6 0.0000 0.0000 0.0000 -1.9263 0.0000 23.7216
#
#
#
# Elastic Compliance Matrix: (Units=1/GPa)
#
#
# Indices 1 2 3 4 5 6 
#
# 1 0.023911 -0.000924 -0.000080 0.000000 -0.000257 0.000000
# 2 -0.000924 0.007490 -0.002417 0.000000 0.002508 0.000000
# 3 -0.000080 -0.002417 0.013609 0.000000 -0.010188 0.000000
# 4 0.000000 0.000000 0.000000 0.050619 0.000000 0.004110
# 5 -0.000257 0.002508 -0.010188 0.000000 0.070484 0.000000
# 6 0.000000 0.000000 0.000000 0.004110 0.000000 0.042489
#
#
# Mechanical properties :
#
#
# Convention : Reuss Voigt Hill
#
# Bulk Modulus (GPa) = 26.19891 37.02875 31.61383
# Shear Modulus (GPa) = 21.91381 27.90981 24.91181
#
# Velocity S-wave (km/s) = 3.03475 3.42486 3.23569
# Velocity P-wave (km/s) = 4.82599 5.58584 5.21976
#
# Compressibility (1/GPa) = 0.03816953
#
# Stress axis : x y z
#
# Youngs Moduli (GPa) = 41.82150 133.50487 73.48220
#
# Poissons Ratio (x) = 0.12330 0.00585
# Poissons Ratio (y) = 0.03862 0.17762
# Poissons Ratio (z) = 0.00333 0.32271
#
# Static dielectric constant tensor:
#      x y z
#    x 4.073980 0.000000 0.227060 
#    y 0.000000 4.664580 0.000000 
#    z 0.227060 0.000000 4.146360 
# 
# 
# High freq. dielectric constant tensor:
#      x y z
#    x 1.914700 0.000000 0.015860 
#    y 0.000000 1.964180 0.000000 
#    z 0.015860 0.000000 1.923640 
# 
# From -- ./inp_files/72077.got.cif
#   From: 2010.03.12/outbox.cif.g09.slc.cpg/sg14_37_cif.got.tgz:72077.got - 2010.03.31 13:35:05.
