data_PCOD8123629
_publ_section_title
;
Structure prediction by ZEFSAII (Michael W. Deem and Ramdas Pophale) SiO2 
 PCOD8123629
Probable space group: P 21/C
;
_chemical_formula_sum "Si O2"
_cell_formula_units_Z 32
_cell_length_a 17.237040
_cell_length_b 14.163208
_cell_length_c 12.407669
_cell_angle_alpha 90.000000
_cell_angle_beta 33.755893
_cell_angle_gamma 90.000000
_cell_volume 1683.140359
_symmetry_space_group_name_H-M "P 21/C"
_symmetry_group_IT_number 14
_symmetry_cell_setting 'monoclinic'
loop_
_space_group_symop_operation_xyz
x,y,z
-x,1/2+y,1/2-z
-x,-y,-z
x,1/2-y,1/2+z
loop_
_atom_site_type_symbol
_atom_site_label
_atom_site_fract_x
_atom_site_fract_y
_atom_site_fract_z
Si Si1 0.808995 0.182684 0.015000
Si Si2 0.029557 0.102218 0.917590
Si Si3 0.754743 0.359901 0.188981
Si Si4 0.032338 0.294879 0.631439
Si Si5 0.432605 0.000058 0.194126
Si Si6 0.815815 0.880336 0.463227
Si Si7 0.014040 0.043859 0.312588
Si Si8 0.295956 0.549157 0.532571
O O1 0.730078 0.249932 0.191095
O O2 0.704964 0.111826 0.074289
O O3 0.912231 0.118489 0.963633
O O4 0.887133 0.247114 0.835408
O O5 0.171771 0.109475 0.682022
O O6 0.031834 0.185583 0.003852
O O7 0.000000 0.000000 0.000000
O O8 0.676608 0.413508 0.179927
O O9 0.693221 0.381590 0.376932
O O10 0.919783 0.388308 0.997566
O O11 0.158003 0.225854 0.523161
O O12 0.051113 0.398076 0.662253
O O13 0.342252 0.094219 0.321629
O O14 0.558792 0.989573 0.135304
O O15 0.500000 0.000000 0.000000
O O16 0.930858 0.947726 0.386537
O O17 0.160827 0.018264 0.200654
#
# Coordination Sequence:
#
# PCOD8123629 Si02
#       8
#     4   4   4   4   4   4   4   4
#     4  10  20  32  55  87 113 145 194 231 288 352
#     4  11  19  34  59  87 120 151 185 247 304 339
#     4   9  20  35  55  81 108 146 187 232 288 331
#     4  10  19  34  56  87 118 146 191 245 293 346
#     4   9  21  40  57  76 114 155 185 231 291 336
#     4  10  20  38  56  86 116 150 197 233 291 352
#     4  10  18  34  57  86 110 141 192 243 284 339
#     4  11  18  36  55  79 112 143 188 237 277 338
#
# _framework density 19.012080999999998
#
# number of rings (size 3 to 8) (size 9 to 14) (size 15 to 20)
#    0.000    2.000    3.750    1.125    0.000    0.000 
#   13.500    1.250    0.000    3.000    0.000    0.000 
#    0.000    0.000    0.000    0.000    0.000    0.000 
#
# Total GULP energy -396568.713456 kJ/mol
# GULP energy per Si atom -12392.772296 kJ/mol
# Density = 1.896881 g / cm^3
# Si number density = 19.012081 Si / 1000 Ang^3
#
#
#
# Elastic Constant Matrix: (Units=GPa)
#
#
# Indices 1 2 3 4 5 6 
#
# 1 102.5861 35.1988 42.2266 0.0000 -5.7779 0.0000
# 2 35.1988 78.0613 21.3000 0.0000 -1.4348 0.0000
# 3 42.2266 21.3000 71.5476 0.0000 -5.9503 0.0000
# 4 0.0000 0.0000 0.0000 21.7723 0.0000 8.6293
# 5 -5.7779 -1.4348 -5.9503 0.0000 41.2026 0.0000
# 6 0.0000 0.0000 0.0000 8.6293 0.0000 31.4151
#
#
#
# Elastic Compliance Matrix: (Units=1/GPa)
#
#
# Indices 1 2 3 4 5 6 
#
# 1 0.014207 -0.004486 -0.006980 0.000000 0.000828 0.000000
# 2 -0.004486 0.015360 -0.001956 0.000000 -0.000377 0.000000
# 3 -0.006980 -0.001956 0.018818 0.000000 0.001671 0.000000
# 4 0.000000 0.000000 0.000000 0.051541 0.000000 -0.014158
# 5 0.000828 -0.000377 0.001671 0.000000 0.024615 0.000000
# 6 0.000000 0.000000 0.000000 -0.014158 0.000000 0.035721
#
#
# Mechanical properties :
#
#
# Convention : Reuss Voigt Hill
#
# Bulk Modulus (GPa) = 46.42738 49.96065 48.19402
# Shear Modulus (GPa) = 25.73504 29.10931 27.42217
#
# Velocity S-wave (km/s) = 3.68314 3.91717 3.80196
# Velocity P-wave (km/s) = 6.52383 6.84064 6.68411
#
# Compressibility (1/GPa) = 0.02153901
#
# Stress axis : x y z
#
# Youngs Moduli (GPa) = 70.38704 65.10304 53.14098
#
# Poissons Ratio (x) = 0.29207 0.37095
# Poissons Ratio (y) = 0.31577 0.10397
# Poissons Ratio (z) = 0.49133 0.12737
#
# Static dielectric constant tensor:
#      x y z
#    x 3.588210 0.000000 -0.028670 
#    y 0.000000 3.582760 0.000000 
#    z -0.028670 0.000000 3.670170 
# 
# 
# High freq. dielectric constant tensor:
#      x y z
#    x 1.728720 0.000000 0.010610 
#    y 0.000000 1.738220 0.000000 
#    z 0.010610 0.000000 1.716630 
# 
# From -- ./inp_files/32764.got.cif
#   From: 2010.03.12/outbox.cif.g09.slc.cpg/sg14_17_cif.got.tgz:32764.got - 2010.03.31 13:35:05.
