data_PCOD8123247
_publ_section_title
;
Structure prediction by ZEFSAII (Michael W. Deem and Ramdas Pophale) SiO2 
 PCOD8123247
Probable space group: P 21/C
;
_chemical_formula_sum "Si O2"
_cell_formula_units_Z 28
_cell_length_a 9.677337
_cell_length_b 10.981109
_cell_length_c 28.000164
_cell_angle_alpha 90.000000
_cell_angle_beta 152.329915
_cell_angle_gamma 90.000000
_cell_volume 1381.770364
_symmetry_space_group_name_H-M "P 21/C"
_symmetry_group_IT_number 14
_symmetry_cell_setting 'monoclinic'
loop_
_space_group_symop_operation_xyz
x,y,z
-x,1/2+y,1/2-z
-x,-y,-z
x,1/2-y,1/2+z
loop_
_atom_site_type_symbol
_atom_site_label
_atom_site_fract_x
_atom_site_fract_y
_atom_site_fract_z
Si Si1 0.415766 0.761776 0.035002
Si Si2 0.755717 0.953303 0.612302
Si Si3 0.785276 0.260297 0.781465
Si Si4 0.045020 0.421694 0.283538
Si Si5 0.609534 0.108750 0.065945
Si Si6 0.886036 0.653297 0.424564
Si Si7 0.976131 0.887695 0.059376
O O1 0.361688 0.776258 0.960809
O O2 0.095449 0.750595 0.961512
O O3 0.593493 0.638083 0.099247
O O4 0.618398 0.870247 0.119383
O O5 0.010725 0.880635 0.661083
O O6 0.500000 0.000000 0.500000
O O7 0.890290 0.065416 0.684458
O O8 0.447615 0.301087 0.675715
O O9 0.828617 0.195497 0.845680
O O10 0.855520 0.164519 0.760547
O O11 0.082651 0.560905 0.315755
O O12 0.368742 0.134787 0.033262
O O13 0.500000 0.000000 0.000000
O O14 0.918711 0.527992 0.404522
O O15 0.023733 0.648748 0.519406
#
# Coordination Sequence:
#
# PCOD8123247 Si02
#       7
#     4   4   4   4   4   4   4
#     4  10  21  42  62  96 120 165 219 262 316 368
#     4  11  25  40  64  95 128 166 215 266 322 378
#     4  11  24  42  64  97 130 174 205 265 334 369
#     4  10  20  39  66  91 120 168 219 256 311 382
#     4  10  15  37  68  85 115 158 218 262 291 372
#     4  11  24  39  66  94 131 168 211 264 315 388
#     4  11  21  41  65  93 128 167 213 258 315 383
#
# _framework density 20.263857999999999
#
# number of rings (size 3 to 8) (size 9 to 14) (size 15 to 20)
#    0.000    1.429    7.143    0.857    4.000    3.429 
#    5.143    0.714    0.000    0.000    0.000    0.000 
#    0.000    0.000    0.000    0.000    0.000    0.000 
#
# Total GULP energy -347007.633032 kJ/mol
# GULP energy per Si atom -12393.129751 kJ/mol
# Density = 2.021774 g / cm^3
# Si number density = 20.263858 Si / 1000 Ang^3
#
#
#
# Elastic Constant Matrix: (Units=GPa)
#
#
# Indices 1 2 3 4 5 6 
#
# 1 92.4325 26.1993 42.0426 0.0000 12.3502 0.0000
# 2 26.1993 51.0273 39.7543 0.0000 -0.0436 0.0000
# 3 42.0426 39.7543 130.8688 0.0000 3.4217 0.0000
# 4 0.0000 0.0000 0.0000 32.4241 0.0000 -2.1461
# 5 12.3502 -0.0436 3.4217 0.0000 47.3605 0.0000
# 6 0.0000 0.0000 0.0000 -2.1461 0.0000 17.1016
#
#
#
# Elastic Compliance Matrix: (Units=1/GPa)
#
#
# Indices 1 2 3 4 5 6 
#
# 1 0.013998 -0.004922 -0.002912 0.000000 -0.003445 0.000000
# 2 -0.004922 0.027420 -0.006795 0.000000 0.001800 0.000000
# 3 -0.002912 -0.006795 0.010641 0.000000 -0.000016 0.000000
# 4 0.000000 0.000000 0.000000 0.031100 0.000000 0.003903
# 5 -0.003445 0.001800 -0.000016 0.000000 0.022016 0.000000
# 6 0.000000 0.000000 0.000000 0.003903 0.000000 0.058964
#
#
# Mechanical properties :
#
#
# Convention : Reuss Voigt Hill
#
# Bulk Modulus (GPa) = 43.85609 54.48012 49.16810
# Shear Modulus (GPa) = 24.87596 30.46608 27.67102
#
# Velocity S-wave (km/s) = 3.50752 3.88167 3.69932
# Velocity P-wave (km/s) = 6.17196 6.85810 6.52405
#
# Compressibility (1/GPa) = 0.02280185
#
# Stress axis : x y z
#
# Youngs Moduli (GPa) = 71.43654 36.46987 93.97272
#
# Poissons Ratio (x) = 0.17949 0.27365
# Poissons Ratio (y) = 0.35158 0.63858
# Poissons Ratio (z) = 0.20802 0.24783
#
# Static dielectric constant tensor:
#      x y z
#    x 3.744460 0.000000 -0.257170 
#    y 0.000000 4.130490 0.000000 
#    z -0.257170 0.000000 3.630870 
# 
# 
# High freq. dielectric constant tensor:
#      x y z
#    x 1.785540 0.000000 -0.004360 
#    y 0.000000 1.781270 0.000000 
#    z -0.004360 0.000000 1.788700 
# 
# From -- ./inp_files/76658.got.cif
#   From: 2010.03.12/outbox.cif.g09.slc.cpg/sg14_39_cif.got.tgz:76658.got - 2010.03.31 13:35:05.
