data_PCOD8123767
_publ_section_title
;
Structure prediction by ZEFSAII (Michael W. Deem and Ramdas Pophale) SiO2 
 PCOD8123767
Probable space group: P 21/C
;
_chemical_formula_sum "Si O2"
_cell_formula_units_Z 24
_cell_length_a 7.082169
_cell_length_b 20.403202
_cell_length_c 8.342385
_cell_angle_alpha 90.000000
_cell_angle_beta 121.964461
_cell_angle_gamma 90.000000
_cell_volume 1022.688893
_symmetry_space_group_name_H-M "P 21/C"
_symmetry_group_IT_number 14
_symmetry_cell_setting 'monoclinic'
loop_
_space_group_symop_operation_xyz
x,y,z
-x,1/2+y,1/2-z
-x,-y,-z
x,1/2-y,1/2+z
loop_
_atom_site_type_symbol
_atom_site_label
_atom_site_fract_x
_atom_site_fract_y
_atom_site_fract_z
Si Si1 0.662384 0.447299 0.492810
Si Si2 0.375215 0.818024 0.571630
Si Si3 0.053059 0.991049 0.337539
Si Si4 0.899579 0.858364 0.348408
Si Si5 0.478292 0.310422 0.520614
Si Si6 0.447399 0.427768 0.075291
O O1 0.500000 0.500000 0.500000
O O2 0.610546 0.374339 0.525470
O O3 0.914558 0.461658 0.657717
O O4 0.633053 0.451026 0.287633
O O5 0.540936 0.810390 0.796117
O O6 0.390826 0.755217 0.465678
O O7 0.438411 0.884419 0.508623
O O8 0.118505 0.822714 0.517088
O O9 0.986599 0.916504 0.269480
O O10 0.316846 0.008937 0.436510
O O11 0.000000 0.000000 0.500000
O O12 0.744102 0.884320 0.422678
O O13 0.764513 0.809454 0.170986
#
# Coordination Sequence:
#
# PCOD8123767 Si02
#       6
#     4   4   4   4   4   4
#     4  11  19  39  70  96 133 174 215 267 333 382
#     4  12  27  45  68  98 134 175 224 271 328 393
#     4  10  18  36  66  97 132 171 212 265 327 385
#     4  10  23  43  68  97 133 172 219 268 330 389
#     4  11  24  43  67  95 133 175 221 273 324 396
#     4  10  23  41  67 101 133 172 218 268 328 393
#
# _framework density 23.467548000000001
#
# number of rings (size 3 to 8) (size 9 to 14) (size 15 to 20)
#    0.000    1.333    5.000    4.000    0.000    6.000 
#    0.000    1.667    0.000    0.000    0.000    0.000 
#    0.000    0.000    0.000    0.000    0.000    0.000 
#
# Total GULP energy -297630.295182 kJ/mol
# GULP energy per Si atom -12401.262299 kJ/mol
# Density = 2.341413 g / cm^3
# Si number density = 23.467548 Si / 1000 Ang^3
#
#
#
# Elastic Constant Matrix: (Units=GPa)
#
#
# Indices 1 2 3 4 5 6 
#
# 1 78.5302 1.1204 35.0167 0.0000 18.7895 0.0000
# 2 1.1204 93.8588 15.3310 0.0000 -1.0876 0.0000
# 3 35.0167 15.3310 141.5680 0.0000 0.1800 0.0000
# 4 0.0000 0.0000 0.0000 40.2458 0.0000 -1.7723
# 5 18.7895 -1.0876 0.1800 0.0000 46.2620 0.0000
# 6 0.0000 0.0000 0.0000 -1.7723 0.0000 36.4087
#
#
#
# Elastic Compliance Matrix: (Units=1/GPa)
#
#
# Indices 1 2 3 4 5 6 
#
# 1 0.016072 0.000388 -0.004009 0.000000 -0.006503 0.000000
# 2 0.000388 0.010859 -0.001272 0.000000 0.000103 0.000000
# 3 -0.004009 -0.001272 0.008191 0.000000 0.001567 0.000000
# 4 0.000000 0.000000 0.000000 0.024901 0.000000 0.001212
# 5 -0.006503 0.000103 0.001567 0.000000 0.024254 0.000000
# 6 0.000000 0.000000 0.000000 0.001212 0.000000 0.027525
#
#
# Mechanical properties :
#
#
# Convention : Reuss Voigt Hill
#
# Bulk Modulus (GPa) = 39.47110 46.32146 42.89628
# Shear Modulus (GPa) = 38.45182 42.08255 40.26719
#
# Velocity S-wave (km/s) = 4.05224 4.23924 4.14680
# Velocity P-wave (km/s) = 6.22496 6.61384 6.42235
#
# Compressibility (1/GPa) = 0.02533499
#
# Stress axis : x y z
#
# Youngs Moduli (GPa) = 62.21988 92.09266 122.08300
#
# Poissons Ratio (x) = -0.03570 0.48944
# Poissons Ratio (y) = -0.02412 0.15528
# Poissons Ratio (z) = 0.24945 0.11714
#
# Static dielectric constant tensor:
#      x y z
#    x 4.394780 0.000000 0.385040 
#    y 0.000000 4.496190 0.000000 
#    z 0.385040 0.000000 4.795990 
# 
# 
# High freq. dielectric constant tensor:
#      x y z
#    x 1.927030 0.000000 0.010550 
#    y 0.000000 1.936720 0.000000 
#    z 0.010550 0.000000 1.941090 
# 
# From -- ./inp_files/10297.got.cif
#   From: 2010.03.12/outbox.cif.g09.slc.cpg/sg14_6_cif.got.tgz:10297.got - 2010.03.31 13:35:05.
