data_PCOD8123732
_publ_section_title
;
Structure prediction by ZEFSAII (Michael W. Deem and Ramdas Pophale) SiO2 
 PCOD8123732
Probable space group: P 21/C
;
_chemical_formula_sum "Si O2"
_cell_formula_units_Z 28
_cell_length_a 8.191582
_cell_length_b 17.134863
_cell_length_c 9.479018
_cell_angle_alpha 90.000000
_cell_angle_beta 89.522160
_cell_angle_gamma 90.000000
_cell_volume 1330.444198
_symmetry_space_group_name_H-M "P 21/C"
_symmetry_group_IT_number 14
_symmetry_cell_setting 'monoclinic'
loop_
_space_group_symop_operation_xyz
x,y,z
-x,1/2+y,1/2-z
-x,-y,-z
x,1/2-y,1/2+z
loop_
_atom_site_type_symbol
_atom_site_label
_atom_site_fract_x
_atom_site_fract_y
_atom_site_fract_z
Si Si1 0.071107 0.130087 0.461164
Si Si2 0.744837 0.959263 0.773248
Si Si3 0.120378 0.614811 0.768394
Si Si4 0.099330 0.134967 0.990494
Si Si5 0.871276 0.206510 0.225404
Si Si6 0.649376 0.759378 0.493433
Si Si7 0.515190 0.168118 0.251235
O O1 0.959085 0.091684 0.581286
O O2 0.970411 0.192484 0.368110
O O3 0.137405 0.064640 0.355817
O O4 0.219877 0.172843 0.540145
O O5 0.569624 0.916930 0.761169
O O6 0.831495 0.937247 0.919621
O O7 0.730914 0.053748 0.763093
O O8 0.989295 0.601699 0.645530
O O9 0.184892 0.703080 0.773720
O O10 0.979905 0.187860 0.088529
O O11 0.251396 0.187602 0.937393
O O12 0.706315 0.155010 0.221313
O O13 0.565660 0.730396 0.352302
O O14 0.509592 0.793846 0.595301
#
# Coordination Sequence:
#
# PCOD8123732 Si02
#       7
#     4   4   4   4   4   4   4
#     4  10  20  37  61  87 112 151 197 243 281 341
#     4   9  22  39  56  85 125 150 182 245 304 342
#     4  12  19  34  65  87 111 150 204 236 289 343
#     4  10  20  37  61  87 112 151 197 243 281 341
#     4  11  22  37  60  86 118 147 199 242 279 339
#     4  10  18  36  58  82 108 150 192 236 274 342
#     4  10  23  36  57  82 122 151 185 235 298 336
#
# _framework density 21.045601999999999
#
# number of rings (size 3 to 8) (size 9 to 14) (size 15 to 20)
#    0.000    1.714    2.857    2.571    4.000    0.000 
#    0.000    1.429   12.571    0.000    0.000    0.000 
#    0.000    0.000    0.000    0.000    0.000    0.000 
#
# Total GULP energy -347139.787907 kJ/mol
# GULP energy per Si atom -12397.849568 kJ/mol
# Density = 2.099770 g / cm^3
# Si number density = 21.045602 Si / 1000 Ang^3
#
#
#
# Elastic Constant Matrix: (Units=GPa)
#
#
# Indices 1 2 3 4 5 6 
#
# 1 71.3424 5.4972 7.8040 0.0000 -6.3226 0.0000
# 2 5.4972 77.3637 2.4252 0.0000 1.7031 0.0000
# 3 7.8040 2.4252 76.4454 0.0000 4.5263 0.0000
# 4 0.0000 0.0000 0.0000 10.9287 0.0000 -4.5077
# 5 -6.3226 1.7031 4.5263 0.0000 16.1546 0.0000
# 6 0.0000 0.0000 0.0000 -4.5077 0.0000 13.9273
#
#
#
# Elastic Compliance Matrix: (Units=1/GPa)
#
#
# Indices 1 2 3 4 5 6 
#
# 1 0.014882 -0.001141 -0.001866 0.000000 0.006468 0.000000
# 2 -0.001141 0.013052 -0.000193 0.000000 -0.001769 0.000000
# 3 -0.001866 -0.000193 0.013545 0.000000 -0.004505 0.000000
# 4 0.000000 0.000000 0.000000 0.105600 0.000000 0.034178
# 5 0.006468 -0.001769 -0.004505 0.000000 0.065882 0.000000
# 6 0.000000 0.000000 0.000000 0.034178 0.000000 0.082864
#
#
# Mechanical properties :
#
#
# Convention : Reuss Voigt Hill
#
# Bulk Modulus (GPa) = 28.50759 28.51161 28.50960
# Shear Modulus (GPa) = 15.92775 22.16378 19.04577
#
# Velocity S-wave (km/s) = 2.75402 3.24872 3.01155
# Velocity P-wave (km/s) = 4.86702 5.25825 5.06641
#
# Compressibility (1/GPa) = 0.03507837
#
# Stress axis : x y z
#
# Youngs Moduli (GPa) = 67.19456 76.61640 73.83026
#
# Poissons Ratio (x) = 0.08745 0.13777
# Poissons Ratio (y) = 0.07669 0.01424
# Poissons Ratio (z) = 0.12539 0.01477
#
# Static dielectric constant tensor:
#      x y z
#    x 3.626960 0.000000 -0.002850 
#    y 0.000000 3.587690 0.000000 
#    z -0.002850 0.000000 3.814590 
# 
# 
# High freq. dielectric constant tensor:
#      x y z
#    x 1.803280 0.000000 0.003310 
#    y 0.000000 1.812040 0.000000 
#    z 0.003310 0.000000 1.832080 
# 
# From -- ./inp_files/9387.got.cif
#   From: 2010.03.12/outbox.cif.g09.slc.cpg/sg14_5_cif.got.tgz:9387.got - 2010.03.31 13:35:05.
