data_PCOD8123690
_publ_section_title
;
Structure prediction by ZEFSAII (Michael W. Deem and Ramdas Pophale) SiO2 
 PCOD8123690
Probable space group: P 21/C
;
_chemical_formula_sum "Si O2"
_cell_formula_units_Z 24
_cell_length_a 9.820329
_cell_length_b 12.989257
_cell_length_c 20.137131
_cell_angle_alpha 90.000000
_cell_angle_beta 151.101834
_cell_angle_gamma 90.000000
_cell_volume 1241.319917
_symmetry_space_group_name_H-M "P 21/C"
_symmetry_group_IT_number 14
_symmetry_cell_setting 'monoclinic'
loop_
_space_group_symop_operation_xyz
x,y,z
-x,1/2+y,1/2-z
-x,-y,-z
x,1/2-y,1/2+z
loop_
_atom_site_type_symbol
_atom_site_label
_atom_site_fract_x
_atom_site_fract_y
_atom_site_fract_z
Si Si1 0.479774 0.963732 0.704965
Si Si2 0.104787 0.458285 0.871243
Si Si3 0.103855 0.745205 0.669915
Si Si4 0.047534 0.385111 0.085100
Si Si5 0.731950 0.445472 0.188773
Si Si6 0.695254 0.711937 0.373912
O O1 0.650732 0.908269 0.837087
O O2 0.257195 0.882591 0.579794
O O3 0.288839 0.058624 0.645666
O O4 0.712579 0.996893 0.750787
O O5 0.914759 0.359610 0.806767
O O6 0.091793 0.484848 0.787727
O O7 0.985398 0.560573 0.857517
O O8 0.419007 0.427433 0.026928
O O9 0.860847 0.721484 0.513503
O O10 0.102038 0.662077 0.729225
O O11 0.397443 0.732798 0.757483
O O12 0.150293 0.266471 0.123933
#
# Coordination Sequence:
#
# PCOD8123690 Si02
#       6
#     4   4   4   4   4   4
#     4  10  19  35  58  86 116 150 196 238 287 348
#     4  10  21  39  63  83 119 161 196 234 292 363
#     4  12  21  38  62  90 115 155 196 246 301 343
#     4  10  18  35  59  85 112 155 195 233 289 349
#     4  10  22  39  60  87 118 160 196 234 295 361
#     4  12  21  35  63  91 117 153 198 249 289 343
#
# _framework density 19.33426
#
# number of rings (size 3 to 8) (size 9 to 14) (size 15 to 20)
#    0.000    1.333    6.667    1.000    0.000    2.000 
#    0.000    0.833    0.000    0.000    0.000    0.000 
#    0.000    0.000    0.000    0.000    0.000    0.000 
#
# Total GULP energy -297437.355653 kJ/mol
# GULP energy per Si atom -12393.223152 kJ/mol
# Density = 1.929025 g / cm^3
# Si number density = 19.334260 Si / 1000 Ang^3
#
#
#
# Elastic Constant Matrix: (Units=GPa)
#
#
# Indices 1 2 3 4 5 6 
#
# 1 102.9239 30.8419 27.0880 0.0000 -9.1972 0.0000
# 2 30.8419 79.0139 32.1165 0.0000 -6.4467 0.0000
# 3 27.0880 32.1165 47.1342 0.0000 -0.6654 0.0000
# 4 0.0000 0.0000 0.0000 32.2692 0.0000 -4.3981
# 5 -9.1972 -6.4467 -0.6654 0.0000 22.3302 0.0000
# 6 0.0000 0.0000 0.0000 -4.3981 0.0000 34.5320
#
#
#
# Elastic Compliance Matrix: (Units=1/GPa)
#
#
# Indices 1 2 3 4 5 6 
#
# 1 0.012185 -0.002199 -0.005445 0.000000 0.004222 0.000000
# 2 -0.002199 0.018408 -0.011222 0.000000 0.004074 0.000000
# 3 -0.005445 -0.011222 0.031928 0.000000 -0.004531 0.000000
# 4 0.000000 0.000000 0.000000 0.031537 0.000000 0.004017
# 5 0.004222 0.004074 -0.004531 0.000000 0.047562 0.000000
# 6 0.000000 0.000000 0.000000 0.004017 0.000000 0.029470
#
#
# Mechanical properties :
#
#
# Convention : Reuss Voigt Hill
#
# Bulk Modulus (GPa) = 40.33928 45.46275 42.90102
# Shear Modulus (GPa) = 23.03255 27.09465 25.06360
#
# Velocity S-wave (km/s) = 3.45524 3.74756 3.60437
# Velocity P-wave (km/s) = 6.06858 6.50314 6.28961
#
# Compressibility (1/GPa) = 0.02478973
#
# Stress axis : x y z
#
# Youngs Moduli (GPa) = 82.06787 54.32451 31.32079
#
# Poissons Ratio (x) = 0.11944 0.17054
# Poissons Ratio (y) = 0.18043 0.35148
# Poissons Ratio (z) = 0.44687 0.60962
#
# Static dielectric constant tensor:
#      x y z
#    x 3.580510 0.000000 0.059150 
#    y 0.000000 3.542650 0.000000 
#    z 0.059150 0.000000 3.406860 
# 
# 
# High freq. dielectric constant tensor:
#      x y z
#    x 1.744450 0.000000 0.008330 
#    y 0.000000 1.749700 0.000000 
#    z 0.008330 0.000000 1.732240 
# 
# From -- ./inp_files/8578.got.cif
#   From: 2010.03.12/outbox.cif.g09.slc.cpg/sg14_5_cif.got.tgz:8578.got - 2010.03.31 13:35:05.
