data_PCOD8123962
_publ_section_title
;
Structure prediction by ZEFSAII (Michael W. Deem and Ramdas Pophale) SiO2 
 PCOD8123962
Probable space group: P 21/C
;
_chemical_formula_sum "Si O2"
_cell_formula_units_Z 24
_cell_length_a 24.340591
_cell_length_b 11.248000
_cell_length_c 14.521155
_cell_angle_alpha 90.000000
_cell_angle_beta 19.402889
_cell_angle_gamma 90.000000
_cell_volume 1320.743792
_symmetry_space_group_name_H-M "P 21/C"
_symmetry_group_IT_number 14
_symmetry_cell_setting 'monoclinic'
loop_
_space_group_symop_operation_xyz
x,y,z
-x,1/2+y,1/2-z
-x,-y,-z
x,1/2-y,1/2+z
loop_
_atom_site_type_symbol
_atom_site_label
_atom_site_fract_x
_atom_site_fract_y
_atom_site_fract_z
Si Si1 0.592748 0.728662 0.661558
Si Si2 0.530943 0.011118 0.344497
Si Si3 0.207839 0.420747 0.246581
Si Si4 0.408824 0.733151 0.773597
Si Si5 0.602910 0.882869 0.819791
Si Si6 0.851594 0.456986 0.848171
O O1 0.634486 0.600939 0.640833
O O2 0.746545 0.788139 0.363104
O O3 0.442770 0.705754 0.827247
O O4 0.538260 0.818911 0.828759
O O5 0.500000 0.000000 0.500000
O O6 0.354847 0.024795 0.573510
O O7 0.639937 0.128539 0.155837
O O8 0.172507 0.509671 0.219590
O O9 0.039874 0.419210 0.573293
O O10 0.577633 0.705279 0.446778
O O11 0.261859 0.659454 0.959269
O O12 0.791798 0.931381 0.506923
O O13 0.500000 0.000000 0.000000
#
# Coordination Sequence:
#
# PCOD8123962 Si02
#       6
#     4   4   4   4   4   4
#     4  10  19  34  53  80 110 141 187 225 269 331
#     4  11  20  34  54  80 112 143 182 224 279 323
#     4   9  19  34  58  78 104 144 177 228 274 319
#     4  10  19  32  56  80 108 146 185 223 271 331
#     4   9  18  32  55  79 104 142 190 225 257 335
#     4   9  17  35  56  80 104 137 188 225 267 320
#
# _framework density 18.171579000000001
#
# number of rings (size 3 to 8) (size 9 to 14) (size 15 to 20)
#    0.000    2.333    3.333    0.000    2.333    0.000 
#    0.000    4.167    7.333    0.000    0.000    0.000 
#    0.000    0.000    0.000    0.000    0.000    0.000 
#
# Total GULP energy -297316.233535 kJ/mol
# GULP energy per Si atom -12388.176397 kJ/mol
# Density = 1.813022 g / cm^3
# Si number density = 18.171579 Si / 1000 Ang^3
#
#
#
# Elastic Constant Matrix: (Units=GPa)
#
#
# Indices 1 2 3 4 5 6 
#
# 1 64.8542 29.8629 17.8442 0.0000 12.8469 0.0000
# 2 29.8629 116.3885 39.0078 0.0000 10.1621 0.0000
# 3 17.8442 39.0078 90.2770 0.0000 2.2174 0.0000
# 4 0.0000 0.0000 0.0000 23.4427 0.0000 6.8530
# 5 12.8469 10.1621 2.2174 0.0000 22.9970 0.0000
# 6 0.0000 0.0000 0.0000 6.8530 0.0000 31.2846
#
#
#
# Elastic Compliance Matrix: (Units=1/GPa)
#
#
# Indices 1 2 3 4 5 6 
#
# 1 0.019403 -0.003477 -0.002109 0.000000 -0.009099 0.000000
# 2 -0.003477 0.011057 -0.004028 0.000000 -0.002555 0.000000
# 3 -0.002109 -0.004028 0.013193 0.000000 0.001686 0.000000
# 4 0.000000 0.000000 0.000000 0.045576 0.000000 -0.009983
# 5 -0.009099 -0.002555 0.001686 0.000000 0.049534 0.000000
# 6 0.000000 0.000000 0.000000 -0.009983 0.000000 0.034151
#
#
# Mechanical properties :
#
#
# Convention : Reuss Voigt Hill
#
# Bulk Modulus (GPa) = 40.94159 49.43883 45.19021
# Shear Modulus (GPa) = 24.96464 27.86520 26.41492
#
# Velocity S-wave (km/s) = 3.71054 3.92018 3.81680
# Velocity P-wave (km/s) = 6.39820 6.91058 6.65932
#
# Compressibility (1/GPa) = 0.02442504
#
# Stress axis : x y z
#
# Youngs Moduli (GPa) = 51.53817 90.44047 75.79878
#
# Poissons Ratio (x) = 0.31446 0.15989
# Poissons Ratio (y) = 0.17920 0.30529
# Poissons Ratio (z) = 0.10871 0.36426
#
# Static dielectric constant tensor:
#      x y z
#    x 3.409810 0.000000 0.284920 
#    y 0.000000 3.788350 0.000000 
#    z 0.284920 0.000000 3.506640 
# 
# 
# High freq. dielectric constant tensor:
#      x y z
#    x 1.697390 0.000000 0.023610 
#    y 0.000000 1.717940 0.000000 
#    z 0.023610 0.000000 1.668950 
# 
# From -- ./inp_files/43977.got.cif
#   From: 2010.03.12/outbox.cif.g09.slc.cpg/sg14_22_cif.got.tgz:43977.got - 2010.03.31 13:35:05.
