data_PCOD8123640
_publ_section_title
;
Structure prediction by ZEFSAII (Michael W. Deem and Ramdas Pophale) SiO2 
 PCOD8123640
Probable space group: P 21/C
;
_chemical_formula_sum "Si O2"
_cell_formula_units_Z 28
_cell_length_a 12.539393
_cell_length_b 13.686164
_cell_length_c 9.510647
_cell_angle_alpha 90.000000
_cell_angle_beta 127.068508
_cell_angle_gamma 90.000000
_cell_volume 1302.342277
_symmetry_space_group_name_H-M "P 21/C"
_symmetry_group_IT_number 14
_symmetry_cell_setting 'monoclinic'
loop_
_space_group_symop_operation_xyz
x,y,z
-x,1/2+y,1/2-z
-x,-y,-z
x,1/2-y,1/2+z
loop_
_atom_site_type_symbol
_atom_site_label
_atom_site_fract_x
_atom_site_fract_y
_atom_site_fract_z
Si Si1 0.689639 0.992884 0.553896
Si Si2 0.610754 0.300360 0.424827
Si Si3 0.439986 0.375756 0.819268
Si Si4 0.879359 0.070643 0.933680
Si Si5 0.844539 0.484780 0.907538
Si Si6 0.784020 0.264627 0.820150
Si Si7 0.301315 0.002771 0.984437
O O1 0.629259 0.897170 0.584569
O O2 0.572590 0.060194 0.399704
O O3 0.760058 0.053792 0.730811
O O4 0.794513 0.964693 0.513420
O O5 0.475262 0.239362 0.347113
O O6 0.735671 0.269798 0.621781
O O7 0.656063 0.277016 0.302903
O O8 0.583406 0.417144 0.425896
O O9 0.346542 0.402890 0.610447
O O10 0.908166 0.187277 0.938526
O O11 0.828985 0.048049 0.050004
O O12 0.000000 0.000000 0.000000
O O13 0.827586 0.369057 0.912424
O O14 0.748585 0.531026 0.710854
O O15 0.000000 0.500000 0.000000
#
# Coordination Sequence:
#
# PCOD8123640 Si02
#       7
#     4   4   4   4   4   4   4
#     4  10  20  34  58  86 111 157 189 237 303 342
#     4  10  19  36  58  85 110 150 199 244 285 346
#     4  10  19  38  61  81 122 148 195 250 285 355
#     4  10  18  34  59  83 111 151 202 246 284 349
#     4  11  21  37  58  85 121 152 191 245 298 345
#     4  10  19  35  56  85 107 150 208 236 280 356
#     4   9  22  34  59  91 113 153 204 239 301 350
#
# _framework density 21.499725000000002
#
# number of rings (size 3 to 8) (size 9 to 14) (size 15 to 20)
#    0.000    2.000    2.857    0.857    2.000    0.571 
#    0.000    0.000    9.429    0.000    0.000    0.000 
#    0.000    0.000    0.000    0.000    0.000    0.000 
#
# Total GULP energy -347001.632474 kJ/mol
# GULP energy per Si atom -12392.915446 kJ/mol
# Density = 2.145079 g / cm^3
# Si number density = 21.499725 Si / 1000 Ang^3
#
#
#
# Elastic Constant Matrix: (Units=GPa)
#
#
# Indices 1 2 3 4 5 6 
#
# 1 111.7935 29.2839 31.2199 0.0000 -13.7253 0.0000
# 2 29.2839 83.3854 23.0824 0.0000 5.5687 0.0000
# 3 31.2199 23.0824 64.3812 0.0000 -11.4673 0.0000
# 4 0.0000 0.0000 0.0000 17.2464 0.0000 7.5269
# 5 -13.7253 5.5687 -11.4673 0.0000 32.1400 0.0000
# 6 0.0000 0.0000 0.0000 7.5269 0.0000 36.6680
#
#
#
# Elastic Compliance Matrix: (Units=1/GPa)
#
#
# Indices 1 2 3 4 5 6 
#
# 1 0.011302 -0.003252 -0.003582 0.000000 0.004112 0.000000
# 2 -0.003252 0.014825 -0.004745 0.000000 -0.005650 0.000000
# 3 -0.003582 -0.004745 0.020124 0.000000 0.006472 0.000000
# 4 0.000000 0.000000 0.000000 0.063689 0.000000 -0.013074
# 5 0.004112 -0.005650 0.006472 0.000000 0.036158 0.000000
# 6 0.000000 0.000000 0.000000 -0.013074 0.000000 0.029955
#
#
# Mechanical properties :
#
#
# Convention : Reuss Voigt Hill
#
# Bulk Modulus (GPa) = 43.30350 47.41472 45.35911
# Shear Modulus (GPa) = 24.16517 28.94247 26.55382
#
# Velocity S-wave (km/s) = 3.35621 3.67301 3.51818
# Velocity P-wave (km/s) = 5.93330 6.33163 6.13570
#
# Compressibility (1/GPa) = 0.02309282
#
# Stress axis : x y z
#
# Youngs Moduli (GPa) = 88.47840 67.45192 49.69307
#
# Poissons Ratio (x) = 0.21936 0.17802
# Poissons Ratio (y) = 0.28775 0.23578
# Poissons Ratio (z) = 0.31696 0.32004
#
# Static dielectric constant tensor:
#      x y z
#    x 3.788810 0.000000 -0.218500 
#    y 0.000000 4.031580 0.000000 
#    z -0.218500 0.000000 3.946350 
# 
# 
# High freq. dielectric constant tensor:
#      x y z
#    x 1.823390 0.000000 -0.026290 
#    y 0.000000 1.825740 0.000000 
#    z -0.026290 0.000000 1.844660 
# 
# From -- ./inp_files/13403.got.cif
#   From: 2010.03.12/outbox.cif.g09.slc.cpg/sg14_7_cif.got.tgz:13403.got - 2010.03.31 13:35:05.
