data_PCOD8123776
_publ_section_title
;
Structure prediction by ZEFSAII (Michael W. Deem and Ramdas Pophale) SiO2 
 PCOD8123776
Probable space group: P 21/C
;
_chemical_formula_sum "Si O2"
_cell_formula_units_Z 32
_cell_length_a 15.649270
_cell_length_b 9.564660
_cell_length_c 12.856631
_cell_angle_alpha 90.000000
_cell_angle_beta 121.310931
_cell_angle_gamma 90.000000
_cell_volume 1644.112586
_symmetry_space_group_name_H-M "P 21/C"
_symmetry_group_IT_number 14
_symmetry_cell_setting 'monoclinic'
loop_
_space_group_symop_operation_xyz
x,y,z
-x,1/2+y,1/2-z
-x,-y,-z
x,1/2-y,1/2+z
loop_
_atom_site_type_symbol
_atom_site_label
_atom_site_fract_x
_atom_site_fract_y
_atom_site_fract_z
Si Si1 0.904485 0.361746 0.705243
Si Si2 0.974513 0.408718 0.138716
Si Si3 0.147098 0.509796 0.125988
Si Si4 0.424298 0.301428 0.005047
Si Si5 0.461682 0.434898 0.685582
Si Si6 0.413414 0.896674 0.536769
Si Si7 0.308856 0.880942 0.997519
Si Si8 0.358168 0.054297 0.830708
O O1 0.952384 0.220450 0.697198
O O2 0.863975 0.357804 0.800190
O O3 0.810538 0.405674 0.572944
O O4 0.995210 0.472864 0.757858
O O5 0.068854 0.390132 0.118125
O O6 0.877862 0.447055 0.007824
O O7 0.259278 0.451168 0.196977
O O8 0.535507 0.342456 0.036806
O O9 0.365116 0.210174 0.882283
O O10 0.436266 0.214419 0.118591
O O11 0.365790 0.447986 0.991149
O O12 0.496561 0.405243 0.823391
O O13 0.362774 0.534349 0.625049
O O14 0.545905 0.520532 0.676854
O O15 0.328838 0.786061 0.518338
O O16 0.355738 0.941052 0.920999
#
# Coordination Sequence:
#
# PCOD8123776 Si02
#       8
#     4   4   4   4   4   4   4   4
#     4   9  19  36  61  81 107 143 182 231 283 328
#     4   9  18  39  58  81 108 142 181 236 275 325
#     4   8  19  36  60  80 111 142 185 221 281 339
#     4  10  21  35  51  75 117 143 181 231 268 303
#     4  11  20  35  57  78 114 156 186 212 274 342
#     4  11  21  34  51  83 112 143 185 236 257 309
#     4  10  19  37  54  80 111 149 185 220 274 332
#     4  10  18  37  57  77 106 160 178 215 279 343
#
# _framework density 19.463386
#
# number of rings (size 3 to 8) (size 9 to 14) (size 15 to 20)
#    0.750    1.500    2.500    1.500    1.750    0.000 
#    2.250    1.875    0.000    0.000    0.000    0.000 
#    0.000    0.000    0.000    0.000    0.000    0.000 
#
# Total GULP energy -396506.663089 kJ/mol
# GULP energy per Si atom -12390.833222 kJ/mol
# Density = 1.941909 g / cm^3
# Si number density = 19.463386 Si / 1000 Ang^3
#
#
#
# Elastic Constant Matrix: (Units=GPa)
#
#
# Indices 1 2 3 4 5 6 
#
# 1 24.8983 33.4818 29.7859 0.0000 7.1218 0.0000
# 2 33.4818 150.0444 53.0485 0.0000 8.3335 0.0000
# 3 29.7859 53.0485 94.8108 0.0000 24.8497 0.0000
# 4 0.0000 0.0000 0.0000 22.8438 0.0000 -1.0459
# 5 7.1218 8.3335 24.8497 0.0000 23.9442 0.0000
# 6 0.0000 0.0000 0.0000 -1.0459 0.0000 12.4997
#
#
#
# Elastic Compliance Matrix: (Units=1/GPa)
#
#
# Indices 1 2 3 4 5 6 
#
# 1 0.075810 -0.010611 -0.017772 0.000000 -0.000412 0.000000
# 2 -0.010611 0.009918 -0.002937 0.000000 0.002752 0.000000
# 3 -0.017772 -0.002937 0.022144 0.000000 -0.016673 0.000000
# 4 0.000000 0.000000 0.000000 0.043944 0.000000 0.003677
# 5 -0.000412 0.002752 -0.016673 0.000000 0.058232 0.000000
# 6 0.000000 0.000000 0.000000 0.003677 0.000000 0.080310
#
#
# Mechanical properties :
#
#
# Convention : Reuss Voigt Hill
#
# Bulk Modulus (GPa) = 22.10793 55.82065 38.96429
# Shear Modulus (GPa) = 13.58418 22.08669 17.83543
#
# Velocity S-wave (km/s) = 2.64471 3.37231 3.03043
# Velocity P-wave (km/s) = 4.55076 6.62611 5.68396
#
# Compressibility (1/GPa) = 0.04523264
#
# Stress axis : x y z
#
# Youngs Moduli (GPa) = 13.19083 100.82653 45.15879
#
# Poissons Ratio (x) = 1.06983 0.80256
# Poissons Ratio (y) = 0.13996 0.13265
# Poissons Ratio (z) = 0.23443 0.29616
#
# Static dielectric constant tensor:
#      x y z
#    x 3.190400 0.000000 0.132430 
#    y 0.000000 3.596190 0.000000 
#    z 0.132430 0.000000 3.703320 
# 
# 
# High freq. dielectric constant tensor:
#      x y z
#    x 1.721790 0.000000 0.006360 
#    y 0.000000 1.749720 0.000000 
#    z 0.006360 0.000000 1.762040 
# 
# From -- ./inp_files/48424.got.cif
#   From: 2010.03.12/outbox.cif.g09.slc.cpg/sg14_25_cif.got.tgz:48424.got - 2010.03.31 13:35:05.
