data_PCOD8123738
_publ_section_title
;
Structure prediction by ZEFSAII (Michael W. Deem and Ramdas Pophale) SiO2 
 PCOD8123738
Probable space group: P 21/C
;
_chemical_formula_sum "Si O2"
_cell_formula_units_Z 24
_cell_length_a 9.403774
_cell_length_b 17.217100
_cell_length_c 8.894744
_cell_angle_alpha 90.000000
_cell_angle_beta 117.596916
_cell_angle_gamma 90.000000
_cell_volume 1276.266465
_symmetry_space_group_name_H-M "P 21/C"
_symmetry_group_IT_number 14
_symmetry_cell_setting 'monoclinic'
loop_
_space_group_symop_operation_xyz
x,y,z
-x,1/2+y,1/2-z
-x,-y,-z
x,1/2-y,1/2+z
loop_
_atom_site_type_symbol
_atom_site_label
_atom_site_fract_x
_atom_site_fract_y
_atom_site_fract_z
Si Si1 0.855234 0.901141 0.431221
Si Si2 0.354290 0.735450 0.405481
Si Si3 0.494513 0.848635 0.247669
Si Si4 0.837830 0.097720 0.901121
Si Si5 0.867590 0.280505 0.955001
Si Si6 0.985193 0.005966 0.242507
O O1 0.669617 0.882018 0.343321
O O2 0.963778 0.825124 0.449566
O O3 0.895178 0.935198 0.614582
O O4 0.873780 0.965775 0.312199
O O5 0.480588 0.780836 0.364067
O O6 0.460901 0.680702 0.562060
O O7 0.240376 0.793155 0.448469
O O8 0.233345 0.686660 0.237429
O O9 0.354365 0.910693 0.215125
O O10 0.891776 0.187668 0.943897
O O11 0.879191 0.052991 0.073440
O O12 0.918041 0.061099 0.794723
#
# Coordination Sequence:
#
# PCOD8123738 Si02
#       6
#     4   4   4   4   4   4
#     4  11  22  34  56  85 110 138 180 227 268 318
#     4   8  18  34  54  78 108 138 176 226 270 312
#     4  10  20  34  54  82 110 138 178 228 272 310
#     4   9  20  40  58  75 108 150 184 217 268 322
#     4  10  18  36  60  78 104 145 182 217 264 326
#     4  10  22  38  54  78 112 148 180 216 270 330
#
# _framework density 18.804852
#
# number of rings (size 3 to 8) (size 9 to 14) (size 15 to 20)
#    0.000    2.667    0.000    4.000    0.000    5.333 
#    0.000    5.000    0.000    0.000    0.000    0.000 
#    0.000    0.000    0.000    0.000    0.000    0.000 
#
# Total GULP energy -297432.834076 kJ/mol
# GULP energy per Si atom -12393.034753 kJ/mol
# Density = 1.876205 g / cm^3
# Si number density = 18.804852 Si / 1000 Ang^3
#
#
#
# Elastic Constant Matrix: (Units=GPa)
#
#
# Indices 1 2 3 4 5 6 
#
# 1 55.5821 19.3255 22.4678 0.0000 17.5514 0.0000
# 2 19.3255 57.8260 3.5443 0.0000 18.5195 0.0000
# 3 22.4678 3.5443 55.3118 0.0000 2.0466 0.0000
# 4 0.0000 0.0000 0.0000 23.0209 0.0000 5.1762
# 5 17.5514 18.5195 2.0466 0.0000 34.9444 0.0000
# 6 0.0000 0.0000 0.0000 5.1762 0.0000 26.0680
#
#
#
# Elastic Compliance Matrix: (Units=1/GPa)
#
#
# Indices 1 2 3 4 5 6 
#
# 1 0.027232 -0.005155 -0.010349 0.000000 -0.010339 0.000000
# 2 -0.005155 0.021852 0.001029 0.000000 -0.009052 0.000000
# 3 -0.010349 0.001029 0.022093 0.000000 0.003359 0.000000
# 4 0.000000 0.000000 0.000000 0.045469 0.000000 -0.009029
# 5 -0.010339 -0.009052 0.003359 0.000000 0.038411 0.000000
# 6 0.000000 0.000000 0.000000 -0.009029 0.000000 0.040154
#
#
# Mechanical properties :
#
#
# Convention : Reuss Voigt Hill
#
# Bulk Modulus (GPa) = 23.68191 28.82166 26.25178
# Shear Modulus (GPa) = 20.98754 25.03215 23.00985
#
# Velocity S-wave (km/s) = 3.34439 3.65246 3.50181
# Velocity P-wave (km/s) = 5.24729 5.75736 5.50824
#
# Compressibility (1/GPa) = 0.04222633
#
# Stress axis : x y z
#
# Youngs Moduli (GPa) = 36.72140 45.76220 45.26354
#
# Poissons Ratio (x) = 0.23592 0.46842
# Poissons Ratio (y) = 0.18931 -0.04657
# Poissons Ratio (z) = 0.38002 -0.04708
#
# Static dielectric constant tensor:
#      x y z
#    x 3.365360 0.000000 -0.195460 
#    y 0.000000 3.325630 0.000000 
#    z -0.195460 0.000000 3.682970 
# 
# 
# High freq. dielectric constant tensor:
#      x y z
#    x 1.725090 0.000000 -0.017750 
#    y 0.000000 1.714930 0.000000 
#    z -0.017750 0.000000 1.750830 
# 
# From -- ./inp_files/9668.got.cif
#   From: 2010.03.12/outbox.cif.g09.slc.cpg/sg14_5_cif.got.tgz:9668.got - 2010.03.31 13:35:05.
