data_PCOD8123861
_publ_section_title
;
Structure prediction by ZEFSAII (Michael W. Deem and Ramdas Pophale) SiO2 
 PCOD8123861
Probable space group: P 21/C
;
_chemical_formula_sum "Si O2"
_cell_formula_units_Z 20
_cell_length_a 9.378520
_cell_length_b 8.523572
_cell_length_c 13.969873
_cell_angle_alpha 90.000000
_cell_angle_beta 70.820399
_cell_angle_gamma 90.000000
_cell_volume 1054.744640
_symmetry_space_group_name_H-M "P 21/C"
_symmetry_group_IT_number 14
_symmetry_cell_setting 'monoclinic'
loop_
_space_group_symop_operation_xyz
x,y,z
-x,1/2+y,1/2-z
-x,-y,-z
x,1/2-y,1/2+z
loop_
_atom_site_type_symbol
_atom_site_label
_atom_site_fract_x
_atom_site_fract_y
_atom_site_fract_z
Si Si1 0.669871 0.996903 0.268800
Si Si2 0.382231 0.293547 0.852959
Si Si3 0.750552 0.766744 0.413272
Si Si4 0.819581 0.951609 0.744713
Si Si5 0.934517 0.212457 0.208440
O O1 0.544896 0.128775 0.310797
O O2 0.820293 0.080902 0.193294
O O3 0.614717 0.868614 0.205463
O O4 0.708214 0.923364 0.363723
O O5 0.255853 0.413493 0.840678
O O6 0.346453 0.256467 0.970424
O O7 0.711756 0.616177 0.353856
O O8 0.932524 0.760552 0.396411
O O9 0.980129 0.858463 0.716359
O O10 0.837746 0.135677 0.757850
#
# Coordination Sequence:
#
# PCOD8123861 Si02
#       5
#     4   4   4   4   4
#     4  11  22  40  58  88 119 152 189 241 289 335
#     4  11  22  38  60  85 119 152 195 235 289 345
#     4   9  20  38  61  84 116 152 196 234 282 348
#     4   9  19  37  57  84 116 152 190 236 285 337
#     4  10  18  41  60  81 123 151 187 245 285 336
#
# _framework density 18.961936000000001
#
# number of rings (size 3 to 8) (size 9 to 14) (size 15 to 20)
#    1.200    0.800    2.000    1.800    0.000    1.600 
#    0.000   11.000    0.000    0.000    0.000    0.000 
#    0.000    0.000    0.000    0.000    0.000    0.000 
#
# Total GULP energy -247794.507212 kJ/mol
# GULP energy per Si atom -12389.725361 kJ/mol
# Density = 1.891878 g / cm^3
# Si number density = 18.961936 Si / 1000 Ang^3
#
#
#
# Elastic Constant Matrix: (Units=GPa)
#
#
# Indices 1 2 3 4 5 6 
#
# 1 84.0943 37.2518 28.0023 0.0000 -13.4412 0.0000
# 2 37.2518 93.1600 43.8493 0.0000 -12.4989 0.0000
# 3 28.0023 43.8493 89.5559 0.0000 3.0030 0.0000
# 4 0.0000 0.0000 0.0000 11.0171 0.0000 1.0749
# 5 -13.4412 -12.4989 3.0030 0.0000 8.4601 0.0000
# 6 0.0000 0.0000 0.0000 1.0749 0.0000 51.3269
#
#
#
# Elastic Compliance Matrix: (Units=1/GPa)
#
#
# Indices 1 2 3 4 5 6 
#
# 1 0.019764 0.000200 -0.007429 0.000000 0.034334 0.000000
# 2 0.000200 0.020686 -0.011362 0.000000 0.034913 0.000000
# 3 -0.007429 -0.011362 0.020252 0.000000 -0.035779 0.000000
# 4 0.000000 0.000000 0.000000 0.090954 0.000000 -0.001905
# 5 0.034334 0.034913 -0.035779 0.000000 0.237034 0.000000
# 6 0.000000 0.000000 0.000000 -0.001905 0.000000 0.019523
#
#
# Mechanical properties :
#
#
# Convention : Reuss Voigt Hill
#
# Bulk Modulus (GPa) = 42.51567 53.89080 48.20324
# Shear Modulus (GPa) = 11.03178 24.67458 17.85318
#
# Velocity S-wave (km/s) = 2.41464 3.61122 3.07176
# Velocity P-wave (km/s) = 5.49948 6.77275 6.16905
#
# Compressibility (1/GPa) = 0.02352074
#
# Stress axis : x y z
#
# Youngs Moduli (GPa) = 50.59597 48.34114 49.37753
#
# Poissons Ratio (x) = -0.00968 0.36684
# Poissons Ratio (y) = -0.01013 0.56103
# Poissons Ratio (z) = 0.37589 0.54925
#
# Static dielectric constant tensor:
#      x y z
#    x 3.552840 0.000000 0.063150 
#    y 0.000000 3.500760 0.000000 
#    z 0.063150 0.000000 3.011510 
# 
# 
# High freq. dielectric constant tensor:
#      x y z
#    x 1.745840 0.000000 0.003910 
#    y 0.000000 1.748660 0.000000 
#    z 0.003910 0.000000 1.690670 
# 
# From -- ./inp_files/23004.got.cif
#   From: 2010.03.12/outbox.cif.g09.slc.cpg/sg14_12_cif.got.tgz:23004.got - 2010.03.31 13:35:05.
