data_PCOD8123561
_publ_section_title
;
Structure prediction by ZEFSAII (Michael W. Deem and Ramdas Pophale) SiO2 
 PCOD8123561
Probable space group: P 21/C
;
_chemical_formula_sum "Si O2"
_cell_formula_units_Z 28
_cell_length_a 16.369864
_cell_length_b 12.088218
_cell_length_c 19.032999
_cell_angle_alpha 90.000000
_cell_angle_beta 20.673562
_cell_angle_gamma 90.000000
_cell_volume 1329.665457
_symmetry_space_group_name_H-M "P 21/C"
_symmetry_group_IT_number 14
_symmetry_cell_setting 'monoclinic'
loop_
_space_group_symop_operation_xyz
x,y,z
-x,1/2+y,1/2-z
-x,-y,-z
x,1/2-y,1/2+z
loop_
_atom_site_type_symbol
_atom_site_label
_atom_site_fract_x
_atom_site_fract_y
_atom_site_fract_z
Si Si1 0.326404 0.232191 0.053855
Si Si2 0.691955 0.001928 0.083700
Si Si3 0.875852 0.105237 0.795059
Si Si4 0.317737 0.576500 0.789211
Si Si5 0.791788 0.931299 0.745213
Si Si6 0.057419 0.653681 0.246620
Si Si7 0.345024 0.453427 0.970836
O O1 0.309012 0.186144 0.147391
O O2 0.570378 0.189719 0.828041
O O3 0.332688 0.365355 0.045507
O O4 0.105304 0.178682 0.190257
O O5 0.605010 0.054650 0.227506
O O6 0.447541 0.950525 0.256561
O O7 0.784452 0.084333 0.948396
O O8 0.890571 0.909535 0.936954
O O9 0.760941 0.025164 0.830415
O O10 0.835579 0.233934 0.807511
O O11 0.152347 0.086256 0.569679
O O12 0.351179 0.475044 0.706741
O O13 0.051033 0.596100 0.015622
O O14 0.277177 0.576102 0.051650
#
# Coordination Sequence:
#
# PCOD8123561 Si02
#       7
#     4   4   4   4   4   4   4
#     4  10  19  32  51  75 104 134 163 210 249 308
#     4  10  18  33  49  77 101 134 168 207 252 302
#     4  10  19  31  48  74 104 131 164 209 252 304
#     4  10  20  31  53  77 102 135 164 211 252 304
#     4  11  19  34  51  77 107 128 168 208 259 299
#     4   9  19  32  48  72 103 136 159 208 252 294
#     4  10  19  33  49  74 105 132 171 201 255 301
#
# _framework density 21.057929000000001
#
# number of rings (size 3 to 8) (size 9 to 14) (size 15 to 20)
#    0.000    2.000    5.714    0.429    0.000    6.857 
#    0.000    0.000    0.000    0.857    0.000    3.000 
#    0.000    0.000    0.000    0.000    0.000    0.000 
#
# Total GULP energy -346888.402933 kJ/mol
# GULP energy per Si atom -12388.871533 kJ/mol
# Density = 2.101000 g / cm^3
# Si number density = 21.057929 Si / 1000 Ang^3
#
#
#
# Elastic Constant Matrix: (Units=GPa)
#
#
# Indices 1 2 3 4 5 6 
#
# 1 20.7539 6.2918 5.4159 0.0000 10.9201 0.0000
# 2 6.2918 108.2911 35.0134 0.0000 17.8678 0.0000
# 3 5.4159 35.0134 103.8011 0.0000 18.5386 0.0000
# 4 0.0000 0.0000 0.0000 22.5919 0.0000 0.0233
# 5 10.9201 17.8678 18.5386 0.0000 22.4896 0.0000
# 6 0.0000 0.0000 0.0000 0.0233 0.0000 13.8739
#
#
#
# Elastic Compliance Matrix: (Units=1/GPa)
#
#
# Indices 1 2 3 4 5 6 
#
# 1 0.065449 0.001143 0.002389 0.000000 -0.034657 0.000000
# 2 0.001143 0.011200 -0.002520 0.000000 -0.007376 0.000000
# 3 0.002389 -0.002520 0.011971 0.000000 -0.009026 0.000000
# 4 0.000000 0.000000 0.000000 0.044264 0.000000 -0.000074
# 5 -0.034657 -0.007376 -0.009026 0.000000 0.074594 0.000000
# 6 0.000000 0.000000 0.000000 -0.000074 0.000000 0.072078
#
#
# Mechanical properties :
#
#
# Convention : Reuss Voigt Hill
#
# Bulk Modulus (GPa) = 11.03206 36.25427 23.64316
# Shear Modulus (GPa) = 16.24716 24.19940 20.22328
#
# Velocity S-wave (km/s) = 2.78068 3.39364 3.10234
# Velocity P-wave (km/s) = 3.94460 5.71047 4.90762
#
# Compressibility (1/GPa) = 0.09064491
#
# Stress axis : x y z
#
# Youngs Moduli (GPa) = 15.27899 89.28744 83.53341
#
# Poissons Ratio (x) = -0.10207 -0.19958
# Poissons Ratio (y) = -0.01747 0.21052
# Poissons Ratio (z) = -0.03651 0.22502
#
# Static dielectric constant tensor:
#      x y z
#    x 3.409770 0.000000 0.063900 
#    y 0.000000 3.815840 0.000000 
#    z 0.063900 0.000000 3.913540 
# 
# 
# High freq. dielectric constant tensor:
#      x y z
#    x 1.763740 0.000000 0.006760 
#    y 0.000000 1.812090 0.000000 
#    z 0.006760 0.000000 1.844660 
# 
# From -- ./inp_files/69263.got.cif
#   From: 2010.03.12/outbox.cif.g09.slc.cpg/sg14_35_cif.got.tgz:69263.got - 2010.03.31 13:35:05.
