data_PCOD8123622
_publ_section_title
;
Structure prediction by ZEFSAII (Michael W. Deem and Ramdas Pophale) SiO2 
 PCOD8123622
Probable space group: P 21/C
;
_chemical_formula_sum "Si O2"
_cell_formula_units_Z 24
_cell_length_a 12.593356
_cell_length_b 21.606965
_cell_length_c 5.316182
_cell_angle_alpha 90.000000
_cell_angle_beta 119.850323
_cell_angle_gamma 90.000000
_cell_volume 1254.638961
_symmetry_space_group_name_H-M "P 21/C"
_symmetry_group_IT_number 14
_symmetry_cell_setting 'monoclinic'
loop_
_space_group_symop_operation_xyz
x,y,z
-x,1/2+y,1/2-z
-x,-y,-z
x,1/2-y,1/2+z
loop_
_atom_site_type_symbol
_atom_site_label
_atom_site_fract_x
_atom_site_fract_y
_atom_site_fract_z
Si Si1 0.698243 0.785196 0.251102
Si Si2 0.308818 0.595962 0.985692
Si Si3 0.917335 0.322676 0.297739
Si Si4 0.017780 0.188465 0.416138
Si Si5 0.649623 0.032435 0.975418
Si Si6 0.443349 0.092534 0.001238
O O1 0.653202 0.748452 0.444294
O O2 0.843904 0.789122 0.425133
O O3 0.640948 0.852883 0.197493
O O4 0.224083 0.656697 0.871413
O O5 0.290135 0.555804 0.711358
O O6 0.271513 0.555101 0.187951
O O7 0.450756 0.617402 0.182637
O O8 0.928209 0.248407 0.313264
O O9 0.984765 0.350368 0.626330
O O10 0.987499 0.349926 0.133746
O O11 0.642634 0.957842 0.960639
O O12 0.510391 0.059422 0.841428
#
# Coordination Sequence:
#
# PCOD8123622 Si02
#       6
#     4   4   4   4   4   4
#     4  12  23  39  58  85 115 148 195 229 280 343
#     4  10  19  35  57  89 106 145 187 234 281 333
#     4  10  18  34  57  76 112 143 192 224 269 339
#     4  10  19  37  53  78 105 163 182 218 284 334
#     4   9  20  38  59  86 111 152 188 225 297 334
#     4   9  23  37  62  83 118 148 188 234 288 338
#
# _framework density 19.129010000000001
#
# number of rings (size 3 to 8) (size 9 to 14) (size 15 to 20)
#    1.000    1.000    3.333    1.500    2.333    0.000 
#    6.000    0.000    0.000    6.000    0.000    0.000 
#    0.000    0.000    0.000    0.000    0.000    0.000 
#
# Total GULP energy -297347.123833 kJ/mol
# GULP energy per Si atom -12389.463493 kJ/mol
# Density = 1.908547 g / cm^3
# Si number density = 19.129010 Si / 1000 Ang^3
#
#
#
# Elastic Constant Matrix: (Units=GPa)
#
#
# Indices 1 2 3 4 5 6 
#
# 1 49.8058 28.7622 47.1965 0.0000 -23.7832 0.0000
# 2 28.7622 90.7966 42.6223 0.0000 13.5321 0.0000
# 3 47.1965 42.6223 113.1175 0.0000 -34.9198 0.0000
# 4 0.0000 0.0000 0.0000 16.9768 0.0000 -3.1903
# 5 -23.7832 13.5321 -34.9198 0.0000 40.2012 0.0000
# 6 0.0000 0.0000 0.0000 -3.1903 0.0000 14.2970
#
#
#
# Elastic Compliance Matrix: (Units=1/GPa)
#
#
# Indices 1 2 3 4 5 6 
#
# 1 0.050434 -0.019302 -0.003489 0.000000 0.033303 0.000000
# 2 -0.019302 0.027179 -0.011665 0.000000 -0.030701 0.000000
# 3 -0.003489 -0.011665 0.020860 0.000000 0.019982 0.000000
# 4 0.000000 0.000000 0.000000 0.061482 0.000000 0.013720
# 5 0.033303 -0.030701 0.019982 0.000000 0.072268 0.000000
# 6 0.000000 0.000000 0.000000 0.013720 0.000000 0.073006
#
#
# Mechanical properties :
#
#
# Convention : Reuss Voigt Hill
#
# Bulk Modulus (GPa) = 33.82795 54.54243 44.18519
# Shear Modulus (GPa) = 13.02100 23.30428 18.16264
#
# Velocity S-wave (km/s) = 2.61184 3.49416 3.08471
# Velocity P-wave (km/s) = 5.17862 6.69729 5.98631
#
# Compressibility (1/GPa) = 0.02956135
#
# Stress axis : x y z
#
# Youngs Moduli (GPa) = 19.82804 36.79248 47.93882
#
# Poissons Ratio (x) = 0.71016 0.16725
# Poissons Ratio (y) = 0.38272 0.55921
# Poissons Ratio (z) = 0.06918 0.42919
#
# Static dielectric constant tensor:
#      x y z
#    x 3.562740 0.000000 -0.542080 
#    y 0.000000 3.077160 0.000000 
#    z -0.542080 0.000000 3.894700 
# 
# 
# High freq. dielectric constant tensor:
#      x y z
#    x 1.730750 0.000000 -0.025920 
#    y 0.000000 1.703040 0.000000 
#    z -0.025920 0.000000 1.752330 
# 
# From -- ./inp_files/3117.got.cif
#   From: 2010.03.12/outbox.cif.g09.slc.cpg/sg14_2_cif.got.tgz:3117.got - 2010.03.31 13:35:05.
