data_PCOD8123509
_publ_section_title
;
Structure prediction by ZEFSAII (Michael W. Deem and Ramdas Pophale) SiO2 
 PCOD8123509
Probable space group: P 21/C
;
_chemical_formula_sum "Si O2"
_cell_formula_units_Z 28
_cell_length_a 12.192916
_cell_length_b 5.146060
_cell_length_c 27.133249
_cell_angle_alpha 90.000000
_cell_angle_beta 70.953462
_cell_angle_gamma 90.000000
_cell_volume 1609.283915
_symmetry_space_group_name_H-M "P 21/C"
_symmetry_group_IT_number 14
_symmetry_cell_setting 'monoclinic'
loop_
_space_group_symop_operation_xyz
x,y,z
-x,1/2+y,1/2-z
-x,-y,-z
x,1/2-y,1/2+z
loop_
_atom_site_type_symbol
_atom_site_label
_atom_site_fract_x
_atom_site_fract_y
_atom_site_fract_z
Si Si1 0.597584 0.231568 0.785359
Si Si2 0.758364 0.206722 0.079764
Si Si3 0.850896 0.393896 0.284851
Si Si4 0.547621 0.263746 0.181378
Si Si5 0.052058 0.101461 0.681374
Si Si6 0.852228 0.698851 0.030048
Si Si7 0.986287 0.375359 0.079789
O O1 0.718987 0.166328 0.792058
O O2 0.549604 0.511893 0.809508
O O3 0.611852 0.214610 0.724399
O O4 0.508258 0.016843 0.816927
O O5 0.641697 0.282440 0.124841
O O6 0.778384 0.431121 0.035640
O O7 0.869101 0.202087 0.100885
O O8 0.758473 0.924669 0.054468
O O9 0.865239 0.672437 0.309211
O O10 0.924279 0.378715 0.223687
O O11 0.893572 0.176563 0.315970
O O12 0.044469 0.107094 0.624009
O O13 0.946830 0.653259 0.060903
O O14 0.920573 0.762728 0.969943
#
# Coordination Sequence:
#
# PCOD8123509 Si02
#       7
#     4   4   4   4   4   4   4
#     4  10  20  35  49  74 103 130 173 216 238 308
#     4  10  18  32  48  78 104 130 159 206 258 308
#     4  10  21  36  48  77 103 137 172 206 237 306
#     4  10  20  32  54  74  98 137 168 203 271 289
#     4  10  21  33  54  73 104 139 171 196 254 302
#     4   9  20  30  51  76 112 125 165 207 263 301
#     4   9  20  32  52  77 109 131 163 209 256 306
#
# _framework density 17.399042000000001
#
# number of rings (size 3 to 8) (size 9 to 14) (size 15 to 20)
#    0.857    1.429    0.000    3.000    2.000    0.000 
#    2.571    0.000    0.000    0.000    0.000   20.000 
#    0.000    0.000    0.000    0.000    0.000    0.000 
#
# Total GULP energy -346975.406301 kJ/mol
# GULP energy per Si atom -12391.978796 kJ/mol
# Density = 1.735944 g / cm^3
# Si number density = 17.399042 Si / 1000 Ang^3
#
#
#
# Elastic Constant Matrix: (Units=GPa)
#
#
# Indices 1 2 3 4 5 6 
#
# 1 49.9641 -2.4684 39.3154 0.0000 -6.3981 0.0000
# 2 -2.4684 77.0705 13.8195 0.0000 -2.3976 0.0000
# 3 39.3154 13.8195 91.3202 0.0000 0.3211 0.0000
# 4 0.0000 0.0000 0.0000 17.6030 0.0000 -3.7319
# 5 -6.3981 -2.3976 0.3211 0.0000 24.0966 0.0000
# 6 0.0000 0.0000 0.0000 -3.7319 0.0000 11.2984
#
#
#
# Elastic Compliance Matrix: (Units=1/GPa)
#
#
# Indices 1 2 3 4 5 6 
#
# 1 0.033155 0.004029 -0.014917 0.000000 0.009403 0.000000
# 2 0.004029 0.013871 -0.003843 0.000000 0.002501 0.000000
# 3 -0.014917 -0.003843 0.017970 0.000000 -0.004582 0.000000
# 4 0.000000 0.000000 0.000000 0.061086 0.000000 0.020177
# 5 0.009403 0.002501 -0.004582 0.000000 0.044306 0.000000
# 6 0.000000 0.000000 0.000000 0.020177 0.000000 0.095173
#
#
# Mechanical properties :
#
#
# Convention : Reuss Voigt Hill
#
# Bulk Modulus (GPa) = 28.14062 35.52086 31.83074
# Shear Modulus (GPa) = 16.29372 21.77883 19.03627
#
# Velocity S-wave (km/s) = 3.06350 3.54181 3.31131
# Velocity P-wave (km/s) = 5.35931 6.09800 5.74055
#
# Compressibility (1/GPa) = 0.03553582
#
# Stress axis : x y z
#
# Youngs Moduli (GPa) = 30.16127 72.09289 55.64796
#
# Poissons Ratio (x) = -0.29047 0.83009
# Poissons Ratio (y) = -0.12152 0.21383
# Poissons Ratio (z) = 0.44991 0.27702
#
# Static dielectric constant tensor:
#      x y z
#    x 3.031420 0.000000 -0.144270 
#    y 0.000000 3.382040 0.000000 
#    z -0.144270 0.000000 2.990470 
# 
# 
# High freq. dielectric constant tensor:
#      x y z
#    x 1.643870 0.000000 -0.019590 
#    y 0.000000 1.687620 0.000000 
#    z -0.019590 0.000000 1.657270 
# 
# From -- ./inp_files/76779.got.cif
#   From: 2010.03.12/outbox.cif.g09.slc.cpg/sg14_39_cif.got.tgz:76779.got - 2010.03.31 13:35:05.
