data_PCOD8123715
_publ_section_title
;
Structure prediction by ZEFSAII (Michael W. Deem and Ramdas Pophale) SiO2 
 PCOD8123715
Probable space group: P 21/C
;
_chemical_formula_sum "Si O2"
_cell_formula_units_Z 32
_cell_length_a 19.710928
_cell_length_b 10.413718
_cell_length_c 25.964062
_cell_angle_alpha 90.000000
_cell_angle_beta 163.348273
_cell_angle_gamma 90.000000
_cell_volume 1527.183187
_symmetry_space_group_name_H-M "P 21/C"
_symmetry_group_IT_number 14
_symmetry_cell_setting 'monoclinic'
loop_
_space_group_symop_operation_xyz
x,y,z
-x,1/2+y,1/2-z
-x,-y,-z
x,1/2-y,1/2+z
loop_
_atom_site_type_symbol
_atom_site_label
_atom_site_fract_x
_atom_site_fract_y
_atom_site_fract_z
Si Si1 0.260482 0.492673 0.167345
Si Si2 0.843238 0.500783 0.025922
Si Si3 0.444454 0.223286 0.072636
Si Si4 0.533162 0.502977 0.896212
Si Si5 0.791915 0.719923 0.705442
Si Si6 0.462362 0.232075 0.874884
Si Si7 0.964338 0.250005 0.287147
Si Si8 0.237673 0.003237 0.333877
O O1 0.400864 0.610087 0.293223
O O2 0.390252 0.360799 0.276299
O O3 0.261772 0.500187 0.107184
O O4 0.000000 0.500000 0.000000
O O5 0.991709 0.373936 0.145284
O O6 0.000556 0.627657 0.150151
O O7 0.621487 0.490520 0.902428
O O8 0.592220 0.357183 0.188822
O O9 0.399675 0.202820 0.979406
O O10 0.195684 0.227423 0.921495
O O11 0.378013 0.377607 0.798367
O O12 0.750894 0.510118 0.095436
O O13 0.664664 0.684481 0.665964
O O14 0.889861 0.867240 0.778623
O O15 0.744766 0.226628 0.088731
O O16 0.910054 0.373135 0.285184
O O17 0.500000 0.000000 0.500000
#
# Coordination Sequence:
#
# PCOD8123715 Si02
#       8
#     4   4   4   4   4   4   4   4
#     4  12  27  44  62  96 138 179 220 264 322 403
#     4  11  24  41  64  91 136 178 217 263 327 398
#     4  10  24  42  66  95 131 170 224 280 332 389
#     4   9  21  40  62  93 126 164 216 272 329 388
#     4  11  20  37  66  98 124 169 211 282 331 379
#     4  11  22  40  67  97 129 163 222 276 328 385
#     4  10  22  42  67 100 125 169 225 278 331 386
#     4  10  18  35  63  99 131 153 210 285 334 379
#
# _framework density 20.953609
#
# number of rings (size 3 to 8) (size 9 to 14) (size 15 to 20)
#    0.000    1.500    3.750    2.250    1.750    7.000 
#    0.000    1.875    0.000    0.000    0.000    0.000 
#    0.000    0.000    0.000    0.000    0.000    0.000 
#
# Total GULP energy -396671.596754 kJ/mol
# GULP energy per Si atom -12395.987399 kJ/mol
# Density = 2.090592 g / cm^3
# Si number density = 20.953609 Si / 1000 Ang^3
#
#
#
# Elastic Constant Matrix: (Units=GPa)
#
#
# Indices 1 2 3 4 5 6 
#
# 1 114.2318 22.7683 13.9931 0.0000 -19.1841 0.0000
# 2 22.7683 169.3468 34.3382 0.0000 -16.8111 0.0000
# 3 13.9931 34.3382 50.8733 0.0000 -9.1075 0.0000
# 4 0.0000 0.0000 0.0000 10.6081 0.0000 6.5147
# 5 -19.1841 -16.8111 -9.1075 0.0000 26.2207 0.0000
# 6 0.0000 0.0000 0.0000 6.5147 0.0000 31.3503
#
#
#
# Elastic Compliance Matrix: (Units=1/GPa)
#
#
# Indices 1 2 3 4 5 6 
#
# 1 0.010121 -0.000435 -0.001295 0.000000 0.006676 0.000000
# 2 -0.000435 0.007084 -0.004164 0.000000 0.002776 0.000000
# 3 -0.001295 -0.004164 0.023646 0.000000 0.004596 0.000000
# 4 0.000000 0.000000 0.000000 0.108058 0.000000 -0.022455
# 5 0.006676 0.002776 0.004596 0.000000 0.046399 0.000000
# 6 0.000000 0.000000 0.000000 -0.022455 0.000000 0.036564
#
#
# Mechanical properties :
#
#
# Convention : Reuss Voigt Hill
#
# Bulk Modulus (GPa) = 34.40975 52.96123 43.68549
# Shear Modulus (GPa) = 19.73575 31.19264 25.46419
#
# Velocity S-wave (km/s) = 3.07233 3.86249 3.48985
# Velocity P-wave (km/s) = 5.38917 6.72474 6.09366
#
# Compressibility (1/GPa) = 0.02906153
#
# Stress axis : x y z
#
# Youngs Moduli (GPa) = 98.80773 141.17059 42.28960
#
# Poissons Ratio (x) = 0.06148 0.05475
# Poissons Ratio (y) = 0.04303 0.17611
# Poissons Ratio (z) = 0.12793 0.58789
#
# Static dielectric constant tensor:
#      x y z
#    x 3.873090 0.000000 -0.036920 
#    y 0.000000 4.440470 0.000000 
#    z -0.036920 0.000000 3.669410 
# 
# 
# High freq. dielectric constant tensor:
#      x y z
#    x 1.831750 0.000000 0.001610 
#    y 0.000000 1.852830 0.000000 
#    z 0.001610 0.000000 1.768400 
# 
# From -- ./inp_files/74417.got.cif
#   From: 2010.03.12/outbox.cif.g09.slc.cpg/sg14_38_cif.got.tgz:74417.got - 2010.03.31 13:35:05.
