data_PCOD8123661
_publ_section_title
;
Structure prediction by ZEFSAII (Michael W. Deem and Ramdas Pophale) SiO2 
 PCOD8123661
Probable space group: P 21/C
;
_chemical_formula_sum "Si O2"
_cell_formula_units_Z 32
_cell_length_a 8.984624
_cell_length_b 11.400899
_cell_length_c 18.277777
_cell_angle_alpha 90.000000
_cell_angle_beta 60.486721
_cell_angle_gamma 90.000000
_cell_volume 1629.304261
_symmetry_space_group_name_H-M "P 21/C"
_symmetry_group_IT_number 14
_symmetry_cell_setting 'monoclinic'
loop_
_space_group_symop_operation_xyz
x,y,z
-x,1/2+y,1/2-z
-x,-y,-z
x,1/2-y,1/2+z
loop_
_atom_site_type_symbol
_atom_site_label
_atom_site_fract_x
_atom_site_fract_y
_atom_site_fract_z
Si Si1 0.031689 0.227608 0.835170
Si Si2 0.751052 0.728304 0.350187
Si Si3 0.920994 0.122250 0.493510
Si Si4 0.454698 0.881466 0.470207
Si Si5 0.944573 0.661756 0.447357
Si Si6 0.503918 0.034678 0.112800
Si Si7 0.339937 0.654514 0.561967
Si Si8 0.198725 0.035491 0.878034
O O1 0.001433 0.340693 0.894997
O O2 0.861226 0.150172 0.874871
O O3 0.081056 0.257145 0.740179
O O4 0.184462 0.143382 0.825755
O O5 0.621241 0.839593 0.383449
O O6 0.809255 0.698902 0.418298
O O7 0.654741 0.619820 0.335592
O O8 0.715110 0.106646 0.539055
O O9 0.964768 0.223091 0.541375
O O10 0.000000 0.000000 0.500000
O O11 0.413834 0.785873 0.542637
O O12 0.500000 0.000000 0.500000
O O13 0.846511 0.585827 0.531134
O O14 0.086795 0.575430 0.379079
O O15 0.436847 0.909261 0.103260
O O16 0.606530 0.011923 0.163238
O O17 0.631848 0.092530 0.022815
#
# Coordination Sequence:
#
# PCOD8123661 Si02
#       8
#     4   4   4   4   4   4   4   4
#     4  10  22  39  56  87 122 151 198 251 300 347
#     4  11  22  38  57  89 123 153 199 252 301 351
#     4  10  21  40  62  85 116 166 207 237 289 374
#     4  10  20  37  60  84 120 161 200 236 291 365
#     4  10  19  35  62  87 112 154 197 237 294 356
#     4  10  18  34  63  85 111 147 197 244 294 352
#     4   9  18  36  59  87 112 151 195 237 287 360
#     4  10  18  35  61  86 111 146 196 246 292 351
#
# _framework density 19.640284000000001
#
# number of rings (size 3 to 8) (size 9 to 14) (size 15 to 20)
#    0.000    2.000    0.000    7.500    0.000    1.000 
#   15.750    1.250    0.000    0.000    0.000    0.000 
#    0.000    0.000    0.000    0.000    0.000    0.000 
#
# Total GULP energy -396681.997345 kJ/mol
# GULP energy per Si atom -12396.312417 kJ/mol
# Density = 1.959558 g / cm^3
# Si number density = 19.640284 Si / 1000 Ang^3
#
#
#
# Elastic Constant Matrix: (Units=GPa)
#
#
# Indices 1 2 3 4 5 6 
#
# 1 117.2945 49.4114 21.7941 0.0000 -10.8795 0.0000
# 2 49.4114 127.3655 17.0789 0.0000 -1.7370 0.0000
# 3 21.7941 17.0789 70.2226 0.0000 -9.2244 0.0000
# 4 0.0000 0.0000 0.0000 7.5097 0.0000 -1.1163
# 5 -10.8795 -1.7370 -9.2244 0.0000 17.0614 0.0000
# 6 0.0000 0.0000 0.0000 -1.1163 0.0000 43.6955
#
#
#
# Elastic Compliance Matrix: (Units=1/GPa)
#
#
# Indices 1 2 3 4 5 6 
#
# 1 0.011050 -0.003979 -0.001711 0.000000 0.005716 0.000000
# 2 -0.003979 0.009550 -0.001392 0.000000 -0.002318 0.000000
# 3 -0.001711 -0.001392 0.016091 0.000000 0.007467 0.000000
# 4 0.000000 0.000000 0.000000 0.133669 0.000000 0.003415
# 5 0.005716 -0.002318 0.007467 0.000000 0.066058 0.000000
# 6 0.000000 0.000000 0.000000 0.003415 0.000000 0.022973
#
#
# Mechanical properties :
#
#
# Convention : Reuss Voigt Hill
#
# Bulk Modulus (GPa) = 44.39238 54.60573 49.49906
# Shear Modulus (GPa) = 17.78949 28.75985 23.27467
#
# Velocity S-wave (km/s) = 3.01286 3.83081 3.44619
# Velocity P-wave (km/s) = 5.89533 6.88695 6.41034
#
# Compressibility (1/GPa) = 0.02252639
#
# Stress axis : x y z
#
# Youngs Moduli (GPa) = 90.49761 104.70840 62.14720
#
# Poissons Ratio (x) = 0.41669 0.10632
# Poissons Ratio (y) = 0.36014 0.08652
# Poissons Ratio (z) = 0.15482 0.14577
#
# Static dielectric constant tensor:
#      x y z
#    x 3.775730 0.000000 -0.125650 
#    y 0.000000 3.770390 0.000000 
#    z -0.125650 0.000000 3.123480 
# 
# 
# High freq. dielectric constant tensor:
#      x y z
#    x 1.782390 0.000000 -0.013130 
#    y 0.000000 1.776080 0.000000 
#    z -0.013130 0.000000 1.715080 
# 
# From -- ./inp_files/65421.got.cif
#   From: 2010.03.12/outbox.cif.g09.slc.cpg/sg14_33_cif.got.tgz:65421.got - 2010.03.31 13:35:05.
