data_PCOD8123533
_publ_section_title
;
Structure prediction by ZEFSAII (Michael W. Deem and Ramdas Pophale) SiO2 
 PCOD8123533
Probable space group: P 21/C
;
_chemical_formula_sum "Si O2"
_cell_formula_units_Z 28
_cell_length_a 9.004343
_cell_length_b 13.762474
_cell_length_c 14.646858
_cell_angle_alpha 90.000000
_cell_angle_beta 68.133544
_cell_angle_gamma 90.000000
_cell_volume 1684.482393
_symmetry_space_group_name_H-M "P 21/C"
_symmetry_group_IT_number 14
_symmetry_cell_setting 'monoclinic'
loop_
_space_group_symop_operation_xyz
x,y,z
-x,1/2+y,1/2-z
-x,-y,-z
x,1/2-y,1/2+z
loop_
_atom_site_type_symbol
_atom_site_label
_atom_site_fract_x
_atom_site_fract_y
_atom_site_fract_z
Si Si1 0.186370 0.946575 0.045533
Si Si2 0.850998 0.322150 0.819883
Si Si3 0.065207 0.668022 0.828872
Si Si4 0.724409 0.615019 0.615028
Si Si5 0.364499 0.654103 0.653834
Si Si6 0.888280 0.530812 0.742558
Si Si7 0.016321 0.755325 0.030278
O O1 0.337093 0.918993 0.074862
O O2 0.041923 0.984428 0.142214
O O3 0.129575 0.850621 0.003582
O O4 0.236448 0.028262 0.963353
O O5 0.957060 0.271962 0.716111
O O6 0.681306 0.264372 0.867622
O O7 0.819349 0.432252 0.800153
O O8 0.952507 0.311568 0.889061
O O9 0.241888 0.624786 0.763964
O O10 0.929209 0.597246 0.820288
O O11 0.048869 0.682801 0.939757
O O12 0.543514 0.649545 0.647454
O O13 0.749686 0.579373 0.713075
O O14 0.833165 0.708731 0.569418
#
# Coordination Sequence:
#
# PCOD8123533 Si02
#       7
#     4   4   4   4   4   4   4
#     4   9  17  31  53  81  98 132 176 220 258 307
#     4   9  18  35  51  74 107 140 170 214 257 309
#     4   9  18  35  51  75 105 140 169 219 253 309
#     4  11  17  31  55  81  99 131 180 222 258 302
#     4   8  19  32  47  73 115 125 157 227 275 292
#     4  10  18  32  55  76 104 138 177 211 254 313
#     4  10  18  32  56  75 102 139 177 208 258 307
#
# _framework density 16.622318
#
# number of rings (size 3 to 8) (size 9 to 14) (size 15 to 20)
#    0.857    1.714    2.857    3.857    0.000    0.571 
#    0.000    5.714    0.000    1.714    0.000    0.000 
#    0.000    0.000    0.000    0.000    0.000    0.000 
#
# Total GULP energy -346951.479495 kJ/mol
# GULP energy per Si atom -12391.124268 kJ/mol
# Density = 1.658448 g / cm^3
# Si number density = 16.622318 Si / 1000 Ang^3
#
#
#
# Elastic Constant Matrix: (Units=GPa)
#
#
# Indices 1 2 3 4 5 6 
#
# 1 131.7098 36.8378 34.5402 0.0000 10.3354 0.0000
# 2 36.8378 62.6839 24.3866 0.0000 2.9324 0.0000
# 3 34.5402 24.3866 65.0853 0.0000 13.2675 0.0000
# 4 0.0000 0.0000 0.0000 36.3416 0.0000 4.5586
# 5 10.3354 2.9324 13.2675 0.0000 9.1470 0.0000
# 6 0.0000 0.0000 0.0000 4.5586 0.0000 9.7789
#
#
#
# Elastic Compliance Matrix: (Units=1/GPa)
#
#
# Indices 1 2 3 4 5 6 
#
# 1 0.010006 -0.004717 -0.002195 0.000000 -0.006610 0.000000
# 2 -0.004717 0.021127 -0.007267 0.000000 0.009098 0.000000
# 3 -0.002195 -0.007267 0.025942 0.000000 -0.032819 0.000000
# 4 0.000000 0.000000 0.000000 0.029226 0.000000 -0.013624
# 5 -0.006610 0.009098 -0.032819 0.000000 0.161479 0.000000
# 6 0.000000 0.000000 0.000000 -0.013624 0.000000 0.108612
#
#
# Mechanical properties :
#
#
# Convention : Reuss Voigt Hill
#
# Bulk Modulus (GPa) = 34.82380 50.11203 42.46792
# Shear Modulus (GPa) = 12.67993 21.96780 17.32387
#
# Velocity S-wave (km/s) = 2.76493 3.63930 3.23182
# Velocity P-wave (km/s) = 5.58468 6.91898 6.28732
#
# Compressibility (1/GPa) = 0.02871599
#
# Stress axis : x y z
#
# Youngs Moduli (GPa) = 99.93848 47.33317 38.54679
#
# Poissons Ratio (x) = 0.22327 0.08463
# Poissons Ratio (y) = 0.47142 0.28013
# Poissons Ratio (z) = 0.21941 0.34398
#
# Static dielectric constant tensor:
#      x y z
#    x 2.980820 0.000000 0.222410 
#    y 0.000000 2.952380 0.000000 
#    z 0.222410 0.000000 2.955890 
# 
# 
# High freq. dielectric constant tensor:
#      x y z
#    x 1.625190 0.000000 0.025280 
#    y 0.000000 1.628730 0.000000 
#    z 0.025280 0.000000 1.628940 
# 
# From -- ./inp_files/40661.got.cif
#   From: 2010.03.12/outbox.cif.g09.slc.cpg/sg14_21_cif.got.tgz:40661.got - 2010.03.31 13:35:05.
