data_PCOD8123099
_publ_section_title
;
Structure prediction by ZEFSAII (Michael W. Deem and Ramdas Pophale) SiO2 
 PCOD8123099
Probable space group: P 2/C
;
_chemical_formula_sum "Si O2"
_cell_formula_units_Z 20
_cell_length_a 8.128985
_cell_length_b 11.842293
_cell_length_c 9.001463
_cell_angle_alpha 90.000000
_cell_angle_beta 85.473385
_cell_angle_gamma 90.000000
_cell_volume 863.830329
_symmetry_space_group_name_H-M "P 2/C"
_symmetry_group_IT_number 13
_symmetry_cell_setting 'monoclinic'
loop_
_space_group_symop_operation_xyz
x,y,z
-x,y,1/2-z
-x,-y,-z
x,-y,1/2+z
loop_
_atom_site_type_symbol
_atom_site_label
_atom_site_fract_x
_atom_site_fract_y
_atom_site_fract_z
Si Si1 0.674234 0.355761 0.495852
Si Si2 0.190885 0.177050 0.208616
Si Si3 0.185531 0.547750 0.208153
Si Si4 0.304342 0.729654 0.000702
Si Si5 0.382126 0.953889 0.132663
O O1 0.775033 0.240984 0.449484
O O2 0.704596 0.446170 0.363109
O O3 0.730855 0.405095 0.648980
O O4 0.482737 0.324314 0.517219
O O5 0.274423 0.255496 0.328238
O O6 0.267142 0.052477 0.204358
O O7 0.000000 0.161767 0.250000
O O8 0.172157 0.645536 0.083929
O O9 0.000000 0.503813 0.250000
O O10 0.274379 0.850974 0.079064
O O11 0.500000 0.903337 0.250000
O O12 0.500000 0.000000 0.000000
#
# Coordination Sequence:
#
# PCOD8123099 Si02
#       5
#     4   4   4   4   4
#     4  12  24  46  70 100 139 185 231 279 343 413
#     4  12  26  45  71 101 139 182 227 291 348 399
#     4  12  26  44  70 106 143 177 228 290 342 405
#     4  12  26  45  72  99 138 184 236 277 343 419
#     4  12  23  46  70 101 138 182 229 279 337 414
#
# _framework density 23.152695000000001
#
# number of rings (size 3 to 8) (size 9 to 14) (size 15 to 20)
#    0.000    0.000    4.000    6.600    0.000    3.200 
#    0.000    0.000    0.000    0.000    0.000    0.000 
#    0.000    0.000    0.000    0.000    0.000    0.000 
#
# Total GULP energy -248098.296432 kJ/mol
# GULP energy per Si atom -12404.914822 kJ/mol
# Density = 2.310000 g / cm^3
# Si number density = 23.152695 Si / 1000 Ang^3
#
#
#
# Elastic Constant Matrix: (Units=GPa)
#
#
# Indices 1 2 3 4 5 6 
#
# 1 94.7958 16.3297 32.5271 0.0000 0.0480 0.0000
# 2 16.3297 118.5558 35.7755 0.0000 -1.5727 0.0000
# 3 32.5271 35.7755 94.5226 0.0000 0.8226 0.0000
# 4 0.0000 0.0000 0.0000 56.1324 0.0000 -7.3489
# 5 0.0480 -1.5727 0.8226 0.0000 33.3219 0.0000
# 6 0.0000 0.0000 0.0000 -7.3489 0.0000 24.1137
#
#
#
# Elastic Compliance Matrix: (Units=1/GPa)
#
#
# Indices 1 2 3 4 5 6 
#
# 1 0.011984 -0.000458 -0.003951 0.000000 0.000059 0.000000
# 2 -0.000458 0.009550 -0.003462 0.000000 0.000537 0.000000
# 3 -0.003951 -0.003462 0.013254 0.000000 -0.000485 0.000000
# 4 0.000000 0.000000 0.000000 0.018555 0.000000 0.005655
# 5 0.000059 0.000537 -0.000485 0.000000 0.030048 0.000000
# 6 0.000000 0.000000 0.000000 0.005655 0.000000 0.043194
#
#
# Mechanical properties :
#
#
# Convention : Reuss Voigt Hill
#
# Bulk Modulus (GPa) = 52.50411 53.01541 52.75976
# Shear Modulus (GPa) = 33.63103 37.59640 35.61371
#
# Velocity S-wave (km/s) = 3.81540 4.03407 3.92626
# Velocity P-wave (km/s) = 6.49125 6.68178 6.58720
#
# Compressibility (1/GPa) = 0.01904613
#
# Stress axis : x y z
#
# Youngs Moduli (GPa) = 83.44801 104.71682 75.45167
#
# Poissons Ratio (x) = 0.04791 0.29812
# Poissons Ratio (y) = 0.03818 0.26118
# Poissons Ratio (z) = 0.32971 0.36249
#
# Static dielectric constant tensor:
#      x y z
#    x 4.130840 0.000000 -0.050090 
#    y 0.000000 7.695540 0.000000 
#    z -0.050090 0.000000 4.462720 
# 
# 
# High freq. dielectric constant tensor:
#      x y z
#    x 1.903680 0.000000 -0.005580 
#    y 0.000000 1.935000 0.000000 
#    z -0.005580 0.000000 1.933920 
# 
# From -- ./inp_files/11669.got.cif
#   From: 2010.06.25/outbox.cif.g09.slc.cpg/sg13_6_cif.got.tgz:11669.got - 2010.06.28 04:50:58.
