data_PCOD8123928
_publ_section_title
;
Structure prediction by ZEFSAII (Michael W. Deem and Ramdas Pophale) SiO2 
 PCOD8123928
Probable space group: P 21/C
;
_chemical_formula_sum "Si O2"
_cell_formula_units_Z 32
_cell_length_a 8.056983
_cell_length_b 9.774878
_cell_length_c 25.344656
_cell_angle_alpha 90.000000
_cell_angle_beta 126.439265
_cell_angle_gamma 90.000000
_cell_volume 1605.791631
_symmetry_space_group_name_H-M "P 21/C"
_symmetry_group_IT_number 14
_symmetry_cell_setting 'monoclinic'
loop_
_space_group_symop_operation_xyz
x,y,z
-x,1/2+y,1/2-z
-x,-y,-z
x,1/2-y,1/2+z
loop_
_atom_site_type_symbol
_atom_site_label
_atom_site_fract_x
_atom_site_fract_y
_atom_site_fract_z
Si Si1 0.376943 0.501176 0.279422
Si Si2 0.187035 0.167202 0.379907
Si Si3 0.520508 0.256601 0.372259
Si Si4 0.152717 0.758368 0.266126
Si Si5 0.032564 0.621289 0.845810
Si Si6 0.430168 0.510180 0.792245
Si Si7 0.016707 0.683553 0.050234
Si Si8 0.161476 0.376567 0.088242
O O1 0.444928 0.405304 0.340114
O O2 0.343482 0.655048 0.294042
O O3 0.549710 0.501158 0.266868
O O4 0.166026 0.455900 0.213496
O O5 0.419041 0.222165 0.410502
O O6 0.046028 0.218402 0.305027
O O7 0.100945 0.231412 0.418612
O O8 0.200515 0.001167 0.384925
O O9 0.768557 0.262188 0.419753
O O10 0.435591 0.142997 0.315488
O O11 0.102707 0.760161 0.319169
O O12 0.214234 0.914118 0.262233
O O13 0.969508 0.694229 0.889068
O O14 0.599634 0.607189 0.852435
O O15 0.062853 0.525339 0.064693
O O16 0.868145 0.708368 0.971521
#
# Coordination Sequence:
#
# PCOD8123928 Si02
#       8
#     4   4   4   4   4   4   4   4
#     4  10  20  32  49  76 110 136 171 212 260 321
#     4  10  19  32  51  79 108 133 171 217 257 316
#     4  11  19  33  53  77 106 138 172 211 266 309
#     4  11  19  32  51  79 108 136 170 213 264 316
#     4   9  17  32  50  72 107 134 167 216 259 305
#     4  10  19  33  54  77 103 140 172 217 265 311
#     4   9  18  34  52  77 106 135 172 223 265 298
#     4   8  17  34  52  75 103 133 174 223 261 299
#
# _framework density 19.927864
#
# number of rings (size 3 to 8) (size 9 to 14) (size 15 to 20)
#    0.000    2.250    2.500    3.750    0.000    0.000 
#    2.250    2.500    0.000    1.500    0.000    0.000 
#    0.000    0.000    0.000    0.000    0.000    0.000 
#
# Total GULP energy -396623.505051 kJ/mol
# GULP energy per Si atom -12394.484533 kJ/mol
# Density = 1.988251 g / cm^3
# Si number density = 19.927864 Si / 1000 Ang^3
#
#
#
# Elastic Constant Matrix: (Units=GPa)
#
#
# Indices 1 2 3 4 5 6 
#
# 1 105.6599 4.9535 30.0635 0.0000 -32.9221 0.0000
# 2 4.9535 37.4328 8.7465 0.0000 -3.4467 0.0000
# 3 30.0635 8.7465 67.2179 0.0000 -27.1987 0.0000
# 4 0.0000 0.0000 0.0000 13.2600 0.0000 0.3802
# 5 -32.9221 -3.4467 -27.1987 0.0000 26.9577 0.0000
# 6 0.0000 0.0000 0.0000 0.3802 0.0000 21.0649
#
#
#
# Elastic Compliance Matrix: (Units=1/GPa)
#
#
# Indices 1 2 3 4 5 6 
#
# 1 0.015345 -0.000491 0.001281 0.000000 0.019971 0.000000
# 2 -0.000491 0.027568 -0.003691 0.000000 -0.000799 0.000000
# 3 0.001281 -0.003691 0.025731 0.000000 0.027054 0.000000
# 4 0.000000 0.000000 0.000000 0.075454 0.000000 -0.001362
# 5 0.019971 -0.000799 0.027054 0.000000 0.088679 0.000000
# 6 0.000000 0.000000 0.000000 -0.001362 0.000000 0.047497
#
#
# Mechanical properties :
#
#
# Convention : Reuss Voigt Hill
#
# Bulk Modulus (GPa) = 15.91249 33.09306 24.50278
# Shear Modulus (GPa) = 16.28540 23.35966 19.82253
#
# Velocity S-wave (km/s) = 2.86180 3.42747 3.15733
# Velocity P-wave (km/s) = 4.34997 5.68383 5.06104
#
# Compressibility (1/GPa) = 0.06284370
#
# Stress axis : x y z
#
# Youngs Moduli (GPa) = 65.16651 36.27349 38.86321
#
# Poissons Ratio (x) = 0.01782 -0.04980
# Poissons Ratio (y) = 0.03201 0.14344
# Poissons Ratio (z) = -0.08351 0.13388
#
# Static dielectric constant tensor:
#      x y z
#    x 3.905020 0.000000 -0.344880 
#    y 0.000000 3.266070 0.000000 
#    z -0.344880 0.000000 3.842200 
# 
# 
# High freq. dielectric constant tensor:
#      x y z
#    x 1.791830 0.000000 -0.021120 
#    y 0.000000 1.737490 0.000000 
#    z -0.021120 0.000000 1.746490 
# 
# From -- ./inp_files/72101.got.cif
#   From: 2010.03.12/outbox.cif.g09.slc.cpg/sg14_37_cif.got.tgz:72101.got - 2010.03.31 13:35:05.
