data_PCOD8123211
_publ_section_title
;
Structure prediction by ZEFSAII (Michael W. Deem and Ramdas Pophale) SiO2 
 PCOD8123211
Probable space group: P 2/C
;
_chemical_formula_sum "Si O2"
_cell_formula_units_Z 14
_cell_length_a 15.246555
_cell_length_b 5.382656
_cell_length_c 15.258674
_cell_angle_alpha 90.000000
_cell_angle_beta 27.297709
_cell_angle_gamma 90.000000
_cell_volume 574.291613
_symmetry_space_group_name_H-M "P 2/C"
_symmetry_group_IT_number 13
_symmetry_cell_setting 'monoclinic'
loop_
_space_group_symop_operation_xyz
x,y,z
-x,y,1/2-z
-x,-y,-z
x,-y,1/2+z
loop_
_atom_site_type_symbol
_atom_site_label
_atom_site_fract_x
_atom_site_fract_y
_atom_site_fract_z
Si Si1 0.493939 0.642163 0.595706
Si Si2 0.892263 0.756259 0.622999
Si Si3 0.807411 0.016875 0.375740
Si Si4 0.500000 0.708505 0.250000
O O1 0.500000 0.500000 0.500000
O O2 0.303436 0.805651 0.757042
O O3 0.689311 0.794957 0.434866
O O4 0.447741 0.455549 0.714046
O O5 0.000000 0.500000 0.500000
O O6 0.853257 0.767393 0.763118
O O7 0.000000 0.000000 0.500000
O O8 0.000000 0.912021 0.250000
O O9 0.682177 0.122810 0.566391
#
# Coordination Sequence:
#
# PCOD8123211 Si02
#       4
#     4   4   4   2
#     4  12  27  54  81 117 169 223 280 349 427 514
#     4  12  28  50  84 118 165 220 279 343 425 501
#     4  12  29  50  81 122 168 217 286 355 426 505
#     4  12  28  50  84 116 170 212 292 348 428 500
#
# _framework density 24.377859999999998
#
# number of rings (size 3 to 8) (size 9 to 14) (size 15 to 20)
#    0.000    0.000    2.857    5.143   12.000    1.143 
#    0.000    0.000    0.000    0.000    0.000    0.000 
#    0.000    0.000    0.000    0.000    0.000    0.000 
#
# Total GULP energy -173565.592373 kJ/mol
# GULP energy per Si atom -12397.542312 kJ/mol
# Density = 2.432237 g / cm^3
# Si number density = 24.377860 Si / 1000 Ang^3
#
#
#
# Elastic Constant Matrix: (Units=GPa)
#
#
# Indices 1 2 3 4 5 6 
#
# 1 196.9549 78.9373 97.7295 0.0000 -19.5615 0.0000
# 2 78.9373 158.0879 85.7955 0.0000 -5.4260 0.0000
# 3 97.7295 85.7955 183.2145 0.0000 -6.9724 0.0000
# 4 0.0000 0.0000 0.0000 29.7373 0.0000 4.6083
# 5 -19.5615 -5.4260 -6.9724 0.0000 77.0133 0.0000
# 6 0.0000 0.0000 0.0000 4.6083 0.0000 51.5244
#
#
#
# Elastic Compliance Matrix: (Units=1/GPa)
#
#
# Indices 1 2 3 4 5 6 
#
# 1 0.007549 -0.002096 -0.002988 0.000000 0.001499 0.000000
# 2 -0.002096 0.009067 -0.003135 0.000000 -0.000177 0.000000
# 3 -0.002988 -0.003135 0.008512 0.000000 -0.000209 0.000000
# 4 0.000000 0.000000 0.000000 0.034100 0.000000 -0.003050
# 5 0.001499 -0.000177 -0.000209 0.000000 0.013334 0.000000
# 6 0.000000 0.000000 0.000000 -0.003050 0.000000 0.019681
#
#
# Mechanical properties :
#
#
# Convention : Reuss Voigt Hill
#
# Bulk Modulus (GPa) = 115.07030 118.13133 116.60082
# Shear Modulus (GPa) = 44.81132 50.04134 47.42633
#
# Velocity S-wave (km/s) = 4.29207 4.53563 4.41553
# Velocity P-wave (km/s) = 8.47749 8.71739 8.59827
#
# Compressibility (1/GPa) = 0.00869034
#
# Stress axis : x y z
#
# Youngs Moduli (GPa) = 132.46628 110.28460 117.48281
#
# Poissons Ratio (x) = 0.23119 0.35105
# Poissons Ratio (y) = 0.27770 0.36826
# Poissons Ratio (z) = 0.39582 0.34570
#
# Static dielectric constant tensor:
#      x y z
#    x 0.507530 0.000000 -1.509900 
#    y 0.000000 4.584750 0.000000 
#    z -1.509900 0.000000 9.185190 
# 
# 
# High freq. dielectric constant tensor:
#      x y z
#    x 1.987480 0.000000 0.002000 
#    y 0.000000 1.963980 0.000000 
#    z 0.002000 0.000000 1.998280 
# 
# From -- ./inp_files/51756.got.cif
#   From: 2010.06.25/outbox.cif.g09.slc.cpg/sg13_26_cif.got.tgz:51756.got - 2010.06.28 04:50:58.
