data_PCOD8123276
_publ_section_title
;
Structure prediction by ZEFSAII (Michael W. Deem and Ramdas Pophale) SiO2 
 PCOD8123276
Probable space group: P 21/C
;
_chemical_formula_sum "Si O2"
_cell_formula_units_Z 28
_cell_length_a 16.154788
_cell_length_b 15.114694
_cell_length_c 8.488266
_cell_angle_alpha 90.000000
_cell_angle_beta 137.817633
_cell_angle_gamma 90.000000
_cell_volume 1391.748673
_symmetry_space_group_name_H-M "P 21/C"
_symmetry_group_IT_number 14
_symmetry_cell_setting 'monoclinic'
loop_
_space_group_symop_operation_xyz
x,y,z
-x,1/2+y,1/2-z
-x,-y,-z
x,1/2-y,1/2+z
loop_
_atom_site_type_symbol
_atom_site_label
_atom_site_fract_x
_atom_site_fract_y
_atom_site_fract_z
Si Si1 0.789500 0.056771 0.825486
Si Si2 0.638033 0.295260 0.543669
Si Si3 0.847070 0.729214 0.768678
Si Si4 0.267827 0.368687 0.674489
Si Si5 0.980625 0.190799 0.228779
Si Si6 0.794523 0.166577 0.545782
Si Si7 0.455915 0.860809 0.400914
O O1 0.815740 0.077333 0.677221
O O2 0.648235 0.077629 0.670361
O O3 0.814209 0.953403 0.890394
O O4 0.878551 0.115265 0.061890
O O5 0.732781 0.235773 0.579203
O O6 0.713379 0.355152 0.776173
O O7 0.562018 0.355334 0.314345
O O8 0.547248 0.235443 0.520971
O O9 0.750806 0.786809 0.733977
O O10 0.771390 0.661516 0.554528
O O11 0.931159 0.800329 0.796607
O O12 0.934508 0.668368 0.001527
O O13 0.409792 0.400025 0.875297
O O14 0.921162 0.288293 0.169435
#
# Coordination Sequence:
#
# PCOD8123276 Si02
#       7
#     4   4   4   4   4   4   4
#     4  11  22  35  65  93 114 146 201 253 292 326
#     4   9  16  29  57  88 112 153 189 225 298 341
#     4  10  24  40  60  78 120 166 192 229 300 351
#     4  11  24  43  56  84 122 163 193 235 291 365
#     4  11  18  38  62  87 114 147 198 247 288 344
#     4  10  16  32  57  92 116 139 186 249 291 332
#     4  10  19  35  59  88 122 150 195 239 290 346
#
# _framework density 20.118573999999999
#
# number of rings (size 3 to 8) (size 9 to 14) (size 15 to 20)
#    0.000    1.714    5.714    1.286    0.000    1.143 
#    0.000    3.571    0.000    0.000    0.000    0.000 
#    0.000    0.000    0.000    0.000    0.000    0.000 
#
# Total GULP energy -347136.599127 kJ/mol
# GULP energy per Si atom -12397.735683 kJ/mol
# Density = 2.007278 g / cm^3
# Si number density = 20.118574 Si / 1000 Ang^3
#
#
#
# Elastic Constant Matrix: (Units=GPa)
#
#
# Indices 1 2 3 4 5 6 
#
# 1 56.9973 -1.5238 39.4853 0.0000 -6.4636 0.0000
# 2 -1.5238 46.1513 21.0442 0.0000 -0.6759 0.0000
# 3 39.4853 21.0442 123.1361 0.0000 -10.6513 0.0000
# 4 0.0000 0.0000 0.0000 19.2578 0.0000 -3.9006
# 5 -6.4636 -0.6759 -10.6513 0.0000 36.0520 0.0000
# 6 0.0000 0.0000 0.0000 -3.9006 0.0000 15.4574
#
#
#
# Elastic Compliance Matrix: (Units=1/GPa)
#
#
# Indices 1 2 3 4 5 6 
#
# 1 0.023529 0.004523 -0.008154 0.000000 0.001894 0.000000
# 2 0.004523 0.024389 -0.005653 0.000000 -0.000402 0.000000
# 3 -0.008154 -0.005653 0.011870 0.000000 0.001939 0.000000
# 4 0.000000 0.000000 0.000000 0.054724 0.000000 0.013809
# 5 0.001894 -0.000402 0.001939 0.000000 0.028643 0.000000
# 6 0.000000 0.000000 0.000000 0.013809 0.000000 0.068179
#
#
# Mechanical properties :
#
#
# Convention : Reuss Voigt Hill
#
# Bulk Modulus (GPa) = 24.26074 38.25512 31.25793
# Shear Modulus (GPa) = 20.52194 25.30539 22.91366
#
# Velocity S-wave (km/s) = 3.19729 3.55041 3.37847
# Velocity P-wave (km/s) = 5.07102 5.98860 5.54881
#
# Compressibility (1/GPa) = 0.04121886
#
# Stress axis : x y z
#
# Youngs Moduli (GPa) = 42.50044 41.00198 84.24840
#
# Poissons Ratio (x) = -0.18544 0.68697
# Poissons Ratio (y) = -0.19222 0.47627
# Poissons Ratio (z) = 0.34655 0.23179
#
# Static dielectric constant tensor:
#      x y z
#    x 3.709450 0.000000 -0.224120 
#    y 0.000000 3.257740 0.000000 
#    z -0.224120 0.000000 3.880270 
# 
# 
# High freq. dielectric constant tensor:
#      x y z
#    x 1.787880 0.000000 -0.007430 
#    y 0.000000 1.740010 0.000000 
#    z -0.007430 0.000000 1.798230 
# 
# From -- ./inp_files/13045.got.cif
#   From: 2010.03.12/outbox.cif.g09.slc.cpg/sg14_7_cif.got.tgz:13045.got - 2010.03.31 13:35:05.
