data_PCOD8123063
_publ_section_title
;
Structure prediction by ZEFSAII (Michael W. Deem and Ramdas Pophale) SiO2 
 PCOD8123063
Probable space group: P 2/C
;
_chemical_formula_sum "Si O2"
_cell_formula_units_Z 20
_cell_length_a 17.676997
_cell_length_b 4.909868
_cell_length_c 27.324661
_cell_angle_alpha 90.000000
_cell_angle_beta 20.504616
_cell_angle_gamma 90.000000
_cell_volume 830.714809
_symmetry_space_group_name_H-M "P 2/C"
_symmetry_group_IT_number 13
_symmetry_cell_setting 'monoclinic'
loop_
_space_group_symop_operation_xyz
x,y,z
-x,y,1/2-z
-x,-y,-z
x,-y,1/2+z
loop_
_atom_site_type_symbol
_atom_site_label
_atom_site_fract_x
_atom_site_fract_y
_atom_site_fract_z
Si Si1 0.769952 0.203378 0.962730
Si Si2 0.514178 0.251009 0.456076
Si Si3 0.002219 0.713111 0.863742
Si Si4 0.152227 0.723819 0.432565
Si Si5 0.397458 0.775705 0.764020
O O1 0.937962 0.418122 0.882850
O O2 0.895138 0.919180 0.890044
O O3 0.694632 0.257690 0.952958
O O4 0.547923 0.192462 0.126700
O O5 0.500000 0.500000 0.500000
O O6 0.739342 0.256824 0.289880
O O7 0.500000 0.000000 0.500000
O O8 0.910683 0.766822 0.973099
O O9 0.370028 0.545028 0.292759
O O10 0.000000 0.500000 0.500000
O O11 0.183836 0.024074 0.386185
O O12 0.500000 0.917944 0.750000
#
# Coordination Sequence:
#
# PCOD8123063 Si02
#       5
#     4   4   4   4   4
#     4  12  26  45  76 103 142 188 229 291 353 424
#     4  12  29  50  71 102 137 179 243 306 354 410
#     4  12  25  46  72 105 139 185 240 282 356 429
#     4  12  24  40  67 103 145 187 229 282 340 427
#     4  12  22  42  67 101 145 178 226 276 345 421
#
# _framework density 24.075652000000002
#
# number of rings (size 3 to 8) (size 9 to 14) (size 15 to 20)
#    0.000    0.000    4.000    6.000    0.000    8.000 
#    0.000    0.000    0.000    0.000    0.000    0.000 
#    0.000    0.000    0.000    0.000    0.000    0.000 
#
# Total GULP energy -247920.489437 kJ/mol
# GULP energy per Si atom -12396.024472 kJ/mol
# Density = 2.402085 g / cm^3
# Si number density = 24.075652 Si / 1000 Ang^3
#
#
#
# Elastic Constant Matrix: (Units=GPa)
#
#
# Indices 1 2 3 4 5 6 
#
# 1 107.0204 9.1413 -16.2081 0.0000 -1.0968 0.0000
# 2 9.1413 141.0125 10.3758 0.0000 25.5519 0.0000
# 3 -16.2081 10.3758 63.9036 0.0000 -2.3494 0.0000
# 4 0.0000 0.0000 0.0000 123.6955 0.0000 -106.4832
# 5 -1.0968 25.5519 -2.3494 0.0000 20.2436 0.0000
# 6 0.0000 0.0000 0.0000 -106.4832 0.0000 180.3343
#
#
#
# Elastic Compliance Matrix: (Units=1/GPa)
#
#
# Indices 1 2 3 4 5 6 
#
# 1 0.009908 -0.001304 0.002817 0.000000 0.002510 0.000000
# 2 -0.001304 0.009609 -0.002350 0.000000 -0.012472 0.000000
# 3 0.002817 -0.002350 0.016931 0.000000 0.005083 0.000000
# 4 0.000000 0.000000 0.000000 0.016442 0.000000 0.009709
# 5 0.002510 -0.012472 0.005083 0.000000 0.065867 0.000000
# 6 0.000000 0.000000 0.000000 0.009709 0.000000 0.011278
#
#
# Mechanical properties :
#
#
# Convention : Reuss Voigt Hill
#
# Bulk Modulus (GPa) = 28.75685 35.39495 32.07590
# Shear Modulus (GPa) = 34.89174 85.42983 60.16079
#
# Velocity S-wave (km/s) = 3.81104 5.96330 5.00425
# Velocity P-wave (km/s) = 5.59782 7.88340 6.83680
#
# Compressibility (1/GPa) = 0.03477433
#
# Stress axis : x y z
#
# Youngs Moduli (GPa) = 100.93067 104.06921 59.06175
#
# Poissons Ratio (x) = 0.13575 -0.16638
# Poissons Ratio (y) = 0.13166 0.13877
# Poissons Ratio (z) = -0.28432 0.24452
#
# Static dielectric constant tensor:
#      x y z
#    x 4.871450 0.000000 -0.872340 
#    y 0.000000 2.219100 0.000000 
#    z -0.872340 0.000000 4.887460 
# 
# 
# High freq. dielectric constant tensor:
#      x y z
#    x 1.962750 0.000000 -0.019710 
#    y 0.000000 1.978240 0.000000 
#    z -0.019710 0.000000 1.968890 
# 
# From -- ./inp_files/93118.got.cif
#   From: 2010.06.25/outbox.cif.g09.slc.cpg/sg13_47_cif.got.tgz:93118.got - 2010.06.28 04:50:58.
