data_PCOD8123695
_publ_section_title
;
Structure prediction by ZEFSAII (Michael W. Deem and Ramdas Pophale) SiO2 
 PCOD8123695
Probable space group: P 21/C
;
_chemical_formula_sum "Si O2"
_cell_formula_units_Z 24
_cell_length_a 8.658190
_cell_length_b 9.149837
_cell_length_c 17.942914
_cell_angle_alpha 90.000000
_cell_angle_beta 118.563785
_cell_angle_gamma 90.000000
_cell_volume 1248.444074
_symmetry_space_group_name_H-M "P 21/C"
_symmetry_group_IT_number 14
_symmetry_cell_setting 'monoclinic'
loop_
_space_group_symop_operation_xyz
x,y,z
-x,1/2+y,1/2-z
-x,-y,-z
x,1/2-y,1/2+z
loop_
_atom_site_type_symbol
_atom_site_label
_atom_site_fract_x
_atom_site_fract_y
_atom_site_fract_z
Si Si1 0.203434 0.498254 0.566106
Si Si2 0.934715 0.023004 0.810851
Si Si3 0.882305 0.485360 0.044389
Si Si4 0.628465 0.245957 0.989212
Si Si5 0.105626 0.770372 0.330948
Si Si6 0.243547 0.295836 0.450530
O O1 0.299443 0.641684 0.558649
O O2 0.285916 0.354891 0.544371
O O3 0.000000 0.500000 0.500000
O O4 0.211534 0.498152 0.658034
O O5 0.120964 0.085244 0.882390
O O6 0.851761 0.136213 0.732957
O O7 0.974273 0.864041 0.783467
O O8 0.981028 0.381429 0.127764
O O9 0.858004 0.644340 0.072508
O O10 0.691338 0.411025 0.981461
O O11 0.000000 0.500000 0.000000
O O12 0.420521 0.227352 0.944527
O O13 0.713713 0.208217 0.090201
#
# Coordination Sequence:
#
# PCOD8123695 Si02
#       6
#     4   4   4   4   4   4
#     4  10  18  35  60  82 109 151 195 226 275 350
#     4  11  21  37  59  83 112 156 190 235 284 342
#     4  10  19  35  59  85 111 147 191 229 272 343
#     4  10  21  35  58  89 112 146 188 241 280 333
#     4  10  22  36  58  84 117 146 197 230 289 333
#     4  11  19  34  62  86 114 144 189 241 283 332
#
# _framework density 19.223928000000001
#
# number of rings (size 3 to 8) (size 9 to 14) (size 15 to 20)
#    1.000    0.667    3.333    5.000    0.000    0.000 
#    0.000    0.000   11.000    0.000    0.000    0.000 
#    0.000    0.000    0.000    0.000    0.000    0.000 
#
# Total GULP energy -297326.800614 kJ/mol
# GULP energy per Si atom -12388.616692 kJ/mol
# Density = 1.918017 g / cm^3
# Si number density = 19.223928 Si / 1000 Ang^3
#
#
#
# Elastic Constant Matrix: (Units=GPa)
#
#
# Indices 1 2 3 4 5 6 
#
# 1 97.4438 22.1833 21.4504 0.0000 -20.2555 0.0000
# 2 22.1833 121.0567 19.5707 0.0000 -15.7489 0.0000
# 3 21.4504 19.5707 57.8790 0.0000 -17.6533 0.0000
# 4 0.0000 0.0000 0.0000 29.5730 0.0000 -9.4400
# 5 -20.2555 -15.7489 -17.6533 0.0000 21.3655 0.0000
# 6 0.0000 0.0000 0.0000 -9.4400 0.0000 32.8650
#
#
#
# Elastic Compliance Matrix: (Units=1/GPa)
#
#
# Indices 1 2 3 4 5 6 
#
# 1 0.012931 -0.000780 -0.001290 0.000000 0.010619 0.000000
# 2 -0.000780 0.009267 -0.001319 0.000000 0.005002 0.000000
# 3 -0.001290 -0.001319 0.023439 0.000000 0.017171 0.000000
# 4 0.000000 0.000000 0.000000 0.037228 0.000000 0.010693
# 5 0.010619 0.005002 0.017171 0.000000 0.074746 0.000000
# 6 0.000000 0.000000 0.000000 0.010693 0.000000 0.033499
#
#
# Mechanical properties :
#
#
# Convention : Reuss Voigt Hill
#
# Bulk Modulus (GPa) = 25.73326 44.75427 35.24376
# Shear Modulus (GPa) = 23.71453 30.97238 27.34346
#
# Velocity S-wave (km/s) = 3.51607 4.01825 3.77552
# Velocity P-wave (km/s) = 5.46798 6.69772 6.11385
#
# Compressibility (1/GPa) = 0.03886022
#
# Stress axis : x y z
#
# Youngs Moduli (GPa) = 77.33312 107.90440 42.66440
#
# Poissons Ratio (x) = 0.08412 0.05504
# Poissons Ratio (y) = 0.06029 0.05627
# Poissons Ratio (z) = 0.09976 0.14232
#
# Static dielectric constant tensor:
#      x y z
#    x 3.150370 0.000000 -0.358690 
#    y 0.000000 3.739810 0.000000 
#    z -0.358690 0.000000 3.478040 
# 
# 
# High freq. dielectric constant tensor:
#      x y z
#    x 1.726680 0.000000 -0.029330 
#    y 0.000000 1.768630 0.000000 
#    z -0.029330 0.000000 1.713950 
# 
# From -- ./inp_files/54631.got.cif
#   From: 2010.03.12/outbox.cif.g09.slc.cpg/sg14_28_cif.got.tgz:54631.got - 2010.03.31 13:35:05.
