data_PCOD8123163
_publ_section_title
;
Structure prediction by ZEFSAII (Michael W. Deem and Ramdas Pophale) SiO2 
 PCOD8123163
Probable space group: P 2/C
;
_chemical_formula_sum "Si O2"
_cell_formula_units_Z 16
_cell_length_a 4.895752
_cell_length_b 29.344812
_cell_length_c 4.918505
_cell_angle_alpha 90.000000
_cell_angle_beta 116.068260
_cell_angle_gamma 90.000000
_cell_volume 634.733339
_symmetry_space_group_name_H-M "P 2/C"
_symmetry_group_IT_number 13
_symmetry_cell_setting 'monoclinic'
loop_
_space_group_symop_operation_xyz
x,y,z
-x,y,1/2-z
-x,-y,-z
x,-y,1/2+z
loop_
_atom_site_type_symbol
_atom_site_label
_atom_site_fract_x
_atom_site_fract_y
_atom_site_fract_z
Si Si1 0.500000 0.098111 0.250000
Si Si2 0.500000 0.655079 0.250000
Si Si3 0.000000 0.217929 0.250000
Si Si4 0.500000 0.718509 0.750000
Si Si5 0.500000 0.466854 0.250000
Si Si6 0.500000 0.157687 0.750000
Si Si7 0.000000 0.595029 0.750000
Si Si8 0.000000 0.966636 0.750000
O O1 0.635181 0.129294 0.551043
O O2 0.720803 0.066699 0.170599
O O3 0.408788 0.687025 0.458827
O O4 0.787982 0.624681 0.459913
O O5 0.793293 0.250025 0.344119
O O6 0.212391 0.187148 0.532610
O O7 0.500000 0.500000 0.500000
O O8 0.202242 0.435214 0.133897
O O9 0.000000 0.000000 0.500000
#
# Coordination Sequence:
#
# PCOD8123163 Si02
#       8
#     2   2   2   2   2   2   2   2
#     4  12  27  47  76 111 151 200 253 313 378 453
#     4  12  30  52  80 115 155 202 257 317 382 456
#     4  12  30  52  80 114 156 204 256 318 384 456
#     4  12  30  52  80 115 155 204 257 317 384 456
#     4  12  28  50  78 114 154 202 254 314 380 454
#     4  12  29  51  78 115 155 202 257 317 382 455
#     4  12  29  52  80 115 156 204 256 317 382 454
#     4  12  25  46  74 109 150 198 250 311 378 450
#
# _framework density 25.207438
#
# number of rings (size 3 to 8) (size 9 to 14) (size 15 to 20)
#    0.000    0.000    0.000    7.500    0.000   27.000 
#    0.000    0.000    0.000    0.000    0.000    0.000 
#    0.000    0.000    0.000    0.000    0.000    0.000 
#
# Total GULP energy -198386.331957 kJ/mol
# GULP energy per Si atom -12399.145747 kJ/mol
# Density = 2.515007 g / cm^3
# Si number density = 25.207438 Si / 1000 Ang^3
#
#
#
# Elastic Constant Matrix: (Units=GPa)
#
#
# Indices 1 2 3 4 5 6 
#
# 1 202.3108 114.4493 89.4143 0.0000 0.5756 0.0000
# 2 114.4493 210.1990 121.2392 0.0000 -1.6932 0.0000
# 3 89.4143 121.2392 216.2369 0.0000 -8.1006 0.0000
# 4 0.0000 0.0000 0.0000 -78.1206 0.0000 -43.5823
# 5 0.5756 -1.6932 -8.1006 0.0000 57.9047 0.0000
# 6 0.0000 0.0000 0.0000 -43.5823 0.0000 35.1712
#
#
#
# Elastic Compliance Matrix: (Units=1/GPa)
#
#
# Indices 1 2 3 4 5 6 
#
# 1 0.007346 -0.003315 -0.001191 0.000000 -0.000337 0.000000
# 2 -0.003315 0.008534 -0.003422 0.000000 -0.000196 0.000000
# 3 -0.001191 -0.003422 0.007069 0.000000 0.000901 0.000000
# 4 0.000000 0.000000 0.000000 -0.007569 0.000000 -0.009379
# 5 -0.000337 -0.000196 0.000901 0.000000 0.017393 0.000000
# 6 0.000000 0.000000 0.000000 -0.009379 0.000000 0.016811
#
#
# Mechanical properties :
#
#
# Convention : Reuss Voigt Hill
#
# Bulk Modulus (GPa) = 140.97814 142.10580 141.54197
# Shear Modulus (GPa) = 73.73987 23.23399 48.48693
#
# Velocity S-wave (km/s) = 5.41449 3.03926 4.39055
# Velocity P-wave (km/s) = 9.75385 8.29537 9.05402
#
# Compressibility (1/GPa) = 0.00709330
#
# Stress axis : x y z
#
# Youngs Moduli (GPa) = 136.13143 117.17315 141.45667
#
# Poissons Ratio (x) = 0.38846 0.16852
# Poissons Ratio (y) = 0.45131 0.48400
# Poissons Ratio (z) = 0.16218 0.40091
#
# Static dielectric constant tensor:
#      x y z
#    x 4.350090 0.000000 -0.514550 
#    y 0.000000 5.561270 0.000000 
#    z -0.514550 0.000000 3.595240 
# 
# 
# High freq. dielectric constant tensor:
#      x y z
#    x 2.023090 0.000000 -0.012780 
#    y 0.000000 2.041820 0.000000 
#    z -0.012780 0.000000 2.015060 
# 
# From -- ./inp_files/539.got.cif
#   From: 2010.06.25/outbox.cif.g09.slc.cpg/sg13_1_cif.got.tgz:539.got - 2010.06.28 04:50:58.
