data_PCOD8123799
_publ_section_title
;
Structure prediction by ZEFSAII (Michael W. Deem and Ramdas Pophale) SiO2 
 PCOD8123799
Probable space group: P 21/C
;
_chemical_formula_sum "Si O2"
_cell_formula_units_Z 32
_cell_length_a 11.543822
_cell_length_b 17.466918
_cell_length_c 10.648292
_cell_angle_alpha 90.000000
_cell_angle_beta 129.582999
_cell_angle_gamma 90.000000
_cell_volume 1654.750560
_symmetry_space_group_name_H-M "P 21/C"
_symmetry_group_IT_number 14
_symmetry_cell_setting 'monoclinic'
loop_
_space_group_symop_operation_xyz
x,y,z
-x,1/2+y,1/2-z
-x,-y,-z
x,1/2-y,1/2+z
loop_
_atom_site_type_symbol
_atom_site_label
_atom_site_fract_x
_atom_site_fract_y
_atom_site_fract_z
Si Si1 0.760109 0.197742 0.900044
Si Si2 0.365865 0.907167 0.850233
Si Si3 0.405398 0.430502 0.285969
Si Si4 0.529597 0.795478 0.782931
Si Si5 0.231383 0.179745 0.502341
Si Si6 0.616922 0.607272 0.118564
Si Si7 0.623124 0.050003 0.723606
Si Si8 0.117112 0.794251 0.742051
O O1 0.591304 0.227365 0.806111
O O2 0.748829 0.105635 0.872214
O O3 0.829476 0.228416 0.817288
O O4 0.853807 0.222149 0.089205
O O5 0.457436 0.869096 0.799521
O O6 0.202929 0.870972 0.759870
O O7 0.332538 0.997159 0.807733
O O8 0.467869 0.890590 0.041655
O O9 0.282846 0.366940 0.162733
O O10 0.483944 0.465670 0.218853
O O11 0.675151 0.758654 0.950969
O O12 0.588742 0.820769 0.688491
O O13 0.258922 0.129226 0.398223
O O14 0.058199 0.197065 0.399543
O O15 0.691049 0.533318 0.238740
O O16 0.450616 0.588575 0.950485
#
# Coordination Sequence:
#
# PCOD8123799 Si02
#       8
#     4   4   4   4   4   4   4   4
#     4  11  22  41  64  90 122 165 210 255 304 374
#     4  10  21  37  64  89 119 156 206 253 301 368
#     4  10  19  38  62  92 115 154 205 254 302 364
#     4  11  21  35  63  89 114 157 208 250 303 362
#     4  11  25  38  61  87 128 161 197 260 309 378
#     4  10  21  36  62  91 118 153 203 258 310 362
#     4  10  18  37  64  90 117 153 205 262 302 364
#     4  11  25  40  61  91 131 165 201 256 320 370
#
# _framework density 19.338263000000001
#
# number of rings (size 3 to 8) (size 9 to 14) (size 15 to 20)
#    0.000    1.500    5.000    0.750    5.250    0.500 
#    0.000    0.625    5.500    0.000    0.000    0.000 
#    0.000    0.000    0.000    0.000    0.000    0.000 
#
# Total GULP energy -396700.098787 kJ/mol
# GULP energy per Si atom -12396.878087 kJ/mol
# Density = 1.929425 g / cm^3
# Si number density = 19.338263 Si / 1000 Ang^3
#
#
#
# Elastic Constant Matrix: (Units=GPa)
#
#
# Indices 1 2 3 4 5 6 
#
# 1 81.1250 31.7185 42.1146 0.0000 8.6423 0.0000
# 2 31.7185 68.0246 24.2324 0.0000 1.9281 0.0000
# 3 42.1146 24.2324 93.1121 0.0000 1.3374 0.0000
# 4 0.0000 0.0000 0.0000 29.5404 0.0000 -10.4962
# 5 8.6423 1.9281 1.3374 0.0000 37.4923 0.0000
# 6 0.0000 0.0000 0.0000 -10.4962 0.0000 19.1312
#
#
#
# Elastic Compliance Matrix: (Units=1/GPa)
#
#
# Indices 1 2 3 4 5 6 
#
# 1 0.018660 -0.006180 -0.006778 0.000000 -0.003742 0.000000
# 2 -0.006180 0.018267 -0.001967 0.000000 0.000555 0.000000
# 3 -0.006778 -0.001967 0.014301 0.000000 0.001153 0.000000
# 4 0.000000 0.000000 0.000000 0.042049 0.000000 0.023070
# 5 -0.003742 0.000555 0.001153 0.000000 0.027465 0.000000
# 6 0.000000 0.000000 0.000000 0.023070 0.000000 0.064928
#
#
# Mechanical properties :
#
#
# Convention : Reuss Voigt Hill
#
# Bulk Modulus (GPa) = 46.77626 48.71028 47.74327
# Shear Modulus (GPa) = 22.45722 26.84588 24.65155
#
# Velocity S-wave (km/s) = 3.41146 3.72993 3.57424
# Velocity P-wave (km/s) = 6.30542 6.61764 6.46341
#
# Compressibility (1/GPa) = 0.02137837
#
# Stress axis : x y z
#
# Youngs Moduli (GPa) = 53.58978 54.74297 69.92711
#
# Poissons Ratio (x) = 0.33833 0.47396
# Poissons Ratio (y) = 0.33120 0.13752
# Poissons Ratio (z) = 0.36322 0.10766
#
# Static dielectric constant tensor:
#      x y z
#    x 3.382020 0.000000 -0.305000 
#    y 0.000000 3.540120 0.000000 
#    z -0.305000 0.000000 3.535800 
# 
# 
# High freq. dielectric constant tensor:
#      x y z
#    x 1.739760 0.000000 -0.027530 
#    y 0.000000 1.759020 0.000000 
#    z -0.027530 0.000000 1.741150 
# 
# From -- ./inp_files/30312.got.cif
#   From: 2010.03.12/outbox.cif.g09.slc.cpg/sg14_16_cif.got.tgz:30312.got - 2010.03.31 13:35:05.
