data_PCOD8123565
_publ_section_title
;
Structure prediction by ZEFSAII (Michael W. Deem and Ramdas Pophale) SiO2 
 PCOD8123565
Probable space group: P 21/C
;
_chemical_formula_sum "Si O2"
_cell_formula_units_Z 32
_cell_length_a 11.535349
_cell_length_b 9.021591
_cell_length_c 20.500575
_cell_angle_alpha 90.000000
_cell_angle_beta 126.269734
_cell_angle_gamma 90.000000
_cell_volume 1720.064523
_symmetry_space_group_name_H-M "P 21/C"
_symmetry_group_IT_number 14
_symmetry_cell_setting 'monoclinic'
loop_
_space_group_symop_operation_xyz
x,y,z
-x,1/2+y,1/2-z
-x,-y,-z
x,1/2-y,1/2+z
loop_
_atom_site_type_symbol
_atom_site_label
_atom_site_fract_x
_atom_site_fract_y
_atom_site_fract_z
Si Si1 0.952360 0.089919 0.422150
Si Si2 0.792335 0.631621 0.231386
Si Si3 0.216509 0.036345 0.809995
Si Si4 0.371545 0.945612 0.218286
Si Si5 0.348342 0.600360 0.238623
Si Si6 0.127236 0.889423 0.041673
Si Si7 0.885916 0.354618 0.612215
Si Si8 0.096996 0.525286 0.849421
O O1 0.796356 0.038504 0.344373
O O2 0.936042 0.260111 0.434475
O O3 0.000000 0.000000 0.500000
O O4 0.079820 0.062133 0.412131
O O5 0.740999 0.795630 0.193492
O O6 0.677045 0.550843 0.238669
O O7 0.790404 0.551549 0.160892
O O8 0.942923 0.622667 0.320870
O O9 0.055048 0.008967 0.735161
O O10 0.328437 0.931085 0.808985
O O11 0.211055 0.981612 0.884042
O O12 0.379086 0.774104 0.241585
O O13 0.267856 0.960436 0.121269
O O14 0.527335 0.000618 0.249883
O O15 0.161194 0.847504 0.978716
O O16 0.000000 0.000000 0.000000
O O17 0.848021 0.192677 0.626637
#
# Coordination Sequence:
#
# PCOD8123565 Si02
#       8
#     4   4   4   4   4   4   4   4
#     4  10  20  36  57  86 114 145 182 228 282 334
#     4  10  19  32  55  81 111 147 187 229 273 330
#     4   9  19  32  54  80 111 145 187 228 273 326
#     4  11  22  38  58  81 112 149 190 228 279 333
#     4  10  22  37  57  82 110 149 190 231 271 336
#     4  11  22  33  56  87 118 145 183 231 285 331
#     4  10  18  33  52  83 116 144 180 231 282 325
#     4   9  18  31  53  81 113 146 181 228 275 325
#
# _framework density 18.603953000000001
#
# number of rings (size 3 to 8) (size 9 to 14) (size 15 to 20)
#    0.000    2.000    2.500    1.500    1.750    4.000 
#    0.000    0.625    0.000    0.750    0.000    0.000 
#    0.000    0.000    0.000    0.000    0.000    0.000 
#
# Total GULP energy -396558.356125 kJ/mol
# GULP energy per Si atom -12392.448629 kJ/mol
# Density = 1.856161 g / cm^3
# Si number density = 18.603953 Si / 1000 Ang^3
#
#
#
# Elastic Constant Matrix: (Units=GPa)
#
#
# Indices 1 2 3 4 5 6 
#
# 1 99.9982 46.0875 35.7329 0.0000 -14.9246 0.0000
# 2 46.0875 78.6957 12.5481 0.0000 -2.1272 0.0000
# 3 35.7329 12.5481 51.9239 0.0000 -16.2530 0.0000
# 4 0.0000 0.0000 0.0000 23.9205 0.0000 -6.5127
# 5 -14.9246 -2.1272 -16.2530 0.0000 29.5725 0.0000
# 6 0.0000 0.0000 0.0000 -6.5127 0.0000 38.6724
#
#
#
# Elastic Compliance Matrix: (Units=1/GPa)
#
#
# Indices 1 2 3 4 5 6 
#
# 1 0.017860 -0.008921 -0.009076 0.000000 0.003384 0.000000
# 2 -0.008921 0.017695 0.001029 0.000000 -0.002664 0.000000
# 3 -0.009076 0.001029 0.028800 0.000000 0.011322 0.000000
# 4 0.000000 0.000000 0.000000 0.043814 0.000000 0.007379
# 5 0.003384 -0.002664 0.011322 0.000000 0.041554 0.000000
# 6 0.000000 0.000000 0.000000 0.007379 0.000000 0.027101
#
#
# Mechanical properties :
#
#
# Convention : Reuss Voigt Hill
#
# Bulk Modulus (GPa) = 32.87296 46.59497 39.73396
# Shear Modulus (GPa) = 22.63478 27.51637 25.07557
#
# Velocity S-wave (km/s) = 3.49186 3.85003 3.67531
# Velocity P-wave (km/s) = 5.82801 6.69804 6.27811
#
# Compressibility (1/GPa) = 0.03042014
#
# Stress axis : x y z
#
# Youngs Moduli (GPa) = 55.99205 56.51159 34.72228
#
# Poissons Ratio (x) = 0.50413 0.31513
# Poissons Ratio (y) = 0.49949 -0.03573
# Poissons Ratio (z) = 0.50816 -0.05815
#
# Static dielectric constant tensor:
#      x y z
#    x 3.673740 0.000000 -0.266560 
#    y 0.000000 3.245520 0.000000 
#    z -0.266560 0.000000 3.212720 
# 
# 
# High freq. dielectric constant tensor:
#      x y z
#    x 1.715510 0.000000 -0.031250 
#    y 0.000000 1.735120 0.000000 
#    z -0.031250 0.000000 1.699920 
# 
# From -- ./inp_files/66869.got.cif
#   From: 2010.03.12/outbox.cif.g09.slc.cpg/sg14_34_cif.got.tgz:66869.got - 2010.03.31 13:35:05.
