data_PCOD8123702
_publ_section_title
;
Structure prediction by ZEFSAII (Michael W. Deem and Ramdas Pophale) SiO2 
 PCOD8123702
Probable space group: P 21/C
;
_chemical_formula_sum "Si O2"
_cell_formula_units_Z 32
_cell_length_a 8.089270
_cell_length_b 15.018168
_cell_length_c 13.546471
_cell_angle_alpha 90.000000
_cell_angle_beta 107.049431
_cell_angle_gamma 90.000000
_cell_volume 1573.381534
_symmetry_space_group_name_H-M "P 21/C"
_symmetry_group_IT_number 14
_symmetry_cell_setting 'monoclinic'
loop_
_space_group_symop_operation_xyz
x,y,z
-x,1/2+y,1/2-z
-x,-y,-z
x,1/2-y,1/2+z
loop_
_atom_site_type_symbol
_atom_site_label
_atom_site_fract_x
_atom_site_fract_y
_atom_site_fract_z
Si Si1 0.613089 0.695592 0.445397
Si Si2 0.941988 0.924809 0.766946
Si Si3 0.218733 0.336152 0.149023
Si Si4 0.096370 0.710401 0.047503
Si Si5 0.172243 0.250111 0.342790
Si Si6 0.874230 0.021275 0.389741
Si Si7 0.258737 0.860189 0.955568
Si Si8 0.807778 0.982135 0.931354
O O1 0.629151 0.771055 0.362858
O O2 0.659413 0.738451 0.559127
O O3 0.418434 0.658866 0.410761
O O4 0.747518 0.615943 0.451153
O O5 0.820343 0.848454 0.701044
O O6 0.816546 0.985949 0.813252
O O7 0.021016 0.984501 0.694674
O O8 0.092134 0.879596 0.859763
O O9 0.179398 0.322778 0.257615
O O10 0.267951 0.441419 0.141797
O O11 0.046880 0.315813 0.057436
O O12 0.197781 0.621574 0.105110
O O13 0.003712 0.759842 0.123508
O O14 0.233312 0.775176 0.021485
O O15 0.000000 0.000000 0.500000
O O16 0.309803 0.942481 0.037421
O O17 0.000000 0.000000 0.000000
#
# Coordination Sequence:
#
# PCOD8123702 Si02
#       8
#     4   4   4   4   4   4   4   4
#     4  11  23  38  58  87 126 156 191 250 313 354
#     4  10  19  37  64  90 111 156 207 244 288 363
#     4  10  18  36  60  83 114 155 198 238 292 365
#     4   9  19  37  56  87 110 151 201 251 289 347
#     4  10  18  35  61  81 111 154 200 240 290 353
#     4   9  20  34  60  88 114 144 201 252 286 336
#     4  11  22  38  58  88 124 153 190 258 309 350
#     4  10  20  37  61  89 113 154 200 249 296 357
#
# _framework density 20.338360999999999
#
# number of rings (size 3 to 8) (size 9 to 14) (size 15 to 20)
#    0.000    2.000    2.500    3.375    5.250    0.000 
#    4.500    0.625    0.000    0.000    0.000    0.000 
#    0.000    0.000    0.000    0.000    0.000    0.000 
#
# Total GULP energy -396561.713149 kJ/mol
# GULP energy per Si atom -12392.553536 kJ/mol
# Density = 2.029207 g / cm^3
# Si number density = 20.338361 Si / 1000 Ang^3
#
#
#
# Elastic Constant Matrix: (Units=GPa)
#
#
# Indices 1 2 3 4 5 6 
#
# 1 61.7872 29.1217 19.3806 0.0000 -15.0670 0.0000
# 2 29.1217 112.7903 35.5996 0.0000 -15.7329 0.0000
# 3 19.3806 35.5996 104.5786 0.0000 -28.0992 0.0000
# 4 0.0000 0.0000 0.0000 33.3535 0.0000 -11.8800
# 5 -15.0670 -15.7329 -28.0992 0.0000 21.8635 0.0000
# 6 0.0000 0.0000 0.0000 -11.8800 0.0000 28.1577
#
#
#
# Elastic Compliance Matrix: (Units=1/GPa)
#
#
# Indices 1 2 3 4 5 6 
#
# 1 0.020835 -0.003885 0.000868 0.000000 0.012678 0.000000
# 2 -0.003885 0.010927 -0.002454 0.000000 0.002032 0.000000
# 3 0.000868 -0.002454 0.015157 0.000000 0.018312 0.000000
# 4 0.000000 0.000000 0.000000 0.035284 0.000000 0.014887
# 5 0.012678 0.002032 0.018312 0.000000 0.079472 0.000000
# 6 0.000000 0.000000 0.000000 0.014887 0.000000 0.041795
#
#
# Mechanical properties :
#
#
# Convention : Reuss Voigt Hill
#
# Bulk Modulus (GPa) = 27.79540 49.70664 38.75102
# Shear Modulus (GPa) = 22.08434 29.67856 25.88145
#
# Velocity S-wave (km/s) = 3.29879 3.82414 3.57114
# Velocity P-wave (km/s) = 5.31089 6.63262 6.00821
#
# Compressibility (1/GPa) = 0.03597718
#
# Stress axis : x y z
#
# Youngs Moduli (GPa) = 47.99620 91.51654 65.97661
#
# Poissons Ratio (x) = 0.35553 -0.05725
# Poissons Ratio (y) = 0.18646 0.16188
# Poissons Ratio (z) = -0.04165 0.22455
#
# Static dielectric constant tensor:
#      x y z
#    x 3.262760 0.000000 -0.412670 
#    y 0.000000 4.273190 0.000000 
#    z -0.412670 0.000000 3.969810 
# 
# 
# High freq. dielectric constant tensor:
#      x y z
#    x 1.744000 0.000000 -0.030660 
#    y 0.000000 1.807510 0.000000 
#    z -0.030660 0.000000 1.803070 
# 
# From -- ./inp_files/40983.got.cif
#   From: 2010.03.12/outbox.cif.g09.slc.cpg/sg14_21_cif.got.tgz:40983.got - 2010.03.31 13:35:05.
