data_PCOD8123939
_publ_section_title
;
Structure prediction by ZEFSAII (Michael W. Deem and Ramdas Pophale) SiO2 
 PCOD8123939
Probable space group: P 21/C
;
_chemical_formula_sum "Si O2"
_cell_formula_units_Z 32
_cell_length_a 27.283726
_cell_length_b 8.563201
_cell_length_c 21.842616
_cell_angle_alpha 90.000000
_cell_angle_beta 160.703040
_cell_angle_gamma 90.000000
_cell_volume 1686.432795
_symmetry_space_group_name_H-M "P 21/C"
_symmetry_group_IT_number 14
_symmetry_cell_setting 'monoclinic'
loop_
_space_group_symop_operation_xyz
x,y,z
-x,1/2+y,1/2-z
-x,-y,-z
x,1/2-y,1/2+z
loop_
_atom_site_type_symbol
_atom_site_label
_atom_site_fract_x
_atom_site_fract_y
_atom_site_fract_z
Si Si1 0.772977 0.890066 0.172425
Si Si2 0.453554 0.930113 0.852948
Si Si3 0.143797 0.720688 0.268687
Si Si4 0.157084 0.321081 0.636883
Si Si5 0.451168 0.239407 0.916609
Si Si6 0.666757 0.339680 0.908646
Si Si7 0.384209 0.357885 0.076613
Si Si8 0.670314 0.431195 0.096289
O O1 0.858353 0.816253 0.330849
O O2 0.866864 0.035821 0.257096
O O3 0.608679 0.936767 0.000168
O O4 0.752971 0.763678 0.094012
O O5 0.330065 0.855736 0.661489
O O6 0.413226 0.106586 0.822496
O O7 0.455207 0.826667 0.915930
O O8 0.188006 0.755815 0.391630
O O9 0.272344 0.787295 0.376279
O O10 0.991631 0.813171 0.078036
O O11 0.294818 0.303333 0.753911
O O12 0.184704 0.489510 0.701066
O O13 0.549598 0.375865 0.003087
O O14 0.656403 0.516575 0.920538
O O15 0.529418 0.234242 0.769337
O O16 0.411243 0.439802 0.042199
#
# Coordination Sequence:
#
# PCOD8123939 Si02
#       8
#     4   4   4   4   4   4   4   4
#     4   9  17  34  52  81 106 139 188 225 267 320
#     4   9  18  33  56  80 102 140 187 227 267 321
#     4  11  20  34  55  80 113 149 168 224 284 325
#     4  10  21  33  53  83 115 137 181 226 270 330
#     4  10  19  35  59  78 104 142 185 231 266 313
#     4  10  19  32  52  78 114 139 177 222 277 325
#     4   9  19  30  54  84 107 135 184 238 265 319
#     4  10  20  35  57  85 105 138 186 229 274 310
#
# _framework density 18.974964
#
# number of rings (size 3 to 8) (size 9 to 14) (size 15 to 20)
#    0.000    2.250    1.250    3.375    1.750    0.000 
#    0.000    0.000    5.500    0.000    0.000    0.000 
#    0.000    0.000    0.000    0.000    0.000    0.000 
#
# Total GULP energy -396694.183791 kJ/mol
# GULP energy per Si atom -12396.693243 kJ/mol
# Density = 1.893178 g / cm^3
# Si number density = 18.974964 Si / 1000 Ang^3
#
#
#
# Elastic Constant Matrix: (Units=GPa)
#
#
# Indices 1 2 3 4 5 6 
#
# 1 54.5385 27.6494 28.0218 0.0000 -17.2616 0.0000
# 2 27.6494 82.8629 21.8628 0.0000 -3.1674 0.0000
# 3 28.0218 21.8628 104.8099 0.0000 -22.5163 0.0000
# 4 0.0000 0.0000 0.0000 21.9619 0.0000 -5.8961
# 5 -17.2616 -3.1674 -22.5163 0.0000 22.8747 0.0000
# 6 0.0000 0.0000 0.0000 -5.8961 0.0000 29.9098
#
#
#
# Elastic Compliance Matrix: (Units=1/GPa)
#
#
# Indices 1 2 3 4 5 6 
#
# 1 0.029926 -0.008712 -0.002018 0.000000 0.019390 0.000000
# 2 -0.008712 0.015328 -0.002314 0.000000 -0.006729 0.000000
# 3 -0.002018 -0.002314 0.012894 0.000000 0.010848 0.000000
# 4 0.000000 0.000000 0.000000 0.048078 0.000000 0.009478
# 5 0.019390 -0.006729 0.010848 0.000000 0.068095 0.000000
# 6 0.000000 0.000000 0.000000 0.009478 0.000000 0.035302
#
#
# Mechanical properties :
#
#
# Convention : Reuss Voigt Hill
#
# Bulk Modulus (GPa) = 31.19118 44.14215 37.66667
# Shear Modulus (GPa) = 20.29232 25.92776 23.11004
#
# Velocity S-wave (km/s) = 3.27376 3.70052 3.49366
# Velocity P-wave (km/s) = 5.54651 6.44766 6.01399
#
# Compressibility (1/GPa) = 0.03206035
#
# Stress axis : x y z
#
# Youngs Moduli (GPa) = 33.41541 65.23839 77.55602
#
# Poissons Ratio (x) = 0.56836 0.15653
# Poissons Ratio (y) = 0.29112 0.17945
# Poissons Ratio (z) = 0.06744 0.15095
#
# Static dielectric constant tensor:
#      x y z
#    x 3.314110 0.000000 -0.414290 
#    y 0.000000 3.690740 0.000000 
#    z -0.414290 0.000000 3.374430 
# 
# 
# High freq. dielectric constant tensor:
#      x y z
#    x 1.707210 0.000000 -0.031880 
#    y 0.000000 1.754510 0.000000 
#    z -0.031880 0.000000 1.719130 
# 
# From -- ./inp_files/70472.got.cif
#   From: 2010.03.12/outbox.cif.g09.slc.cpg/sg14_36_cif.got.tgz:70472.got - 2010.03.31 13:35:05.
