data_PCOD8123964
_publ_section_title
;
Structure prediction by ZEFSAII (Michael W. Deem and Ramdas Pophale) SiO2 
 PCOD8123964
Probable space group: P 21/C
;
_chemical_formula_sum "Si O2"
_cell_formula_units_Z 32
_cell_length_a 18.041534
_cell_length_b 16.500401
_cell_length_c 9.665694
_cell_angle_alpha 90.000000
_cell_angle_beta 35.629114
_cell_angle_gamma 90.000000
_cell_volume 1676.192202
_symmetry_space_group_name_H-M "P 21/C"
_symmetry_group_IT_number 14
_symmetry_cell_setting 'monoclinic'
loop_
_space_group_symop_operation_xyz
x,y,z
-x,1/2+y,1/2-z
-x,-y,-z
x,1/2-y,1/2+z
loop_
_atom_site_type_symbol
_atom_site_label
_atom_site_fract_x
_atom_site_fract_y
_atom_site_fract_z
Si Si1 0.353956 0.567063 0.162976
Si Si2 0.162012 0.800939 0.909554
Si Si3 0.603520 0.192880 0.920442
Si Si4 0.553611 0.766010 0.097452
Si Si5 0.620279 0.608877 0.840373
Si Si6 0.051084 0.817268 0.370448
Si Si7 0.227214 0.380206 0.650281
Si Si8 0.730875 0.063049 0.894742
O O1 0.241665 0.616218 0.255063
O O2 0.358289 0.474170 0.104790
O O3 0.333734 0.568873 0.358319
O O4 0.495122 0.605008 0.929274
O O5 0.262504 0.735425 0.809058
O O6 0.086516 0.769348 0.888662
O O7 0.064602 0.813091 0.184173
O O8 0.540295 0.189451 0.866503
O O9 0.629851 0.103022 0.940892
O O10 0.518164 0.248702 0.150503
O O11 0.609388 0.680782 0.963771
O O12 0.671610 0.825122 0.926772
O O13 0.744134 0.620551 0.556817
O O14 0.139221 0.886429 0.302207
O O15 0.908777 0.841200 0.620521
O O16 0.236478 0.471257 0.697785
#
# Coordination Sequence:
#
# PCOD8123964 Si02
#       8
#     4   4   4   4   4   4   4   4
#     4   9  16  33  58  83 108 141 193 221 281 333
#     4  10  19  36  59  85 104 147 189 242 267 321
#     4  11  20  36  59  86 113 140 188 230 288 330
#     4  12  21  35  57  84 118 144 178 233 282 344
#     4  10  19  32  56  84 111 147 177 230 273 348
#     4  10  22  36  60  80 112 148 197 233 269 328
#     4  11  23  35  56  83 114 153 186 223 288 333
#     4   9  19  37  57  82 108 147 193 238 266 330
#
# _framework density 19.090889000000001
#
# number of rings (size 3 to 8) (size 9 to 14) (size 15 to 20)
#    0.000    1.750    3.750    1.875    1.750    0.500 
#    0.000    0.000    5.500    0.750    0.000    0.000 
#    0.000    0.000    0.000    0.000    0.000    0.000 
#
# Total GULP energy -396709.418891 kJ/mol
# GULP energy per Si atom -12397.169340 kJ/mol
# Density = 1.904744 g / cm^3
# Si number density = 19.090889 Si / 1000 Ang^3
#
#
#
# Elastic Constant Matrix: (Units=GPa)
#
#
# Indices 1 2 3 4 5 6 
#
# 1 27.3478 10.6384 0.7692 0.0000 -12.0554 0.0000
# 2 10.6384 93.5183 5.8259 0.0000 -10.0893 0.0000
# 3 0.7692 5.8259 94.8041 0.0000 -10.7216 0.0000
# 4 0.0000 0.0000 0.0000 28.4663 0.0000 -3.8397
# 5 -12.0554 -10.0893 -10.7216 0.0000 20.6560 0.0000
# 6 0.0000 0.0000 0.0000 -3.8397 0.0000 23.7254
#
#
#
# Elastic Compliance Matrix: (Units=1/GPa)
#
#
# Indices 1 2 3 4 5 6 
#
# 1 0.050721 -0.002740 0.003137 0.000000 0.029892 0.000000
# 2 -0.002740 0.011436 -0.000244 0.000000 0.003860 0.000000
# 3 0.003137 -0.000244 0.011400 0.000000 0.007629 0.000000
# 4 0.000000 0.000000 0.000000 0.035913 0.000000 0.005812
# 5 0.029892 0.003860 0.007629 0.000000 0.071704 0.000000
# 6 0.000000 0.000000 0.000000 0.005812 0.000000 0.043089
#
#
# Mechanical properties :
#
#
# Convention : Reuss Voigt Hill
#
# Bulk Modulus (GPa) = 13.53841 27.79300 20.66571
# Shear Modulus (GPa) = 20.11432 27.79867 23.95649
#
# Velocity S-wave (km/s) = 3.24945 3.82006 3.54625
# Velocity P-wave (km/s) = 4.60278 5.83498 5.25512
#
# Compressibility (1/GPa) = 0.07386390
#
# Stress axis : x y z
#
# Youngs Moduli (GPa) = 19.71576 87.43952 87.71601
#
# Poissons Ratio (x) = 0.23962 -0.27520
# Poissons Ratio (y) = 0.05403 0.02140
# Poissons Ratio (z) = -0.06186 0.02134
#
# Static dielectric constant tensor:
#      x y z
#    x 3.194250 0.000000 -0.006470 
#    y 0.000000 3.845040 0.000000 
#    z -0.006470 0.000000 3.515490 
# 
# 
# High freq. dielectric constant tensor:
#      x y z
#    x 1.700620 0.000000 0.001030 
#    y 0.000000 1.752950 0.000000 
#    z 0.001030 0.000000 1.751150 
# 
# From -- ./inp_files/35386.got.cif
#   From: 2010.03.12/outbox.cif.g09.slc.cpg/sg14_18_cif.got.tgz:35386.got - 2010.03.31 13:35:05.
