data_PCOD8123770
_publ_section_title
;
Structure prediction by ZEFSAII (Michael W. Deem and Ramdas Pophale) SiO2 
 PCOD8123770
Probable space group: P 21/C
;
_chemical_formula_sum "Si O2"
_cell_formula_units_Z 28
_cell_length_a 16.877879
_cell_length_b 13.975235
_cell_length_c 10.942410
_cell_angle_alpha 90.000000
_cell_angle_beta 146.696144
_cell_angle_gamma 90.000000
_cell_volume 1417.179490
_symmetry_space_group_name_H-M "P 21/C"
_symmetry_group_IT_number 14
_symmetry_cell_setting 'monoclinic'
loop_
_space_group_symop_operation_xyz
x,y,z
-x,1/2+y,1/2-z
-x,-y,-z
x,1/2-y,1/2+z
loop_
_atom_site_type_symbol
_atom_site_label
_atom_site_fract_x
_atom_site_fract_y
_atom_site_fract_z
Si Si1 0.959706 0.198668 0.535027
Si Si2 0.836087 0.108532 0.950658
Si Si3 0.702351 0.172766 0.029646
Si Si4 0.129460 0.434507 0.115443
Si Si5 0.678516 0.111618 0.512070
Si Si6 0.443539 0.502401 0.565426
Si Si7 0.941869 0.461286 0.204464
O O1 0.952627 0.310357 0.559546
O O2 0.806169 0.168732 0.280757
O O3 0.987104 0.133991 0.689640
O O4 0.086462 0.174752 0.598663
O O5 0.695329 0.106629 0.680843
O O6 0.781729 0.127347 0.016446
O O7 0.916526 0.006322 0.050206
O O8 0.654309 0.279986 0.935324
O O9 0.563526 0.110911 0.892636
O O10 0.284366 0.457548 0.372367
O O11 0.132109 0.455009 0.974008
O O12 0.000000 0.500000 0.000000
O O13 0.829617 0.069696 0.661568
O O14 0.544522 0.053441 0.289146
O O15 0.500000 0.500000 0.500000
#
# Coordination Sequence:
#
# PCOD8123770 Si02
#       7
#     4   4   4   4   4   4   4
#     4  10  19  38  66  97 120 173 228 259 315 400
#     4  11  23  37  69  94 138 173 213 276 335 390
#     4  11  21  42  67  92 128 183 215 264 333 395
#     4  10  18  36  68  94 122 160 230 268 310 375
#     4  11  25  39  62  97 136 169 220 264 339 397
#     4  12  23  42  71  95 131 175 226 272 319 402
#     4  11  18  39  64  98 124 168 220 270 314 390
#
# _framework density 19.757555
#
# number of rings (size 3 to 8) (size 9 to 14) (size 15 to 20)
#    0.000    1.143    7.143    1.286    2.000    0.571 
#    2.571    0.000    0.000    0.000    0.000    0.000 
#    0.000    0.000    0.000    0.000    0.000    0.000 
#
# Total GULP energy -347097.339668 kJ/mol
# GULP energy per Si atom -12396.333560 kJ/mol
# Density = 1.971259 g / cm^3
# Si number density = 19.757555 Si / 1000 Ang^3
#
#
#
# Elastic Constant Matrix: (Units=GPa)
#
#
# Indices 1 2 3 4 5 6 
#
# 1 74.4804 45.4877 18.6198 0.0000 0.6060 0.0000
# 2 45.4877 113.7575 56.5714 0.0000 4.5604 0.0000
# 3 18.6198 56.5714 102.3510 0.0000 4.0592 0.0000
# 4 0.0000 0.0000 0.0000 36.5130 0.0000 3.2125
# 5 0.6060 4.5604 4.0592 0.0000 24.5035 0.0000
# 6 0.0000 0.0000 0.0000 3.2125 0.0000 35.8679
#
#
#
# Elastic Compliance Matrix: (Units=1/GPa)
#
#
# Indices 1 2 3 4 5 6 
#
# 1 0.017850 -0.007639 0.000942 0.000000 0.000824 0.000000
# 2 -0.007639 0.015425 -0.007076 0.000000 -0.001510 0.000000
# 3 0.000942 -0.007076 0.013548 0.000000 -0.000951 0.000000
# 4 0.000000 0.000000 0.000000 0.027605 0.000000 -0.002472
# 5 0.000824 -0.001510 -0.000951 0.000000 0.041229 0.000000
# 6 0.000000 0.000000 0.000000 -0.002472 0.000000 0.028102
#
#
# Mechanical properties :
#
#
# Convention : Reuss Voigt Hill
#
# Bulk Modulus (GPa) = 51.87677 59.10519 55.49098
# Shear Modulus (GPa) = 28.13297 30.70423 29.41860
#
# Velocity S-wave (km/s) = 3.77757 3.94642 3.86292
# Velocity P-wave (km/s) = 6.73352 7.12361 6.93131
#
# Compressibility (1/GPa) = 0.01927645
#
# Stress axis : x y z
#
# Youngs Moduli (GPa) = 56.02397 64.83155 73.81411
#
# Poissons Ratio (x) = 0.49525 -0.06956
# Poissons Ratio (y) = 0.42797 0.52230
# Poissons Ratio (z) = -0.05280 0.45874
#
# Static dielectric constant tensor:
#      x y z
#    x 3.777590 0.000000 -0.135650 
#    y 0.000000 3.926580 0.000000 
#    z -0.135650 0.000000 3.474290 
# 
# 
# High freq. dielectric constant tensor:
#      x y z
#    x 1.767790 0.000000 -0.019270 
#    y 0.000000 1.767650 0.000000 
#    z -0.019270 0.000000 1.753240 
# 
# From -- ./inp_files/34098.got.cif
#   From: 2010.03.12/outbox.cif.g09.slc.cpg/sg14_18_cif.got.tgz:34098.got - 2010.03.31 13:35:05.
