data_PCOD8123482
_publ_section_title
;
Structure prediction by ZEFSAII (Michael W. Deem and Ramdas Pophale) SiO2 
 PCOD8123482
Probable space group: P 21/C
;
_chemical_formula_sum "Si O2"
_cell_formula_units_Z 32
_cell_length_a 15.254783
_cell_length_b 18.157005
_cell_length_c 9.853726
_cell_angle_alpha 90.000000
_cell_angle_beta 139.381352
_cell_angle_gamma 90.000000
_cell_volume 1776.830206
_symmetry_space_group_name_H-M "P 21/C"
_symmetry_group_IT_number 14
_symmetry_cell_setting 'monoclinic'
loop_
_space_group_symop_operation_xyz
x,y,z
-x,1/2+y,1/2-z
-x,-y,-z
x,1/2-y,1/2+z
loop_
_atom_site_type_symbol
_atom_site_label
_atom_site_fract_x
_atom_site_fract_y
_atom_site_fract_z
Si Si1 0.429073 0.599712 0.516323
Si Si2 0.475819 0.896013 0.371242
Si Si3 0.672264 0.948667 0.806009
Si Si4 0.949695 0.568023 0.027512
Si Si5 0.068136 0.971304 0.945569
Si Si6 0.216312 0.820541 0.121760
Si Si7 0.169293 0.689522 0.257770
Si Si8 0.347087 0.069122 0.917731
O O1 0.504121 0.618927 0.745944
O O2 0.299585 0.650660 0.346307
O O3 0.536660 0.614218 0.523776
O O4 0.372706 0.517560 0.440936
O O5 0.615747 0.896463 0.619124
O O6 0.377652 0.834074 0.321633
O O7 0.404105 0.974530 0.292116
O O8 0.647904 0.906467 0.919394
O O9 0.830893 0.963659 0.981392
O O10 0.963359 0.545910 0.201897
O O11 0.038501 0.638390 0.088926
O O12 0.795341 0.587915 0.817861
O O13 0.000000 0.500000 0.000000
O O14 0.146805 0.897490 0.073107
O O15 0.000000 0.000000 0.000000
O O16 0.154028 0.764678 0.157069
O O17 0.186240 0.791459 0.935559
#
# Coordination Sequence:
#
# PCOD8123482 Si02
#       8
#     4   4   4   4   4   4   4   4
#     4   9  18  31  52  78 104 136 174 220 263 323
#     4   8  16  31  50  73 104 132 165 213 268 305
#     4   9  16  30  49  76 107 133 160 218 268 312
#     4  11  19  35  55  80 114 146 177 232 276 317
#     4  10  21  34  53  82 112 140 184 225 271 333
#     4   9  20  37  55  78 105 142 183 225 269 328
#     4  10  20  37  57  76 109 144 184 226 273 326
#     4  10  18  31  51  81 110 134 175 218 273 316
#
# _framework density 18.009599000000001
#
# number of rings (size 3 to 8) (size 9 to 14) (size 15 to 20)
#    0.000    2.500    2.500    1.500    1.750    2.000 
#    2.250    0.000    2.750    0.000    0.000    0.000 
#    0.000    0.000    0.000    0.000    0.000    0.000 
#
# Total GULP energy -396655.418932 kJ/mol
# GULP energy per Si atom -12395.481842 kJ/mol
# Density = 1.796861 g / cm^3
# Si number density = 18.009599 Si / 1000 Ang^3
#
#
#
# Elastic Constant Matrix: (Units=GPa)
#
#
# Indices 1 2 3 4 5 6 
#
# 1 131.6501 36.8429 54.8943 0.0000 -11.2251 0.0000
# 2 36.8429 52.4140 28.5234 0.0000 -9.9345 0.0000
# 3 54.8943 28.5234 117.3719 0.0000 1.8517 0.0000
# 4 0.0000 0.0000 0.0000 16.6426 0.0000 -4.7749
# 5 -11.2251 -9.9345 1.8517 0.0000 25.9639 0.0000
# 6 0.0000 0.0000 0.0000 -4.7749 0.0000 34.1841
#
#
#
# Elastic Compliance Matrix: (Units=1/GPa)
#
#
# Indices 1 2 3 4 5 6 
#
# 1 0.010880 -0.004913 -0.003943 0.000000 0.003105 0.000000
# 2 -0.004913 0.026418 -0.004253 0.000000 0.008287 0.000000
# 3 -0.003943 -0.004253 0.011463 0.000000 -0.004150 0.000000
# 4 0.000000 0.000000 0.000000 0.062595 0.000000 0.008743
# 5 0.003105 0.008287 -0.004150 0.000000 0.043324 0.000000
# 6 0.000000 0.000000 0.000000 0.008743 0.000000 0.030475
#
#
# Mechanical properties :
#
#
# Convention : Reuss Voigt Hill
#
# Bulk Modulus (GPa) = 44.36201 60.21748 52.28974
# Shear Modulus (GPa) = 22.84272 27.43648 25.13960
#
# Velocity S-wave (km/s) = 3.56527 3.90736 3.74023
# Velocity P-wave (km/s) = 6.45245 7.33931 6.91012
#
# Compressibility (1/GPa) = 0.02254181
#
# Stress axis : x y z
#
# Youngs Moduli (GPa) = 91.91218 37.85355 87.23529
#
# Poissons Ratio (x) = 0.18598 0.34401
# Poissons Ratio (y) = 0.45158 0.37100
# Poissons Ratio (z) = 0.36245 0.16098
#
# Static dielectric constant tensor:
#      x y z
#    x 3.434510 0.000000 -0.007800 
#    y 0.000000 3.000210 0.000000 
#    z -0.007800 0.000000 3.618230 
# 
# 
# High freq. dielectric constant tensor:
#      x y z
#    x 1.699230 0.000000 -0.007160 
#    y 0.000000 1.659870 0.000000 
#    z -0.007160 0.000000 1.701440 
# 
# From -- ./inp_files/16880.got.cif
#   From: 2010.03.12/outbox.cif.g09.slc.cpg/sg14_9_cif.got.tgz:16880.got - 2010.03.31 13:35:05.
