data_PCOD8123609
_publ_section_title
;
Structure prediction by ZEFSAII (Michael W. Deem and Ramdas Pophale) SiO2 
 PCOD8123609
Probable space group: P 21/C
;
_chemical_formula_sum "Si O2"
_cell_formula_units_Z 24
_cell_length_a 18.407847
_cell_length_b 9.162459
_cell_length_c 16.129467
_cell_angle_alpha 90.000000
_cell_angle_beta 28.807891
_cell_angle_gamma 90.000000
_cell_volume 1310.897917
_symmetry_space_group_name_H-M "P 21/C"
_symmetry_group_IT_number 14
_symmetry_cell_setting 'monoclinic'
loop_
_space_group_symop_operation_xyz
x,y,z
-x,1/2+y,1/2-z
-x,-y,-z
x,1/2-y,1/2+z
loop_
_atom_site_type_symbol
_atom_site_label
_atom_site_fract_x
_atom_site_fract_y
_atom_site_fract_z
Si Si1 0.249996 0.039594 0.909100
Si Si2 0.249997 0.786399 0.785148
Si Si3 0.001824 0.247884 0.087666
Si Si4 0.749962 0.954557 0.732215
Si Si5 0.249999 0.927188 0.088751
Si Si6 0.498206 0.252132 0.091303
O O1 0.399623 0.124358 0.733036
O O2 0.250020 0.879703 0.868623
O O3 0.100374 0.124346 0.032261
O O4 0.249970 0.025887 0.007670
O O5 0.102525 0.825811 0.878265
O O6 0.250055 0.615415 0.808581
O O7 0.397403 0.825866 0.583341
O O8 0.898373 0.324868 0.260834
O O9 0.101720 0.371151 0.944507
O O10 0.601649 0.871119 0.852152
O O11 0.749986 0.966486 0.831702
O O12 0.398379 0.824881 0.942391
#
# Coordination Sequence:
#
# PCOD8123609 Si02
#       6
#     4   4   4   4   4   4
#     4  11  22  34  54  83 106 130 174 227 262 292
#     4  10  18  34  56  76 104 142 174 210 256 314
#     4   9  20  37  54  76 106 141 176 208 256 318
#     4   9  18  36  58  75 102 146 180 201 250 324
#     4  10  20  34  54  78 106 136 172 216 262 306
#     4   9  20  37  54  76 106 141 176 208 256 318
#
# _framework density 18.308062
#
# number of rings (size 3 to 8) (size 9 to 14) (size 15 to 20)
#    0.000    2.667    0.000    5.000    0.000    5.333 
#    0.000    5.000    0.000    0.000    0.000    0.000 
#    0.000    0.000    0.000    0.000    0.000    0.000 
#
# Total GULP energy -297581.835635 kJ/mol
# GULP energy per Si atom -12399.243151 kJ/mol
# Density = 1.826639 g / cm^3
# Si number density = 18.308062 Si / 1000 Ang^3
#
#
#
# Elastic Constant Matrix: (Units=GPa)
#
#
# Indices 1 2 3 4 5 6 
#
# 1 97.4425 70.1469 64.2404 0.0000 1.1476 0.0000
# 2 70.1469 106.8927 59.3697 0.0000 11.0178 0.0000
# 3 64.2404 59.3697 110.1093 0.0000 -14.0760 0.0000
# 4 0.0000 0.0000 0.0000 20.7660 0.0000 8.2842
# 5 1.1476 11.0178 -14.0760 0.0000 31.5897 0.0000
# 6 0.0000 0.0000 0.0000 8.2842 0.0000 28.8527
#
#
#
# Elastic Compliance Matrix: (Units=1/GPa)
#
#
# Indices 1 2 3 4 5 6 
#
# 1 0.023195 -0.010876 -0.007731 0.000000 -0.000494 0.000000
# 2 -0.010876 0.020908 -0.006161 0.000000 -0.009642 0.000000
# 3 -0.007731 -0.006161 0.018265 0.000000 0.010568 0.000000
# 4 0.000000 0.000000 0.000000 0.054385 0.000000 -0.015615
# 5 -0.000494 -0.009642 0.010568 0.000000 0.039746 0.000000
# 6 0.000000 0.000000 0.000000 -0.015615 0.000000 0.039142
#
#
# Mechanical properties :
#
#
# Convention : Reuss Voigt Hill
#
# Bulk Modulus (GPa) = 77.93035 77.99538 77.96286
# Shear Modulus (GPa) = 20.04370 24.28750 22.16560
#
# Velocity S-wave (km/s) = 3.31237 3.64620 3.48329
# Velocity P-wave (km/s) = 7.56886 7.77307 7.67164
#
# Compressibility (1/GPa) = 0.01283197
#
# Stress axis : x y z
#
# Youngs Moduli (GPa) = 43.11301 47.82822 54.74914
#
# Poissons Ratio (x) = 0.52020 0.42328
# Poissons Ratio (y) = 0.46891 0.33728
# Poissons Ratio (z) = 0.33331 0.29465
#
# Static dielectric constant tensor:
#      x y z
#    x 3.271920 0.000000 -0.281880 
#    y 0.000000 3.248620 0.000000 
#    z -0.281880 0.000000 3.547880 
# 
# 
# High freq. dielectric constant tensor:
#      x y z
#    x 1.701450 0.000000 -0.021150 
#    y 0.000000 1.706040 0.000000 
#    z -0.021150 0.000000 1.722150 
# 
# From -- ./inp_files/34394.got.cif
#   From: 2010.03.12/outbox.cif.g09.slc.cpg/sg14_18_cif.got.tgz:34394.got - 2010.03.31 13:35:05.
