data_PCOD8123830
_publ_section_title
;
Structure prediction by ZEFSAII (Michael W. Deem and Ramdas Pophale) SiO2 
 PCOD8123830
Probable space group: P 21/C
;
_chemical_formula_sum "Si O2"
_cell_formula_units_Z 32
_cell_length_a 18.184441
_cell_length_b 11.364202
_cell_length_c 12.547385
_cell_angle_alpha 90.000000
_cell_angle_beta 38.842359
_cell_angle_gamma 90.000000
_cell_volume 1626.238324
_symmetry_space_group_name_H-M "P 21/C"
_symmetry_group_IT_number 14
_symmetry_cell_setting 'monoclinic'
loop_
_space_group_symop_operation_xyz
x,y,z
-x,1/2+y,1/2-z
-x,-y,-z
x,1/2-y,1/2+z
loop_
_atom_site_type_symbol
_atom_site_label
_atom_site_fract_x
_atom_site_fract_y
_atom_site_fract_z
Si Si1 0.564533 0.170180 0.910965
Si Si2 0.808810 0.420524 0.507447
Si Si3 0.538296 0.075651 0.353358
Si Si4 0.006897 0.548054 0.375669
Si Si5 0.838908 0.546769 0.964543
Si Si6 0.828951 0.183561 0.600839
Si Si7 0.571301 0.947712 0.754625
Si Si8 0.042350 0.820177 0.339496
O O1 0.519889 0.289225 0.906169
O O2 0.698786 0.176734 0.797160
O O3 0.546054 0.072125 0.840343
O O4 0.495865 0.149454 0.099062
O O5 0.672147 0.449552 0.669265
O O6 0.849161 0.314972 0.538246
O O7 0.850731 0.383526 0.342750
O O8 0.879569 0.536612 0.463369
O O9 0.464553 0.046561 0.329599
O O10 0.500000 0.000000 0.500000
O O11 0.099050 0.456063 0.219791
O O12 0.048516 0.680952 0.315046
O O13 0.000000 0.500000 0.500000
O O14 0.913072 0.630609 0.959456
O O15 0.841723 0.410449 0.993801
O O16 0.706629 0.592069 0.106332
O O17 0.930787 0.152121 0.568604
#
# Coordination Sequence:
#
# PCOD8123830 Si02
#       8
#     4   4   4   4   4   4   4   4
#     4   9  22  41  66  90 121 172 206 257 319 371
#     4  10  22  39  57  92 119 156 206 251 299 367
#     4  11  25  39  67  95 124 166 218 260 310 378
#     4  11  22  37  60  87 122 156 199 250 308 357
#     4  10  23  38  59  89 121 159 198 251 308 366
#     4  10  18  38  64  85 117 156 209 243 297 371
#     4  10  22  44  63  90 131 162 209 262 317 372
#     4  11  21  37  62  88 121 161 198 253 307 365
#
# _framework density 19.677313000000002
#
# number of rings (size 3 to 8) (size 9 to 14) (size 15 to 20)
#    0.000    1.750    2.500    1.125    3.500    1.000 
#    0.000    0.000    0.000    0.000    0.000    0.000 
#    0.000    0.000    0.000    0.000    0.000    0.000 
#
# Total GULP energy -396661.761260 kJ/mol
# GULP energy per Si atom -12395.680039 kJ/mol
# Density = 1.963253 g / cm^3
# Si number density = 19.677313 Si / 1000 Ang^3
#
#
#
# Elastic Constant Matrix: (Units=GPa)
#
#
# Indices 1 2 3 4 5 6 
#
# 1 115.7603 15.8386 41.5396 0.0000 12.1773 0.0000
# 2 15.8386 49.1292 3.6757 0.0000 1.0165 0.0000
# 3 41.5396 3.6757 89.2362 0.0000 -3.3839 0.0000
# 4 0.0000 0.0000 0.0000 28.8980 0.0000 -0.6936
# 5 12.1773 1.0165 -3.3839 0.0000 25.1956 0.0000
# 6 0.0000 0.0000 0.0000 -0.6936 0.0000 26.4183
#
#
#
# Elastic Compliance Matrix: (Units=1/GPa)
#
#
# Indices 1 2 3 4 5 6 
#
# 1 0.011743 -0.003239 -0.005572 0.000000 -0.006293 0.000000
# 2 -0.003239 0.021333 0.000659 0.000000 0.000793 0.000000
# 3 -0.005572 0.000659 0.013945 0.000000 0.004539 0.000000
# 4 0.000000 0.000000 0.000000 0.034626 0.000000 0.000909
# 5 -0.006293 0.000793 0.004539 0.000000 0.043309 0.000000
# 6 0.000000 0.000000 0.000000 0.000909 0.000000 0.037876
#
#
# Mechanical properties :
#
#
# Convention : Reuss Voigt Hill
#
# Bulk Modulus (GPa) = 32.55419 41.80371 37.17895
# Shear Modulus (GPa) = 26.40275 28.97382 27.68828
#
# Velocity S-wave (km/s) = 3.66701 3.84141 3.75523
# Velocity P-wave (km/s) = 5.87446 6.40047 6.14310
#
# Compressibility (1/GPa) = 0.03071801
#
# Stress axis : x y z
#
# Youngs Moduli (GPa) = 85.15703 46.87593 71.71129
#
# Poissons Ratio (x) = 0.15182 0.39955
# Poissons Ratio (y) = 0.27580 -0.04726
# Poissons Ratio (z) = 0.47446 -0.03089
#
# Static dielectric constant tensor:
#      x y z
#    x 2.915360 0.000000 0.327040 
#    y 0.000000 3.380130 0.000000 
#    z 0.327040 0.000000 3.264280 
# 
# 
# High freq. dielectric constant tensor:
#      x y z
#    x 1.765590 0.000000 0.002720 
#    y 0.000000 1.762410 0.000000 
#    z 0.002720 0.000000 1.778650 
# 
# From -- ./inp_files/33912.got.cif
#   From: 2010.03.12/outbox.cif.g09.slc.cpg/sg14_17_cif.got.tgz:33912.got - 2010.03.31 13:35:05.
