data_PCOD8123368
_publ_section_title
;
Structure prediction by ZEFSAII (Michael W. Deem and Ramdas Pophale) SiO2 
 PCOD8123368
Probable space group: P 21/C
;
_chemical_formula_sum "Si O2"
_cell_formula_units_Z 28
_cell_length_a 9.367052
_cell_length_b 17.838891
_cell_length_c 15.686291
_cell_angle_alpha 90.000000
_cell_angle_beta 146.317821
_cell_angle_gamma 90.000000
_cell_volume 1453.649374
_symmetry_space_group_name_H-M "P 21/C"
_symmetry_group_IT_number 14
_symmetry_cell_setting 'monoclinic'
loop_
_space_group_symop_operation_xyz
x,y,z
-x,1/2+y,1/2-z
-x,-y,-z
x,1/2-y,1/2+z
loop_
_atom_site_type_symbol
_atom_site_label
_atom_site_fract_x
_atom_site_fract_y
_atom_site_fract_z
Si Si1 0.184632 0.141027 0.931381
Si Si2 0.759720 0.739968 0.173222
Si Si3 0.018397 0.088699 0.023855
Si Si4 0.897078 0.030915 0.667044
Si Si5 0.659581 0.063831 0.124915
Si Si6 0.616023 0.916909 0.645288
Si Si7 0.266142 0.677113 0.484813
O O1 0.210781 0.225196 0.907393
O O2 0.053808 0.098217 0.787535
O O3 0.026629 0.135408 0.939927
O O4 0.467852 0.106253 0.094397
O O5 0.649231 0.656597 0.102994
O O6 0.033608 0.738154 0.359989
O O7 0.549260 0.785895 0.125539
O O8 0.275456 0.102358 0.207193
O O9 0.772727 0.124785 0.950664
O O10 0.000000 0.000000 0.000000
O O11 0.685208 0.062670 0.496792
O O12 0.767117 0.986775 0.680745
O O13 0.091056 0.976909 0.709474
O O14 0.771222 0.123001 0.113728
O O15 0.500000 0.000000 0.000000
#
# Coordination Sequence:
#
# PCOD8123368 Si02
#       7
#     4   4   4   4   4   4   4
#     4  10  20  32  60  86 113 145 197 241 285 345
#     4  10  20  37  54  85 113 160 192 235 285 358
#     4  11  19  37  57  88 112 146 191 248 293 339
#     4  10  17  34  56  87 104 154 192 236 273 345
#     4   9  16  32  55  85 109 148 198 235 273 349
#     4  10  20  33  60  79 119 146 192 234 292 338
#     4  10  20  36  59  79 118 155 193 237 290 355
#
# _framework density 19.261866000000001
#
# number of rings (size 3 to 8) (size 9 to 14) (size 15 to 20)
#    0.000    2.000    4.286    1.714    0.000    0.000 
#    0.000    9.286    0.000    0.000    0.000    0.000 
#    0.000    0.000    0.000    0.000    0.000    0.000 
#
# Total GULP energy -346916.642782 kJ/mol
# GULP energy per Si atom -12389.880099 kJ/mol
# Density = 1.921803 g / cm^3
# Si number density = 19.261866 Si / 1000 Ang^3
#
#
#
# Elastic Constant Matrix: (Units=GPa)
#
#
# Indices 1 2 3 4 5 6 
#
# 1 84.9516 31.6983 18.8824 0.0000 7.2207 0.0000
# 2 31.6983 96.7576 27.6342 0.0000 3.0979 0.0000
# 3 18.8824 27.6342 68.1797 0.0000 16.8752 0.0000
# 4 0.0000 0.0000 0.0000 32.1961 0.0000 7.9849
# 5 7.2207 3.0979 16.8752 0.0000 29.0472 0.0000
# 6 0.0000 0.0000 0.0000 7.9849 0.0000 31.7664
#
#
#
# Elastic Compliance Matrix: (Units=1/GPa)
#
#
# Indices 1 2 3 4 5 6 
#
# 1 0.013804 -0.003968 -0.001717 0.000000 -0.002011 0.000000
# 2 -0.003968 0.012906 -0.004713 0.000000 0.002348 0.000000
# 3 -0.001717 -0.004713 0.019648 0.000000 -0.010485 0.000000
# 4 0.000000 0.000000 0.000000 0.033125 0.000000 -0.008326
# 5 -0.002011 0.002348 -0.010485 0.000000 0.040768 0.000000
# 6 0.000000 0.000000 0.000000 -0.008326 0.000000 0.033573
#
#
# Mechanical properties :
#
#
# Convention : Reuss Voigt Hill
#
# Bulk Modulus (GPa) = 39.12023 45.14653 42.13338
# Shear Modulus (GPa) = 27.30140 30.04687 28.67414
#
# Velocity S-wave (km/s) = 3.76890 3.95386 3.86249
# Velocity P-wave (km/s) = 6.26843 6.65832 6.46631
#
# Compressibility (1/GPa) = 0.02556222
#
# Stress axis : x y z
#
# Youngs Moduli (GPa) = 72.44033 77.48432 50.89494
#
# Poissons Ratio (x) = 0.30742 0.08741
# Poissons Ratio (y) = 0.28741 0.23988
# Poissons Ratio (z) = 0.12441 0.36520
#
# Static dielectric constant tensor:
#      x y z
#    x 3.525240 0.000000 0.471840 
#    y 0.000000 3.739040 0.000000 
#    z 0.471840 0.000000 3.489910 
# 
# 
# High freq. dielectric constant tensor:
#      x y z
#    x 1.729800 0.000000 0.039710 
#    y 0.000000 1.761650 0.000000 
#    z 0.039710 0.000000 1.723230 
# 
# From -- ./inp_files/41816.got.cif
#   From: 2010.03.12/outbox.cif.g09.slc.cpg/sg14_21_cif.got.tgz:41816.got - 2010.03.31 13:35:05.
