data_PCOD8123447
_publ_section_title
;
Structure prediction by ZEFSAII (Michael W. Deem and Ramdas Pophale) SiO2 
 PCOD8123447
Probable space group: P 21/C
;
_chemical_formula_sum "Si O2"
_cell_formula_units_Z 32
_cell_length_a 14.820216
_cell_length_b 6.168096
_cell_length_c 32.125286
_cell_angle_alpha 90.000000
_cell_angle_beta 39.486652
_cell_angle_gamma 90.000000
_cell_volume 1867.413183
_symmetry_space_group_name_H-M "P 21/C"
_symmetry_group_IT_number 14
_symmetry_cell_setting 'monoclinic'
loop_
_space_group_symop_operation_xyz
x,y,z
-x,1/2+y,1/2-z
-x,-y,-z
x,1/2-y,1/2+z
loop_
_atom_site_type_symbol
_atom_site_label
_atom_site_fract_x
_atom_site_fract_y
_atom_site_fract_z
Si Si1 0.942551 0.118665 0.561275
Si Si2 0.643212 0.070786 0.996583
Si Si3 0.247535 0.979898 0.901158
Si Si4 0.500092 0.671023 0.812709
Si Si5 0.783173 0.764252 0.004702
Si Si6 0.431897 0.807496 0.549631
Si Si7 0.487512 0.954076 0.406075
Si Si8 0.670457 0.641771 0.182830
O O1 0.892072 0.356327 0.564986
O O2 0.066198 0.140370 0.552286
O O3 0.816605 0.990426 0.629170
O O4 0.000000 0.000000 0.500000
O O5 0.690318 0.204849 0.937508
O O6 0.552535 0.222972 0.059774
O O7 0.775215 0.961988 0.974080
O O8 0.545877 0.876726 0.016395
O O9 0.362268 0.805892 0.875504
O O10 0.212580 0.143020 0.950390
O O11 0.309697 0.116922 0.841104
O O12 0.558817 0.574449 0.835340
O O13 0.454005 0.478700 0.798182
O O14 0.617806 0.824867 0.749213
O O15 0.655655 0.596036 0.045354
O O16 0.500000 0.000000 0.500000
O O17 0.393912 0.915254 0.608079
#
# Coordination Sequence:
#
# PCOD8123447 Si02
#       8
#     4   4   4   4   4   4   4   4
#     4  11  23  33  46  69  99 140 181 213 251 302
#     4   9  17  28  48  71 100 138 151 203 260 313
#     4  11  20  33  50  67  97 142 177 212 250 293
#     4  11  20  33  48  70  96 138 183 207 257 302
#     4  11  19  30  49  71  97 138 178 203 254 318
#     4   8  16  30  44  71 104 131 152 198 259 317
#     4  10  18  29  50  74  98 136 167 203 253 322
#     4  11  22  33  48  67  98 141 179 220 248 289
#
# _framework density 17.136005000000001
#
# number of rings (size 3 to 8) (size 9 to 14) (size 15 to 20)
#    0.000    1.750    5.000    1.125    0.000    0.000 
#    0.000    0.000    0.000    0.000    0.000    0.000 
#    0.000    0.000  352.750    0.000    0.000    0.000 
#
# Total GULP energy -396423.725841 kJ/mol
# GULP energy per Si atom -12388.241433 kJ/mol
# Density = 1.709700 g / cm^3
# Si number density = 17.136005 Si / 1000 Ang^3
#
#
#
# Elastic Constant Matrix: (Units=GPa)
#
#
# Indices 1 2 3 4 5 6 
#
# 1 89.7599 34.7349 46.8754 0.0000 21.5577 0.0000
# 2 34.7349 89.2643 28.9965 0.0000 9.3078 0.0000
# 3 46.8754 28.9965 75.2858 0.0000 14.3361 0.0000
# 4 0.0000 0.0000 0.0000 29.1110 0.0000 8.3884
# 5 21.5577 9.3078 14.3361 0.0000 23.9036 0.0000
# 6 0.0000 0.0000 0.0000 8.3884 0.0000 39.6372
#
#
#
# Elastic Compliance Matrix: (Units=1/GPa)
#
#
# Indices 1 2 3 4 5 6 
#
# 1 0.019860 -0.003700 -0.008811 0.000000 -0.011187 0.000000
# 2 -0.003700 0.013606 -0.002894 0.000000 -0.000226 0.000000
# 3 -0.008811 -0.002894 0.020496 0.000000 -0.003220 0.000000
# 4 0.000000 0.000000 0.000000 0.036582 0.000000 -0.007742
# 5 -0.011187 -0.000226 -0.003220 0.000000 0.053942 0.000000
# 6 0.000000 0.000000 0.000000 -0.007742 0.000000 0.026867
#
#
# Mechanical properties :
#
#
# Convention : Reuss Voigt Hill
#
# Bulk Modulus (GPa) = 43.18859 52.83594 48.01227
# Shear Modulus (GPa) = 23.82308 28.11056 25.96682
#
# Velocity S-wave (km/s) = 3.73263 4.05463 3.89696
# Velocity P-wave (km/s) = 6.62079 7.26775 6.95180
#
# Compressibility (1/GPa) = 0.02315426
#
# Stress axis : x y z
#
# Youngs Moduli (GPa) = 50.35151 73.49754 48.78965
#
# Poissons Ratio (x) = 0.27192 0.42987
# Poissons Ratio (y) = 0.18628 0.14119
# Poissons Ratio (z) = 0.44363 0.21269
#
# Static dielectric constant tensor:
#      x y z
#    x 3.632370 0.000000 0.293560 
#    y 0.000000 3.637650 0.000000 
#    z 0.293560 0.000000 2.937810 
# 
# 
# High freq. dielectric constant tensor:
#      x y z
#    x 1.651950 0.000000 0.026230 
#    y 0.000000 1.691570 0.000000 
#    z 0.026230 0.000000 1.611340 
# 
# From -- ./inp_files/80135.got.cif
#   From: 2010.03.12/outbox.cif.g09.slc.cpg/sg14_41_cif.got.tgz:80135.got - 2010.03.31 13:35:05.
