data_PCOD8123864
_publ_section_title
;
Structure prediction by ZEFSAII (Michael W. Deem and Ramdas Pophale) SiO2 
 PCOD8123864
Probable space group: P 21/C
;
_chemical_formula_sum "Si O2"
_cell_formula_units_Z 20
_cell_length_a 15.446036
_cell_length_b 11.261071
_cell_length_c 13.755644
_cell_angle_alpha 90.000000
_cell_angle_beta 27.060547
_cell_angle_gamma 90.000000
_cell_volume 1088.488823
_symmetry_space_group_name_H-M "P 21/C"
_symmetry_group_IT_number 14
_symmetry_cell_setting 'monoclinic'
loop_
_space_group_symop_operation_xyz
x,y,z
-x,1/2+y,1/2-z
-x,-y,-z
x,1/2-y,1/2+z
loop_
_atom_site_type_symbol
_atom_site_label
_atom_site_fract_x
_atom_site_fract_y
_atom_site_fract_z
Si Si1 0.219058 0.967925 0.780946
Si Si2 0.678502 0.239333 0.457050
Si Si3 0.953855 0.136578 0.546146
Si Si4 0.650136 0.729776 0.849877
Si Si5 0.678461 0.260669 0.685973
O O1 0.264441 0.891484 0.638681
O O2 0.264443 0.891481 0.832444
O O3 0.343592 0.086698 0.656415
O O4 0.000000 0.000000 0.000000
O O5 0.832963 0.333117 0.262969
O O6 0.468103 0.271190 0.627130
O O7 0.677033 0.250000 0.572960
O O8 0.832889 0.166871 0.571191
O O9 0.144707 0.213177 0.355274
O O10 0.000000 0.000000 0.500000
O O11 0.531957 0.771161 0.063320
#
# Coordination Sequence:
#
# PCOD8123864 Si02
#       5
#     4   4   4   4   4
#     4  10  18  41  66  80 119 158 190 242 292 347
#     4  10  22  37  60  92 114 147 202 240 285 345
#     4  10  22  42  58  79 125 157 183 239 298 339
#     4  10  20  43  61  81 121 158 191 236 294 348
#     4  10  22  37  60  92 114 147 202 240 285 345
#
# _framework density 18.374098
#
# number of rings (size 3 to 8) (size 9 to 14) (size 15 to 20)
#    0.000    2.400    4.000    2.400    0.000    6.400 
#   14.400    0.000    0.000    0.000    0.000    0.000 
#    0.000    0.000    0.000    0.000    0.000    0.000 
#
# Total GULP energy -247919.463306 kJ/mol
# GULP energy per Si atom -12395.973165 kJ/mol
# Density = 1.833228 g / cm^3
# Si number density = 18.374098 Si / 1000 Ang^3
#
#
#
# Elastic Constant Matrix: (Units=GPa)
#
#
# Indices 1 2 3 4 5 6 
#
# 1 155.4723 47.2214 84.4332 0.0000 39.4935 0.0000
# 2 47.2214 133.0604 39.7434 0.0000 5.5216 0.0000
# 3 84.4332 39.7434 96.7458 0.0000 3.7728 0.0000
# 4 0.0000 0.0000 0.0000 25.2658 0.0000 -6.7499
# 5 39.4935 5.5216 3.7728 0.0000 34.9687 0.0000
# 6 0.0000 0.0000 0.0000 -6.7499 0.0000 16.0780
#
#
#
# Elastic Compliance Matrix: (Units=1/GPa)
#
#
# Indices 1 2 3 4 5 6 
#
# 1 0.022966 -0.001660 -0.018438 0.000000 -0.023687 0.000000
# 2 -0.001660 0.008720 -0.002162 0.000000 0.000732 0.000000
# 3 -0.018438 -0.002162 0.026602 0.000000 0.018295 0.000000
# 4 0.000000 0.000000 0.000000 0.044579 0.000000 0.018715
# 5 -0.023687 0.000732 0.018295 0.000000 0.053259 0.000000
# 6 0.000000 0.000000 0.000000 0.018715 0.000000 0.070054
#
#
# Mechanical properties :
#
#
# Convention : Reuss Voigt Hill
#
# Bulk Modulus (GPa) = 72.62705 80.89718 76.76212
# Shear Modulus (GPa) = 18.16270 29.52120 23.84195
#
# Velocity S-wave (km/s) = 3.14744 4.01268 3.60611
# Velocity P-wave (km/s) = 7.26782 8.09890 7.69459
#
# Compressibility (1/GPa) = 0.01376897
#
# Stress axis : x y z
#
# Youngs Moduli (GPa) = 43.54204 114.67979 37.59113
#
# Poissons Ratio (x) = 0.19042 0.69309
# Poissons Ratio (y) = 0.07230 0.08126
# Poissons Ratio (z) = 0.80281 0.24789
#
# Static dielectric constant tensor:
#      x y z
#    x 3.050350 0.000000 -0.334360 
#    y 0.000000 3.506060 0.000000 
#    z -0.334360 0.000000 3.505770 
# 
# 
# High freq. dielectric constant tensor:
#      x y z
#    x 1.700600 0.000000 -0.021730 
#    y 0.000000 1.711560 0.000000 
#    z -0.021730 0.000000 1.730190 
# 
# From -- ./inp_files/48735.got.cif
#   From: 2010.03.12/outbox.cif.g09.slc.cpg/sg14_25_cif.got.tgz:48735.got - 2010.03.31 13:35:05.
