data_PCOD8123157
_publ_section_title
;
Structure prediction by ZEFSAII (Michael W. Deem and Ramdas Pophale) SiO2 
 PCOD8123157
Probable space group: P 2/C
;
_chemical_formula_sum "Si O2"
_cell_formula_units_Z 28
_cell_length_a 18.471748
_cell_length_b 6.448414
_cell_length_c 11.618340
_cell_angle_alpha 90.000000
_cell_angle_beta 120.913564
_cell_angle_gamma 90.000000
_cell_volume 1187.308508
_symmetry_space_group_name_H-M "P 2/C"
_symmetry_group_IT_number 13
_symmetry_cell_setting 'monoclinic'
loop_
_space_group_symop_operation_xyz
x,y,z
-x,y,1/2-z
-x,-y,-z
x,-y,1/2+z
loop_
_atom_site_type_symbol
_atom_site_label
_atom_site_fract_x
_atom_site_fract_y
_atom_site_fract_z
Si Si1 0.869561 0.834608 0.158656
Si Si2 0.000000 0.844393 0.750000
Si Si3 0.500000 0.375548 0.250000
Si Si4 0.418381 0.086789 0.992762
Si Si5 0.266583 0.849082 0.974514
Si Si6 0.208230 0.475201 0.255211
Si Si7 0.354206 0.371899 0.749893
Si Si8 0.070886 0.492798 0.962664
O O1 0.828563 0.685760 0.219809
O O2 0.930312 0.703580 0.123316
O O3 0.932782 0.009137 0.263375
O O4 0.788958 0.950801 0.033390
O O5 0.057849 0.705378 0.881552
O O6 0.556267 0.240697 0.382864
O O7 0.561763 0.522267 0.228367
O O8 0.372774 0.180613 0.846191
O O9 0.356155 0.913562 0.992575
O O10 0.500000 0.000000 0.000000
O O11 0.204697 0.716683 0.839924
O O12 0.289389 0.703599 0.099644
O O13 0.305658 0.474440 0.296275
O O14 0.159070 0.455487 0.096369
O O15 0.000000 0.500000 0.000000
#
# Coordination Sequence:
#
# PCOD8123157 Si02
#       8
#     4   2   2   4   4   4   4   4
#     4  12  26  47  73 107 149 190 252 303 370 456
#     4  12  26  48  72 108 146 190 248 300 368 458
#     4  12  26  46  74 110 152 194 258 316 366 454
#     4  12  25  46  72 107 150 198 250 306 381 442
#     4  12  27  45  73 110 147 193 257 307 367 458
#     4  12  26  47  72 107 148 195 247 309 376 435
#     4  12  25  45  73 107 148 199 245 314 377 432
#     4  12  27  46  75 107 149 193 242 309 375 437
#
# _framework density 23.582749
#
# number of rings (size 3 to 8) (size 9 to 14) (size 15 to 20)
#    0.000    0.000    1.429    9.429    4.000    4.571 
#    0.000    0.000    0.000    0.000    0.000    0.000 
#    0.000    0.000    0.000    0.000    0.000    0.000 
#
# Total GULP energy -346962.469597 kJ/mol
# GULP energy per Si atom -12391.516771 kJ/mol
# Density = 2.352907 g / cm^3
# Si number density = 23.582749 Si / 1000 Ang^3
#
#
#
# Elastic Constant Matrix: (Units=GPa)
#
#
# Indices 1 2 3 4 5 6 
#
# 1 140.1778 45.0440 11.6001 0.0000 -8.4514 0.0000
# 2 45.0440 110.2839 45.7199 0.0000 -1.1808 0.0000
# 3 11.6001 45.7199 121.6752 0.0000 2.2855 0.0000
# 4 0.0000 0.0000 0.0000 24.7357 0.0000 28.0215
# 5 -8.4514 -1.1808 2.2855 0.0000 35.4431 0.0000
# 6 0.0000 0.0000 0.0000 28.0215 0.0000 40.7905
#
#
#
# Elastic Compliance Matrix: (Units=1/GPa)
#
#
# Indices 1 2 3 4 5 6 
#
# 1 0.008362 -0.003614 0.000526 0.000000 0.001840 0.000000
# 2 -0.003614 0.012316 -0.004280 0.000000 -0.000175 0.000000
# 3 0.000526 -0.004280 0.009789 0.000000 -0.000648 0.000000
# 4 0.000000 0.000000 0.000000 0.182281 0.000000 -0.125220
# 5 0.001840 -0.000175 -0.000648 0.000000 0.028689 0.000000
# 6 0.000000 0.000000 0.000000 -0.125220 0.000000 0.110537
#
#
# Mechanical properties :
#
#
# Convention : Reuss Voigt Hill
#
# Bulk Modulus (GPa) = 63.56554 64.09609 63.83081
# Shear Modulus (GPa) = 13.44254 38.17871 25.81062
#
# Velocity S-wave (km/s) = 2.39009 4.02795 3.31187
# Velocity P-wave (km/s) = 5.88468 6.99076 6.46143
#
# Compressibility (1/GPa) = 0.01573179
#
# Stress axis : x y z
#
# Youngs Moduli (GPa) = 119.58191 81.19500 102.15729
#
# Poissons Ratio (x) = 0.29344 -0.05375
# Poissons Ratio (y) = 0.43217 0.43723
# Poissons Ratio (z) = -0.06292 0.34751
#
# Static dielectric constant tensor:
#      x y z
#    x 4.403280 0.000000 0.043210 
#    y 0.000000 4.453860 0.000000 
#    z 0.043210 0.000000 4.212640 
# 
# 
# High freq. dielectric constant tensor:
#      x y z
#    x 1.963780 0.000000 0.010500 
#    y 0.000000 1.940410 0.000000 
#    z 0.010500 0.000000 1.934020 
# 
# From -- ./inp_files/40222.got.cif
#   From: 2010.06.25/outbox.cif.g09.slc.cpg/sg13_21_cif.got.tgz:40222.got - 2010.06.28 04:50:58.
