data_PCOD8123454
_publ_section_title
;
Structure prediction by ZEFSAII (Michael W. Deem and Ramdas Pophale) SiO2 
 PCOD8123454
Probable space group: P 21/C
;
_chemical_formula_sum "Si O2"
_cell_formula_units_Z 32
_cell_length_a 26.116654
_cell_length_b 4.986962
_cell_length_c 19.926690
_cell_angle_alpha 90.000000
_cell_angle_beta 45.015396
_cell_angle_gamma 90.000000
_cell_volume 1835.652328
_symmetry_space_group_name_H-M "P 21/C"
_symmetry_group_IT_number 14
_symmetry_cell_setting 'monoclinic'
loop_
_space_group_symop_operation_xyz
x,y,z
-x,1/2+y,1/2-z
-x,-y,-z
x,1/2-y,1/2+z
loop_
_atom_site_type_symbol
_atom_site_label
_atom_site_fract_x
_atom_site_fract_y
_atom_site_fract_z
Si Si1 0.488562 0.717125 0.304520
Si Si2 0.191823 0.745213 0.014336
Si Si3 0.044225 0.788775 0.728600
Si Si4 0.049207 0.732586 0.378013
Si Si5 0.095643 0.267481 0.910833
Si Si6 0.343673 0.644828 0.905233
Si Si7 0.365932 0.144262 0.799140
Si Si8 0.215218 0.254565 0.403196
O O1 0.494361 0.410692 0.275424
O O2 0.405284 0.784567 0.404929
O O3 0.551620 0.781691 0.301865
O O4 0.120518 0.684621 0.121664
O O5 0.260515 0.711692 0.002049
O O6 0.199666 0.542062 0.944919
O O7 0.189445 0.041007 0.985068
O O8 0.057238 0.699785 0.792720
O O9 0.994999 0.574603 0.735731
O O10 0.080036 0.439564 0.365522
O O11 0.964737 0.749957 0.475148
O O12 0.096380 0.939704 0.377582
O O13 0.172571 0.205042 0.873442
O O14 0.349849 0.334073 0.878976
O O15 0.362702 0.833790 0.823288
O O16 0.301082 0.204391 0.806499
#
# Coordination Sequence:
#
# PCOD8123454 Si02
#       8
#     4   4   4   4   4   4   4   4
#     4   8  12  20  33  52  80 111 136 162 198 244
#     4  10  19  30  45  66  90 115 146 177 214 264
#     4  12  23  35  50  67  89 114 144 182 220 258
#     4  10  21  33  47  65  82 110 143 177 217 255
#     4  10  19  33  48  62  85 109 142 180 213 256
#     4   8  14  23  36  55  82 113 138 165 203 249
#     4   8  14  22  36  58  83 109 139 167 201 251
#     4  10  18  30  47  67  89 117 144 176 218 253
#
# _framework density 17.432493999999998
#
# number of rings (size 3 to 8) (size 9 to 14) (size 15 to 20)
#    0.000    2.500    0.000    3.750    0.000    2.000 
#    0.000    0.000    0.000    0.000    0.000    0.000 
#    0.000    2.000    0.000    0.000    0.000    8.000 
#
# Total GULP energy -396473.893808 kJ/mol
# GULP energy per Si atom -12389.809182 kJ/mol
# Density = 1.739282 g / cm^3
# Si number density = 17.432494 Si / 1000 Ang^3
#
#
#
# Elastic Constant Matrix: (Units=GPa)
#
#
# Indices 1 2 3 4 5 6 
#
# 1 114.3970 5.9026 40.0567 0.0000 -26.9972 0.0000
# 2 5.9026 69.5030 3.6197 0.0000 -4.8816 0.0000
# 3 40.0567 3.6197 35.5216 0.0000 -15.8199 0.0000
# 4 0.0000 0.0000 0.0000 12.2093 0.0000 -7.3813
# 5 -26.9972 -4.8816 -15.8199 0.0000 29.0588 0.0000
# 6 0.0000 0.0000 0.0000 -7.3813 0.0000 18.0415
#
#
#
# Elastic Compliance Matrix: (Units=1/GPa)
#
#
# Indices 1 2 3 4 5 6 
#
# 1 0.015287 -0.000103 -0.014403 0.000000 0.006344 0.000000
# 2 -0.000103 0.014568 -0.000424 0.000000 0.002121 0.000000
# 3 -0.014403 -0.000424 0.050751 0.000000 0.014177 0.000000
# 4 0.000000 0.000000 0.000000 0.108821 0.000000 0.044522
# 5 0.006344 0.002121 0.014177 0.000000 0.048381 0.000000
# 6 0.000000 0.000000 0.000000 0.044522 0.000000 0.073643
#
#
# Mechanical properties :
#
#
# Convention : Reuss Voigt Hill
#
# Bulk Modulus (GPa) = 19.70598 35.39774 27.55186
# Shear Modulus (GPa) = 13.95765 23.18474 18.57120
#
# Velocity S-wave (km/s) = 2.83268 3.65084 3.26747
# Velocity P-wave (km/s) = 4.69334 6.17423 5.48401
#
# Compressibility (1/GPa) = 0.05074601
#
# Stress axis : x y z
#
# Youngs Moduli (GPa) = 65.41354 68.64525 19.70410
#
# Poissons Ratio (x) = 0.00704 0.28380
# Poissons Ratio (y) = 0.00671 0.00836
# Poissons Ratio (z) = 0.94216 0.02912
#
# Static dielectric constant tensor:
#      x y z
#    x 3.579850 0.000000 -0.599840 
#    y 0.000000 3.399540 0.000000 
#    z -0.599840 0.000000 2.813030 
# 
# 
# High freq. dielectric constant tensor:
#      x y z
#    x 1.681200 0.000000 -0.052120 
#    y 0.000000 1.702120 0.000000 
#    z -0.052120 0.000000 1.594740 
# 
# From -- ./inp_files/49682.got.cif
#   From: 2010.03.12/outbox.cif.g09.slc.cpg/sg14_25_cif.got.tgz:49682.got - 2010.03.31 13:35:05.
