data_PCOD8123357
_publ_section_title
;
Structure prediction by ZEFSAII (Michael W. Deem and Ramdas Pophale) SiO2 
 PCOD8123357
Probable space group: P 21/C
;
_chemical_formula_sum "Si O2"
_cell_formula_units_Z 32
_cell_length_a 22.683345
_cell_length_b 11.716729
_cell_length_c 16.964250
_cell_angle_alpha 90.000000
_cell_angle_beta 20.203344
_cell_angle_gamma 90.000000
_cell_volume 1557.081503
_symmetry_space_group_name_H-M "P 21/C"
_symmetry_group_IT_number 14
_symmetry_cell_setting 'monoclinic'
loop_
_space_group_symop_operation_xyz
x,y,z
-x,1/2+y,1/2-z
-x,-y,-z
x,1/2-y,1/2+z
loop_
_atom_site_type_symbol
_atom_site_label
_atom_site_fract_x
_atom_site_fract_y
_atom_site_fract_z
Si Si1 0.440764 0.783535 0.056475
Si Si2 0.914926 0.829691 0.900263
Si Si3 0.948631 0.830862 0.101400
Si Si4 0.323148 0.889452 0.590548
Si Si5 0.666152 0.893159 0.333116
Si Si6 0.801085 0.015213 0.399630
Si Si7 0.076088 0.870926 0.535659
Si Si8 0.227738 0.413559 0.896463
O O1 0.500675 0.686596 0.041973
O O2 0.584005 0.881969 0.871920
O O3 0.409149 0.730650 0.007090
O O4 0.264256 0.820728 0.316880
O O5 0.070789 0.877970 0.755636
O O6 0.943524 0.857181 0.773262
O O7 0.743147 0.892471 0.147241
O O8 0.894372 0.694429 0.937909
O O9 0.805477 0.832419 0.214483
O O10 0.887086 0.902023 0.254810
O O11 0.118481 0.891352 0.856641
O O12 0.989839 0.697555 0.071488
O O13 0.352817 0.934773 0.463507
O O14 0.393524 0.982497 0.564690
O O15 0.736166 0.981440 0.567508
O O16 0.120908 0.005847 0.468881
#
# Coordination Sequence:
#
# PCOD8123357 Si02
#       8
#     4   4   4   4   4   4   4   4
#     4  10  22  35  53  83 117 154 182 220 282 349
#     4  10  18  33  58  84 104 142 194 234 270 326
#     4  10  17  33  59  88 106 139 186 238 279 328
#     4  10  18  33  59  86 111 140 186 238 282 328
#     4  10  18  33  58  86 112 137 185 244 280 313
#     4  10  17  33  57  85 109 140 185 241 284 312
#     4  10  21  35  58  79 112 151 188 219 280 338
#     4  10  21  36  56  80 118 152 186 224 281 341
#
# _framework density 20.551269999999999
#
# number of rings (size 3 to 8) (size 9 to 14) (size 15 to 20)
#    0.000    2.000    3.750    1.500    0.000    0.000 
#    0.000    7.500    2.750    0.000    0.000    0.000 
#    0.000    0.000    0.000    0.000    0.000    0.000 
#
# Total GULP energy -396446.701220 kJ/mol
# GULP energy per Si atom -12388.959413 kJ/mol
# Density = 2.050449 g / cm^3
# Si number density = 20.551270 Si / 1000 Ang^3
#
#
#
# Elastic Constant Matrix: (Units=GPa)
#
#
# Indices 1 2 3 4 5 6 
#
# 1 32.1818 14.2831 2.7014 0.0000 6.3338 0.0000
# 2 14.2831 92.4555 12.1667 0.0000 -2.7829 0.0000
# 3 2.7014 12.1667 52.1268 0.0000 0.8181 0.0000
# 4 0.0000 0.0000 0.0000 35.0768 0.0000 -5.2838
# 5 6.3338 -2.7829 0.8181 0.0000 22.0935 0.0000
# 6 0.0000 0.0000 0.0000 -5.2838 0.0000 27.5962
#
#
#
# Elastic Compliance Matrix: (Units=1/GPa)
#
#
# Indices 1 2 3 4 5 6 
#
# 1 0.035852 -0.005827 -0.000325 0.000000 -0.011000 0.000000
# 2 -0.005827 0.012156 -0.002587 0.000000 0.003297 0.000000
# 3 -0.000325 -0.002587 0.019820 0.000000 -0.000967 0.000000
# 4 0.000000 0.000000 0.000000 0.029356 0.000000 0.005621
# 5 -0.011000 0.003297 -0.000967 0.000000 0.048867 0.000000
# 6 0.000000 0.000000 0.000000 0.005621 0.000000 0.037313
#
#
# Mechanical properties :
#
#
# Convention : Reuss Voigt Hill
#
# Bulk Modulus (GPa) = 19.86134 26.11851 22.98993
# Shear Modulus (GPa) = 22.97538 26.79417 24.88478
#
# Velocity S-wave (km/s) = 3.34721 3.61470 3.48352
# Velocity P-wave (km/s) = 4.96223 5.49162 5.23362
#
# Compressibility (1/GPa) = 0.05034907
#
# Stress axis : x y z
#
# Youngs Moduli (GPa) = 27.89261 82.26472 50.45448
#
# Poissons Ratio (x) = 0.47935 0.01641
# Poissons Ratio (y) = 0.16253 0.13053
# Poissons Ratio (z) = 0.00907 0.21282
#
# Static dielectric constant tensor:
#      x y z
#    x 3.668100 0.000000 -0.006200 
#    y 0.000000 3.931090 0.000000 
#    z -0.006200 0.000000 3.565470 
# 
# 
# High freq. dielectric constant tensor:
#      x y z
#    x 1.791000 0.000000 -0.005370 
#    y 0.000000 1.809560 0.000000 
#    z -0.005370 0.000000 1.782990 
# 
# From -- ./inp_files/61974.got.cif
#   From: 2010.03.12/outbox.cif.g09.slc.cpg/sg14_31_cif.got.tgz:61974.got - 2010.03.31 13:35:05.
