data_PCOD8123029
_publ_section_title
;
Structure prediction by ZEFSAII (Michael W. Deem and Ramdas Pophale) SiO2 
 PCOD8123029
Probable space group: P 2/C
;
_chemical_formula_sum "Si O2"
_cell_formula_units_Z 18
_cell_length_a 8.806605
_cell_length_b 11.724528
_cell_length_c 11.096830
_cell_angle_alpha 90.000000
_cell_angle_beta 136.372115
_cell_angle_gamma 90.000000
_cell_volume 790.558888
_symmetry_space_group_name_H-M "P 2/C"
_symmetry_group_IT_number 13
_symmetry_cell_setting 'monoclinic'
loop_
_space_group_symop_operation_xyz
x,y,z
-x,y,1/2-z
-x,-y,-z
x,-y,1/2+z
loop_
_atom_site_type_symbol
_atom_site_label
_atom_site_fract_x
_atom_site_fract_y
_atom_site_fract_z
Si Si1 0.813800 0.330261 0.992177
Si Si2 0.245328 0.074416 0.541260
Si Si3 0.500000 0.516326 0.750000
Si Si4 0.721545 0.939209 0.707307
Si Si5 0.703548 0.681963 0.699107
O O1 0.766147 0.359612 0.103075
O O2 0.067270 0.327697 0.095726
O O3 0.701764 0.207188 0.907050
O O4 0.708905 0.433467 0.857595
O O5 0.341529 0.021111 0.468091
O O6 0.984796 0.062164 0.374965
O O7 0.356596 0.017256 0.724833
O O8 0.513559 0.600170 0.642451
O O9 0.621653 0.812346 0.661449
#
# Coordination Sequence:
#
# PCOD8123029 Si02
#       5
#     4   4   2   4   4
#     4   9  19  35  53  75 105 138 171 214 266 311
#     4   8  14  28  51  76 102 133 169 211 262 316
#     4  12  20  32  54  76 100 136 184 218 248 308
#     4   8  14  28  51  76 102 133 169 211 262 316
#     4   9  19  35  53  75 105 138 171 214 266 311
#
# _framework density 22.768702000000001
#
# number of rings (size 3 to 8) (size 9 to 14) (size 15 to 20)
#    0.000    3.111    0.000    4.000    0.000    0.000 
#    0.000    5.556    0.000   16.000    0.000    0.000 
#    0.000    0.000    0.000    0.000    0.000    1.778 
#
# Total GULP energy -222994.840269 kJ/mol
# GULP energy per Si atom -12388.602237 kJ/mol
# Density = 2.271688 g / cm^3
# Si number density = 22.768702 Si / 1000 Ang^3
#
#
#
# Elastic Constant Matrix: (Units=GPa)
#
#
# Indices 1 2 3 4 5 6 
#
# 1 96.2446 50.8987 18.2932 0.0000 -19.6105 0.0000
# 2 50.8987 130.4978 34.3404 0.0000 -31.8333 0.0000
# 3 18.2932 34.3404 114.4745 0.0000 -27.1679 0.0000
# 4 0.0000 0.0000 0.0000 1.7978 0.0000 -14.5795
# 5 -19.6105 -31.8333 -27.1679 0.0000 22.1458 0.0000
# 6 0.0000 0.0000 0.0000 -14.5795 0.0000 33.2745
#
#
#
# Elastic Compliance Matrix: (Units=1/GPa)
#
#
# Indices 1 2 3 4 5 6 
#
# 1 0.013785 -0.003652 0.000767 0.000000 0.007899 0.000000
# 2 -0.003652 0.012806 0.000484 0.000000 0.015769 0.000000
# 3 0.000767 0.000484 0.012406 0.000000 0.016595 0.000000
# 4 0.000000 0.000000 0.000000 -0.217849 0.000000 -0.095452
# 5 0.007899 0.015769 0.016595 0.000000 0.095175 0.000000
# 6 0.000000 0.000000 0.000000 -0.095452 0.000000 -0.011770
#
#
# Mechanical properties :
#
#
# Convention : Reuss Voigt Hill
#
# Bulk Modulus (GPa) = 29.24221 60.92017 45.08119
# Shear Modulus (GPa) = -63.09412 27.28925 -17.90244
#
# Velocity S-wave (km/s) = -5.26983 3.46575 -2.80710
# Velocity P-wave (km/s) = 4.91498 6.54442 3.05552
#
# Compressibility (1/GPa) = 0.03419714
#
# Stress axis : x y z
#
# Youngs Moduli (GPa) = 72.54257 78.08560 80.60520
#
# Poissons Ratio (x) = 0.28514 -0.06184
# Poissons Ratio (y) = 0.26490 -0.03903
# Poissons Ratio (z) = -0.05566 -0.03781
#
# Static dielectric constant tensor:
#      x y z
#    x 4.246220 0.000000 -0.016820 
#    y 0.000000 4.054470 0.000000 
#    z -0.016820 0.000000 4.301130 
# 
# 
# High freq. dielectric constant tensor:
#      x y z
#    x 1.906280 0.000000 0.010850 
#    y 0.000000 1.891180 0.000000 
#    z 0.010850 0.000000 1.902050 
# 
# From -- ./inp_files/11600.got.cif
#   From: 2010.06.25/outbox.cif.g09.slc.cpg/sg13_6_cif.got.tgz:11600.got - 2010.06.28 04:50:58.
