data_PCOD8123827
_publ_section_title
;
Structure prediction by ZEFSAII (Michael W. Deem and Ramdas Pophale) SiO2 
 PCOD8123827
Probable space group: P 21/C
;
_chemical_formula_sum "Si O2"
_cell_formula_units_Z 24
_cell_length_a 19.384023
_cell_length_b 8.568040
_cell_length_c 15.135336
_cell_angle_alpha 90.000000
_cell_angle_beta 153.450489
_cell_angle_gamma 90.000000
_cell_volume 1123.561376
_symmetry_space_group_name_H-M "P 21/C"
_symmetry_group_IT_number 14
_symmetry_cell_setting 'monoclinic'
loop_
_space_group_symop_operation_xyz
x,y,z
-x,1/2+y,1/2-z
-x,-y,-z
x,1/2-y,1/2+z
loop_
_atom_site_type_symbol
_atom_site_label
_atom_site_fract_x
_atom_site_fract_y
_atom_site_fract_z
Si Si1 0.691952 0.161159 0.455101
Si Si2 0.025075 0.506137 0.798710
Si Si3 0.806151 0.816555 0.293910
Si Si4 0.130124 0.878766 0.713068
Si Si5 0.212392 0.217017 0.034773
Si Si6 0.607338 0.821194 0.413691
O O1 0.831785 0.127194 0.547636
O O2 0.753940 0.257646 0.610208
O O3 0.565882 0.267060 0.259284
O O4 0.612251 0.003779 0.398631
O O5 0.957910 0.498248 0.820581
O O6 0.881425 0.553344 0.570082
O O7 0.089337 0.335865 0.847301
O O8 0.734798 0.771066 0.307741
O O9 0.991630 0.784119 0.506029
O O10 0.775704 0.002397 0.242522
O O11 0.724190 0.711031 0.127277
O O12 0.355864 0.217236 0.132055
#
# Coordination Sequence:
#
# PCOD8123827 Si02
#       6
#     4   4   4   4   4   4
#     4  11  23  41  65  95 127 175 207 258 327 372
#     4  10  18  38  63  91 119 165 209 253 303 375
#     4  10  20  39  64  95 127 165 216 262 310 378
#     4  10  20  38  65  93 126 169 214 260 309 377
#     4  10  21  38  63  92 127 164 211 254 315 373
#     4  11  24  40  65  91 134 169 206 266 320 378
#
# _framework density 21.36065
#
# number of rings (size 3 to 8) (size 9 to 14) (size 15 to 20)
#    0.000    1.667    5.000    1.000    0.000    0.667 
#    0.000   15.833    0.000    0.000    0.000    0.000 
#    0.000    0.000    0.000    0.000    0.000    0.000 
#
# Total GULP energy -297379.780139 kJ/mol
# GULP energy per Si atom -12390.824172 kJ/mol
# Density = 2.131203 g / cm^3
# Si number density = 21.360650 Si / 1000 Ang^3
#
#
#
# Elastic Constant Matrix: (Units=GPa)
#
#
# Indices 1 2 3 4 5 6 
#
# 1 82.0717 15.6170 30.2144 0.0000 -6.4404 0.0000
# 2 15.6170 69.7899 47.7921 0.0000 -2.1298 0.0000
# 3 30.2144 47.7921 117.7167 0.0000 -9.8366 0.0000
# 4 0.0000 0.0000 0.0000 44.4229 0.0000 -1.2704
# 5 -6.4404 -2.1298 -9.8366 0.0000 27.8390 0.0000
# 6 0.0000 0.0000 0.0000 -1.2704 0.0000 31.1726
#
#
#
# Elastic Compliance Matrix: (Units=1/GPa)
#
#
# Indices 1 2 3 4 5 6 
#
# 1 0.013608 -0.000980 -0.002924 0.000000 0.002040 0.000000
# 2 -0.000980 0.019968 -0.007982 0.000000 -0.001520 0.000000
# 3 -0.002924 -0.007982 0.012755 0.000000 0.003220 0.000000
# 4 0.000000 0.000000 0.000000 0.022537 0.000000 0.000918
# 5 0.002040 -0.001520 0.003220 0.000000 0.037414 0.000000
# 6 0.000000 0.000000 0.000000 0.000918 0.000000 0.032117
#
#
# Mechanical properties :
#
#
# Convention : Reuss Voigt Hill
#
# Bulk Modulus (GPa) = 44.33122 50.75836 47.54479
# Shear Modulus (GPa) = 29.46523 32.41723 30.94123
#
# Velocity S-wave (km/s) = 3.71808 3.89988 3.81007
# Velocity P-wave (km/s) = 6.26346 6.64025 6.45460
#
# Compressibility (1/GPa) = 0.02255747
#
# Stress axis : x y z
#
# Youngs Moduli (GPa) = 73.48824 50.08036 78.39870
#
# Poissons Ratio (x) = 0.04909 0.22926
# Poissons Ratio (y) = 0.07203 0.62579
# Poissons Ratio (z) = 0.21490 0.39975
#
# Static dielectric constant tensor:
#      x y z
#    x 3.797710 0.000000 0.133730 
#    y 0.000000 3.883060 0.000000 
#    z 0.133730 0.000000 3.802000 
# 
# 
# High freq. dielectric constant tensor:
#      x y z
#    x 1.816600 0.000000 0.005090 
#    y 0.000000 1.834490 0.000000 
#    z 0.005090 0.000000 1.830110 
# 
# From -- ./inp_files/61730.got.cif
#   From: 2010.03.12/outbox.cif.g09.slc.cpg/sg14_31_cif.got.tgz:61730.got - 2010.03.31 13:35:05.
