data_PCOD8123936
_publ_section_title
;
Structure prediction by ZEFSAII (Michael W. Deem and Ramdas Pophale) SiO2 
 PCOD8123936
Probable space group: P 21/C
;
_chemical_formula_sum "Si O2"
_cell_formula_units_Z 32
_cell_length_a 17.321717
_cell_length_b 19.178638
_cell_length_c 16.425068
_cell_angle_alpha 90.000000
_cell_angle_beta 162.383013
_cell_angle_gamma 90.000000
_cell_volume 1651.429780
_symmetry_space_group_name_H-M "P 21/C"
_symmetry_group_IT_number 14
_symmetry_cell_setting 'monoclinic'
loop_
_space_group_symop_operation_xyz
x,y,z
-x,1/2+y,1/2-z
-x,-y,-z
x,1/2-y,1/2+z
loop_
_atom_site_type_symbol
_atom_site_label
_atom_site_fract_x
_atom_site_fract_y
_atom_site_fract_z
Si Si1 0.440141 0.808071 0.038818
Si Si2 0.338312 0.707138 0.797119
Si Si3 0.971244 0.524056 0.153374
Si Si4 0.466321 0.973850 0.057121
Si Si5 0.695759 0.439215 0.191567
Si Si6 0.945833 0.973341 0.811713
Si Si7 0.818821 0.821751 0.684992
Si Si8 0.946466 0.688796 0.133786
O O1 0.450141 0.890848 0.040535
O O2 0.713278 0.780908 0.345658
O O3 0.375077 0.776811 0.885692
O O4 0.217475 0.781461 0.876030
O O5 0.408856 0.639289 0.924686
O O6 0.044845 0.700932 0.473557
O O7 0.547706 0.712033 0.935955
O O8 0.964146 0.606488 0.143178
O O9 0.208191 0.495204 0.338191
O O10 0.007755 0.498794 0.283578
O O11 0.704705 0.496479 0.848869
O O12 0.500000 0.000000 0.000000
O O13 0.816605 0.439102 0.403155
O O14 0.867831 0.459250 0.286668
O O15 0.500000 0.500000 0.000000
O O16 0.758771 0.905645 0.619568
O O17 0.899686 0.790160 0.679750
#
# Coordination Sequence:
#
# PCOD8123936 Si02
#       8
#     4   4   4   4   4   4   4   4
#     4  10  20  35  55  78 102 137 174 217 261 315
#     4  11  21  33  54  78 107 141 172 210 263 316
#     4   9  19  32  57  82 101 134 174 223 262 305
#     4  10  20  36  58  79 102 134 178 226 270 309
#     4  10  19  32  52  77 112 145 171 212 256 312
#     4   9  19  32  51  81 108 136 182 215 252 308
#     4  10  19  33  55  80 101 137 179 217 252 304
#     4   9  18  34  55  77 101 131 179 220 252 301
#
# _framework density 19.377148999999999
#
# number of rings (size 3 to 8) (size 9 to 14) (size 15 to 20)
#    0.000    2.250    1.250    1.875    1.750    3.000 
#    0.000    0.000    8.250    0.000    0.000    0.000 
#    0.000    0.000    0.000    0.000    0.000    0.000 
#
# Total GULP energy -396527.975330 kJ/mol
# GULP energy per Si atom -12391.499229 kJ/mol
# Density = 1.933305 g / cm^3
# Si number density = 19.377149 Si / 1000 Ang^3
#
#
#
# Elastic Constant Matrix: (Units=GPa)
#
#
# Indices 1 2 3 4 5 6 
#
# 1 143.5221 18.4527 51.0082 0.0000 1.0030 0.0000
# 2 18.4527 22.3993 15.8452 0.0000 -0.2488 0.0000
# 3 51.0082 15.8452 107.5287 0.0000 13.6305 0.0000
# 4 0.0000 0.0000 0.0000 18.0987 0.0000 -2.7510
# 5 1.0030 -0.2488 13.6305 0.0000 33.7770 0.0000
# 6 0.0000 0.0000 0.0000 -2.7510 0.0000 23.4649
#
#
#
# Elastic Compliance Matrix: (Units=1/GPa)
#
#
# Indices 1 2 3 4 5 6 
#
# 1 0.008865 -0.004699 -0.003662 0.000000 0.001180 0.000000
# 2 -0.004699 0.052729 -0.005910 0.000000 0.002913 0.000000
# 3 -0.003662 -0.005910 0.012541 0.000000 -0.004996 0.000000
# 4 0.000000 0.000000 0.000000 0.056255 0.000000 0.006595
# 5 0.001180 0.002913 -0.004996 0.000000 0.031608 0.000000
# 6 0.000000 0.000000 0.000000 0.006595 0.000000 0.043390
#
#
# Mechanical properties :
#
#
# Convention : Reuss Voigt Hill
#
# Bulk Modulus (GPa) = 21.93383 49.34025 35.63704
# Shear Modulus (GPa) = 20.06988 27.61106 23.84047
#
# Velocity S-wave (km/s) = 3.22180 3.77892 3.51142
# Velocity P-wave (km/s) = 5.01836 6.67523 5.90520
#
# Compressibility (1/GPa) = 0.04559167
#
# Stress axis : x y z
#
# Youngs Moduli (GPa) = 112.80118 18.96500 79.73616
#
# Poissons Ratio (x) = 0.08912 0.29203
# Poissons Ratio (y) = 0.53008 0.47125
# Poissons Ratio (z) = 0.41313 0.11208
#
# Static dielectric constant tensor:
#      x y z
#    x 0.945900 0.000000 -1.028810 
#    y 0.000000 1.239100 0.000000 
#    z -1.028810 0.000000 3.221200 
# 
# 
# High freq. dielectric constant tensor:
#      x y z
#    x 1.759140 0.000000 0.007110 
#    y 0.000000 1.705740 0.000000 
#    z 0.007110 0.000000 1.763860 
# 
# From -- ./inp_files/47675.got.cif
#   From: 2010.03.12/outbox.cif.g09.slc.cpg/sg14_24_cif.got.tgz:47675.got - 2010.03.31 13:35:05.
