data_PCOD8123076
_publ_section_title
;
Structure prediction by ZEFSAII (Michael W. Deem and Ramdas Pophale) SiO2 
 PCOD8123076
Probable space group: P 2/C
;
_chemical_formula_sum "Si O2"
_cell_formula_units_Z 28
_cell_length_a 29.905265
_cell_length_b 8.768256
_cell_length_c 30.347261
_cell_angle_alpha 90.000000
_cell_angle_beta 170.208958
_cell_angle_gamma 90.000000
_cell_volume 1353.227718
_symmetry_space_group_name_H-M "P 2/C"
_symmetry_group_IT_number 13
_symmetry_cell_setting 'monoclinic'
loop_
_space_group_symop_operation_xyz
x,y,z
-x,y,1/2-z
-x,-y,-z
x,-y,1/2+z
loop_
_atom_site_type_symbol
_atom_site_label
_atom_site_fract_x
_atom_site_fract_y
_atom_site_fract_z
Si Si1 0.769389 0.919753 0.249998
Si Si2 0.370134 0.465769 0.749997
Si Si3 0.593828 0.864734 0.250020
Si Si4 0.500000 0.756343 0.250000
Si Si5 0.125512 0.040842 0.750018
Si Si6 0.906182 0.624790 0.249998
Si Si7 0.000000 0.541815 0.750000
Si Si8 0.733046 0.415814 0.750000
O O1 0.822694 0.917105 0.249986
O O2 0.752948 0.749706 0.250001
O O3 0.000000 0.000000 0.500000
O O4 0.500000 0.000000 0.000000
O O5 0.400420 0.316975 0.749988
O O6 0.319940 0.407044 0.750003
O O7 0.129904 0.567375 0.500162
O O8 0.629580 0.567368 0.999836
O O9 0.540428 0.878136 0.250024
O O10 0.866120 0.939653 0.500828
O O11 0.364509 0.939662 0.999218
O O12 0.750599 0.648935 0.500602
O O13 0.094831 0.191583 0.750011
O O14 0.957141 0.568533 0.250006
O O15 0.500000 0.500000 0.500000
O O16 0.000000 0.500000 0.000000
#
# Coordination Sequence:
#
# PCOD8123076 Si02
#       8
#     4   4   4   2   4   4   2   4
#     4  12  25  45  67  95 138 182 220 273 332 405
#     4  12  23  44  68  98 128 181 226 271 327 394
#     4  12  25  44  70  97 133 173 222 277 322 403
#     4  12  24  46  70 102 130 168 232 274 328 394
#     4  12  26  44  66 103 136 175 220 275 345 384
#     4  12  25  43  70  98 138 172 219 280 334 404
#     4  12  22  46  70 102 128 174 222 268 344 400
#     4  12  25  42  67  97 132 174 228 279 326 383
#
# _framework density 20.691268000000001
#
# number of rings (size 3 to 8) (size 9 to 14) (size 15 to 20)
#    0.000    0.000    2.857    8.571    0.000    1.143 
#    0.000    0.000    0.000    0.000    0.000    0.000 
#    0.000    0.000    0.000    0.000    0.000    0.000 
#
# Total GULP energy -347387.959973 kJ/mol
# GULP energy per Si atom -12406.712856 kJ/mol
# Density = 2.064417 g / cm^3
# Si number density = 20.691268 Si / 1000 Ang^3
#
#
#
# Elastic Constant Matrix: (Units=GPa)
#
#
# Indices 1 2 3 4 5 6 
#
# 1 128.1796 3.4185 25.7311 0.0000 -1.7875 0.0000
# 2 3.4185 117.3202 56.5621 0.0000 2.3360 0.0000
# 3 25.7311 56.5621 189.8767 0.0000 4.5078 0.0000
# 4 0.0000 0.0000 0.0000 8.8953 0.0000 -0.8596
# 5 -1.7875 2.3360 4.5078 0.0000 31.1223 0.0000
# 6 0.0000 0.0000 0.0000 -0.8596 0.0000 28.6109
#
#
#
# Elastic Compliance Matrix: (Units=1/GPa)
#
#
# Indices 1 2 3 4 5 6 
#
# 1 0.008043 0.000334 -0.001204 0.000000 0.000611 0.000000
# 2 0.000334 0.009970 -0.003008 0.000000 -0.000293 0.000000
# 3 -0.001204 -0.003008 0.006344 0.000000 -0.000762 0.000000
# 4 0.000000 0.000000 0.000000 0.112746 0.000000 0.003388
# 5 0.000611 -0.000293 -0.000762 0.000000 0.032299 0.000000
# 6 0.000000 0.000000 0.000000 0.003388 0.000000 0.035053
#
#
# Mechanical properties :
#
#
# Convention : Reuss Voigt Hill
#
# Bulk Modulus (GPa) = 60.23961 67.42222 63.83092
# Shear Modulus (GPa) = 22.96260 37.03669 29.99964
#
# Velocity S-wave (km/s) = 3.33494 4.23539 3.81185
# Velocity P-wave (km/s) = 6.63369 7.52155 7.09153
#
# Compressibility (1/GPa) = 0.01660037
#
# Stress axis : x y z
#
# Youngs Moduli (GPa) = 124.33411 100.29955 157.63055
#
# Poissons Ratio (x) = -0.03349 0.18977
# Poissons Ratio (y) = -0.04151 0.47420
# Poissons Ratio (z) = 0.14969 0.30173
#
# Static dielectric constant tensor:
#      x y z
#    x 4.178670 0.000000 -0.009340 
#    y 0.000000 3.815840 0.000000 
#    z -0.009340 0.000000 3.966220 
# 
# 
# High freq. dielectric constant tensor:
#      x y z
#    x 1.833200 0.000000 0.000110 
#    y 0.000000 1.820730 0.000000 
#    z 0.000110 0.000000 1.835640 
# 
# From -- ./inp_files/97996.got.cif
#   From: 2010.06.25/outbox.cif.g09.slc.cpg/sg13_49_cif.got.tgz:97996.got - 2010.06.28 04:50:58.
