data_PCOD8123188
_publ_section_title
;
Structure prediction by ZEFSAII (Michael W. Deem and Ramdas Pophale) SiO2 
 PCOD8123188
Probable space group: P 2/C
;
_chemical_formula_sum "Si O2"
_cell_formula_units_Z 18
_cell_length_a 11.973216
_cell_length_b 8.201564
_cell_length_c 9.936166
_cell_angle_alpha 90.000000
_cell_angle_beta 125.655226
_cell_angle_gamma 90.000000
_cell_volume 792.812893
_symmetry_space_group_name_H-M "P 2/C"
_symmetry_group_IT_number 13
_symmetry_cell_setting 'monoclinic'
loop_
_space_group_symop_operation_xyz
x,y,z
-x,y,1/2-z
-x,-y,-z
x,-y,1/2+z
loop_
_atom_site_type_symbol
_atom_site_label
_atom_site_fract_x
_atom_site_fract_y
_atom_site_fract_z
Si Si1 0.806151 0.422219 0.501391
Si Si2 0.000000 0.322566 0.250000
Si Si3 0.588185 0.942800 0.185492
Si Si4 0.876664 0.876960 0.890603
Si Si5 0.362776 0.421481 0.848128
O O1 0.917175 0.567383 0.584887
O O2 0.879631 0.253029 0.514408
O O3 0.742530 0.399927 0.603825
O O4 0.695297 0.459858 0.307829
O O5 0.106157 0.211735 0.241231
O O6 0.500000 0.000184 0.250000
O O7 0.607568 0.749732 0.200657
O O8 0.734595 0.028229 0.289553
O O9 0.500000 0.000000 0.000000
O O10 0.000000 0.000000 0.000000
O O11 0.500000 0.500000 0.000000
#
# Coordination Sequence:
#
# PCOD8123188 Si02
#       5
#     4   2   4   4   4
#     4  12  26  50  74 114 148 200 256 316 380 461
#     4  12  28  48  78 112 152 202 262 312 386 460
#     4  12  28  49  74 111 154 200 253 315 385 451
#     4  12  29  48  80 112 155 201 255 321 385 450
#     4  12  26  47  79 108 153 202 255 310 386 465
#
# _framework density 22.703970000000002
#
# number of rings (size 3 to 8) (size 9 to 14) (size 15 to 20)
#    0.000    0.000    2.222    6.667   12.444    0.000 
#    0.000    0.000    0.000    0.000    0.000    0.000 
#    0.000    0.000    0.000    0.000    0.000    0.000 
#
# Total GULP energy -223366.061539 kJ/mol
# GULP energy per Si atom -12409.225641 kJ/mol
# Density = 2.265229 g / cm^3
# Si number density = 22.703970 Si / 1000 Ang^3
#
#
#
# Elastic Constant Matrix: (Units=GPa)
#
#
# Indices 1 2 3 4 5 6 
#
# 1 155.2369 62.2891 59.0432 0.0000 10.1085 0.0000
# 2 62.2891 143.2758 47.9410 0.0000 19.5059 0.0000
# 3 59.0432 47.9410 136.4916 0.0000 12.1426 0.0000
# 4 0.0000 0.0000 0.0000 44.5044 0.0000 1.4144
# 5 10.1085 19.5059 12.1426 0.0000 47.6907 0.0000
# 6 0.0000 0.0000 0.0000 1.4144 0.0000 54.3478
#
#
#
# Elastic Compliance Matrix: (Units=1/GPa)
#
#
# Indices 1 2 3 4 5 6 
#
# 1 0.008618 -0.002836 -0.002734 0.000000 0.000029 0.000000
# 2 -0.002836 0.009167 -0.001753 0.000000 -0.002702 0.000000
# 3 -0.002734 -0.001753 0.009218 0.000000 -0.001051 0.000000
# 4 0.000000 0.000000 0.000000 0.022488 0.000000 -0.000585
# 5 0.000029 -0.002702 -0.001051 0.000000 0.022335 0.000000
# 6 0.000000 0.000000 0.000000 -0.000585 0.000000 0.018415
#
#
# Mechanical properties :
#
#
# Convention : Reuss Voigt Hill
#
# Bulk Modulus (GPa) = 80.92415 85.95011 83.43713
# Shear Modulus (GPa) = 45.86920 47.02396 46.44658
#
# Velocity S-wave (km/s) = 4.49967 4.55596 4.52790
# Velocity P-wave (km/s) = 7.91938 8.10029 8.01035
#
# Compressibility (1/GPa) = 0.01235725
#
# Stress axis : x y z
#
# Youngs Moduli (GPa) = 116.04083 109.09155 108.47858
#
# Poissons Ratio (x) = 0.30933 0.29663
# Poissons Ratio (y) = 0.32904 0.19013
# Poissons Ratio (z) = 0.31731 0.19120
#
# Static dielectric constant tensor:
#      x y z
#    x 3.934090 0.000000 0.358020 
#    y 0.000000 4.418180 0.000000 
#    z 0.358020 0.000000 3.691690 
# 
# 
# High freq. dielectric constant tensor:
#      x y z
#    x 1.918900 0.000000 -0.003490 
#    y 0.000000 1.913430 0.000000 
#    z -0.003490 0.000000 1.903910 
# 
# From -- ./inp_files/14763.got.cif
#   From: 2010.06.25/outbox.cif.g09.slc.cpg/sg13_8_cif.got.tgz:14763.got - 2010.06.28 04:50:58.
