data_PCOD8123744
_publ_section_title
;
Structure prediction by ZEFSAII (Michael W. Deem and Ramdas Pophale) SiO2 
 PCOD8123744
Probable space group: P 21/C
;
_chemical_formula_sum "Si O2"
_cell_formula_units_Z 32
_cell_length_a 25.717041
_cell_length_b 8.291702
_cell_length_c 20.894584
_cell_angle_alpha 90.000000
_cell_angle_beta 159.508870
_cell_angle_gamma 90.000000
_cell_volume 1559.709942
_symmetry_space_group_name_H-M "P 21/C"
_symmetry_group_IT_number 14
_symmetry_cell_setting 'monoclinic'
loop_
_space_group_symop_operation_xyz
x,y,z
-x,1/2+y,1/2-z
-x,-y,-z
x,1/2-y,1/2+z
loop_
_atom_site_type_symbol
_atom_site_label
_atom_site_fract_x
_atom_site_fract_y
_atom_site_fract_z
Si Si1 0.322517 0.472396 0.745150
Si Si2 0.382352 0.362538 0.946180
Si Si3 0.678846 0.207837 0.961969
Si Si4 0.121340 0.957193 0.906138
Si Si5 0.922033 0.791122 0.243466
Si Si6 0.142353 0.587066 0.732370
Si Si7 0.098574 0.826202 0.048967
Si Si8 0.607633 0.859188 0.927562
O O1 0.337482 0.335837 0.818920
O O2 0.210386 0.424710 0.558198
O O3 0.261627 0.639108 0.707505
O O4 0.478928 0.515435 0.893358
O O5 0.253749 0.451211 0.836049
O O6 0.412051 0.196682 0.020414
O O7 0.794594 0.316659 0.134852
O O8 0.758781 0.162860 0.987672
O O9 0.533736 0.310934 0.777925
O O10 0.632975 0.051542 0.951550
O O11 0.043574 0.058398 0.761270
O O12 0.985757 0.869035 0.784168
O O13 0.014573 0.820318 0.416206
O O14 0.748255 0.768350 0.057673
O O15 0.109075 0.713086 0.636133
O O16 0.990196 0.493109 0.571086
#
# Coordination Sequence:
#
# PCOD8123744 Si02
#       8
#     4   4   4   4   4   4   4   4
#     4   9  19  34  57  84 109 150 193 231 277 352
#     4  10  18  36  61  81 112 150 195 238 281 336
#     4  11  24  37  59  86 121 149 196 238 296 346
#     4  10  22  38  55  87 115 150 193 235 292 347
#     4  10  22  37  57  83 116 149 188 240 282 346
#     4  10  20  36  62  84 108 157 192 238 282 350
#     4   9  19  37  60  82 113 147 199 229 291 342
#     4  11  22  39  56  88 114 154 192 243 291 346
#
# _framework density 20.516635999999998
#
# number of rings (size 3 to 8) (size 9 to 14) (size 15 to 20)
#    0.000    2.000    2.500    0.750    5.250    0.000 
#    0.000    3.750    0.000    6.750    0.000    0.000 
#    0.000    0.000    0.000    0.000    0.000    0.000 
#
# Total GULP energy -396447.821792 kJ/mol
# GULP energy per Si atom -12388.994431 kJ/mol
# Density = 2.046994 g / cm^3
# Si number density = 20.516636 Si / 1000 Ang^3
#
#
#
# Elastic Constant Matrix: (Units=GPa)
#
#
# Indices 1 2 3 4 5 6 
#
# 1 61.5882 6.3099 11.4244 0.0000 -10.9034 0.0000
# 2 6.3099 37.3961 11.0312 0.0000 -4.2957 0.0000
# 3 11.4244 11.0312 88.0972 0.0000 -9.0909 0.0000
# 4 0.0000 0.0000 0.0000 29.1710 0.0000 -4.8177
# 5 -10.9034 -4.2957 -9.0909 0.0000 21.9246 0.0000
# 6 0.0000 0.0000 0.0000 -4.8177 0.0000 25.7066
#
#
#
# Elastic Compliance Matrix: (Units=1/GPa)
#
#
# Indices 1 2 3 4 5 6 
#
# 1 0.018092 -0.001739 -0.001290 0.000000 0.008122 0.000000
# 2 -0.001739 0.028305 -0.002962 0.000000 0.003453 0.000000
# 3 -0.001290 -0.002962 0.012289 0.000000 0.003873 0.000000
# 4 0.000000 0.000000 0.000000 0.035376 0.000000 0.006630
# 5 0.008122 0.003453 0.003873 0.000000 0.051932 0.000000
# 6 0.000000 0.000000 0.000000 0.006630 0.000000 0.040143
#
#
# Mechanical properties :
#
#
# Convention : Reuss Voigt Hill
#
# Bulk Modulus (GPa) = 21.41226 27.17917 24.29572
# Shear Modulus (GPa) = 23.39857 25.91484 24.65671
#
# Velocity S-wave (km/s) = 3.38075 3.55789 3.47045
# Velocity P-wave (km/s) = 5.06936 5.49129 5.28454
#
# Compressibility (1/GPa) = 0.04670222
#
# Stress axis : x y z
#
# Youngs Moduli (GPa) = 55.27231 35.32987 81.37310
#
# Poissons Ratio (x) = 0.06144 0.10500
# Poissons Ratio (y) = 0.09613 0.24106
# Poissons Ratio (z) = 0.07132 0.10466
#
# Static dielectric constant tensor:
#      x y z
#    x 4.106270 0.000000 -0.204170 
#    y 0.000000 3.199020 0.000000 
#    z -0.204170 0.000000 4.074300 
# 
# 
# High freq. dielectric constant tensor:
#      x y z
#    x 1.824200 0.000000 -0.000750 
#    y 0.000000 1.737120 0.000000 
#    z -0.000750 0.000000 1.821780 
# 
# From -- ./inp_files/69171.got.cif
#   From: 2010.03.12/outbox.cif.g09.slc.cpg/sg14_35_cif.got.tgz:69171.got - 2010.03.31 13:35:05.
