data_PCOD8123899
_publ_section_title
;
Structure prediction by ZEFSAII (Michael W. Deem and Ramdas Pophale) SiO2 
 PCOD8123899
Probable space group: P 21/C
;
_chemical_formula_sum "Si O2"
_cell_formula_units_Z 32
_cell_length_a 11.274804
_cell_length_b 18.249241
_cell_length_c 9.311061
_cell_angle_alpha 90.000000
_cell_angle_beta 114.388032
_cell_angle_gamma 90.000000
_cell_volume 1744.864324
_symmetry_space_group_name_H-M "P 21/C"
_symmetry_group_IT_number 14
_symmetry_cell_setting 'monoclinic'
loop_
_space_group_symop_operation_xyz
x,y,z
-x,1/2+y,1/2-z
-x,-y,-z
x,1/2-y,1/2+z
loop_
_atom_site_type_symbol
_atom_site_label
_atom_site_fract_x
_atom_site_fract_y
_atom_site_fract_z
Si Si1 0.718328 0.933998 0.028263
Si Si2 0.999390 0.087170 0.157789
Si Si3 0.504507 0.324250 0.918201
Si Si4 0.281671 0.433997 0.809936
Si Si5 0.245048 0.917011 0.455546
Si Si6 0.754952 0.417011 0.710496
Si Si7 0.495493 0.675751 0.413694
Si Si8 0.999389 0.087168 0.841600
O O1 0.853602 0.890655 0.130980
O O2 0.708295 0.009729 0.108595
O O3 0.710661 0.952672 0.855329
O O4 0.600044 0.883536 0.021193
O O5 0.891280 0.114559 0.216403
O O6 0.146399 0.109348 0.277379
O O7 0.000006 0.000001 0.152326
O O8 0.965318 0.118976 0.982659
O O9 0.399957 0.383536 0.921151
O O10 0.479887 0.307489 0.739944
O O11 0.648688 0.354500 0.018003
O O12 0.483327 0.250000 0.991663
O O13 0.291703 0.509727 0.900303
O O14 0.226618 0.934958 0.613310
O O15 0.108720 0.885442 0.325125
O O16 0.648688 0.354499 0.630684
#
# Coordination Sequence:
#
# PCOD8123899 Si02
#       8
#     4   4   4   4   4   4   4   4
#     4   9  18  34  54  75  99 129 166 203 243 294
#     4   8  15  29  50  74 100 129 159 197 245 293
#     4  10  22  37  51  71 100 133 169 206 244 290
#     4   9  18  34  54  75  99 129 166 203 243 294
#     4  10  19  31  51  79 104 126 160 205 247 291
#     4  10  19  31  51  79 104 126 160 205 247 291
#     4  10  22  37  51  71 100 133 169 206 244 290
#     4   8  15  29  50  74 100 129 159 197 245 293
#
# _framework density 18.339535000000001
#
# number of rings (size 3 to 8) (size 9 to 14) (size 15 to 20)
#    0.000    2.750    0.000    3.000    0.000    7.500 
#    0.000    1.250    0.000    6.000    0.000    0.000 
#    0.000    0.000    0.000    0.000    0.000    0.000 
#
# Total GULP energy -396713.452470 kJ/mol
# GULP energy per Si atom -12397.295390 kJ/mol
# Density = 1.829779 g / cm^3
# Si number density = 18.339535 Si / 1000 Ang^3
#
#
#
# Elastic Constant Matrix: (Units=GPa)
#
#
# Indices 1 2 3 4 5 6 
#
# 1 87.7611 9.2391 29.3185 0.0000 -1.9257 0.0000
# 2 9.2391 40.1566 26.0994 0.0000 -7.6281 0.0000
# 3 29.3185 26.0994 79.3096 0.0000 5.7490 0.0000
# 4 0.0000 0.0000 0.0000 22.6961 0.0000 -5.5299
# 5 -1.9257 -7.6281 5.7490 0.0000 27.8780 0.0000
# 6 0.0000 0.0000 0.0000 -5.5299 0.0000 10.4730
#
#
#
# Elastic Compliance Matrix: (Units=1/GPa)
#
#
# Indices 1 2 3 4 5 6 
#
# 1 0.013122 0.000842 -0.005289 0.000000 0.002227 0.000000
# 2 0.000842 0.035430 -0.012870 0.000000 0.012407 0.000000
# 3 -0.005289 -0.012870 0.019371 0.000000 -0.007882 0.000000
# 4 0.000000 0.000000 0.000000 0.050566 0.000000 0.026700
# 5 0.002227 0.012407 -0.007882 0.000000 0.041045 0.000000
# 6 0.000000 0.000000 0.000000 0.026700 0.000000 0.109581
#
#
# Mechanical properties :
#
#
# Convention : Reuss Voigt Hill
#
# Bulk Modulus (GPa) = 30.04093 37.39347 33.71720
# Shear Modulus (GPa) = 15.88081 21.71412 18.79747
#
# Velocity S-wave (km/s) = 2.94587 3.44467 3.20499
# Velocity P-wave (km/s) = 5.29026 6.02120 5.66752
#
# Compressibility (1/GPa) = 0.03328792
#
# Stress axis : x y z
#
# Youngs Moduli (GPa) = 76.20906 28.22436 51.62437
#
# Poissons Ratio (x) = -0.02376 0.27305
# Poissons Ratio (y) = -0.06415 0.66441
# Poissons Ratio (z) = 0.40309 0.36325
#
# Static dielectric constant tensor:
#      x y z
#    x 3.905940 0.000000 0.199480 
#    y 0.000000 2.913810 0.000000 
#    z 0.199480 0.000000 3.465080 
# 
# 
# High freq. dielectric constant tensor:
#      x y z
#    x 1.730600 0.000000 0.008110 
#    y 0.000000 1.666680 0.000000 
#    z 0.008110 0.000000 1.712680 
# 
# From -- ./inp_files/13778.got.cif
#   From: 2010.03.12/outbox.cif.g09.slc.cpg/sg14_7_cif.got.tgz:13778.got - 2010.03.31 13:35:05.
