data_PCOD8123155
_publ_section_title
;
Structure prediction by ZEFSAII (Michael W. Deem and Ramdas Pophale) SiO2 
 PCOD8123155
Probable space group: P 2/C
;
_chemical_formula_sum "Si O2"
_cell_formula_units_Z 12
_cell_length_a 13.831716
_cell_length_b 4.929579
_cell_length_c 8.774298
_cell_angle_alpha 90.000000
_cell_angle_beta 119.776350
_cell_angle_gamma 90.000000
_cell_volume 519.281974
_symmetry_space_group_name_H-M "P 2/C"
_symmetry_group_IT_number 13
_symmetry_cell_setting 'monoclinic'
loop_
_space_group_symop_operation_xyz
x,y,z
-x,y,1/2-z
-x,-y,-z
x,-y,1/2+z
loop_
_atom_site_type_symbol
_atom_site_label
_atom_site_fract_x
_atom_site_fract_y
_atom_site_fract_z
Si Si1 0.951680 0.254466 0.047765
Si Si2 0.696370 0.687069 0.300390
Si Si3 0.383637 0.152656 0.439080
O O1 0.000000 0.232644 0.250000
O O2 0.821379 0.325136 0.957850
O O3 0.000000 0.500000 0.000000
O O4 0.000000 0.000000 0.000000
O O5 0.621860 0.770334 0.387879
O O6 0.704063 0.921121 0.177286
O O7 0.640712 0.416150 0.185786
O O8 0.500000 0.000000 0.500000
#
# Coordination Sequence:
#
# PCOD8123155 Si02
#       3
#     4   4   4
#     4  12  25  44  71 105 142 185 232 287 354 425
#     4  12  25  47  71 103 142 185 234 293 351 421
#     4  12  27  47  72 102 139 186 236 292 354 416
#
# _framework density 23.108834000000002
#
# number of rings (size 3 to 8) (size 9 to 14) (size 15 to 20)
#    0.000    0.000    0.000   11.000    0.000    2.667 
#    0.000    0.000    0.000    0.000    0.000    0.000 
#    0.000    0.000    0.000    0.000    0.000    0.000 
#
# Total GULP energy -148671.579888 kJ/mol
# GULP energy per Si atom -12389.298324 kJ/mol
# Density = 2.305624 g / cm^3
# Si number density = 23.108834 Si / 1000 Ang^3
#
#
#
# Elastic Constant Matrix: (Units=GPa)
#
#
# Indices 1 2 3 4 5 6 
#
# 1 121.0440 56.5140 47.6701 0.0000 9.0151 0.0000
# 2 56.5140 213.3365 77.6643 0.0000 -10.8437 0.0000
# 3 47.6701 77.6643 148.1137 0.0000 -2.5518 0.0000
# 4 0.0000 0.0000 0.0000 60.5481 0.0000 1.2336
# 5 9.0151 -10.8437 -2.5518 0.0000 37.8028 0.0000
# 6 0.0000 0.0000 0.0000 1.2336 0.0000 41.8998
#
#
#
# Elastic Compliance Matrix: (Units=1/GPa)
#
#
# Indices 1 2 3 4 5 6 
#
# 1 0.010379 -0.002073 -0.002309 0.000000 -0.003226 0.000000
# 2 -0.002073 0.006289 -0.002594 0.000000 0.002123 0.000000
# 3 -0.002309 -0.002594 0.008862 0.000000 0.000405 0.000000
# 4 0.000000 0.000000 0.000000 0.016526 0.000000 -0.000487
# 5 -0.003226 0.002123 0.000405 0.000000 0.027859 0.000000
# 6 0.000000 0.000000 0.000000 -0.000487 0.000000 0.023881
#
#
# Mechanical properties :
#
#
# Convention : Reuss Voigt Hill
#
# Bulk Modulus (GPa) = 86.37098 94.02120 90.19609
# Shear Modulus (GPa) = 44.80079 48.09319 46.44699
#
# Velocity S-wave (km/s) = 4.40783 4.56692 4.48808
# Velocity P-wave (km/s) = 7.96003 8.28152 8.12237
#
# Compressibility (1/GPa) = 0.01157796
#
# Stress axis : x y z
#
# Youngs Moduli (GPa) = 96.35018 159.01538 112.84356
#
# Poissons Ratio (x) = 0.32960 0.26057
# Poissons Ratio (y) = 0.19971 0.29270
# Poissons Ratio (z) = 0.22248 0.41246
#
# Static dielectric constant tensor:
#      x y z
#    x 2.094220 0.000000 0.233690 
#    y 0.000000 4.702470 0.000000 
#    z 0.233690 0.000000 4.932910 
# 
# 
# High freq. dielectric constant tensor:
#      x y z
#    x 1.921540 0.000000 0.003850 
#    y 0.000000 1.939660 0.000000 
#    z 0.003850 0.000000 1.946400 
# 
# From -- ./inp_files/17557.got.cif
#   From: 2010.06.25/outbox.cif.g09.slc.cpg/sg13_9_cif.got.tgz:17557.got - 2010.06.28 04:50:58.
