data_PCOD8123224
_publ_section_title
;
Structure prediction by ZEFSAII (Michael W. Deem and Ramdas Pophale) SiO2 
 PCOD8123224
Probable space group: P 2/C
;
_chemical_formula_sum "Si O2"
_cell_formula_units_Z 24
_cell_length_a 28.670742
_cell_length_b 10.766900
_cell_length_c 23.112375
_cell_angle_alpha 90.000000
_cell_angle_beta 11.513182
_cell_angle_gamma 90.000000
_cell_volume 1424.033872
_symmetry_space_group_name_H-M "P 2/C"
_symmetry_group_IT_number 13
_symmetry_cell_setting 'monoclinic'
loop_
_space_group_symop_operation_xyz
x,y,z
-x,y,1/2-z
-x,-y,-z
x,-y,1/2+z
loop_
_atom_site_type_symbol
_atom_site_label
_atom_site_fract_x
_atom_site_fract_y
_atom_site_fract_z
Si Si1 0.266638 0.053554 0.850024
Si Si2 0.470843 0.780575 0.194278
Si Si3 0.178009 0.642514 0.334377
Si Si4 0.868522 0.780554 0.796522
Si Si5 0.584829 0.192408 0.372751
Si Si6 0.228095 0.357629 0.259437
O O1 0.354896 0.100083 0.805059
O O2 0.435652 0.109215 0.596847
O O3 0.271443 0.902938 0.842798
O O4 0.005435 0.100075 0.154217
O O5 0.279510 0.720293 0.470536
O O6 0.694899 0.829300 0.957570
O O7 0.552096 0.676765 0.049210
O O8 0.253004 0.500133 0.246837
O O9 0.042293 0.676646 0.558974
O O10 0.017225 0.669255 0.474051
O O11 0.412731 0.723607 0.042886
O O12 0.764379 0.276992 0.191153
#
# Coordination Sequence:
#
# PCOD8123224 Si02
#       6
#     4   4   4   4   4   4
#     4   9  17  28  43  64  88 113 143 181 222 265
#     4   9  17  29  46  66  87 115 151 189 227 267
#     4   9  17  29  46  68  92 118 150 186 223 266
#     4   9  17  29  46  66  87 115 151 189 227 267
#     4   9  17  28  43  64  89 115 143 179 222 264
#     4   9  17  29  46  68  92 118 150 186 223 266
#
# _framework density 16.853532000000001
#
# number of rings (size 3 to 8) (size 9 to 14) (size 15 to 20)
#    0.000    3.000    0.000    1.000    0.000    1.333 
#    0.000    6.667    0.000    4.000    0.000    4.667 
#    0.000    0.000    0.000    0.000    0.000    0.000 
#
# Total GULP energy -297464.395635 kJ/mol
# GULP energy per Si atom -12394.349818 kJ/mol
# Density = 1.681517 g / cm^3
# Si number density = 16.853532 Si / 1000 Ang^3
#
#
#
# Elastic Constant Matrix: (Units=GPa)
#
#
# Indices 1 2 3 4 5 6 
#
# 1 84.5879 61.0608 44.1662 0.0000 -13.7544 0.0000
# 2 61.0608 127.6592 54.9335 0.0000 -9.6944 0.0000
# 3 44.1662 54.9335 71.3578 0.0000 -8.4315 0.0000
# 4 0.0000 0.0000 0.0000 21.1529 0.0000 -2.6459
# 5 -13.7544 -9.6944 -8.4315 0.0000 25.0091 0.0000
# 6 0.0000 0.0000 0.0000 -2.6459 0.0000 22.5521
#
#
#
# Elastic Compliance Matrix: (Units=1/GPa)
#
#
# Indices 1 2 3 4 5 6 
#
# 1 0.021595 -0.006590 -0.007490 0.000000 0.006797 0.000000
# 2 -0.006590 0.013784 -0.006592 0.000000 -0.000504 0.000000
# 3 -0.007490 -0.006592 0.023887 0.000000 0.001379 0.000000
# 4 0.000000 0.000000 0.000000 0.047979 0.000000 0.005629
# 5 0.006797 -0.000504 0.001379 0.000000 0.043993 0.000000
# 6 0.000000 0.000000 0.000000 0.005629 0.000000 0.045002
#
#
# Mechanical properties :
#
#
# Convention : Reuss Voigt Hill
#
# Bulk Modulus (GPa) = 55.79501 67.10289 61.44895
# Shear Modulus (GPa) = 20.52903 21.97245 21.25074
#
# Velocity S-wave (km/s) = 3.49389 3.61464 3.55478
# Velocity P-wave (km/s) = 7.03236 7.57117 7.30673
#
# Compressibility (1/GPa) = 0.01792275
#
# Stress axis : x y z
#
# Youngs Moduli (GPa) = 46.30706 72.54916 41.86366
#
# Poissons Ratio (x) = 0.47810 0.31354
# Poissons Ratio (y) = 0.30517 0.27596
# Poissons Ratio (z) = 0.34682 0.47823
#
# Static dielectric constant tensor:
#      x y z
#    x 3.275460 0.000000 -0.116430 
#    y 0.000000 3.159650 0.000000 
#    z -0.116430 0.000000 3.205900 
# 
# 
# High freq. dielectric constant tensor:
#      x y z
#    x 1.652870 0.000000 -0.022180 
#    y 0.000000 1.626650 0.000000 
#    z -0.022180 0.000000 1.640200 
# 
# From -- ./inp_files/63359.got.cif
#   From: 2010.06.25/outbox.cif.g09.slc.cpg/sg13_32_cif.got.tgz:63359.got - 2010.06.28 04:50:58.
