data_PCOD8123748
_publ_section_title
;
Structure prediction by ZEFSAII (Michael W. Deem and Ramdas Pophale) SiO2 
 PCOD8123748
Probable space group: P 21/C
;
_chemical_formula_sum "Si O2"
_cell_formula_units_Z 32
_cell_length_a 8.322348
_cell_length_b 26.428006
_cell_length_c 11.855508
_cell_angle_alpha 90.000000
_cell_angle_beta 34.939534
_cell_angle_gamma 90.000000
_cell_volume 1493.366646
_symmetry_space_group_name_H-M "P 21/C"
_symmetry_group_IT_number 14
_symmetry_cell_setting 'monoclinic'
loop_
_space_group_symop_operation_xyz
x,y,z
-x,1/2+y,1/2-z
-x,-y,-z
x,1/2-y,1/2+z
loop_
_atom_site_type_symbol
_atom_site_label
_atom_site_fract_x
_atom_site_fract_y
_atom_site_fract_z
Si Si1 0.495448 0.352966 0.758678
Si Si2 0.431876 0.253959 0.674535
Si Si3 0.111381 0.403249 0.803714
Si Si4 0.593478 0.466117 0.117159
Si Si5 0.917450 0.830077 0.014757
Si Si6 0.984864 0.203295 0.281756
Si Si7 0.518453 0.067636 0.420128
Si Si8 0.826100 0.567815 0.470478
O O1 0.387581 0.295604 0.800457
O O2 0.831099 0.350505 0.550828
O O3 0.427569 0.377313 0.921520
O O4 0.362247 0.390886 0.744257
O O5 0.755696 0.241845 0.464396
O O6 0.289490 0.275410 0.642818
O O7 0.289978 0.202242 0.791521
O O8 0.949086 0.353296 0.851733
O O9 0.248805 0.433170 0.619088
O O10 0.880156 0.439663 0.995394
O O11 0.659644 0.522913 0.036270
O O12 0.369108 0.470734 0.347822
O O13 0.468898 0.433246 0.083134
O O14 0.042784 0.797622 0.837613
O O15 0.743181 0.876894 0.065772
O O16 0.844798 0.056148 0.203682
#
# Coordination Sequence:
#
# PCOD8123748 Si02
#       8
#     4   4   4   4   4   4   4   4
#     4  10  21  39  55  82 120 148 191 252 296 335
#     4  11  21  38  56  81 113 152 192 235 294 354
#     4   9  20  37  55  81 120 147 187 249 287 346
#     4  10  18  36  61  85 112 158 199 230 305 355
#     4  10  21  37  57  82 110 150 193 239 290 347
#     4  10  22  36  57  81 112 150 191 237 289 348
#     4   9  20  35  58  87 118 151 194 249 287 358
#     4   9  18  36  58  82 114 150 192 240 291 348
#
# _framework density 21.428093000000001
#
# number of rings (size 3 to 8) (size 9 to 14) (size 15 to 20)
#    0.000    2.250    1.250    1.875    1.750    0.500 
#    0.000    4.375    0.000    0.000    0.000    0.000 
#    0.000    0.000    0.000    0.000    0.000    0.000 
#
# Total GULP energy -396629.704835 kJ/mol
# GULP energy per Si atom -12394.678276 kJ/mol
# Density = 2.137932 g / cm^3
# Si number density = 21.428093 Si / 1000 Ang^3
#
#
#
# Elastic Constant Matrix: (Units=GPa)
#
#
# Indices 1 2 3 4 5 6 
#
# 1 86.1223 3.6940 17.0226 0.0000 -1.7404 0.0000
# 2 3.6940 42.3282 2.4752 0.0000 1.9407 0.0000
# 3 17.0226 2.4752 65.6969 0.0000 3.7827 0.0000
# 4 0.0000 0.0000 0.0000 22.8949 0.0000 5.3851
# 5 -1.7404 1.9407 3.7827 0.0000 19.6367 0.0000
# 6 0.0000 0.0000 0.0000 5.3851 0.0000 33.2218
#
#
#
# Elastic Compliance Matrix: (Units=1/GPa)
#
#
# Indices 1 2 3 4 5 6 
#
# 1 0.012335 -0.000969 -0.003264 0.000000 0.001818 0.000000
# 2 -0.000969 0.023847 -0.000512 0.000000 -0.002344 0.000000
# 3 -0.003264 -0.000512 0.016281 0.000000 -0.003375 0.000000
# 4 0.000000 0.000000 0.000000 0.045409 0.000000 -0.007361
# 5 0.001818 -0.002344 -0.003375 0.000000 0.051968 0.000000
# 6 0.000000 0.000000 0.000000 -0.007361 0.000000 0.031294
#
#
# Mechanical properties :
#
#
# Convention : Reuss Voigt Hill
#
# Bulk Modulus (GPa) = 23.27126 26.72566 24.99846
# Shear Modulus (GPa) = 24.39636 26.54771 25.47203
#
# Velocity S-wave (km/s) = 3.37786 3.52365 3.45152
# Velocity P-wave (km/s) = 5.10852 5.39019 5.25124
#
# Compressibility (1/GPa) = 0.04297145
#
# Stress axis : x y z
#
# Youngs Moduli (GPa) = 81.07085 41.93412 61.42193
#
# Poissons Ratio (x) = 0.04063 0.20050
# Poissons Ratio (y) = 0.07855 0.03147
# Poissons Ratio (z) = 0.26463 0.02149
#
# Static dielectric constant tensor:
#      x y z
#    x 3.889040 0.000000 0.148980 
#    y 0.000000 3.936010 0.000000 
#    z 0.148980 0.000000 3.498350 
# 
# 
# High freq. dielectric constant tensor:
#      x y z
#    x 1.837610 0.000000 0.006490 
#    y 0.000000 1.842730 0.000000 
#    z 0.006490 0.000000 1.806950 
# 
# From -- ./inp_files/27088.got.cif
#   From: 2010.03.12/outbox.cif.g09.slc.cpg/sg14_14_cif.got.tgz:27088.got - 2010.03.31 13:35:05.
