data_PCOD8123072
_publ_section_title
;
Structure prediction by ZEFSAII (Michael W. Deem and Ramdas Pophale) SiO2 
 PCOD8123072
Probable space group: P 2/C
;
_chemical_formula_sum "Si O2"
_cell_formula_units_Z 22
_cell_length_a 12.584538
_cell_length_b 8.906761
_cell_length_c 16.409708
_cell_angle_alpha 90.000000
_cell_angle_beta 146.846774
_cell_angle_gamma 90.000000
_cell_volume 1005.888682
_symmetry_space_group_name_H-M "P 2/C"
_symmetry_group_IT_number 13
_symmetry_cell_setting 'monoclinic'
loop_
_space_group_symop_operation_xyz
x,y,z
-x,y,1/2-z
-x,-y,-z
x,-y,1/2+z
loop_
_atom_site_type_symbol
_atom_site_label
_atom_site_fract_x
_atom_site_fract_y
_atom_site_fract_z
Si Si1 0.690894 0.589005 0.613071
Si Si2 0.939992 0.158086 0.863076
Si Si3 0.962043 0.345844 0.428622
Si Si4 0.508659 0.115664 0.931946
Si Si5 0.121944 0.868135 0.910867
Si Si6 0.000000 0.626710 0.250000
O O1 0.500000 0.500000 0.500000
O O2 0.644640 0.743378 0.539969
O O3 0.819146 0.485128 0.636616
O O4 0.767993 0.625197 0.753001
O O5 0.707170 0.162796 0.733431
O O6 0.997571 0.267475 0.826735
O O7 0.059070 0.215442 0.017651
O O8 0.998560 0.989316 0.882406
O O9 0.122645 0.285950 0.465583
O O10 0.000000 0.500000 0.500000
O O11 0.658939 0.058450 0.958252
O O12 0.500000 0.000000 0.000000
O O13 0.000000 0.835813 0.750000
#
# Coordination Sequence:
#
# PCOD8123072 Si02
#       6
#     4   4   4   4   4   2
#     4  12  24  43  72 102 140 191 245 294 367 454
#     4  12  25  46  74 105 147 187 246 317 377 445
#     4  12  25  45  69 106 149 185 241 320 371 434
#     4  12  23  44  76 106 136 193 253 296 368 462
#     4  12  24  44  76 102 141 199 245 301 382 455
#     4  12  22  44  74 100 144 196 242 300 390 442
#
# _framework density 21.871206000000001
#
# number of rings (size 3 to 8) (size 9 to 14) (size 15 to 20)
#    0.000    0.000    8.182    1.636    0.000    0.727 
#    0.000    2.727    0.000    0.000    0.000    0.000 
#    0.000    0.000    0.000    0.000    0.000    0.000 
#
# Total GULP energy -272544.708333 kJ/mol
# GULP energy per Si atom -12388.395833 kJ/mol
# Density = 2.182143 g / cm^3
# Si number density = 21.871206 Si / 1000 Ang^3
#
#
#
# Elastic Constant Matrix: (Units=GPa)
#
#
# Indices 1 2 3 4 5 6 
#
# 1 145.6329 52.0214 58.8492 0.0000 19.7736 0.0000
# 2 52.0214 105.2506 26.8180 0.0000 7.6318 0.0000
# 3 58.8492 26.8180 103.9269 0.0000 16.1235 0.0000
# 4 0.0000 0.0000 0.0000 43.0681 0.0000 -4.2648
# 5 19.7736 7.6318 16.1235 0.0000 46.8032 0.0000
# 6 0.0000 0.0000 0.0000 -4.2648 0.0000 61.2621
#
#
#
# Elastic Compliance Matrix: (Units=1/GPa)
#
#
# Indices 1 2 3 4 5 6 
#
# 1 0.010359 -0.003803 -0.004545 0.000000 -0.002191 0.000000
# 2 -0.003803 0.011594 -0.000839 0.000000 0.000005 0.000000
# 3 -0.004545 -0.000839 0.012776 0.000000 -0.002344 0.000000
# 4 0.000000 0.000000 0.000000 0.023380 0.000000 0.001628
# 5 -0.002191 0.000005 -0.002344 0.000000 0.023098 0.000000
# 6 0.000000 0.000000 0.000000 0.001628 0.000000 0.016437
#
#
# Mechanical properties :
#
#
# Convention : Reuss Voigt Hill
#
# Bulk Modulus (GPa) = 61.14212 70.02085 65.58149
# Shear Modulus (GPa) = 41.16246 44.70148 42.93197
#
# Velocity S-wave (km/s) = 4.34295 4.52580 4.43532
# Velocity P-wave (km/s) = 7.29140 7.70682 7.50199
#
# Compressibility (1/GPa) = 0.01635534
#
# Stress axis : x y z
#
# Youngs Moduli (GPa) = 96.53427 86.24878 78.27327
#
# Poissons Ratio (x) = 0.32803 0.35572
# Poissons Ratio (y) = 0.36715 0.06568
# Poissons Ratio (z) = 0.43870 0.07237
#
# Static dielectric constant tensor:
#      x y z
#    x 2.559510 0.000000 0.841540 
#    y 0.000000 4.318720 0.000000 
#    z 0.841540 0.000000 3.666080 
# 
# 
# High freq. dielectric constant tensor:
#      x y z
#    x 1.872850 0.000000 0.000980 
#    y 0.000000 1.885440 0.000000 
#    z 0.000980 0.000000 1.843490 
# 
# From -- ./inp_files/68307.got.cif
#   From: 2010.06.25/outbox.cif.g09.slc.cpg/sg13_35_cif.got.tgz:68307.got - 2010.06.28 04:50:58.
