data_PCOD8123286
_publ_section_title
;
Structure prediction by ZEFSAII (Michael W. Deem and Ramdas Pophale) SiO2 
 PCOD8123286
Probable space group: P 21/C
;
_chemical_formula_sum "Si O2"
_cell_formula_units_Z 28
_cell_length_a 15.641665
_cell_length_b 14.194280
_cell_length_c 7.572954
_cell_angle_alpha 90.000000
_cell_angle_beta 130.112948
_cell_angle_gamma 90.000000
_cell_volume 1285.866301
_symmetry_space_group_name_H-M "P 21/C"
_symmetry_group_IT_number 14
_symmetry_cell_setting 'monoclinic'
loop_
_space_group_symop_operation_xyz
x,y,z
-x,1/2+y,1/2-z
-x,-y,-z
x,1/2-y,1/2+z
loop_
_atom_site_type_symbol
_atom_site_label
_atom_site_fract_x
_atom_site_fract_y
_atom_site_fract_z
Si Si1 0.592479 0.349680 0.679594
Si Si2 0.944918 0.695127 0.570346
Si Si3 0.720629 0.049759 0.047015
Si Si4 0.662914 0.858988 0.097433
Si Si5 0.898941 0.323325 0.932562
Si Si6 0.219790 0.191677 0.417988
Si Si7 0.698184 0.175410 0.686502
O O1 0.628827 0.417561 0.568358
O O2 0.468995 0.375128 0.575774
O O3 0.596262 0.242581 0.612525
O O4 0.676756 0.360928 0.959224
O O5 0.872242 0.635928 0.327746
O O6 0.850600 0.731139 0.573859
O O7 0.002720 0.786460 0.560302
O O8 0.042825 0.640381 0.806466
O O9 0.841838 0.086405 0.269158
O O10 0.717224 0.936430 0.038119
O O11 0.699521 0.087204 0.821161
O O12 0.690241 0.752645 0.074631
O O13 0.713695 0.877496 0.362183
O O14 0.810772 0.238334 0.850201
#
# Coordination Sequence:
#
# PCOD8123286 Si02
#       7
#     4   4   4   4   4   4   4
#     4  11  21  38  61  91 126 164 198 239 308 365
#     4   9  17  34  63  83 108 162 199 239 302 373
#     4  11  23  38  61  99 123 150 208 255 303 357
#     4  11  23  43  59  83 126 164 201 257 293 356
#     4  10  16  34  62  88 119 149 189 256 310 352
#     4   9  21  39  59  80 113 166 210 232 303 373
#     4  11  20  36  63  96 122 156 204 237 308 381
#
# _framework density 21.775202
#
# number of rings (size 3 to 8) (size 9 to 14) (size 15 to 20)
#    0.000    1.714    4.286    2.143    0.000    0.571 
#    5.143    7.143    0.000    0.000    0.000    0.000 
#    0.000    0.000    0.000    0.000    0.000    0.000 
#
# Total GULP energy -346897.858368 kJ/mol
# GULP energy per Si atom -12389.209227 kJ/mol
# Density = 2.172564 g / cm^3
# Si number density = 21.775202 Si / 1000 Ang^3
#
#
#
# Elastic Constant Matrix: (Units=GPa)
#
#
# Indices 1 2 3 4 5 6 
#
# 1 61.0116 -6.3887 17.3924 0.0000 -0.2975 0.0000
# 2 -6.3887 35.8137 -0.3919 0.0000 2.1971 0.0000
# 3 17.3924 -0.3919 107.0705 0.0000 4.6891 0.0000
# 4 0.0000 0.0000 0.0000 18.3173 0.0000 -7.0818
# 5 -0.2975 2.1971 4.6891 0.0000 30.8380 0.0000
# 6 0.0000 0.0000 0.0000 -7.0818 0.0000 20.0549
#
#
#
# Elastic Compliance Matrix: (Units=1/GPa)
#
#
# Indices 1 2 3 4 5 6 
#
# 1 0.017527 0.003072 -0.002853 0.000000 0.000384 0.000000
# 2 0.003072 0.028587 -0.000309 0.000000 -0.001960 0.000000
# 3 -0.002853 -0.000309 0.009868 0.000000 -0.001506 0.000000
# 4 0.000000 0.000000 0.000000 0.063225 0.000000 0.022326
# 5 0.000384 -0.001960 -0.001506 0.000000 0.032800 0.000000
# 6 0.000000 0.000000 0.000000 0.022326 0.000000 0.057747
#
#
# Mechanical properties :
#
#
# Convention : Reuss Voigt Hill
#
# Bulk Modulus (GPa) = 17.92004 25.01325 21.46664
# Shear Modulus (GPa) = 21.87866 26.72765 24.30316
#
# Velocity S-wave (km/s) = 3.17322 3.50728 3.34442
# Velocity P-wave (km/s) = 4.65545 5.28330 4.97928
#
# Compressibility (1/GPa) = 0.05580345
#
# Stress axis : x y z
#
# Youngs Moduli (GPa) = 57.05462 34.98075 101.33923
#
# Poissons Ratio (x) = -0.10746 0.28908
# Poissons Ratio (y) = -0.17526 0.03126
# Poissons Ratio (z) = 0.16276 0.01079
#
# Static dielectric constant tensor:
#      x y z
#    x 3.984780 0.000000 -0.190280 
#    y 0.000000 3.342340 0.000000 
#    z -0.190280 0.000000 4.579150 
# 
# 
# High freq. dielectric constant tensor:
#      x y z
#    x 1.864570 0.000000 -0.004810 
#    y 0.000000 1.792170 0.000000 
#    z -0.004810 0.000000 1.877410 
# 
# From -- ./inp_files/17975.got.cif
#   From: 2010.03.12/outbox.cif.g09.slc.cpg/sg14_9_cif.got.tgz:17975.got - 2010.03.31 13:35:05.
