data_PCOD8123971
_publ_section_title
;
Structure prediction by ZEFSAII (Michael W. Deem and Ramdas Pophale) SiO2 
 PCOD8123971
Probable space group: P 21/C
;
_chemical_formula_sum "Si O2"
_cell_formula_units_Z 32
_cell_length_a 22.398665
_cell_length_b 6.619317
_cell_length_c 24.941579
_cell_angle_alpha 90.000000
_cell_angle_beta 149.302586
_cell_angle_gamma 90.000000
_cell_volume 1887.810948
_symmetry_space_group_name_H-M "P 21/C"
_symmetry_group_IT_number 14
_symmetry_cell_setting 'monoclinic'
loop_
_space_group_symop_operation_xyz
x,y,z
-x,1/2+y,1/2-z
-x,-y,-z
x,1/2-y,1/2+z
loop_
_atom_site_type_symbol
_atom_site_label
_atom_site_fract_x
_atom_site_fract_y
_atom_site_fract_z
Si Si1 0.544198 0.540508 0.449572
Si Si2 0.887701 0.211534 0.365829
Si Si3 0.345467 0.912195 0.660334
Si Si4 0.429514 0.892178 0.311512
Si Si5 0.135484 0.426346 0.053772
Si Si6 0.311628 0.039239 0.834844
Si Si7 0.535379 0.221384 0.841103
Si Si8 0.225095 0.108635 0.206454
O O1 0.533952 0.773777 0.422903
O O2 0.646141 0.523002 0.571711
O O3 0.419422 0.469236 0.376501
O O4 0.581122 0.397092 0.428622
O O5 0.881782 0.455111 0.365164
O O6 0.011269 0.148931 0.434537
O O7 0.882983 0.117644 0.421662
O O8 0.780064 0.139820 0.245895
O O9 0.360234 0.771800 0.723360
O O10 0.356855 0.778888 0.615065
O O11 0.216548 0.010729 0.565892
O O12 0.442884 0.088518 0.736255
O O13 0.478811 0.067376 0.313040
O O14 0.341747 0.979003 0.287746
O O15 0.198604 0.245802 0.134424
O O16 0.245034 0.251118 0.773814
#
# Coordination Sequence:
#
# PCOD8123971 Si02
#       8
#     4   4   4   4   4   4   4   4
#     4  10  21  33  48  75 105 135 170 214 253 306
#     4  10  19  33  50  74 107 138 163 210 258 304
#     4  11  20  32  50  76 103 134 168 210 253 311
#     4  11  18  31  49  74 105 132 164 206 255 305
#     4  10  20  31  49  78 107 130 170 209 253 312
#     4  10  20  33  50  74 104 136 175 208 252 310
#     4  11  20  32  50  74 104 133 169 207 259 305
#     4  11  17  31  51  74 105 140 165 200 257 320
#
# _framework density 16.950849999999999
#
# number of rings (size 3 to 8) (size 9 to 14) (size 15 to 20)
#    0.000    1.500    6.250    1.875    0.000    1.500 
#    0.000    0.000    0.000    0.000    3.250    0.000 
#    0.000    0.000    0.000    0.000    0.000    0.000 
#
# Total GULP energy -396780.720154 kJ/mol
# GULP energy per Si atom -12399.397505 kJ/mol
# Density = 1.691227 g / cm^3
# Si number density = 16.950850 Si / 1000 Ang^3
#
#
#
# Elastic Constant Matrix: (Units=GPa)
#
#
# Indices 1 2 3 4 5 6 
#
# 1 89.9667 29.0355 39.4681 0.0000 4.6235 0.0000
# 2 29.0355 94.1780 21.1961 0.0000 1.5899 0.0000
# 3 39.4681 21.1961 79.3454 0.0000 0.7451 0.0000
# 4 0.0000 0.0000 0.0000 13.0437 0.0000 4.9566
# 5 4.6235 1.5899 0.7451 0.0000 22.8376 0.0000
# 6 0.0000 0.0000 0.0000 4.9566 0.0000 28.2566
#
#
#
# Elastic Compliance Matrix: (Units=1/GPa)
#
#
# Indices 1 2 3 4 5 6 
#
# 1 0.015202 -0.003134 -0.006699 0.000000 -0.002641 0.000000
# 2 -0.003134 0.011954 -0.001633 0.000000 -0.000144 0.000000
# 3 -0.006699 -0.001633 0.016363 0.000000 0.000936 0.000000
# 4 0.000000 0.000000 0.000000 0.082141 0.000000 -0.014409
# 5 -0.002641 -0.000144 0.000936 0.000000 0.044302 0.000000
# 6 0.000000 0.000000 0.000000 -0.014409 0.000000 0.037917
#
#
# Mechanical properties :
#
#
# Convention : Reuss Voigt Hill
#
# Bulk Modulus (GPa) = 48.57815 49.20993 48.89404
# Shear Modulus (GPa) = 21.03721 24.41362 22.72541
#
# Velocity S-wave (km/s) = 3.52671 3.79919 3.66548
# Velocity P-wave (km/s) = 6.73082 6.95263 6.84263
#
# Compressibility (1/GPa) = 0.02058539
#
# Stress axis : x y z
#
# Youngs Moduli (GPa) = 65.78290 83.65060 61.11334
#
# Poissons Ratio (x) = 0.26219 0.40943
# Poissons Ratio (y) = 0.20618 0.09980
# Poissons Ratio (z) = 0.44071 0.13661
#
# Static dielectric constant tensor:
#      x y z
#    x 3.020610 0.000000 0.102080 
#    y 0.000000 3.454230 0.000000 
#    z 0.102080 0.000000 3.015520 
# 
# 
# High freq. dielectric constant tensor:
#      x y z
#    x 1.624440 0.000000 0.007330 
#    y 0.000000 1.675770 0.000000 
#    z 0.007330 0.000000 1.624440 
# 
# From -- ./inp_files/78080.got.cif
#   From: 2010.03.12/outbox.cif.g09.slc.cpg/sg14_40_cif.got.tgz:78080.got - 2010.03.31 13:35:05.
