data_PCOD8123804
_publ_section_title
;
Structure prediction by ZEFSAII (Michael W. Deem and Ramdas Pophale) SiO2 
 PCOD8123804
Probable space group: P 21/C
;
_chemical_formula_sum "Si O2"
_cell_formula_units_Z 24
_cell_length_a 12.395687
_cell_length_b 9.853534
_cell_length_c 25.076343
_cell_angle_alpha 90.000000
_cell_angle_beta 159.942916
_cell_angle_gamma 90.000000
_cell_volume 1050.426022
_symmetry_space_group_name_H-M "P 21/C"
_symmetry_group_IT_number 14
_symmetry_cell_setting 'monoclinic'
loop_
_space_group_symop_operation_xyz
x,y,z
-x,1/2+y,1/2-z
-x,-y,-z
x,1/2-y,1/2+z
loop_
_atom_site_type_symbol
_atom_site_label
_atom_site_fract_x
_atom_site_fract_y
_atom_site_fract_z
Si Si1 0.294251 0.900574 0.938221
Si Si2 0.417698 0.444923 0.594222
Si Si3 0.303592 0.557386 0.171460
Si Si4 0.658298 0.181327 0.661157
Si Si5 0.769110 0.134867 0.832000
Si Si6 0.231611 0.302317 0.875633
O O1 0.947093 0.895415 0.750456
O O2 0.469167 0.756734 0.016812
O O3 0.500000 0.000000 0.000000
O O4 0.270092 0.935266 0.989915
O O5 0.685541 0.491582 0.761235
O O6 0.573319 0.341651 0.624587
O O7 0.146023 0.376671 0.504646
O O8 0.311757 0.722649 0.175919
O O9 0.615917 0.493773 0.289987
O O10 0.000000 0.500000 0.000000
O O11 0.640991 0.122139 0.712035
O O12 0.389533 0.112853 0.498435
O O13 0.006682 0.182169 0.796386
#
# Coordination Sequence:
#
# PCOD8123804 Si02
#       6
#     4   4   4   4   4   4
#     4  11  21  40  63  92 132 173 217 276 324 392
#     4  11  22  41  67  88 133 177 219 270 342 395
#     4  11  25  43  70 100 131 172 231 282 339 407
#     4  10  18  37  67  94 124 174 224 258 326 409
#     4  11  23  44  70 100 129 177 223 279 342 399
#     4  10  20  36  64  94 130 171 218 261 329 385
#
# _framework density 22.847873
#
# number of rings (size 3 to 8) (size 9 to 14) (size 15 to 20)
#    0.000    1.333    5.000    2.500    2.333    0.000 
#    6.000    9.167    0.000    0.000    0.000    0.000 
#    0.000    0.000    0.000    0.000    0.000    0.000 
#
# Total GULP energy -297356.446014 kJ/mol
# GULP energy per Si atom -12389.851917 kJ/mol
# Density = 2.279587 g / cm^3
# Si number density = 22.847873 Si / 1000 Ang^3
#
#
#
# Elastic Constant Matrix: (Units=GPa)
#
#
# Indices 1 2 3 4 5 6 
#
# 1 84.3588 38.4441 42.7658 0.0000 -22.6101 0.0000
# 2 38.4441 62.3298 29.8527 0.0000 -10.3396 0.0000
# 3 42.7658 29.8527 163.3279 0.0000 -37.3788 0.0000
# 4 0.0000 0.0000 0.0000 29.0418 0.0000 -4.3624
# 5 -22.6101 -10.3396 -37.3788 0.0000 54.6446 0.0000
# 6 0.0000 0.0000 0.0000 -4.3624 0.0000 38.9087
#
#
#
# Elastic Compliance Matrix: (Units=1/GPa)
#
#
# Indices 1 2 3 4 5 6 
#
# 1 0.018497 -0.009689 -0.002063 0.000000 0.004409 0.000000
# 2 -0.009689 0.022741 -0.001840 0.000000 -0.000965 0.000000
# 3 -0.002063 -0.001840 0.007972 0.000000 0.004251 0.000000
# 4 0.000000 0.000000 0.000000 0.035023 0.000000 0.003927
# 5 0.004409 -0.000965 0.004251 0.000000 0.022850 0.000000
# 6 0.000000 0.000000 0.000000 0.003927 0.000000 0.026141
#
#
# Mechanical properties :
#
#
# Convention : Reuss Voigt Hill
#
# Bulk Modulus (GPa) = 45.40343 59.12686 52.26515
# Shear Modulus (GPa) = 29.80570 37.78261 33.79415
#
# Velocity S-wave (km/s) = 3.61574 4.07093 3.85007
# Velocity P-wave (km/s) = 6.11119 6.93046 6.53368
#
# Compressibility (1/GPa) = 0.02202477
#
# Stress axis : x y z
#
# Youngs Moduli (GPa) = 54.06140 43.97285 125.43505
#
# Poissons Ratio (x) = 0.42607 0.25882
# Poissons Ratio (y) = 0.52382 0.23085
# Poissons Ratio (z) = 0.11155 0.08093
#
# Static dielectric constant tensor:
#      x y z
#    x 4.187250 0.000000 -0.176990 
#    y 0.000000 3.997850 0.000000 
#    z -0.176990 0.000000 4.584120 
# 
# 
# High freq. dielectric constant tensor:
#      x y z
#    x 1.893980 0.000000 -0.017490 
#    y 0.000000 1.860790 0.000000 
#    z -0.017490 0.000000 1.931780 
# 
# From -- ./inp_files/73327.got.cif
#   From: 2010.03.12/outbox.cif.g09.slc.cpg/sg14_37_cif.got.tgz:73327.got - 2010.03.31 13:35:05.
