data_PCOD8123538
_publ_section_title
;
Structure prediction by ZEFSAII (Michael W. Deem and Ramdas Pophale) SiO2 
 PCOD8123538
Probable space group: P 21/C
;
_chemical_formula_sum "Si O2"
_cell_formula_units_Z 32
_cell_length_a 24.092741
_cell_length_b 8.463400
_cell_length_c 27.504061
_cell_angle_alpha 90.000000
_cell_angle_beta 162.892885
_cell_angle_gamma 90.000000
_cell_volume 1649.719326
_symmetry_space_group_name_H-M "P 21/C"
_symmetry_group_IT_number 14
_symmetry_cell_setting 'monoclinic'
loop_
_space_group_symop_operation_xyz
x,y,z
-x,1/2+y,1/2-z
-x,-y,-z
x,1/2-y,1/2+z
loop_
_atom_site_type_symbol
_atom_site_label
_atom_site_fract_x
_atom_site_fract_y
_atom_site_fract_z
Si Si1 0.585461 0.313167 0.736458
Si Si2 0.027386 0.522985 0.951240
Si Si3 0.189637 0.415921 0.513118
Si Si4 0.945243 0.572166 0.128744
Si Si5 0.080847 0.252647 0.564892
Si Si6 0.613118 0.347096 0.869615
Si Si7 0.747225 0.448701 0.532734
Si Si8 0.222726 0.963414 0.141051
O O1 0.623566 0.273004 0.824643
O O2 0.388964 0.406689 0.565064
O O3 0.588879 0.143041 0.711159
O O4 0.757659 0.418440 0.860632
O O5 0.973094 0.524616 0.848999
O O6 0.016352 0.348974 0.964436
O O7 0.879150 0.638032 0.855470
O O8 0.413382 0.428281 0.709905
O O9 0.136726 0.508003 0.419160
O O10 0.109619 0.499353 0.495057
O O11 0.125294 0.236653 0.452194
O O12 0.109668 0.592833 0.304978
O O13 0.773202 0.480632 0.010408
O O14 0.258467 0.366189 0.697792
O O15 0.907496 0.364879 0.432174
O O16 0.629915 0.209514 0.923775
#
# Coordination Sequence:
#
# PCOD8123538 Si02
#       8
#     4   4   4   4   4   4   4   4
#     4   9  19  33  55  80 111 145 185 228 275 338
#     4   9  17  34  56  83 106 140 188 239 284 332
#     4  11  20  35  57  83 113 150 187 228 275 341
#     4  11  22  35  55  84 118 149 179 228 294 342
#     4   9  18  31  56  85 103 132 193 255 276 313
#     4  10  20  35  53  81 111 149 188 223 267 342
#     4  11  22  35  53  84 119 150 180 226 285 350
#     4  10  18  32  55  87 103 137 188 245 279 315
#
# _framework density 19.397238999999999
#
# number of rings (size 3 to 8) (size 9 to 14) (size 15 to 20)
#    0.000    2.000    2.500    3.000    1.750    0.000 
#    0.000    0.000    0.000    7.500    0.000    0.000 
#    0.000    0.000    0.000    0.000    0.000    0.000 
#
# Total GULP energy -396450.154224 kJ/mol
# GULP energy per Si atom -12389.067319 kJ/mol
# Density = 1.935309 g / cm^3
# Si number density = 19.397239 Si / 1000 Ang^3
#
#
#
# Elastic Constant Matrix: (Units=GPa)
#
#
# Indices 1 2 3 4 5 6 
#
# 1 87.4137 35.1631 32.7146 0.0000 -5.6102 0.0000
# 2 35.1631 101.8319 25.6841 0.0000 -0.9110 0.0000
# 3 32.7146 25.6841 64.8762 0.0000 -9.0156 0.0000
# 4 0.0000 0.0000 0.0000 15.3062 0.0000 1.6429
# 5 -5.6102 -0.9110 -9.0156 0.0000 15.9266 0.0000
# 6 0.0000 0.0000 0.0000 1.6429 0.0000 44.6408
#
#
#
# Elastic Compliance Matrix: (Units=1/GPa)
#
#
# Indices 1 2 3 4 5 6 
#
# 1 0.015306 -0.003761 -0.005980 0.000000 0.001791 0.000000
# 2 -0.003761 0.011891 -0.003148 0.000000 -0.002427 0.000000
# 3 -0.005980 -0.003148 0.021011 0.000000 0.009607 0.000000
# 4 0.000000 0.000000 0.000000 0.065592 0.000000 -0.002414
# 5 0.001791 -0.002427 0.009607 0.000000 0.068718 0.000000
# 6 0.000000 0.000000 0.000000 -0.002414 0.000000 0.022490
#
#
# Mechanical properties :
#
#
# Convention : Reuss Voigt Hill
#
# Bulk Modulus (GPa) = 44.58538 49.02725 46.80632
# Shear Modulus (GPa) = 20.98514 25.87874 23.43194
#
# Velocity S-wave (km/s) = 3.29274 3.65656 3.47941
# Velocity P-wave (km/s) = 6.12303 6.56943 6.35016
#
# Compressibility (1/GPa) = 0.02242888
#
# Stress axis : x y z
#
# Youngs Moduli (GPa) = 65.33487 84.09643 47.59381
#
# Poissons Ratio (x) = 0.31627 0.28463
# Poissons Ratio (y) = 0.24571 0.14985
# Poissons Ratio (z) = 0.39072 0.26477
#
# Static dielectric constant tensor:
#      x y z
#    x 4.031380 0.000000 0.151260 
#    y 0.000000 3.920950 0.000000 
#    z 0.151260 0.000000 2.934390 
# 
# 
# High freq. dielectric constant tensor:
#      x y z
#    x 1.772660 0.000000 0.008890 
#    y 0.000000 1.784390 0.000000 
#    z 0.008890 0.000000 1.675140 
# 
# From -- ./inp_files/78157.got.cif
#   From: 2010.03.12/outbox.cif.g09.slc.cpg/sg14_40_cif.got.tgz:78157.got - 2010.03.31 13:35:05.
