data_PCOD8123783
_publ_section_title
;
Structure prediction by ZEFSAII (Michael W. Deem and Ramdas Pophale) SiO2 
 PCOD8123783
Probable space group: P 21/C
;
_chemical_formula_sum "Si O2"
_cell_formula_units_Z 20
_cell_length_a 9.930311
_cell_length_b 17.031386
_cell_length_c 8.741416
_cell_angle_alpha 90.000000
_cell_angle_beta 134.533391
_cell_angle_gamma 90.000000
_cell_volume 1053.871887
_symmetry_space_group_name_H-M "P 21/C"
_symmetry_group_IT_number 14
_symmetry_cell_setting 'monoclinic'
loop_
_space_group_symop_operation_xyz
x,y,z
-x,1/2+y,1/2-z
-x,-y,-z
x,1/2-y,1/2+z
loop_
_atom_site_type_symbol
_atom_site_label
_atom_site_fract_x
_atom_site_fract_y
_atom_site_fract_z
Si Si1 0.206719 0.354790 0.956201
Si Si2 0.414678 0.931614 0.332221
Si Si3 0.057876 0.240491 0.602756
Si Si4 0.101906 0.644865 0.774557
Si Si5 0.070495 0.513361 0.387369
O O1 0.197925 0.281310 0.834313
O O2 0.048116 0.420178 0.793931
O O3 0.418689 0.385223 0.116796
O O4 0.170975 0.325606 0.099855
O O5 0.305729 0.881390 0.375386
O O6 0.500000 0.000000 0.500000
O O7 0.288227 0.960870 0.086199
O O8 0.887794 0.199779 0.566196
O O9 0.981232 0.308146 0.434252
O O10 0.965328 0.571856 0.717656
O O11 0.000000 0.500000 0.500000
#
# Coordination Sequence:
#
# PCOD8123783 Si02
#       5
#     4   4   4   4   4
#     4  11  21  39  60  85 115 151 192 234 284 340
#     4  11  19  35  65  84 108 155 198 227 278 342
#     4  10  22  38  58  86 121 150 180 244 297 329
#     4  10  20  38  61  84 116 152 191 234 288 340
#     4  10  18  37  60  82 112 153 192 226 281 340
#
# _framework density 18.977640000000001
#
# number of rings (size 3 to 8) (size 9 to 14) (size 15 to 20)
#    0.000    1.600    8.000    0.000    0.000    2.400 
#    0.000    1.000    0.000    0.000    0.000    0.000 
#    0.000    0.000    0.000    0.000    0.000    0.000 
#
# Total GULP energy -247782.197048 kJ/mol
# GULP energy per Si atom -12389.109852 kJ/mol
# Density = 1.893445 g / cm^3
# Si number density = 18.977640 Si / 1000 Ang^3
#
#
#
# Elastic Constant Matrix: (Units=GPa)
#
#
# Indices 1 2 3 4 5 6 
#
# 1 94.7475 43.1660 40.5670 0.0000 10.7864 0.0000
# 2 43.1660 105.7367 39.4454 0.0000 5.8574 0.0000
# 3 40.5670 39.4454 75.5444 0.0000 17.2551 0.0000
# 4 0.0000 0.0000 0.0000 12.0799 0.0000 10.9713
# 5 10.7864 5.8574 17.2551 0.0000 35.0559 0.0000
# 6 0.0000 0.0000 0.0000 10.9713 0.0000 39.6369
#
#
#
# Elastic Compliance Matrix: (Units=1/GPa)
#
#
# Indices 1 2 3 4 5 6 
#
# 1 0.014901 -0.003889 -0.005715 0.000000 -0.001122 0.000000
# 2 -0.003889 0.012805 -0.004937 0.000000 0.001487 0.000000
# 3 -0.005715 -0.004937 0.020611 0.000000 -0.007562 0.000000
# 4 0.000000 0.000000 0.000000 0.110582 0.000000 -0.030608
# 5 -0.001122 0.001487 -0.007562 0.000000 0.032345 0.000000
# 6 0.000000 0.000000 0.000000 -0.030608 0.000000 0.033701
#
#
# Mechanical properties :
#
#
# Convention : Reuss Voigt Hill
#
# Bulk Modulus (GPa) = 51.98955 58.04284 55.01619
# Shear Modulus (GPa) = 19.19846 27.54454 23.37150
#
# Velocity S-wave (km/s) = 3.18407 3.81388 3.51312
# Velocity P-wave (km/s) = 6.40097 7.07429 6.74603
#
# Compressibility (1/GPa) = 0.01923464
#
# Stress axis : x y z
#
# Youngs Moduli (GPa) = 67.11092 78.09707 48.51744
#
# Poissons Ratio (x) = 0.30372 0.27726
# Poissons Ratio (y) = 0.26100 0.23954
# Poissons Ratio (z) = 0.38351 0.38558
#
# Static dielectric constant tensor:
#      x y z
#    x 3.442750 0.000000 -0.236920 
#    y 0.000000 6.848720 0.000000 
#    z -0.236920 0.000000 3.490320 
# 
# 
# High freq. dielectric constant tensor:
#      x y z
#    x 1.722140 0.000000 -0.004300 
#    y 0.000000 1.761200 0.000000 
#    z -0.004300 0.000000 1.720770 
# 
# From -- ./inp_files/5429.got.cif
#   From: 2010.03.12/outbox.cif.g09.slc.cpg/sg14_3_cif.got.tgz:5429.got - 2010.03.31 13:35:05.
