data_PCOD8123287
_publ_section_title
;
Structure prediction by ZEFSAII (Michael W. Deem and Ramdas Pophale) SiO2 
 PCOD8123287
Probable space group: P 21/C
;
_chemical_formula_sum "Si O2"
_cell_formula_units_Z 32
_cell_length_a 23.119192
_cell_length_b 8.652362
_cell_length_c 25.383411
_cell_angle_alpha 90.000000
_cell_angle_beta 158.872007
_cell_angle_gamma 90.000000
_cell_volume 1830.229078
_symmetry_space_group_name_H-M "P 21/C"
_symmetry_group_IT_number 14
_symmetry_cell_setting 'monoclinic'
loop_
_space_group_symop_operation_xyz
x,y,z
-x,1/2+y,1/2-z
-x,-y,-z
x,1/2-y,1/2+z
loop_
_atom_site_type_symbol
_atom_site_label
_atom_site_fract_x
_atom_site_fract_y
_atom_site_fract_z
Si Si1 0.374676 0.090668 0.502734
Si Si2 0.488951 0.416645 0.577425
Si Si3 0.795748 0.646506 0.421445
Si Si4 0.348402 0.102941 0.312325
Si Si5 0.385017 0.677678 0.420569
Si Si6 0.156024 0.552211 0.739017
Si Si7 0.593320 0.908050 0.268656
Si Si8 0.475607 0.583251 0.187389
O O1 0.391890 0.275206 0.521385
O O2 0.519693 0.026833 0.589668
O O3 0.205391 0.048249 0.331809
O O4 0.369882 0.012979 0.556067
O O5 0.366963 0.523447 0.440345
O O6 0.621678 0.358082 0.647748
O O7 0.571903 0.512871 0.694119
O O8 0.752420 0.658011 0.323156
O O9 0.769099 0.823577 0.419929
O O10 0.663344 0.536758 0.337833
O O11 0.966152 0.573297 0.577489
O O12 0.442635 0.244062 0.419591
O O13 0.215274 0.034465 0.237570
O O14 0.234287 0.779489 0.308824
O O15 0.460598 0.769600 0.164655
O O16 0.581403 0.039208 0.302824
#
# Coordination Sequence:
#
# PCOD8123287 Si02
#       8
#     4   4   4   4   4   4   4   4
#     4  10  18  31  59  81 103 141 192 215 266 323
#     4  11  18  31  55  82 107 141 191 223 249 321
#     4   9  21  33  56  80 111 138 177 225 283 316
#     4  10  16  35  50  84 107 151 181 209 261 339
#     4  10  19  30  54  81 112 147 189 210 259 325
#     4  11  18  34  54  80 116 145 171 225 275 334
#     4  10  19  36  59  77 104 135 189 233 271 323
#     4   9  20  37  59  80  94 140 189 230 272 320
#
# _framework density 17.48415
#
# number of rings (size 3 to 8) (size 9 to 14) (size 15 to 20)
#    0.750    1.250    3.750    2.625    0.000    0.000 
#    0.000    0.625   13.750    0.000    0.000    0.000 
#    0.000    0.000    0.000    0.000    0.000    0.000 
#
# Total GULP energy -396517.762597 kJ/mol
# GULP energy per Si atom -12391.180081 kJ/mol
# Density = 1.744436 g / cm^3
# Si number density = 17.484150 Si / 1000 Ang^3
#
#
#
# Elastic Constant Matrix: (Units=GPa)
#
#
# Indices 1 2 3 4 5 6 
#
# 1 77.1381 18.1898 30.7602 0.0000 -15.1435 0.0000
# 2 18.1898 87.4966 17.3442 0.0000 -7.6922 0.0000
# 3 30.7602 17.3442 91.6813 0.0000 -1.9387 0.0000
# 4 0.0000 0.0000 0.0000 18.7499 0.0000 -8.7947
# 5 -15.1435 -7.6922 -1.9387 0.0000 15.7851 0.0000
# 6 0.0000 0.0000 0.0000 -8.7947 0.0000 33.5405
#
#
#
# Elastic Compliance Matrix: (Units=1/GPa)
#
#
# Indices 1 2 3 4 5 6 
#
# 1 0.018838 -0.001312 -0.005718 0.000000 0.016731 0.000000
# 2 -0.001312 0.012467 -0.001821 0.000000 0.004593 0.000000
# 3 -0.005718 -0.001821 0.013070 0.000000 -0.004768 0.000000
# 4 0.000000 0.000000 0.000000 0.060813 0.000000 0.015946
# 5 0.016731 0.004593 -0.004768 0.000000 0.081054 0.000000
# 6 0.000000 0.000000 0.000000 0.015946 0.000000 0.033996
#
#
# Mechanical properties :
#
#
# Convention : Reuss Voigt Hill
#
# Bulk Modulus (GPa) = 37.49347 43.21160 40.35253
# Shear Modulus (GPa) = 20.25683 26.28322 23.27002
#
# Velocity S-wave (km/s) = 3.40749 3.88140 3.65214
# Velocity P-wave (km/s) = 6.08047 6.69741 6.39638
#
# Compressibility (1/GPa) = 0.02667131
#
# Stress axis : x y z
#
# Youngs Moduli (GPa) = 53.08444 80.21490 76.51326
#
# Poissons Ratio (x) = 0.10523 0.43753
# Poissons Ratio (y) = 0.06964 0.13934
# Poissons Ratio (z) = 0.30356 0.14608
#
# Static dielectric constant tensor:
#      x y z
#    x 3.189840 0.000000 -0.188680 
#    y 0.000000 3.356260 0.000000 
#    z -0.188680 0.000000 2.896540 
# 
# 
# High freq. dielectric constant tensor:
#      x y z
#    x 1.673660 0.000000 -0.026530 
#    y 0.000000 1.684130 0.000000 
#    z -0.026530 0.000000 1.630450 
# 
# From -- ./inp_files/78150.got.cif
#   From: 2010.03.12/outbox.cif.g09.slc.cpg/sg14_40_cif.got.tgz:78150.got - 2010.03.31 13:35:05.
