data_PCOD8123638
_publ_section_title
;
Structure prediction by ZEFSAII (Michael W. Deem and Ramdas Pophale) SiO2 
 PCOD8123638
Probable space group: P 21/C
;
_chemical_formula_sum "Si O2"
_cell_formula_units_Z 28
_cell_length_a 13.546915
_cell_length_b 9.548623
_cell_length_c 14.499587
_cell_angle_alpha 90.000000
_cell_angle_beta 44.398109
_cell_angle_gamma 90.000000
_cell_volume 1312.233941
_symmetry_space_group_name_H-M "P 21/C"
_symmetry_group_IT_number 14
_symmetry_cell_setting 'monoclinic'
loop_
_space_group_symop_operation_xyz
x,y,z
-x,1/2+y,1/2-z
-x,-y,-z
x,1/2-y,1/2+z
loop_
_atom_site_type_symbol
_atom_site_label
_atom_site_fract_x
_atom_site_fract_y
_atom_site_fract_z
Si Si1 0.290432 0.134873 0.662754
Si Si2 0.367609 0.165789 0.418160
Si Si3 0.425117 0.065085 0.767431
Si Si4 0.154885 0.587395 0.482987
Si Si5 0.954826 0.869148 0.411825
Si Si6 0.087852 0.905704 0.813887
Si Si7 0.032107 0.168075 0.380121
O O1 0.397816 0.175381 0.508465
O O2 0.375861 0.118583 0.700090
O O3 0.170788 0.253666 0.752006
O O4 0.215359 0.988709 0.679453
O O5 0.442473 0.299007 0.320448
O O6 0.199915 0.167312 0.520095
O O7 0.429078 0.020350 0.336646
O O8 0.317653 0.954206 0.886803
O O9 0.119418 0.574744 0.399839
O O10 0.062934 0.478319 0.603902
O O11 0.111103 0.743561 0.544453
O O12 0.947685 0.859256 0.526004
O O13 0.068831 0.756231 0.296030
O O14 0.009285 0.021109 0.342250
#
# Coordination Sequence:
#
# PCOD8123638 Si02
#       7
#     4   4   4   4   4   4   4
#     4  10  21  42  63  87 120 159 198 247 306 359
#     4  12  25  39  64  85 119 167 203 244 295 357
#     4  11  23  43  59  86 123 158 211 244 286 369
#     4   8  14  31  59  80 112 158 185 228 299 344
#     4  10  18  34  58  97 122 149 195 245 308 347
#     4   8  14  31  59  87 112 148 183 240 296 354
#     4   9  18  34  63  90 124 151 186 256 310 346
#
# _framework density 21.337658000000001
#
# number of rings (size 3 to 8) (size 9 to 14) (size 15 to 20)
#    0.000    2.286    2.857    2.143    2.000    1.143 
#    0.000    2.143    0.000    0.000    0.000    0.000 
#    0.000    0.000    0.000    0.000    0.000    0.000 
#
# Total GULP energy -346953.806547 kJ/mol
# GULP energy per Si atom -12391.207377 kJ/mol
# Density = 2.128909 g / cm^3
# Si number density = 21.337658 Si / 1000 Ang^3
#
#
#
# Elastic Constant Matrix: (Units=GPa)
#
#
# Indices 1 2 3 4 5 6 
#
# 1 38.8797 27.2532 20.3425 0.0000 -2.5779 0.0000
# 2 27.2532 160.2594 52.0112 0.0000 4.4829 0.0000
# 3 20.3425 52.0112 80.7183 0.0000 7.4479 0.0000
# 4 0.0000 0.0000 0.0000 24.6154 0.0000 -8.6549
# 5 -2.5779 4.4829 7.4479 0.0000 15.5138 0.0000
# 6 0.0000 0.0000 0.0000 -8.6549 0.0000 27.6865
#
#
#
# Elastic Compliance Matrix: (Units=1/GPa)
#
#
# Indices 1 2 3 4 5 6 
#
# 1 0.032408 -0.003593 -0.006744 0.000000 0.009661 0.000000
# 2 -0.003593 0.008289 -0.004352 0.000000 -0.000903 0.000000
# 3 -0.006744 -0.004352 0.017662 0.000000 -0.008342 0.000000
# 4 0.000000 0.000000 0.000000 0.045642 0.000000 0.014268
# 5 0.009661 -0.000903 -0.008342 0.000000 0.070330 0.000000
# 6 0.000000 0.000000 0.000000 0.014268 0.000000 0.040579
#
#
# Mechanical properties :
#
#
# Convention : Reuss Voigt Hill
#
# Bulk Modulus (GPa) = 34.50471 53.23013 43.86742
# Shear Modulus (GPa) = 19.68917 25.57983 22.63450
#
# Velocity S-wave (km/s) = 3.04096 3.46614 3.26049
# Velocity P-wave (km/s) = 5.34190 6.40465 5.89726
#
# Compressibility (1/GPa) = 0.02898155
#
# Stress axis : x y z
#
# Youngs Moduli (GPa) = 30.85675 120.64864 56.61766
#
# Poissons Ratio (x) = 0.43346 0.38182
# Poissons Ratio (y) = 0.11086 0.24640
# Poissons Ratio (z) = 0.20809 0.52506
#
# Static dielectric constant tensor:
#      x y z
#    x 3.552790 0.000000 0.046390 
#    y 0.000000 4.349900 0.000000 
#    z 0.046390 0.000000 3.885170 
# 
# 
# High freq. dielectric constant tensor:
#      x y z
#    x 1.807940 0.000000 0.008080 
#    y 0.000000 1.846120 0.000000 
#    z 0.008080 0.000000 1.824130 
# 
# From -- ./inp_files/46445.got.cif
#   From: 2010.03.12/outbox.cif.g09.slc.cpg/sg14_24_cif.got.tgz:46445.got - 2010.03.31 13:35:05.
