data_PCOD8123044
_publ_section_title
;
Structure prediction by ZEFSAII (Michael W. Deem and Ramdas Pophale) SiO2 
 PCOD8123044
Probable space group: P 2/C
;
_chemical_formula_sum "Si O2"
_cell_formula_units_Z 16
_cell_length_a 10.568023
_cell_length_b 4.969210
_cell_length_c 22.971681
_cell_angle_alpha 90.000000
_cell_angle_beta 142.992285
_cell_angle_gamma 90.000000
_cell_volume 726.130192
_symmetry_space_group_name_H-M "P 2/C"
_symmetry_group_IT_number 13
_symmetry_cell_setting 'monoclinic'
loop_
_space_group_symop_operation_xyz
x,y,z
-x,y,1/2-z
-x,-y,-z
x,-y,1/2+z
loop_
_atom_site_type_symbol
_atom_site_label
_atom_site_fract_x
_atom_site_fract_y
_atom_site_fract_z
Si Si1 0.378062 0.835137 0.763873
Si Si2 0.817795 0.277337 0.640068
Si Si3 0.507919 0.335658 0.882527
Si Si4 0.107386 0.215500 0.407848
O O1 0.500000 0.768236 0.750000
O O2 0.454976 0.635411 0.842561
O O3 0.132269 0.808073 0.659830
O O4 0.425984 0.136185 0.802649
O O5 0.599246 0.285793 0.594241
O O6 0.875761 0.570364 0.637778
O O7 0.000000 0.175237 0.750000
O O8 0.803192 0.069596 0.581545
O O9 0.756777 0.302314 0.985695
#
# Coordination Sequence:
#
# PCOD8123044 Si02
#       4
#     4   4   4   4
#     4  12  26  44  64  91 127 171 215 255 302 367
#     4  12  21  41  69  94 129 162 199 260 327 371
#     4  12  25  42  67  95 126 165 208 259 316 371
#     4  12  24  42  66  96 128 163 205 260 316 374
#
# _framework density 22.034617000000001
#
# number of rings (size 3 to 8) (size 9 to 14) (size 15 to 20)
#    0.000    0.000    5.000    6.000    0.000    2.000 
#    0.000    0.000    0.000    0.000    0.000    0.000 
#    0.000    0.000    0.000    0.000    0.000    0.000 
#
# Total GULP energy -198565.163666 kJ/mol
# GULP energy per Si atom -12410.322729 kJ/mol
# Density = 2.198446 g / cm^3
# Si number density = 22.034617 Si / 1000 Ang^3
#
#
#
# Elastic Constant Matrix: (Units=GPa)
#
#
# Indices 1 2 3 4 5 6 
#
# 1 132.4402 21.8725 35.0794 0.0000 19.2007 0.0000
# 2 21.8725 81.6721 -0.2970 0.0000 2.2800 0.0000
# 3 35.0794 -0.2970 80.1338 0.0000 14.7169 0.0000
# 4 0.0000 0.0000 0.0000 14.8628 0.0000 12.7688
# 5 19.2007 2.2800 14.7169 0.0000 19.8472 0.0000
# 6 0.0000 0.0000 0.0000 12.7688 0.0000 13.0768
#
#
#
# Elastic Compliance Matrix: (Units=1/GPa)
#
#
# Indices 1 2 3 4 5 6 
#
# 1 0.009752 -0.002429 -0.003006 0.000000 -0.006926 0.000000
# 2 -0.002429 0.012897 0.001102 0.000000 0.000052 0.000000
# 3 -0.003006 0.001102 0.015383 0.000000 -0.008625 0.000000
# 4 0.000000 0.000000 0.000000 0.417591 0.000000 -0.407755
# 5 -0.006926 0.000052 -0.008625 0.000000 0.063475 0.000000
# 6 0.000000 0.000000 0.000000 -0.407755 0.000000 0.474622
#
#
# Mechanical properties :
#
#
# Convention : Reuss Voigt Hill
#
# Bulk Modulus (GPa) = 34.05361 45.28400 39.66880
# Shear Modulus (GPa) = 4.93985 25.39679 15.16832
#
# Velocity S-wave (km/s) = 1.49891 3.39866 2.62656
# Velocity P-wave (km/s) = 4.29928 5.99976 5.21924
#
# Compressibility (1/GPa) = 0.02936546
#
# Stress axis : x y z
#
# Youngs Moduli (GPa) = 102.54158 77.53606 65.00602
#
# Poissons Ratio (x) = 0.18836 0.19541
# Poissons Ratio (y) = 0.24910 -0.07162
# Poissons Ratio (z) = 0.30824 -0.08543
#
# Static dielectric constant tensor:
#      x y z
#    x 3.775840 0.000000 0.216710 
#    y 0.000000 4.021590 0.000000 
#    z 0.216710 0.000000 3.954870 
# 
# 
# High freq. dielectric constant tensor:
#      x y z
#    x 1.850390 0.000000 0.012200 
#    y 0.000000 1.882930 0.000000 
#    z 0.012200 0.000000 1.878330 
# 
# From -- ./inp_files/31404.got.cif
#   From: 2010.06.25/outbox.cif.g09.slc.cpg/sg13_16_cif.got.tgz:31404.got - 2010.06.28 04:50:58.
