data_PCOD8123866
_publ_section_title
;
Structure prediction by ZEFSAII (Michael W. Deem and Ramdas Pophale) SiO2 
 PCOD8123866
Probable space group: P 21/C
;
_chemical_formula_sum "Si O2"
_cell_formula_units_Z 20
_cell_length_a 9.170422
_cell_length_b 16.012473
_cell_length_c 13.551322
_cell_angle_alpha 90.000000
_cell_angle_beta 28.396067
_cell_angle_gamma 90.000000
_cell_volume 946.320414
_symmetry_space_group_name_H-M "P 21/C"
_symmetry_group_IT_number 14
_symmetry_cell_setting 'monoclinic'
loop_
_space_group_symop_operation_xyz
x,y,z
-x,1/2+y,1/2-z
-x,-y,-z
x,1/2-y,1/2+z
loop_
_atom_site_type_symbol
_atom_site_label
_atom_site_fract_x
_atom_site_fract_y
_atom_site_fract_z
Si Si1 0.830129 0.811970 0.755879
Si Si2 0.540776 0.845249 0.339011
Si Si3 0.326819 0.042738 0.294551
Si Si4 0.282251 0.976499 0.761868
Si Si5 0.248731 0.393087 0.498751
O O1 0.741325 0.717704 0.783873
O O2 0.689835 0.873231 0.757733
O O3 0.684567 0.833696 0.948598
O O4 0.192898 0.817099 0.543753
O O5 0.582001 0.937280 0.364571
O O6 0.660178 0.845391 0.155298
O O7 0.454148 0.066667 0.328113
O O8 0.000000 0.000000 0.500000
O O9 0.553697 0.977532 0.106192
O O10 0.121395 0.915060 0.778176
O O11 0.000000 0.000000 0.000000
#
# Coordination Sequence:
#
# PCOD8123866 Si02
#       5
#     4   4   4   4   4
#     4  12  24  40  64  93 126 164 210 255 321 368
#     4  10  24  41  60  92 130 157 203 266 311 362
#     4  10  18  41  66  91 121 165 206 261 303 371
#     4   8  18  40  65  83 122 165 200 248 310 357
#     4  10  23  43  65  91 122 171 212 249 313 377
#
# _framework density 21.134492000000002
#
# number of rings (size 3 to 8) (size 9 to 14) (size 15 to 20)
#    0.000    2.400    4.000    0.600    8.400    2.400 
#    0.000    0.000    0.000    0.000    0.000    0.000 
#    0.000    0.000    0.000    0.000    0.000    0.000 
#
# Total GULP energy -247905.370205 kJ/mol
# GULP energy per Si atom -12395.268510 kJ/mol
# Density = 2.108639 g / cm^3
# Si number density = 21.134492 Si / 1000 Ang^3
#
#
#
# Elastic Constant Matrix: (Units=GPa)
#
#
# Indices 1 2 3 4 5 6 
#
# 1 60.2471 33.4494 14.4842 0.0000 -15.1066 0.0000
# 2 33.4494 72.6992 7.6561 0.0000 1.0698 0.0000
# 3 14.4842 7.6561 69.2216 0.0000 -24.8390 0.0000
# 4 0.0000 0.0000 0.0000 16.3656 0.0000 -10.2915
# 5 -15.1066 1.0698 -24.8390 0.0000 37.3623 0.0000
# 6 0.0000 0.0000 0.0000 -10.2915 0.0000 51.9338
#
#
#
# Elastic Compliance Matrix: (Units=1/GPa)
#
#
# Indices 1 2 3 4 5 6 
#
# 1 0.026085 -0.012131 -0.000272 0.000000 0.010713 0.000000
# 2 -0.012131 0.019659 -0.002099 0.000000 -0.006863 0.000000
# 3 -0.000272 -0.002099 0.019328 0.000000 0.012800 0.000000
# 4 0.000000 0.000000 0.000000 0.069802 0.000000 0.013832
# 5 0.010713 -0.006863 0.012800 0.000000 0.039803 0.000000
# 6 0.000000 0.000000 0.000000 0.013832 0.000000 0.021996
#
#
# Mechanical properties :
#
#
# Convention : Reuss Voigt Hill
#
# Bulk Modulus (GPa) = 27.72465 34.81637 31.27051
# Shear Modulus (GPa) = 21.03488 30.90421 25.96954
#
# Velocity S-wave (km/s) = 3.15824 3.82810 3.50919
# Velocity P-wave (km/s) = 5.14257 6.00405 5.58993
#
# Compressibility (1/GPa) = 0.03606899
#
# Stress axis : x y z
#
# Youngs Moduli (GPa) = 38.33589 50.86754 51.73710
#
# Poissons Ratio (x) = 0.61707 0.01408
# Poissons Ratio (y) = 0.46505 0.10858
# Poissons Ratio (z) = 0.01043 0.10676
#
# Static dielectric constant tensor:
#      x y z
#    x 4.596680 0.000000 -0.485360 
#    y 0.000000 3.933010 0.000000 
#    z -0.485360 0.000000 3.878120 
# 
# 
# High freq. dielectric constant tensor:
#      x y z
#    x 1.834590 0.000000 -0.017150 
#    y 0.000000 1.812090 0.000000 
#    z -0.017150 0.000000 1.832420 
# 
# From -- ./inp_files/41668.got.cif
#   From: 2010.03.12/outbox.cif.g09.slc.cpg/sg14_21_cif.got.tgz:41668.got - 2010.03.31 13:35:05.
