data_PCOD8123137
_publ_section_title
;
Structure prediction by ZEFSAII (Michael W. Deem and Ramdas Pophale) SiO2 
 PCOD8123137
Probable space group: P 2/C
;
_chemical_formula_sum "Si O2"
_cell_formula_units_Z 24
_cell_length_a 19.682154
_cell_length_b 6.669655
_cell_length_c 13.021614
_cell_angle_alpha 90.000000
_cell_angle_beta 141.191665
_cell_angle_gamma 90.000000
_cell_volume 1071.303222
_symmetry_space_group_name_H-M "P 2/C"
_symmetry_group_IT_number 13
_symmetry_cell_setting 'monoclinic'
loop_
_space_group_symop_operation_xyz
x,y,z
-x,y,1/2-z
-x,-y,-z
x,-y,1/2+z
loop_
_atom_site_type_symbol
_atom_site_label
_atom_site_fract_x
_atom_site_fract_y
_atom_site_fract_z
Si Si1 0.409080 0.867293 0.840588
Si Si2 0.331841 0.530465 0.903095
Si Si3 0.748637 0.215434 0.845907
Si Si4 0.975196 0.056798 0.083965
Si Si5 0.000000 0.301425 0.750000
Si Si6 0.843604 0.632849 0.649938
Si Si7 0.500000 0.654235 0.750000
O O1 0.385131 0.688734 0.890174
O O2 0.443544 0.792503 0.768951
O O3 0.301100 0.996563 0.697138
O O4 0.500000 0.000000 0.000000
O O5 0.316961 0.328944 0.819833
O O6 0.216164 0.606106 0.811027
O O7 0.411685 0.486848 0.091592
O O8 0.748642 0.334249 0.953948
O O9 0.874171 0.205869 0.962353
O O10 0.077147 0.173118 0.255789
O O11 0.945162 0.847910 0.103608
O O12 0.000000 0.000000 0.000000
O O13 0.090702 0.432632 0.800209
#
# Coordination Sequence:
#
# PCOD8123137 Si02
#       7
#     4   4   4   4   2   4   2
#     4  12  29  50  76 110 148 193 252 314 379 451
#     4  12  29  48  76 110 149 198 254 313 380 450
#     4  12  26  48  73 112 148 197 250 303 379 448
#     4  12  26  45  75 108 152 193 246 300 369 449
#     4  12  24  48  70 110 154 196 244 306 362 440
#     4  12  27  46  75 112 151 200 246 310 372 451
#     4  12  28  52  80 110 146 202 252 324 382 440
#
# _framework density 22.402622999999998
#
# number of rings (size 3 to 8) (size 9 to 14) (size 15 to 20)
#    0.000    0.000    5.000    3.500   11.667    2.667 
#    0.000    0.000    0.000    0.000    0.000    0.000 
#    0.000    0.000    0.000    0.000    0.000    0.000 
#
# Total GULP energy -297696.512770 kJ/mol
# GULP energy per Si atom -12404.021365 kJ/mol
# Density = 2.235163 g / cm^3
# Si number density = 22.402623 Si / 1000 Ang^3
#
#
#
# Elastic Constant Matrix: (Units=GPa)
#
#
# Indices 1 2 3 4 5 6 
#
# 1 165.4747 67.2942 46.5603 0.0000 -12.5771 0.0000
# 2 67.2942 128.3381 56.9074 0.0000 -10.0822 0.0000
# 3 46.5603 56.9074 117.9731 0.0000 -4.1056 0.0000
# 4 0.0000 0.0000 0.0000 41.5761 0.0000 7.5465
# 5 -12.5771 -10.0822 -4.1056 0.0000 32.0038 0.0000
# 6 0.0000 0.0000 0.0000 7.5465 0.0000 35.6977
#
#
#
# Elastic Compliance Matrix: (Units=1/GPa)
#
#
# Indices 1 2 3 4 5 6 
#
# 1 0.007972 -0.003392 -0.001445 0.000000 0.001879 0.000000
# 2 -0.003392 0.011562 -0.004177 0.000000 0.001774 0.000000
# 3 -0.001445 -0.004177 0.011045 0.000000 -0.000467 0.000000
# 4 0.000000 0.000000 0.000000 0.025012 0.000000 -0.005288
# 5 0.001879 0.001774 -0.000467 0.000000 0.032484 0.000000
# 6 0.000000 0.000000 0.000000 -0.005288 0.000000 0.029131
#
#
# Mechanical properties :
#
#
# Convention : Reuss Voigt Hill
#
# Bulk Modulus (GPa) = 79.66681 83.70109 81.68395
# Shear Modulus (GPa) = 35.86383 37.92378 36.89380
#
# Velocity S-wave (km/s) = 4.00544 4.11886 4.06254
# Velocity P-wave (km/s) = 7.55182 7.75005 7.65158
#
# Compressibility (1/GPa) = 0.01255228
#
# Stress axis : x y z
#
# Youngs Moduli (GPa) = 125.44024 86.49152 90.53682
#
# Poissons Ratio (x) = 0.29337 0.13080
# Poissons Ratio (y) = 0.42548 0.37815
# Poissons Ratio (z) = 0.18123 0.36126
#
# Static dielectric constant tensor:
#      x y z
#    x 4.095660 0.000000 -0.268780 
#    y 0.000000 4.215490 0.000000 
#    z -0.268780 0.000000 3.916480 
# 
# 
# High freq. dielectric constant tensor:
#      x y z
#    x 1.902120 0.000000 -0.004920 
#    y 0.000000 1.890630 0.000000 
#    z -0.004920 0.000000 1.890910 
# 
# From -- ./inp_files/56671.got.cif
#   From: 2010.06.25/outbox.cif.g09.slc.cpg/sg13_29_cif.got.tgz:56671.got - 2010.06.28 04:50:58.
