data_PCOD8123191
_publ_section_title
;
Structure prediction by ZEFSAII (Michael W. Deem and Ramdas Pophale) SiO2 
 PCOD8123191
Probable space group: P 2/C
;
_chemical_formula_sum "Si O2"
_cell_formula_units_Z 20
_cell_length_a 19.852459
_cell_length_b 6.880161
_cell_length_c 11.676471
_cell_angle_alpha 90.000000
_cell_angle_beta 35.129061
_cell_angle_gamma 90.000000
_cell_volume 917.718700
_symmetry_space_group_name_H-M "P 2/C"
_symmetry_group_IT_number 13
_symmetry_cell_setting 'monoclinic'
loop_
_space_group_symop_operation_xyz
x,y,z
-x,y,1/2-z
-x,-y,-z
x,-y,1/2+z
loop_
_atom_site_type_symbol
_atom_site_label
_atom_site_fract_x
_atom_site_fract_y
_atom_site_fract_z
Si Si1 0.422135 0.167722 0.660166
Si Si2 0.303556 0.322419 0.609153
Si Si3 0.000000 0.850155 0.250000
Si Si4 0.891758 0.382913 0.100792
Si Si5 0.797526 0.960787 0.887674
Si Si6 0.500000 0.431235 0.750000
O O1 0.386508 0.292763 0.601387
O O2 0.500931 0.294080 0.636961
O O3 0.500000 0.000000 0.500000
O O4 0.307557 0.084602 0.881021
O O5 0.202530 0.456678 0.798078
O O6 0.246223 0.128358 0.637273
O O7 0.383764 0.434933 0.404888
O O8 0.087488 0.980071 0.202387
O O9 0.923097 0.717056 0.438656
O O10 0.836052 0.228727 0.265138
O O11 0.000000 0.500000 0.000000
#
# Coordination Sequence:
#
# PCOD8123191 Si02
#       6
#     4   4   2   4   4   2
#     4  12  27  47  79 108 151 195 251 309 380 443
#     4  12  27  48  76 106 150 193 249 306 378 444
#     4  12  28  44  80 102 152 194 246 300 382 436
#     4  12  28  49  73 112 148 194 250 309 370 452
#     4  12  27  51  73 113 148 196 245 314 373 448
#     4  12  26  50  74 110 148 196 256 310 374 450
#
# _framework density 21.793168999999999
#
# number of rings (size 3 to 8) (size 9 to 14) (size 15 to 20)
#    0.000    0.000    4.000    4.800   11.200    0.000 
#    0.000    0.000    0.000    0.000    0.000    0.000 
#    0.000    0.000    0.000    0.000    0.000    0.000 
#
# Total GULP energy -248086.119705 kJ/mol
# GULP energy per Si atom -12404.305985 kJ/mol
# Density = 2.174357 g / cm^3
# Si number density = 21.793169 Si / 1000 Ang^3
#
#
#
# Elastic Constant Matrix: (Units=GPa)
#
#
# Indices 1 2 3 4 5 6 
#
# 1 120.3048 44.8643 8.8503 0.0000 -2.5286 0.0000
# 2 44.8643 126.1816 48.2522 0.0000 -4.4900 0.0000
# 3 8.8503 48.2522 134.1199 0.0000 -4.0929 0.0000
# 4 0.0000 0.0000 0.0000 42.4822 0.0000 14.3376
# 5 -2.5286 -4.4900 -4.0929 0.0000 40.4252 0.0000
# 6 0.0000 0.0000 0.0000 14.3376 0.0000 -80.1167
#
#
#
# Elastic Compliance Matrix: (Units=1/GPa)
#
#
# Indices 1 2 3 4 5 6 
#
# 1 0.009641 -0.003685 0.000698 0.000000 0.000264 0.000000
# 2 -0.003685 0.010617 -0.003559 0.000000 0.000588 0.000000
# 3 0.000698 -0.003559 0.008706 0.000000 0.000530 0.000000
# 4 0.000000 0.000000 0.000000 0.022199 0.000000 0.003973
# 5 0.000264 0.000588 0.000530 0.000000 0.024873 0.000000
# 6 0.000000 0.000000 0.000000 0.003973 0.000000 -0.011771
#
#
# Mechanical properties :
#
#
# Convention : Reuss Voigt Hill
#
# Bulk Modulus (GPa) = 63.00344 64.94887 63.97615
# Shear Modulus (GPa) = 60.49803 19.13413 39.81608
#
# Velocity S-wave (km/s) = 5.27450 2.96630 4.27898
# Velocity P-wave (km/s) = 8.12812 6.44973 7.33707
#
# Compressibility (1/GPa) = 0.01587215
#
# Stress axis : x y z
#
# Youngs Moduli (GPa) = 103.72649 94.18755 114.85796
#
# Poissons Ratio (x) = 0.34710 -0.08014
# Poissons Ratio (y) = 0.38225 0.40873
# Poissons Ratio (z) = -0.07237 0.33517
#
# Static dielectric constant tensor:
#      x y z
#    x 3.687590 0.000000 0.380260 
#    y 0.000000 4.135960 0.000000 
#    z 0.380260 0.000000 3.609740 
# 
# 
# High freq. dielectric constant tensor:
#      x y z
#    x 1.868230 0.000000 -0.007440 
#    y 0.000000 1.876770 0.000000 
#    z -0.007440 0.000000 1.878770 
# 
# From -- ./inp_files/39763.got.cif
#   From: 2010.06.25/outbox.cif.g09.slc.cpg/sg13_20_cif.got.tgz:39763.got - 2010.06.28 04:50:58.
