data_PCOD8123614
_publ_section_title
;
Structure prediction by ZEFSAII (Michael W. Deem and Ramdas Pophale) SiO2 
 PCOD8123614
Probable space group: P 21/C
;
_chemical_formula_sum "Si O2"
_cell_formula_units_Z 20
_cell_length_a 22.109710
_cell_length_b 4.960854
_cell_length_c 17.313814
_cell_angle_alpha 90.000000
_cell_angle_beta 143.920963
_cell_angle_gamma 90.000000
_cell_volume 1118.341155
_symmetry_space_group_name_H-M "P 21/C"
_symmetry_group_IT_number 14
_symmetry_cell_setting 'monoclinic'
loop_
_space_group_symop_operation_xyz
x,y,z
-x,1/2+y,1/2-z
-x,-y,-z
x,1/2-y,1/2+z
loop_
_atom_site_type_symbol
_atom_site_label
_atom_site_fract_x
_atom_site_fract_y
_atom_site_fract_z
Si Si1 0.394444 0.279365 0.828495
Si Si2 0.732561 0.770542 0.953597
Si Si3 0.934288 0.497288 0.689605
Si Si4 0.373924 0.774421 0.907624
Si Si5 0.248080 0.735796 0.427099
O O1 0.338680 0.204067 0.691931
O O2 0.359337 0.572891 0.820681
O O3 0.363843 0.074264 0.864605
O O4 0.516144 0.272253 0.938279
O O5 0.846101 0.874931 0.041979
O O6 0.744838 0.510167 0.018794
O O7 0.684047 0.008397 0.957411
O O8 0.871160 0.371672 0.697836
O O9 0.992758 0.246145 0.709287
O O10 0.285818 0.723554 0.879249
#
# Coordination Sequence:
#
# PCOD8123614 Si02
#       5
#     4   4   4   4   4
#     4  10  21  36  54  78 114 150 173 209 270 325
#     4  10  20  33  56  84 102 141 181 226 258 311
#     4  10  18  34  56  80 102 136 178 228 278 308
#     4  10  21  36  54  78 114 150 173 209 270 325
#     4  10  20  33  56  84 102 141 181 226 258 311
#
# _framework density 17.883628000000002
#
# number of rings (size 3 to 8) (size 9 to 14) (size 15 to 20)
#    1.200    0.800    2.000    2.400    0.000    1.600 
#    0.000    0.000    0.000    7.200    0.000    0.000 
#    0.000    0.000    0.000    0.000    0.000    0.000 
#
# Total GULP energy -247767.292776 kJ/mol
# GULP energy per Si atom -12388.364639 kJ/mol
# Density = 1.784292 g / cm^3
# Si number density = 17.883628 Si / 1000 Ang^3
#
#
#
# Elastic Constant Matrix: (Units=GPa)
#
#
# Indices 1 2 3 4 5 6 
#
# 1 84.0830 28.3825 12.1729 0.0000 5.1144 0.0000
# 2 28.3825 111.3008 9.5617 0.0000 6.7264 0.0000
# 3 12.1729 9.5617 12.5819 0.0000 -2.2398 0.0000
# 4 0.0000 0.0000 0.0000 16.4328 0.0000 1.1030
# 5 5.1144 6.7264 -2.2398 0.0000 13.5712 0.0000
# 6 0.0000 0.0000 0.0000 1.1030 0.0000 18.4241
#
#
#
# Elastic Compliance Matrix: (Units=1/GPa)
#
#
# Indices 1 2 3 4 5 6 
#
# 1 0.015115 -0.002218 -0.014174 0.000000 -0.006936 0.000000
# 2 -0.002218 0.010463 -0.006780 0.000000 -0.005469 0.000000
# 3 -0.014174 -0.006780 0.102918 0.000000 0.025687 0.000000
# 4 0.000000 0.000000 0.000000 0.061099 0.000000 -0.003658
# 5 -0.006936 -0.005469 0.025687 0.000000 0.083250 0.000000
# 6 0.000000 0.000000 0.000000 -0.003658 0.000000 0.054496
#
#
# Mechanical properties :
#
#
# Convention : Reuss Voigt Hill
#
# Bulk Modulus (GPa) = 12.17221 34.24444 23.20832
# Shear Modulus (GPa) = 12.46672 20.20885 16.33778
#
# Velocity S-wave (km/s) = 2.64313 3.36522 3.02580
# Velocity P-wave (km/s) = 4.01696 5.85574 5.02124
#
# Compressibility (1/GPa) = 0.08215436
#
# Stress axis : x y z
#
# Youngs Moduli (GPa) = 66.15732 95.57368 9.71652
#
# Poissons Ratio (x) = 0.21196 0.13772
# Poissons Ratio (y) = 0.14672 0.06587
# Poissons Ratio (z) = 0.93769 0.64794
#
# Static dielectric constant tensor:
#      x y z
#    x 3.133010 0.000000 0.244120 
#    y 0.000000 3.587740 0.000000 
#    z 0.244120 0.000000 3.017460 
# 
# 
# High freq. dielectric constant tensor:
#      x y z
#    x 1.672000 0.000000 0.018620 
#    y 0.000000 1.724840 0.000000 
#    z 0.018620 0.000000 1.654830 
# 
# From -- ./inp_files/49519.got.cif
#   From: 2010.03.12/outbox.cif.g09.slc.cpg/sg14_25_cif.got.tgz:49519.got - 2010.03.31 13:35:05.
