data_PCOD8123335
_publ_section_title
;
Structure prediction by ZEFSAII (Michael W. Deem and Ramdas Pophale) SiO2 
 PCOD8123335
Probable space group: P 21/C
;
_chemical_formula_sum "Si O2"
_cell_formula_units_Z 24
_cell_length_a 9.045521
_cell_length_b 15.776968
_cell_length_c 19.885423
_cell_angle_alpha 90.000000
_cell_angle_beta 29.561405
_cell_angle_gamma 90.000000
_cell_volume 1400.078629
_symmetry_space_group_name_H-M "P 21/C"
_symmetry_group_IT_number 14
_symmetry_cell_setting 'monoclinic'
loop_
_space_group_symop_operation_xyz
x,y,z
-x,1/2+y,1/2-z
-x,-y,-z
x,1/2-y,1/2+z
loop_
_atom_site_type_symbol
_atom_site_label
_atom_site_fract_x
_atom_site_fract_y
_atom_site_fract_z
Si Si1 0.773415 0.254274 0.141786
Si Si2 0.282372 0.468713 0.301547
Si Si3 0.620251 0.499151 0.526980
Si Si4 0.340730 0.152725 0.900310
Si Si5 0.867755 0.083450 0.519855
Si Si6 0.420561 0.108882 0.222289
O O1 0.599215 0.279940 0.278954
O O2 0.903913 0.337615 0.055225
O O3 0.542912 0.204087 0.184075
O O4 0.060447 0.197746 0.046998
O O5 0.223817 0.394227 0.378905
O O6 0.511973 0.435797 0.152438
O O7 0.408123 0.549861 0.291553
O O8 0.979094 0.492897 0.384153
O O9 0.500000 0.500000 0.500000
O O10 0.517924 0.585661 0.603856
O O11 0.479418 0.419826 0.622751
O O12 0.058720 0.104809 0.377316
O O13 0.000000 0.000000 0.500000
#
# Coordination Sequence:
#
# PCOD8123335 Si02
#       6
#     4   4   4   4   4   4
#     4  11  17  29  58  83 107 129 177 235 271 307
#     4   9  17  33  54  77 105 136 184 220 267 314
#     4  11  21  35  55  76 112 153 183 208 263 334
#     4  10  19  32  55  84 101 138 179 230 269 313
#     4   9  19  30  51  87 108 130 170 235 281 310
#     4  10  17  32  54  80 104 135 183 228 265 310
#
# _framework density 17.141894000000001
#
# number of rings (size 3 to 8) (size 9 to 14) (size 15 to 20)
#    0.000    2.000    5.000    2.000    0.000    0.000 
#    0.000    0.833   11.000    0.000    0.000    0.000 
#    0.000    0.000    0.000    0.000    0.000    0.000 
#
# Total GULP energy -297458.215459 kJ/mol
# GULP energy per Si atom -12394.092311 kJ/mol
# Density = 1.710288 g / cm^3
# Si number density = 17.141894 Si / 1000 Ang^3
#
#
#
# Elastic Constant Matrix: (Units=GPa)
#
#
# Indices 1 2 3 4 5 6 
#
# 1 83.9835 21.3151 45.6526 0.0000 7.3685 0.0000
# 2 21.3151 92.9131 37.0182 0.0000 4.9919 0.0000
# 3 45.6526 37.0182 128.8765 0.0000 -3.3084 0.0000
# 4 0.0000 0.0000 0.0000 39.1645 0.0000 -1.4749
# 5 7.3685 4.9919 -3.3084 0.0000 15.0253 0.0000
# 6 0.0000 0.0000 0.0000 -1.4749 0.0000 13.3211
#
#
#
# Elastic Compliance Matrix: (Units=1/GPa)
#
#
# Indices 1 2 3 4 5 6 
#
# 1 0.015964 -0.000960 -0.005604 0.000000 -0.008744 0.000000
# 2 -0.000960 0.012571 -0.003385 0.000000 -0.004451 0.000000
# 3 -0.005604 -0.003385 0.010878 0.000000 0.006268 0.000000
# 4 0.000000 0.000000 0.000000 0.025640 0.000000 0.002839
# 5 -0.008744 -0.004451 0.006268 0.000000 0.073701 0.000000
# 6 0.000000 0.000000 0.000000 0.002839 0.000000 0.075383
#
#
# Mechanical properties :
#
#
# Convention : Reuss Voigt Hill
#
# Bulk Modulus (GPa) = 51.24256 57.08278 54.16267
# Shear Modulus (GPa) = 20.78661 26.95466 23.87064
#
# Velocity S-wave (km/s) = 3.48605 3.96971 3.73571
# Velocity P-wave (km/s) = 6.79422 7.37454 7.09032
#
# Compressibility (1/GPa) = 0.01951503
#
# Stress axis : x y z
#
# Youngs Moduli (GPa) = 62.64083 79.54983 91.93175
#
# Poissons Ratio (x) = 0.07636 0.51516
# Poissons Ratio (y) = 0.06013 0.31119
# Poissons Ratio (z) = 0.35103 0.26928
#
# Static dielectric constant tensor:
#      x y z
#    x 2.526990 0.000000 -0.164640 
#    y 0.000000 3.467140 0.000000 
#    z -0.164640 0.000000 3.831590 
# 
# 
# High freq. dielectric constant tensor:
#      x y z
#    x 1.577230 0.000000 -0.016710 
#    y 0.000000 1.679580 0.000000 
#    z -0.016710 0.000000 1.690770 
# 
# From -- ./inp_files/24598.got.cif
#   From: 2010.03.12/outbox.cif.g09.slc.cpg/sg14_13_cif.got.tgz:24598.got - 2010.03.31 13:35:05.
