data_PCOD8123318
_publ_section_title
;
Structure prediction by ZEFSAII (Michael W. Deem and Ramdas Pophale) SiO2 
 PCOD8123318
Probable space group: P 21/C
;
_chemical_formula_sum "Si O2"
_cell_formula_units_Z 32
_cell_length_a 15.261648
_cell_length_b 12.311270
_cell_length_c 18.049876
_cell_angle_alpha 90.000000
_cell_angle_beta 28.309651
_cell_angle_gamma 90.000000
_cell_volume 1608.323837
_symmetry_space_group_name_H-M "P 21/C"
_symmetry_group_IT_number 14
_symmetry_cell_setting 'monoclinic'
loop_
_space_group_symop_operation_xyz
x,y,z
-x,1/2+y,1/2-z
-x,-y,-z
x,1/2-y,1/2+z
loop_
_atom_site_type_symbol
_atom_site_label
_atom_site_fract_x
_atom_site_fract_y
_atom_site_fract_z
Si Si1 0.362356 0.667931 0.299270
Si Si2 0.956181 0.261317 0.550983
Si Si3 0.293986 0.036406 0.436352
Si Si4 0.390904 0.172964 0.973506
Si Si5 0.821951 0.664653 0.228179
Si Si6 0.272913 0.539450 0.789193
Si Si7 0.814837 0.190395 0.447937
Si Si8 0.060560 0.249569 0.137356
O O1 0.168093 0.647240 0.399838
O O2 0.485614 0.562924 0.226326
O O3 0.486180 0.731414 0.148674
O O4 0.330706 0.734238 0.399337
O O5 0.152743 0.244596 0.361683
O O6 0.000616 0.294241 0.601662
O O7 0.845600 0.148065 0.631458
O O8 0.232069 0.013243 0.398760
O O9 0.159120 0.132639 0.564994
O O10 0.272979 0.928548 0.502731
O O11 0.507724 0.062030 0.882303
O O12 0.341762 0.202535 0.095528
O O13 0.203803 0.161112 0.064189
O O14 0.786208 0.541316 0.231246
O O15 0.014025 0.668421 0.127036
O O16 0.877304 0.250294 0.325610
#
# Coordination Sequence:
#
# PCOD8123318 Si02
#       8
#     4   4   4   4   4   4   4   4
#     4   9  20  37  54  81 116 155 188 236 295 348
#     4  10  18  35  55  80 116 143 197 241 283 334
#     4  11  19  37  60  83 118 156 185 240 309 332
#     4   9  19  33  49  82 125 142 176 230 295 354
#     4  10  17  30  56  82 113 146 179 241 296 333
#     4  11  18  33  57  89 114 144 185 252 298 341
#     4  10  20  39  55  84 122 150 195 241 284 354
#     4  10  21  35  58  86 113 157 193 234 291 348
#
# _framework density 19.896491000000001
#
# number of rings (size 3 to 8) (size 9 to 14) (size 15 to 20)
#    0.000    2.000    5.000    1.500    0.000    0.000 
#   11.250    0.625    0.000    0.750    0.000    0.000 
#    0.000    0.000    0.000    0.000    0.000    0.000 
#
# Total GULP energy -396509.018541 kJ/mol
# GULP energy per Si atom -12390.906829 kJ/mol
# Density = 1.985121 g / cm^3
# Si number density = 19.896491 Si / 1000 Ang^3
#
#
#
# Elastic Constant Matrix: (Units=GPa)
#
#
# Indices 1 2 3 4 5 6 
#
# 1 79.3402 15.6340 31.7952 0.0000 19.6342 0.0000
# 2 15.6340 43.9486 36.8033 0.0000 3.8787 0.0000
# 3 31.7952 36.8033 131.6907 0.0000 27.9214 0.0000
# 4 0.0000 0.0000 0.0000 32.4394 0.0000 -3.6329
# 5 19.6342 3.8787 27.9214 0.0000 30.2520 0.0000
# 6 0.0000 0.0000 0.0000 -3.6329 0.0000 24.1969
#
#
#
# Elastic Compliance Matrix: (Units=1/GPa)
#
#
# Indices 1 2 3 4 5 6 
#
# 1 0.016007 -0.004278 -0.000725 0.000000 -0.009172 0.000000
# 2 -0.004278 0.031419 -0.009303 0.000000 0.007334 0.000000
# 3 -0.000725 -0.009303 0.012452 0.000000 -0.009830 0.000000
# 4 0.000000 0.000000 0.000000 0.031354 0.000000 0.004707
# 5 -0.009172 0.007334 -0.009830 0.000000 0.047141 0.000000
# 6 0.000000 0.000000 0.000000 0.004707 0.000000 0.042034
#
#
# Mechanical properties :
#
#
# Convention : Reuss Voigt Hill
#
# Bulk Modulus (GPa) = 31.98189 47.04938 39.51563
# Shear Modulus (GPa) = 22.78527 28.76079 25.77303
#
# Velocity S-wave (km/s) = 3.38774 3.80613 3.60301
# Velocity P-wave (km/s) = 5.60459 6.55850 6.10021
#
# Compressibility (1/GPa) = 0.03126770
#
# Stress axis : x y z
#
# Youngs Moduli (GPa) = 62.47270 31.82830 80.30525
#
# Poissons Ratio (x) = 0.13616 0.05818
# Poissons Ratio (y) = 0.26726 0.74705
# Poissons Ratio (z) = 0.04526 0.29609
#
# Static dielectric constant tensor:
#      x y z
#    x 3.873810 0.000000 0.001470 
#    y 0.000000 3.439630 0.000000 
#    z 0.001470 0.000000 4.349060 
# 
# 
# High freq. dielectric constant tensor:
#      x y z
#    x 1.767340 0.000000 0.006740 
#    y 0.000000 1.733020 0.000000 
#    z 0.006740 0.000000 1.794480 
# 
# From -- ./inp_files/59604.got.cif
#   From: 2010.03.12/outbox.cif.g09.slc.cpg/sg14_30_cif.got.tgz:59604.got - 2010.03.31 13:35:05.
