data_PCOD8123046
_publ_section_title
;
Structure prediction by ZEFSAII (Michael W. Deem and Ramdas Pophale) SiO2 
 PCOD8123046
Probable space group: P 2/C
;
_chemical_formula_sum "Si O2"
_cell_formula_units_Z 22
_cell_length_a 15.500898
_cell_length_b 11.131874
_cell_length_c 11.801844
_cell_angle_alpha 90.000000
_cell_angle_beta 29.852497
_cell_angle_gamma 90.000000
_cell_volume 1013.684289
_symmetry_space_group_name_H-M "P 2/C"
_symmetry_group_IT_number 13
_symmetry_cell_setting 'monoclinic'
loop_
_space_group_symop_operation_xyz
x,y,z
-x,y,1/2-z
-x,-y,-z
x,-y,1/2+z
loop_
_atom_site_type_symbol
_atom_site_label
_atom_site_fract_x
_atom_site_fract_y
_atom_site_fract_z
Si Si1 0.314658 0.634970 0.414947
Si Si2 0.689291 0.857806 0.502627
Si Si3 0.818192 0.191339 0.624622
Si Si4 0.914996 0.369277 0.107376
Si Si5 0.000000 0.986529 0.750000
Si Si6 0.203343 0.375525 0.492559
O O1 0.500000 0.671714 0.250000
O O2 0.280933 0.723364 0.349464
O O3 0.170271 0.653211 0.674482
O O4 0.312001 0.497072 0.381436
O O5 0.690959 0.866457 0.363291
O O6 0.706873 0.722708 0.530870
O O7 0.841964 0.934903 0.384169
O O8 0.500000 0.909721 0.750000
O O9 0.929792 0.091755 0.433605
O O10 0.937029 0.270619 0.572039
O O11 0.779958 0.343311 0.159827
O O12 0.000000 0.500000 0.000000
O O13 0.000000 0.395728 0.750000
#
# Coordination Sequence:
#
# PCOD8123046 Si02
#       6
#     4   4   4   4   2   4
#     4  12  26  40  65 111 146 182 235 301 361 435
#     4  12  28  48  74 108 142 193 249 300 360 423
#     4  12  24  48  75 103 140 190 241 295 368 435
#     4  12  21  41  71  97 141 189 230 282 363 439
#     4  12  26  52  76 102 144 192 248 304 358 418
#     4  12  22  42  70 100 144 189 230 288 362 430
#
# _framework density 21.703009000000002
#
# number of rings (size 3 to 8) (size 9 to 14) (size 15 to 20)
#    0.000    0.000    8.182    1.091    2.545    2.182 
#    0.000    0.000    0.000    0.000    0.000    0.000 
#    0.000    0.000    0.000    0.000    0.000    0.000 
#
# Total GULP energy -272836.755358 kJ/mol
# GULP energy per Si atom -12401.670698 kJ/mol
# Density = 2.165361 g / cm^3
# Si number density = 21.703009 Si / 1000 Ang^3
#
#
#
# Elastic Constant Matrix: (Units=GPa)
#
#
# Indices 1 2 3 4 5 6 
#
# 1 134.9335 44.1535 56.6504 0.0000 15.2116 0.0000
# 2 44.1535 98.9205 51.7993 0.0000 -5.3393 0.0000
# 3 56.6504 51.7993 118.0175 0.0000 10.1401 0.0000
# 4 0.0000 0.0000 0.0000 13.8936 0.0000 16.6033
# 5 15.2116 -5.3393 10.1401 0.0000 45.0275 0.0000
# 6 0.0000 0.0000 0.0000 16.6033 0.0000 17.7358
#
#
#
# Elastic Compliance Matrix: (Units=1/GPa)
#
#
# Indices 1 2 3 4 5 6 
#
# 1 0.010099 -0.002945 -0.003296 0.000000 -0.003019 0.000000
# 2 -0.002945 0.014370 -0.005226 0.000000 0.003876 0.000000
# 3 -0.003296 -0.005226 0.012550 0.000000 -0.002333 0.000000
# 4 0.000000 0.000000 0.000000 -0.606219 0.000000 0.567510
# 5 -0.003019 0.003876 -0.002333 0.000000 0.024213 0.000000
# 6 0.000000 0.000000 0.000000 0.567510 0.000000 -0.474890
#
#
# Mechanical properties :
#
#
# Convention : Reuss Voigt Hill
#
# Bulk Modulus (GPa) = 71.00197 73.00866 72.00532
# Shear Modulus (GPa) = -5.03905 28.61591 11.78843
#
# Velocity S-wave (km/s) = -1.52541 3.63509 2.33313
# Velocity P-wave (km/s) = 5.44828 7.16459 6.36456
#
# Compressibility (1/GPa) = 0.01408412
#
# Stress axis : x y z
#
# Youngs Moduli (GPa) = 99.02375 69.59174 79.68338
#
# Poissons Ratio (x) = 0.20493 0.26261
# Poissons Ratio (y) = 0.29160 0.41646
# Poissons Ratio (z) = 0.32635 0.36372
#
# Static dielectric constant tensor:
#      x y z
#    x 4.300020 0.000000 0.220220 
#    y 0.000000 3.921670 0.000000 
#    z 0.220220 0.000000 3.832910 
# 
# 
# High freq. dielectric constant tensor:
#      x y z
#    x 1.873180 0.000000 0.014120 
#    y 0.000000 1.848690 0.000000 
#    z 0.014120 0.000000 1.850280 
# 
# From -- ./inp_files/29553.got.cif
#   From: 2010.06.25/outbox.cif.g09.slc.cpg/sg13_15_cif.got.tgz:29553.got - 2010.06.28 04:50:58.
