data_PCOD8123563
_publ_section_title
;
Structure prediction by ZEFSAII (Michael W. Deem and Ramdas Pophale) SiO2 
 PCOD8123563
Probable space group: P 21/C
;
_chemical_formula_sum "Si O2"
_cell_formula_units_Z 28
_cell_length_a 18.854159
_cell_length_b 17.468658
_cell_length_c 13.874573
_cell_angle_alpha 90.000000
_cell_angle_beta 20.417805
_cell_angle_gamma 90.000000
_cell_volume 1594.195629
_symmetry_space_group_name_H-M "P 21/C"
_symmetry_group_IT_number 14
_symmetry_cell_setting 'monoclinic'
loop_
_space_group_symop_operation_xyz
x,y,z
-x,1/2+y,1/2-z
-x,-y,-z
x,1/2-y,1/2+z
loop_
_atom_site_type_symbol
_atom_site_label
_atom_site_fract_x
_atom_site_fract_y
_atom_site_fract_z
Si Si1 0.726460 0.570458 0.341718
Si Si2 0.201914 0.273139 0.844691
Si Si3 0.215189 0.724660 0.145675
Si Si4 0.887062 0.155332 0.865119
Si Si5 0.983630 0.507477 0.177504
Si Si6 0.711254 0.387832 0.115366
Si Si7 0.356914 0.741055 0.175578
O O1 0.767727 0.659933 0.272035
O O2 0.802578 0.550791 0.352269
O O3 0.485105 0.556585 0.636487
O O4 0.840717 0.516671 0.120413
O O5 0.407179 0.225425 0.599287
O O6 0.028004 0.216847 0.023423
O O7 0.116556 0.311024 0.054334
O O8 0.254576 0.803891 0.036145
O O9 0.343421 0.731527 0.078762
O O10 0.283731 0.652580 0.995032
O O11 0.883688 0.064183 0.859671
O O12 0.794512 0.178130 0.086126
O O13 0.085634 0.562654 0.126897
O O14 0.701563 0.326187 0.214826
#
# Coordination Sequence:
#
# PCOD8123563 Si02
#       7
#     4   4   4   4   4   4   4
#     4   9  18  31  53  78 101 134 168 210 271 303
#     4   8  17  34  50  79  99 128 176 210 256 306
#     4   9  19  35  50  76 102 133 179 204 256 310
#     4   8  19  36  48  80 103 131 179 207 257 317
#     4  10  18  33  51  75 112 131 164 223 258 303
#     4  10  20  32  53  78 103 137 172 212 257 313
#     4  10  18  35  54  72 107 136 167 224 249 301
#
# _framework density 17.563717
#
# number of rings (size 3 to 8) (size 9 to 14) (size 15 to 20)
#    0.857    2.000    0.000    1.286    2.000    1.143 
#    7.714    0.714    0.000    1.714    0.000    0.000 
#    0.000    0.000    0.000    0.000    0.000    0.000 
#
# Total GULP energy -346969.934562 kJ/mol
# GULP energy per Si atom -12391.783377 kJ/mol
# Density = 1.752374 g / cm^3
# Si number density = 17.563717 Si / 1000 Ang^3
#
#
#
# Elastic Constant Matrix: (Units=GPa)
#
#
# Indices 1 2 3 4 5 6 
#
# 1 84.9743 41.6686 21.6330 0.0000 -7.9847 0.0000
# 2 41.6686 70.5047 30.1019 0.0000 -8.1997 0.0000
# 3 21.6330 30.1019 54.5643 0.0000 -11.9185 0.0000
# 4 0.0000 0.0000 0.0000 25.6703 0.0000 1.1034
# 5 -7.9847 -8.1997 -11.9185 0.0000 22.6663 0.0000
# 6 0.0000 0.0000 0.0000 1.1034 0.0000 13.5805
#
#
#
# Elastic Compliance Matrix: (Units=1/GPa)
#
#
# Indices 1 2 3 4 5 6 
#
# 1 0.016746 -0.009179 -0.001144 0.000000 0.001977 0.000000
# 2 -0.009179 0.023630 -0.009305 0.000000 0.000422 0.000000
# 3 -0.001144 -0.009305 0.026087 0.000000 0.009948 0.000000
# 4 0.000000 0.000000 0.000000 0.039092 0.000000 -0.003176
# 5 0.001977 0.000422 0.009948 0.000000 0.050199 0.000000
# 6 0.000000 0.000000 0.000000 -0.003176 0.000000 0.073893
#
#
# Mechanical properties :
#
#
# Convention : Reuss Voigt Hill
#
# Bulk Modulus (GPa) = 36.75357 44.09445 40.42401
# Shear Modulus (GPa) = 17.98752 20.15941 19.07346
#
# Velocity S-wave (km/s) = 3.20367 3.39158 3.29896
# Velocity P-wave (km/s) = 5.88693 6.36372 6.12997
#
# Compressibility (1/GPa) = 0.02720824
#
# Stress axis : x y z
#
# Youngs Moduli (GPa) = 59.71492 42.31917 38.33379
#
# Poissons Ratio (x) = 0.38844 0.04384
# Poissons Ratio (y) = 0.54811 0.35669
# Poissons Ratio (z) = 0.06829 0.39377
#
# Static dielectric constant tensor:
#      x y z
#    x 2.962370 0.000000 -0.032840 
#    y 0.000000 3.025040 0.000000 
#    z -0.032840 0.000000 3.289910 
# 
# 
# High freq. dielectric constant tensor:
#      x y z
#    x 1.656190 0.000000 -0.007060 
#    y 0.000000 1.655440 0.000000 
#    z -0.007060 0.000000 1.674510 
# 
# From -- ./inp_files/49245.got.cif
#   From: 2010.03.12/outbox.cif.g09.slc.cpg/sg14_25_cif.got.tgz:49245.got - 2010.03.31 13:35:05.
