data_PCOD8123021
_publ_section_title
;
Structure prediction by ZEFSAII (Michael W. Deem and Ramdas Pophale) SiO2 
 PCOD8123021
Probable space group: P 2/C
;
_chemical_formula_sum "Si O2"
_cell_formula_units_Z 16
_cell_length_a 7.841256
_cell_length_b 5.053138
_cell_length_c 17.889339
_cell_angle_alpha 90.000000
_cell_angle_beta 115.994962
_cell_angle_gamma 90.000000
_cell_volume 637.118030
_symmetry_space_group_name_H-M "P 2/C"
_symmetry_group_IT_number 13
_symmetry_cell_setting 'monoclinic'
loop_
_space_group_symop_operation_xyz
x,y,z
-x,y,1/2-z
-x,-y,-z
x,-y,1/2+z
loop_
_atom_site_type_symbol
_atom_site_label
_atom_site_fract_x
_atom_site_fract_y
_atom_site_fract_z
Si Si1 0.162815 0.999956 0.162832
Si Si2 0.246298 0.809521 0.407012
Si Si3 0.725410 0.500053 0.725423
Si Si4 0.567757 0.190400 0.407006
O O1 0.268609 0.750770 0.219568
O O2 0.264826 0.040715 0.103466
O O3 0.942076 0.959201 0.103479
O O4 0.170505 0.249148 0.219569
O O5 0.180884 0.577098 0.337308
O O6 0.391203 0.999952 0.391180
O O7 0.347466 0.688694 0.500009
O O8 0.506235 0.577236 0.662721
#
# Coordination Sequence:
#
# PCOD8123021 Si02
#       4
#     4   4   4   4
#     4  12  29  48  79 110 154 198 256 308 377 446
#     4  11  27  50  76 111 152 200 249 311 378 449
#     4  12  27  48  77 116 148 200 252 312 369 450
#     4  11  27  50  76 111 152 200 249 311 378 449
#
# _framework density 25.113085999999999
#
# number of rings (size 3 to 8) (size 9 to 14) (size 15 to 20)
#    0.000    0.500    2.500    3.000   14.000    0.000 
#    0.000    2.500    0.000    0.000    0.000    0.000 
#    0.000    0.000    0.000    0.000    0.000    0.000 
#
# Total GULP energy -198409.496432 kJ/mol
# GULP energy per Si atom -12400.593527 kJ/mol
# Density = 2.505593 g / cm^3
# Si number density = 25.113086 Si / 1000 Ang^3
#
#
#
# Elastic Constant Matrix: (Units=GPa)
#
#
# Indices 1 2 3 4 5 6 
#
# 1 180.5946 32.5529 27.7653 0.0000 0.0520 0.0000
# 2 32.5529 128.1116 41.8401 0.0000 0.0244 0.0000
# 3 27.7653 41.8401 125.5356 0.0000 0.0146 0.0000
# 4 0.0000 0.0000 0.0000 -11.9844 0.0000 -0.0213
# 5 0.0520 0.0244 0.0146 0.0000 7.0999 0.0000
# 6 0.0000 0.0000 0.0000 -0.0213 0.0000 37.1104
#
#
#
# Elastic Compliance Matrix: (Units=1/GPa)
#
#
# Indices 1 2 3 4 5 6 
#
# 1 0.005893 -0.001203 -0.000903 0.000000 -0.000037 0.000000
# 2 -0.001203 0.009005 -0.002735 0.000000 -0.000017 0.000000
# 3 -0.000903 -0.002735 0.009077 0.000000 -0.000003 0.000000
# 4 0.000000 0.000000 0.000000 -0.083442 0.000000 -0.000048
# 5 -0.000037 -0.000017 -0.000003 0.000000 0.140848 0.000000
# 6 0.000000 0.000000 0.000000 -0.000048 0.000000 0.026947
#
#
# Mechanical properties :
#
#
# Convention : Reuss Voigt Hill
#
# Bulk Modulus (GPa) = 69.95992 70.95093 70.45543
# Shear Modulus (GPa) = 40.72570 28.58407 34.65488
#
# Velocity S-wave (km/s) = 4.03139 3.37740 3.71880
# Velocity P-wave (km/s) = 7.04187 6.59720 6.82316
#
# Compressibility (1/GPa) = 0.01429390
#
# Stress axis : x y z
#
# Youngs Moduli (GPa) = 169.69849 111.05485 110.16739
#
# Poissons Ratio (x) = 0.13355 0.09943
# Poissons Ratio (y) = 0.20408 0.30133
# Poissons Ratio (z) = 0.15316 0.30375
#
# Static dielectric constant tensor:
#      x y z
#    x 4.405060 0.000000 -0.000020 
#    y 0.000000 4.618760 0.000000 
#    z -0.000020 0.000000 4.709120 
# 
# 
# High freq. dielectric constant tensor:
#      x y z
#    x 2.006670 0.000000 0.000000 
#    y 0.000000 1.992290 0.000000 
#    z 0.000000 0.000000 2.020040 
# 
# From -- ./inp_files/62516.got.cif
#   From: 2010.06.25/outbox.cif.g09.slc.cpg/sg13_32_cif.got.tgz:62516.got - 2010.06.28 04:50:58.
