data_PCOD8123961
_publ_section_title
;
Structure prediction by ZEFSAII (Michael W. Deem and Ramdas Pophale) SiO2 
 PCOD8123961
Probable space group: P 21/C
;
_chemical_formula_sum "Si O2"
_cell_formula_units_Z 28
_cell_length_a 7.642945
_cell_length_b 17.318663
_cell_length_c 20.091265
_cell_angle_alpha 90.000000
_cell_angle_beta 139.536706
_cell_angle_gamma 90.000000
_cell_volume 1725.841154
_symmetry_space_group_name_H-M "P 21/C"
_symmetry_group_IT_number 14
_symmetry_cell_setting 'monoclinic'
loop_
_space_group_symop_operation_xyz
x,y,z
-x,1/2+y,1/2-z
-x,-y,-z
x,1/2-y,1/2+z
loop_
_atom_site_type_symbol
_atom_site_label
_atom_site_fract_x
_atom_site_fract_y
_atom_site_fract_z
Si Si1 0.115146 0.552644 0.630442
Si Si2 0.665032 0.250000 0.500000
Si Si3 0.181784 0.905887 0.500824
Si Si4 0.178488 0.905888 0.999175
Si Si5 0.593377 0.947357 0.369558
Si Si6 0.253683 0.373148 0.369165
Si Si7 0.777025 0.126852 0.630835
O O1 0.024176 0.464000 0.595739
O O2 0.891221 0.599528 0.606056
O O3 0.139426 0.594232 0.566958
O O4 0.401131 0.553533 0.750000
O O5 0.699858 0.181032 0.455676
O O6 0.877152 0.318969 0.544324
O O7 0.361523 0.284991 0.409734
O O8 0.722585 0.215009 0.590266
O O9 0.200124 0.928615 0.427570
O O10 0.871594 0.905769 0.433043
O O11 0.358778 0.963999 0.595739
O O12 0.489846 0.928615 0.072429
O O13 0.466995 0.900473 0.393944
O O14 0.057657 0.376844 0.250000
#
# Coordination Sequence:
#
# PCOD8123961 Si02
#       7
#     4   4   4   4   4   4   4
#     4  10  19  32  56  76 100 138 173 209 252 302
#     4   8  20  32  52  74 100 142 158 216 254 296
#     4   9  19  35  50  78 105 131 172 210 253 302
#     4   9  19  35  50  78 105 131 172 210 253 302
#     4  10  19  32  56  76 100 138 173 209 252 302
#     4   9  18  34  52  74 102 134 167 206 256 301
#     4   9  18  34  52  74 102 134 167 206 256 301
#
# _framework density 16.223973000000001
#
# number of rings (size 3 to 8) (size 9 to 14) (size 15 to 20)
#    1.714    1.143    0.000    1.714    0.000    2.286 
#    0.000    0.000    0.000    1.714    0.000    0.000 
#    0.000    0.000    0.000    0.000    0.000    0.000 
#
# Total GULP energy -346902.424223 kJ/mol
# GULP energy per Si atom -12389.372294 kJ/mol
# Density = 1.618705 g / cm^3
# Si number density = 16.223973 Si / 1000 Ang^3
#
#
#
# Elastic Constant Matrix: (Units=GPa)
#
#
# Indices 1 2 3 4 5 6 
#
# 1 92.0532 40.2218 34.4097 0.0000 0.2172 0.0000
# 2 40.2218 103.1641 22.3966 0.0000 0.1295 0.0000
# 3 34.4097 22.3966 43.7183 0.0000 0.1335 0.0000
# 4 0.0000 0.0000 0.0000 17.0747 0.0000 0.0422
# 5 0.2172 0.1295 0.1335 0.0000 13.8820 0.0000
# 6 0.0000 0.0000 0.0000 0.0422 0.0000 22.9243
#
#
#
# Elastic Compliance Matrix: (Units=1/GPa)
#
#
# Indices 1 2 3 4 5 6 
#
# 1 0.016834 -0.004148 -0.011125 0.000000 -0.000118 0.000000
# 2 -0.004148 0.011928 -0.002846 0.000000 -0.000019 0.000000
# 3 -0.011125 -0.002846 0.033088 0.000000 -0.000118 0.000000
# 4 0.000000 0.000000 0.000000 0.058567 0.000000 -0.000108
# 5 -0.000118 -0.000019 -0.000118 0.000000 0.072039 0.000000
# 6 0.000000 0.000000 0.000000 -0.000108 0.000000 0.043622
#
#
# Mechanical properties :
#
#
# Convention : Reuss Voigt Hill
#
# Bulk Modulus (GPa) = 39.04185 48.11021 43.57603
# Shear Modulus (GPa) = 17.80288 20.23669 19.01978
#
# Velocity S-wave (km/s) = 3.31617 3.53559 3.42764
# Velocity P-wave (km/s) = 6.22730 6.81068 6.52551
#
# Compressibility (1/GPa) = 0.02561354
#
# Stress axis : x y z
#
# Youngs Moduli (GPa) = 59.40188 83.83317 30.22251
#
# Poissons Ratio (x) = 0.34776 0.33621
# Poissons Ratio (y) = 0.24641 0.08601
# Poissons Ratio (z) = 0.66082 0.23858
#
# Static dielectric constant tensor:
#      x y z
#    x 3.086410 0.000000 0.000970 
#    y 0.000000 2.902080 0.000000 
#    z 0.000970 0.000000 2.951540 
# 
# 
# High freq. dielectric constant tensor:
#      x y z
#    x 1.633070 0.000000 0.000130 
#    y 0.000000 1.611250 0.000000 
#    z 0.000130 0.000000 1.615710 
# 
# From -- ./inp_files/65939.got.cif
#   From: 2010.03.12/outbox.cif.g09.slc.cpg/sg14_33_cif.got.tgz:65939.got - 2010.03.31 13:35:05.
