data_PCOD8123206
_publ_section_title
;
Structure prediction by ZEFSAII (Michael W. Deem and Ramdas Pophale) SiO2 
 PCOD8123206
Probable space group: P 2/C
;
_chemical_formula_sum "Si O2"
_cell_formula_units_Z 16
_cell_length_a 7.317048
_cell_length_b 5.067444
_cell_length_c 24.031545
_cell_angle_alpha 90.000000
_cell_angle_beta 135.666203
_cell_angle_gamma 90.000000
_cell_volume 622.705426
_symmetry_space_group_name_H-M "P 2/C"
_symmetry_group_IT_number 13
_symmetry_cell_setting 'monoclinic'
loop_
_space_group_symop_operation_xyz
x,y,z
-x,y,1/2-z
-x,-y,-z
x,-y,1/2+z
loop_
_atom_site_type_symbol
_atom_site_label
_atom_site_fract_x
_atom_site_fract_y
_atom_site_fract_z
Si Si1 0.162153 0.723410 0.183781
Si Si2 0.270631 0.220910 0.274107
Si Si3 0.723651 0.430630 0.912745
Si Si4 0.433368 0.753412 0.449592
O O1 0.242764 0.432257 0.219021
O O2 0.225375 0.733711 0.132279
O O3 0.864182 0.773461 0.132739
O O4 0.321793 0.939413 0.254959
O O5 0.528822 0.313217 0.365145
O O6 0.000000 0.217758 0.250000
O O7 0.588096 0.228349 0.925674
O O8 0.000000 0.500000 0.000000
O O9 0.500000 0.500000 0.500000
O O10 0.500000 0.000000 0.500000
#
# Coordination Sequence:
#
# PCOD8123206 Si02
#       4
#     4   4   4   4
#     4  12  28  53  83 119 162 213 275 332 409 488
#     4  12  28  55  82 116 167 215 268 337 411 488
#     4  12  29  54  85 124 162 218 275 343 410 487
#     4  12  27  51  82 121 164 209 270 341 410 485
#
# _framework density 25.694333
#
# number of rings (size 3 to 8) (size 9 to 14) (size 15 to 20)
#    0.000    0.000    5.000    3.000    0.000    7.000 
#    0.000    0.000    0.000    0.000    0.000    0.000 
#    0.000    0.000    0.000    0.000    0.000    0.000 
#
# Total GULP energy -198386.878665 kJ/mol
# GULP energy per Si atom -12399.179917 kJ/mol
# Density = 2.563585 g / cm^3
# Si number density = 25.694333 Si / 1000 Ang^3
#
#
#
# Elastic Constant Matrix: (Units=GPa)
#
#
# Indices 1 2 3 4 5 6 
#
# 1 213.9120 34.7214 87.8744 0.0000 -6.0993 0.0000
# 2 34.7214 124.8384 37.5936 0.0000 -22.3119 0.0000
# 3 87.8744 37.5936 145.2134 0.0000 5.5661 0.0000
# 4 0.0000 0.0000 0.0000 45.5604 0.0000 -3.5415
# 5 -6.0993 -22.3119 5.5661 0.0000 78.9121 0.0000
# 6 0.0000 0.0000 0.0000 -3.5415 0.0000 14.9168
#
#
#
# Elastic Compliance Matrix: (Units=1/GPa)
#
#
# Indices 1 2 3 4 5 6 
#
# 1 0.006296 -0.000532 -0.003695 0.000000 0.000597 0.000000
# 2 -0.000532 0.009310 -0.002194 0.000000 0.002746 0.000000
# 3 -0.003695 -0.002194 0.009752 0.000000 -0.001594 0.000000
# 4 0.000000 0.000000 0.000000 0.022362 0.000000 0.005309
# 5 0.000597 0.002746 -0.001594 0.000000 0.013607 0.000000
# 6 0.000000 0.000000 0.000000 0.005309 0.000000 0.068299
#
#
# Mechanical properties :
#
#
# Convention : Reuss Voigt Hill
#
# Bulk Modulus (GPa) = 79.89700 89.37142 84.63421
# Shear Modulus (GPa) = 34.09754 49.46282 41.78018
#
# Velocity S-wave (km/s) = 3.64682 4.39230 4.03680
# Velocity P-wave (km/s) = 6.99250 7.78338 7.39852
#
# Compressibility (1/GPa) = 0.01251611
#
# Stress axis : x y z
#
# Youngs Moduli (GPa) = 158.82706 107.41640 102.54760
#
# Poissons Ratio (x) = 0.05711 0.37894
# Poissons Ratio (y) = 0.08444 0.22495
# Poissons Ratio (z) = 0.58691 0.23563
#
# Static dielectric constant tensor:
#      x y z
#    x 5.228540 0.000000 0.133420 
#    y 0.000000 4.502500 0.000000 
#    z 0.133420 0.000000 5.077410 
# 
# 
# High freq. dielectric constant tensor:
#      x y z
#    x 2.062860 0.000000 0.003630 
#    y 0.000000 2.025230 0.000000 
#    z 0.003630 0.000000 2.046870 
# 
# From -- ./inp_files/74753.got.cif
#   From: 2010.06.25/outbox.cif.g09.slc.cpg/sg13_38_cif.got.tgz:74753.got - 2010.06.28 04:50:58.
