data_PCOD8123968
_publ_section_title
;
Structure prediction by ZEFSAII (Michael W. Deem and Ramdas Pophale) SiO2 
 PCOD8123968
Probable space group: P 21/C
;
_chemical_formula_sum "Si O2"
_cell_formula_units_Z 32
_cell_length_a 33.204265
_cell_length_b 7.778687
_cell_length_c 13.537323
_cell_angle_alpha 90.000000
_cell_angle_beta 152.318223
_cell_angle_gamma 90.000000
_cell_volume 1624.333369
_symmetry_space_group_name_H-M "P 21/C"
_symmetry_group_IT_number 14
_symmetry_cell_setting 'monoclinic'
loop_
_space_group_symop_operation_xyz
x,y,z
-x,1/2+y,1/2-z
-x,-y,-z
x,1/2-y,1/2+z
loop_
_atom_site_type_symbol
_atom_site_label
_atom_site_fract_x
_atom_site_fract_y
_atom_site_fract_z
Si Si1 0.337125 0.716354 0.710053
Si Si2 0.230499 0.897406 0.638439
Si Si3 0.341608 0.167894 0.272623
Si Si4 0.329186 0.207997 0.948905
Si Si5 0.476924 0.191793 0.423572
Si Si6 0.193454 0.209428 0.817521
Si Si7 0.179864 0.815011 0.739778
Si Si8 0.097485 0.520355 0.678546
O O1 0.294015 0.768310 0.719626
O O2 0.349147 0.514069 0.736718
O O3 0.272767 0.757388 0.479417
O O4 0.433036 0.798210 0.899223
O O5 0.181387 0.806001 0.623907
O O6 0.157107 0.966616 0.405222
O O7 0.297074 0.038253 0.823327
O O8 0.347650 0.153265 0.403313
O O9 0.421063 0.275073 0.393394
O O10 0.248339 0.241671 0.037179
O O11 0.253172 0.268909 0.855907
O O12 0.419920 0.184535 0.200499
O O13 0.500000 0.000000 0.500000
O O14 0.115877 0.345858 0.656103
O O15 0.161054 0.011844 0.735087
O O16 0.107449 0.687935 0.628839
O O17 0.000000 0.500000 0.500000
#
# Coordination Sequence:
#
# PCOD8123968 Si02
#       8
#     4   4   4   4   4   4   4   4
#     4   9  19  33  55  79 116 156 187 240 285 327
#     4  10  20  39  58  82 116 154 191 235 296 353
#     4   9  17  33  53  78 109 152 194 231 284 343
#     4  10  19  32  59  79 110 158 190 231 290 344
#     4   9  18  32  50  80 117 148 195 240 278 334
#     4   9  19  38  59  82 115 151 188 239 292 342
#     4   9  21  40  60  85 118 157 191 231 301 350
#     4  11  23  41  63  89 117 145 194 251 288 351
#
# _framework density 19.700391
#
# number of rings (size 3 to 8) (size 9 to 14) (size 15 to 20)
#    0.000    2.500    1.250    2.250    1.750    3.500 
#    4.500    0.625    0.000    0.000    0.000    0.000 
#    0.000    0.000    0.000    0.000    0.000    0.000 
#
# Total GULP energy -396453.713517 kJ/mol
# GULP energy per Si atom -12389.178547 kJ/mol
# Density = 1.965555 g / cm^3
# Si number density = 19.700391 Si / 1000 Ang^3
#
#
#
# Elastic Constant Matrix: (Units=GPa)
#
#
# Indices 1 2 3 4 5 6 
#
# 1 125.8236 44.3695 50.8027 0.0000 6.9496 0.0000
# 2 44.3695 56.6610 24.7092 0.0000 16.0451 0.0000
# 3 50.8027 24.7092 64.5963 0.0000 11.4913 0.0000
# 4 0.0000 0.0000 0.0000 21.5296 0.0000 -0.7241
# 5 6.9496 16.0451 11.4913 0.0000 42.5112 0.0000
# 6 0.0000 0.0000 0.0000 -0.7241 0.0000 29.0539
#
#
#
# Elastic Compliance Matrix: (Units=1/GPa)
#
#
# Indices 1 2 3 4 5 6 
#
# 1 0.014106 -0.008214 -0.008502 0.000000 0.003092 0.000000
# 2 -0.008214 0.027585 -0.002604 0.000000 -0.008365 0.000000
# 3 -0.008502 -0.002604 0.023890 0.000000 -0.004085 0.000000
# 4 0.000000 0.000000 0.000000 0.046487 0.000000 0.001159
# 5 0.003092 -0.008365 -0.004085 0.000000 0.027279 0.000000
# 6 0.000000 0.000000 0.000000 0.001159 0.000000 0.034448
#
#
# Mechanical properties :
#
#
# Convention : Reuss Voigt Hill
#
# Bulk Modulus (GPa) = 37.11722 54.09376 45.60549
# Shear Modulus (GPa) = 22.58199 27.09891 24.84045
#
# Velocity S-wave (km/s) = 3.38934 3.71287 3.55478
# Velocity P-wave (km/s) = 5.84795 6.77483 6.32838
#
# Compressibility (1/GPa) = 0.02694168
#
# Stress axis : x y z
#
# Youngs Moduli (GPa) = 70.89062 36.25127 41.85847
#
# Poissons Ratio (x) = 0.29777 0.35589
# Poissons Ratio (y) = 0.58231 0.10898
# Poissons Ratio (z) = 0.60272 0.09438
#
# Static dielectric constant tensor:
#      x y z
#    x 4.171550 0.000000 -0.036870 
#    y 0.000000 3.394460 0.000000 
#    z -0.036870 0.000000 3.824700 
# 
# 
# High freq. dielectric constant tensor:
#      x y z
#    x 1.779540 0.000000 -0.004310 
#    y 0.000000 1.749030 0.000000 
#    z -0.004310 0.000000 1.752900 
# 
# From -- ./inp_files/36504.got.cif
#   From: 2010.03.12/outbox.cif.g09.slc.cpg/sg14_19_cif.got.tgz:36504.got - 2010.03.31 13:35:05.
