data_PCOD8123755
_publ_section_title
;
Structure prediction by ZEFSAII (Michael W. Deem and Ramdas Pophale) SiO2 
 PCOD8123755
Probable space group: P 21/C
;
_chemical_formula_sum "Si O2"
_cell_formula_units_Z 28
_cell_length_a 16.687950
_cell_length_b 16.818048
_cell_length_c 9.906092
_cell_angle_alpha 90.000000
_cell_angle_beta 29.758100
_cell_angle_gamma 90.000000
_cell_volume 1379.937903
_symmetry_space_group_name_H-M "P 21/C"
_symmetry_group_IT_number 14
_symmetry_cell_setting 'monoclinic'
loop_
_space_group_symop_operation_xyz
x,y,z
-x,1/2+y,1/2-z
-x,-y,-z
x,1/2-y,1/2+z
loop_
_atom_site_type_symbol
_atom_site_label
_atom_site_fract_x
_atom_site_fract_y
_atom_site_fract_z
Si Si1 0.737649 0.199921 0.324594
Si Si2 0.157897 0.678074 0.037849
Si Si3 0.506381 0.091662 0.528900
Si Si4 0.510959 0.674465 0.208049
Si Si5 0.743779 0.792537 0.751731
Si Si6 0.169496 0.326375 0.592171
Si Si7 0.510482 0.092778 0.000780
O O1 0.854642 0.192819 0.282734
O O2 0.831334 0.237574 0.059198
O O3 0.647597 0.114806 0.429115
O O4 0.594893 0.260186 0.564259
O O5 0.306700 0.620570 0.789628
O O6 0.992694 0.634030 0.232671
O O7 0.572319 0.138458 0.301815
O O8 0.500000 0.000000 0.500000
O O9 0.328426 0.120400 0.834082
O O10 0.547043 0.605477 0.261917
O O11 0.676173 0.714081 0.922339
O O12 0.862087 0.822899 0.698675
O O13 0.818420 0.761046 0.500921
O O14 0.607508 0.859371 0.926696
O O15 0.500000 0.000000 0.000000
#
# Coordination Sequence:
#
# PCOD8123755 Si02
#       7
#     4   4   4   4   4   4   4
#     4  11  19  41  62  86 116 158 204 241 284 360
#     4  11  22  38  62  91 120 153 200 249 294 349
#     4  11  23  37  63  88 121 156 198 246 301 355
#     4  10  18  36  64  86 108 154 218 236 274 352
#     4  11  19  41  62  86 116 158 204 241 284 360
#     4  11  22  38  62  91 120 153 200 249 294 349
#     4  11  23  37  63  88 121 156 198 246 301 355
#
# _framework density 20.290768
#
# number of rings (size 3 to 8) (size 9 to 14) (size 15 to 20)
#    0.000    1.143    5.714    2.571    4.000    0.000 
#    0.000    2.857    0.000    0.000    0.000    0.000 
#    0.000    0.000    0.000    0.000    0.000    0.000 
#
# Total GULP energy -346873.754826 kJ/mol
# GULP energy per Si atom -12388.348387 kJ/mol
# Density = 2.024459 g / cm^3
# Si number density = 20.290768 Si / 1000 Ang^3
#
#
#
# Elastic Constant Matrix: (Units=GPa)
#
#
# Indices 1 2 3 4 5 6 
#
# 1 146.9107 15.0056 41.4375 0.0000 -3.7041 0.0000
# 2 15.0056 69.6022 21.3983 0.0000 -5.5358 0.0000
# 3 41.4375 21.3983 53.7499 0.0000 -3.7360 0.0000
# 4 0.0000 0.0000 0.0000 13.2349 0.0000 0.9229
# 5 -3.7041 -5.5358 -3.7360 0.0000 33.0251 0.0000
# 6 0.0000 0.0000 0.0000 0.9229 0.0000 19.0030
#
#
#
# Elastic Compliance Matrix: (Units=1/GPa)
#
#
# Indices 1 2 3 4 5 6 
#
# 1 0.008703 0.000229 -0.006783 0.000000 0.000247 0.000000
# 2 0.000229 0.016512 -0.006608 0.000000 0.002046 0.000000
# 3 -0.006783 -0.006608 0.026544 0.000000 0.001134 0.000000
# 4 0.000000 0.000000 0.000000 0.075814 0.000000 -0.003682
# 5 0.000247 0.002046 0.001134 0.000000 0.030779 0.000000
# 6 0.000000 0.000000 0.000000 -0.003682 0.000000 0.052802
#
#
# Mechanical properties :
#
#
# Convention : Reuss Voigt Hill
#
# Bulk Modulus (GPa) = 39.31719 47.32729 43.32224
# Shear Modulus (GPa) = 20.32875 25.88072 23.10473
#
# Velocity S-wave (km/s) = 3.16867 3.57528 3.37810
# Velocity P-wave (km/s) = 5.72767 6.35757 6.05082
#
# Compressibility (1/GPa) = 0.02543417
#
# Stress axis : x y z
#
# Youngs Moduli (GPa) = 114.90262 60.56110 37.67374
#
# Poissons Ratio (x) = -0.01386 0.25555
# Poissons Ratio (y) = -0.02629 0.24894
# Poissons Ratio (z) = 0.77943 0.40018
#
# Static dielectric constant tensor:
#      x y z
#    x 4.480860 0.000000 0.703240 
#    y 0.000000 3.544640 0.000000 
#    z 0.703240 0.000000 4.155160 
# 
# 
# High freq. dielectric constant tensor:
#      x y z
#    x 1.817000 0.000000 0.018970 
#    y 0.000000 1.754350 0.000000 
#    z 0.018970 0.000000 1.782510 
# 
# From -- ./inp_files/16639.got.cif
#   From: 2010.03.12/outbox.cif.g09.slc.cpg/sg14_9_cif.got.tgz:16639.got - 2010.03.31 13:35:05.
