data_PCOD8123340
_publ_section_title
;
Structure prediction by ZEFSAII (Michael W. Deem and Ramdas Pophale) SiO2 
 PCOD8123340
Probable space group: P 21/C
;
_chemical_formula_sum "Si O2"
_cell_formula_units_Z 32
_cell_length_a 12.172165
_cell_length_b 14.007842
_cell_length_c 14.801132
_cell_angle_alpha 90.000000
_cell_angle_beta 139.189392
_cell_angle_gamma 90.000000
_cell_volume 1649.377087
_symmetry_space_group_name_H-M "P 21/C"
_symmetry_group_IT_number 14
_symmetry_cell_setting 'monoclinic'
loop_
_space_group_symop_operation_xyz
x,y,z
-x,1/2+y,1/2-z
-x,-y,-z
x,1/2-y,1/2+z
loop_
_atom_site_type_symbol
_atom_site_label
_atom_site_fract_x
_atom_site_fract_y
_atom_site_fract_z
Si Si1 0.661252 0.894583 0.109497
Si Si2 0.512748 0.492109 0.658809
Si Si3 0.128517 0.288492 0.385154
Si Si4 0.248707 0.092895 0.407475
Si Si5 0.489825 0.204779 0.431561
Si Si6 0.436452 0.900003 0.282317
Si Si7 0.465352 0.198866 0.205449
Si Si8 0.799056 0.101961 0.702770
O O1 0.835481 0.843777 0.188072
O O2 0.522724 0.809434 0.030819
O O3 0.670317 0.949181 0.212470
O O4 0.611867 0.970489 0.001730
O O5 0.409731 0.555731 0.666807
O O6 0.571933 0.395580 0.745658
O O7 0.117422 0.173916 0.360738
O O8 0.278758 0.310434 0.548226
O O9 0.959187 0.331234 0.321312
O O10 0.354049 0.133210 0.388946
O O11 0.382311 0.064312 0.568558
O O12 0.150962 0.996952 0.316746
O O13 0.449182 0.212330 0.301329
O O14 0.674523 0.163425 0.562953
O O15 0.435571 0.785607 0.277928
O O16 0.284871 0.928204 0.254266
#
# Coordination Sequence:
#
# PCOD8123340 Si02
#       8
#     4   4   4   4   4   4   4   4
#     4   9  19  35  55  79 112 150 186 228 281 336
#     4  10  17  32  57  83 104 143 194 226 268 334
#     4   9  21  38  52  80 120 146 181 232 289 338
#     4   9  19  36  57  80 109 161 184 220 286 345
#     4  10  18  36  62  83 110 148 196 233 265 340
#     4  10  19  34  59  84 111 142 192 236 275 333
#     4  10  19  35  56  82 110 148 185 231 283 333
#     4  11  20  36  57  86 113 145 188 238 282 331
#
# _framework density 19.401264000000001
#
# number of rings (size 3 to 8) (size 9 to 14) (size 15 to 20)
#    0.000    2.250    1.250    5.250    0.000    0.000 
#    9.000    8.125    0.000    1.500    0.000    0.000 
#    0.000    0.000    0.000    0.000    0.000    0.000 
#
# Total GULP energy -396587.528707 kJ/mol
# GULP energy per Si atom -12393.360272 kJ/mol
# Density = 1.935711 g / cm^3
# Si number density = 19.401264 Si / 1000 Ang^3
#
#
#
# Elastic Constant Matrix: (Units=GPa)
#
#
# Indices 1 2 3 4 5 6 
#
# 1 84.7625 47.2573 39.4254 0.0000 -14.4979 0.0000
# 2 47.2573 115.8773 38.9323 0.0000 2.8811 0.0000
# 3 39.4254 38.9323 50.4848 0.0000 -6.5300 0.0000
# 4 0.0000 0.0000 0.0000 20.4367 0.0000 -6.8856
# 5 -14.4979 2.8811 -6.5300 0.0000 21.7876 0.0000
# 6 0.0000 0.0000 0.0000 -6.8856 0.0000 35.7643
#
#
#
# Elastic Compliance Matrix: (Units=1/GPa)
#
#
# Indices 1 2 3 4 5 6 
#
# 1 0.022356 -0.005506 -0.011646 0.000000 0.012114 0.000000
# 2 -0.005506 0.013424 -0.007029 0.000000 -0.007545 0.000000
# 3 -0.011646 -0.007029 0.034790 0.000000 0.003607 0.000000
# 4 0.000000 0.000000 0.000000 0.052326 0.000000 0.010074
# 5 0.012114 -0.007545 0.003607 0.000000 0.056037 0.000000
# 6 0.000000 0.000000 0.000000 0.010074 0.000000 0.029900
#
#
# Mechanical properties :
#
#
# Convention : Reuss Voigt Hill
#
# Bulk Modulus (GPa) = 45.02658 55.81720 50.42189
# Shear Modulus (GPa) = 18.89664 23.96502 21.43083
#
# Velocity S-wave (km/s) = 3.12427 3.51840 3.32717
# Velocity P-wave (km/s) = 6.02272 6.73334 6.38792
#
# Compressibility (1/GPa) = 0.02220910
#
# Stress axis : x y z
#
# Youngs Moduli (GPa) = 44.73054 74.49191 28.74415
#
# Poissons Ratio (x) = 0.41013 0.33476
# Poissons Ratio (y) = 0.24627 0.20204
# Poissons Ratio (z) = 0.52093 0.52359
#
# Static dielectric constant tensor:
#      x y z
#    x 3.576490 0.000000 -0.347850 
#    y 0.000000 3.956920 0.000000 
#    z -0.347850 0.000000 3.158210 
# 
# 
# High freq. dielectric constant tensor:
#      x y z
#    x 1.748440 0.000000 -0.035040 
#    y 0.000000 1.781220 0.000000 
#    z -0.035040 0.000000 1.702990 
# 
# From -- ./inp_files/45117.got.cif
#   From: 2010.03.12/outbox.cif.g09.slc.cpg/sg14_23_cif.got.tgz:45117.got - 2010.03.31 13:35:05.
