data_PCOD8123875
_publ_section_title
;
Structure prediction by ZEFSAII (Michael W. Deem and Ramdas Pophale) SiO2 
 PCOD8123875
Probable space group: P 21/C
;
_chemical_formula_sum "Si O2"
_cell_formula_units_Z 28
_cell_length_a 12.386514
_cell_length_b 26.270647
_cell_length_c 5.130170
_cell_angle_alpha 90.000000
_cell_angle_beta 90.000122
_cell_angle_gamma 90.000000
_cell_volume 1669.366228
_symmetry_space_group_name_H-M "P 21/C"
_symmetry_group_IT_number 14
_symmetry_cell_setting 'monoclinic'
loop_
_space_group_symop_operation_xyz
x,y,z
-x,1/2+y,1/2-z
-x,-y,-z
x,1/2-y,1/2+z
loop_
_atom_site_type_symbol
_atom_site_label
_atom_site_fract_x
_atom_site_fract_y
_atom_site_fract_z
Si Si1 0.371907 0.618230 0.012352
Si Si2 0.231627 0.784091 0.536438
Si Si3 0.231626 0.215909 0.463566
Si Si4 0.628214 0.556989 0.510700
Si Si5 0.000001 0.718512 0.940345
Si Si6 0.628214 0.443011 0.489303
Si Si7 0.628094 0.618230 0.012355
O O1 0.322330 0.674005 0.993962
O O2 0.331858 0.584386 0.771337
O O3 0.500001 0.625041 0.012580
O O4 0.328888 0.589669 0.268269
O O5 0.245841 0.760146 0.822198
O O6 0.112337 0.810538 0.506089
O O7 0.245840 0.239854 0.177806
O O8 0.112336 0.189462 0.493912
O O9 0.322328 0.174004 0.506042
O O10 0.676775 0.500000 0.499998
O O11 0.500000 0.553819 0.500824
O O12 0.668142 0.584384 0.771345
O O13 0.671113 0.589670 0.268277
O O14 0.000001 0.732343 0.634081
#
# Coordination Sequence:
#
# PCOD8123875 Si02
#       7
#     4   4   4   4   4   4   4
#     4  10  19  29  44  68  92 116 146 176 218 268
#     4  10  19  31  46  65  91 119 147 179 213 255
#     4  10  19  31  46  65  91 119 147 179 213 255
#     4   9  17  30  46  64  88 116 148 185 217 251
#     4   8  16  30  46  62  81 112 153 186 208 240
#     4   9  17  30  46  64  88 116 148 185 217 251
#     4  10  19  29  44  68  92 116 146 176 218 268
#
# _framework density 16.772832000000001
#
# number of rings (size 3 to 8) (size 9 to 14) (size 15 to 20)
#    0.000    2.571    0.000    2.571    0.000    4.571 
#    0.000    0.000    0.000    0.000    0.000    6.000 
#    0.000    0.000    0.000    0.000    0.000    0.000 
#
# Total GULP energy -347056.833305 kJ/mol
# GULP energy per Si atom -12394.886904 kJ/mol
# Density = 1.673466 g / cm^3
# Si number density = 16.772832 Si / 1000 Ang^3
#
#
#
# Elastic Constant Matrix: (Units=GPa)
#
#
# Indices 1 2 3 4 5 6 
#
# 1 45.6685 38.9830 28.3990 0.0000 -0.0010 0.0000
# 2 38.9830 79.5782 20.9040 0.0000 0.0005 0.0000
# 3 28.3990 20.9040 92.7687 0.0000 0.0013 0.0000
# 4 0.0000 0.0000 0.0000 27.0651 0.0000 -0.0001
# 5 -0.0010 0.0005 0.0013 0.0000 11.8294 0.0000
# 6 0.0000 0.0000 0.0000 -0.0001 0.0000 1.6277
#
#
#
# Elastic Compliance Matrix: (Units=1/GPa)
#
#
# Indices 1 2 3 4 5 6 
#
# 1 0.043871 -0.019094 -0.009128 0.000000 0.000005 0.000000
# 2 -0.019094 0.021667 0.000963 0.000000 -0.000003 0.000000
# 3 -0.009128 0.000963 0.013357 0.000000 -0.000002 0.000000
# 4 0.000000 0.000000 0.000000 0.036948 0.000000 0.000002
# 5 0.000005 -0.000003 -0.000002 0.000000 0.084535 0.000000
# 6 0.000000 0.000000 0.000000 0.000002 0.000000 0.614349
#
#
# Mechanical properties :
#
#
# Convention : Reuss Voigt Hill
#
# Bulk Modulus (GPa) = 41.02086 43.84304 42.43195
# Shear Modulus (GPa) = 5.69885 16.75309 11.22597
#
# Velocity S-wave (km/s) = 1.84528 3.16384 2.58988
# Velocity P-wave (km/s) = 5.38979 6.28829 5.85630
#
# Compressibility (1/GPa) = 0.02437784
#
# Stress axis : x y z
#
# Youngs Moduli (GPa) = 22.79390 46.15378 74.86827
#
# Poissons Ratio (x) = 0.88124 0.68338
# Poissons Ratio (y) = 0.43522 -0.07208
# Poissons Ratio (z) = 0.20806 -0.04444
#
# Static dielectric constant tensor:
#      x y z
#    x 3.022950 0.000000 0.000000 
#    y 0.000000 2.948170 0.000000 
#    z 0.000000 0.000000 3.452350 
# 
# 
# High freq. dielectric constant tensor:
#      x y z
#    x 1.612910 0.000000 0.000000 
#    y 0.000000 1.620930 0.000000 
#    z 0.000000 0.000000 1.674430 
# 
# From -- ./inp_files/2863.got.cif
#   From: 2010.03.12/outbox.cif.g09.slc.cpg/sg14_2_cif.got.tgz:2863.got - 2010.03.31 13:35:05.
