data_PCOD8123683
_publ_section_title
;
Structure prediction by ZEFSAII (Michael W. Deem and Ramdas Pophale) SiO2 
 PCOD8123683
Probable space group: P 21/C
;
_chemical_formula_sum "Si O2"
_cell_formula_units_Z 32
_cell_length_a 11.286948
_cell_length_b 10.039674
_cell_length_c 20.250999
_cell_angle_alpha 90.000000
_cell_angle_beta 48.887433
_cell_angle_gamma 90.000000
_cell_volume 1728.937381
_symmetry_space_group_name_H-M "P 21/C"
_symmetry_group_IT_number 14
_symmetry_cell_setting 'monoclinic'
loop_
_space_group_symop_operation_xyz
x,y,z
-x,1/2+y,1/2-z
-x,-y,-z
x,1/2-y,1/2+z
loop_
_atom_site_type_symbol
_atom_site_label
_atom_site_fract_x
_atom_site_fract_y
_atom_site_fract_z
Si Si1 0.878846 0.438603 0.466724
Si Si2 0.072199 0.555002 0.211269
Si Si3 0.838050 0.154656 0.842897
Si Si4 0.685735 0.338951 0.269440
Si Si5 0.197535 0.944085 0.799853
Si Si6 0.667894 0.892715 0.137913
Si Si7 0.984064 0.030458 0.610478
Si Si8 0.939995 0.711411 0.031264
O O1 0.799624 0.356198 0.434927
O O2 0.741384 0.519806 0.552134
O O3 0.018188 0.535926 0.390855
O O4 0.951260 0.339868 0.495078
O O5 0.050084 0.715674 0.211393
O O6 0.205170 0.522550 0.218001
O O7 0.914486 0.485730 0.295087
O O8 0.106638 0.491399 0.126467
O O9 0.687637 0.173066 0.849316
O O10 0.745442 0.206180 0.210991
O O11 0.513794 0.373257 0.308443
O O12 0.806464 0.453655 0.202315
O O13 0.315349 0.039223 0.796464
O O14 0.757264 0.750971 0.107572
O O15 0.991209 0.901146 0.563009
O O16 0.038303 0.161243 0.551344
#
# Coordination Sequence:
#
# PCOD8123683 Si02
#       8
#     4   4   4   4   4   4   4   4
#     4  10  18  35  58  80 104 144 189 223 265 323
#     4   9  17  33  57  82 106 138 184 236 270 309
#     4   9  18  33  55  81 110 143 184 228 276 317
#     4  10  21  34  53  81 114 140 173 229 277 324
#     4   9  19  36  56  78 106 143 184 225 269 320
#     4  11  22  33  55  79 112 147 177 217 278 339
#     4  10  19  34  57  83 106 135 184 230 267 310
#     4  10  20  34  56  80 106 140 182 224 265 321
#
# _framework density 18.508479999999999
#
# number of rings (size 3 to 8) (size 9 to 14) (size 15 to 20)
#    0.000    2.250    1.250    3.000    1.750    1.500 
#    0.000    0.000    0.000    6.000    0.000    0.000 
#    0.000    0.000    0.000    0.000    0.000    0.000 
#
# Total GULP energy -396462.099108 kJ/mol
# GULP energy per Si atom -12389.440597 kJ/mol
# Density = 1.846635 g / cm^3
# Si number density = 18.508480 Si / 1000 Ang^3
#
#
#
# Elastic Constant Matrix: (Units=GPa)
#
#
# Indices 1 2 3 4 5 6 
#
# 1 123.1772 42.4531 53.9396 0.0000 15.8685 0.0000
# 2 42.4531 86.6120 39.3592 0.0000 5.2771 0.0000
# 3 53.9396 39.3592 67.7387 0.0000 17.5677 0.0000
# 4 0.0000 0.0000 0.0000 18.5257 0.0000 4.1298
# 5 15.8685 5.2771 17.5677 0.0000 32.2216 0.0000
# 6 0.0000 0.0000 0.0000 4.1298 0.0000 19.8230
#
#
#
# Elastic Compliance Matrix: (Units=1/GPa)
#
#
# Indices 1 2 3 4 5 6 
#
# 1 0.012818 -0.002334 -0.008517 0.000000 -0.001287 0.000000
# 2 -0.002334 0.016332 -0.008427 0.000000 0.003069 0.000000
# 3 -0.008517 -0.008427 0.029112 0.000000 -0.010298 0.000000
# 4 0.000000 0.000000 0.000000 0.056608 0.000000 -0.011793
# 5 -0.001287 0.003069 -0.010298 0.000000 0.036781 0.000000
# 6 0.000000 0.000000 0.000000 -0.011793 0.000000 0.052903
#
#
# Mechanical properties :
#
#
# Convention : Reuss Voigt Hill
#
# Bulk Modulus (GPa) = 50.74670 61.00351 55.87510
# Shear Modulus (GPa) = 20.02563 23.56580 21.79571
#
# Velocity S-wave (km/s) = 3.29290 3.57212 3.43535
# Velocity P-wave (km/s) = 6.47574 7.07423 6.78159
#
# Compressibility (1/GPa) = 0.01970572
#
# Stress axis : x y z
#
# Youngs Moduli (GPa) = 78.01366 61.22804 34.35011
#
# Poissons Ratio (x) = 0.14291 0.29256
# Poissons Ratio (y) = 0.18209 0.28948
# Poissons Ratio (z) = 0.66445 0.51599
#
# Static dielectric constant tensor:
#      x y z
#    x 3.589360 0.000000 0.552920 
#    y 0.000000 3.551400 0.000000 
#    z 0.552920 0.000000 3.302170 
# 
# 
# High freq. dielectric constant tensor:
#      x y z
#    x 1.714640 0.000000 0.046610 
#    y 0.000000 1.727540 0.000000 
#    z 0.046610 0.000000 1.689020 
# 
# From -- ./inp_files/67178.got.cif
#   From: 2010.03.12/outbox.cif.g09.slc.cpg/sg14_34_cif.got.tgz:67178.got - 2010.03.31 13:35:05.
