data_PCOD8123214
_publ_section_title
;
Structure prediction by ZEFSAII (Michael W. Deem and Ramdas Pophale) SiO2 
 PCOD8123214
Probable space group: P 2/C
;
_chemical_formula_sum "Si O2"
_cell_formula_units_Z 26
_cell_length_a 25.322034
_cell_length_b 7.817990
_cell_length_c 20.933680
_cell_angle_alpha 90.000000
_cell_angle_beta 17.382778
_cell_angle_gamma 90.000000
_cell_volume 1238.092062
_symmetry_space_group_name_H-M "P 2/C"
_symmetry_group_IT_number 13
_symmetry_cell_setting 'monoclinic'
loop_
_space_group_symop_operation_xyz
x,y,z
-x,y,1/2-z
-x,-y,-z
x,-y,1/2+z
loop_
_atom_site_type_symbol
_atom_site_label
_atom_site_fract_x
_atom_site_fract_y
_atom_site_fract_z
Si Si1 0.466608 0.588455 0.156424
Si Si2 0.481132 0.941240 0.093538
Si Si3 0.500000 0.749903 0.250000
Si Si4 0.226906 0.743042 0.101265
Si Si5 0.869453 0.441318 0.205207
Si Si6 0.616797 0.242987 0.211380
Si Si7 0.787271 0.088562 0.335802
O O1 0.395296 0.749417 0.196952
O O2 0.438573 0.627466 0.263924
O O3 0.362458 0.410110 0.265632
O O4 0.673495 0.563809 0.901806
O O5 0.357488 0.073297 0.275696
O O6 0.675758 0.936049 0.899604
O O7 0.500000 0.000000 0.000000
O O8 0.343563 0.872392 0.453897
O O9 0.123899 0.573380 0.242925
O O10 0.118735 0.910190 0.253150
O O11 0.235265 0.749993 0.014732
O O12 0.421663 0.750068 0.906698
O O13 0.920114 0.249517 0.172159
O O14 0.000000 0.500000 0.000000
#
# Coordination Sequence:
#
# PCOD8123214 Si02
#       7
#     4   4   2   4   4   4   4
#     4   9  16  26  41  59  83 110 132 162 209 253
#     4   9  17  26  37  58  85 108 134 164 197 245
#     4   8  12  24  42  60  80 102 120 156 206 248
#     4   9  15  25  42  61  81 104 130 164 210 258
#     4   9  17  26  37  58  85 108 134 164 197 245
#     4   9  15  25  42  61  81 104 130 164 210 258
#     4   9  16  26  41  59  83 110 132 162 209 253
#
# _framework density 21.000053999999999
#
# number of rings (size 3 to 8) (size 9 to 14) (size 15 to 20)
#    0.000    3.385    0.000    5.538    0.000    1.231 
#    0.000    0.000    0.000    0.000    0.000    4.308 
#    0.000    0.000    0.000    0.000    0.000    0.000 
#
# Total GULP energy -322095.560020 kJ/mol
# GULP energy per Si atom -12388.290770 kJ/mol
# Density = 2.095226 g / cm^3
# Si number density = 21.000054 Si / 1000 Ang^3
#
#
#
# Elastic Constant Matrix: (Units=GPa)
#
#
# Indices 1 2 3 4 5 6 
#
# 1 36.5110 31.6023 43.9591 0.0000 27.2764 0.0000
# 2 31.6023 228.3523 55.0333 0.0000 30.0822 0.0000
# 3 43.9591 55.0333 92.3335 0.0000 44.4519 0.0000
# 4 0.0000 0.0000 0.0000 22.2565 0.0000 12.7371
# 5 27.2764 30.0822 44.4519 0.0000 28.9709 0.0000
# 6 0.0000 0.0000 0.0000 12.7371 0.0000 12.3728
#
#
#
# Elastic Compliance Matrix: (Units=1/GPa)
#
#
# Indices 1 2 3 4 5 6 
#
# 1 0.094219 -0.001217 -0.007780 0.000000 -0.075506 0.000000
# 2 -0.001217 0.005174 -0.001797 0.000000 -0.001469 0.000000
# 3 -0.007780 -0.001797 0.042786 0.000000 -0.056458 0.000000
# 4 0.000000 0.000000 0.000000 0.109357 0.000000 -0.112576
# 5 -0.075506 -0.001469 -0.056458 0.000000 0.193760 0.000000
# 6 0.000000 0.000000 0.000000 -0.112576 0.000000 0.196714
#
#
# Mechanical properties :
#
#
# Convention : Reuss Voigt Hill
#
# Bulk Modulus (GPa) = 8.29260 68.70959 38.50110
# Shear Modulus (GPa) = 7.10433 27.82683 17.46558
#
# Velocity S-wave (km/s) = 1.84129 3.64412 2.88704
# Velocity P-wave (km/s) = 2.91168 7.10605 5.43019
#
# Compressibility (1/GPa) = 0.12058942
#
# Stress axis : x y z
#
# Youngs Moduli (GPa) = 10.61361 193.26160 23.37199
#
# Poissons Ratio (x) = 0.23524 0.18184
# Poissons Ratio (y) = 0.01292 0.04200
# Poissons Ratio (z) = 0.08258 0.34733
#
# Static dielectric constant tensor:
#      x y z
#    x 3.096770 0.000000 0.388040 
#    y 0.000000 4.977580 0.000000 
#    z 0.388040 0.000000 3.397800 
# 
# 
# High freq. dielectric constant tensor:
#      x y z
#    x 1.745730 0.000000 0.052020 
#    y 0.000000 1.865470 0.000000 
#    z 0.052020 0.000000 1.786090 
# 
# From -- ./inp_files/82711.got.cif
#   From: 2010.06.25/outbox.cif.g09.slc.cpg/sg13_42_cif.got.tgz:82711.got - 2010.06.28 04:50:58.
