data_PCOD8123710
_publ_section_title
;
Structure prediction by ZEFSAII (Michael W. Deem and Ramdas Pophale) SiO2 
 PCOD8123710
Probable space group: P 21/C
;
_chemical_formula_sum "Si O2"
_cell_formula_units_Z 32
_cell_length_a 18.353021
_cell_length_b 15.090554
_cell_length_c 11.435760
_cell_angle_alpha 90.000000
_cell_angle_beta 28.715980
_cell_angle_gamma 90.000000
_cell_volume 1521.746643
_symmetry_space_group_name_H-M "P 21/C"
_symmetry_group_IT_number 14
_symmetry_cell_setting 'monoclinic'
loop_
_space_group_symop_operation_xyz
x,y,z
-x,1/2+y,1/2-z
-x,-y,-z
x,1/2-y,1/2+z
loop_
_atom_site_type_symbol
_atom_site_label
_atom_site_fract_x
_atom_site_fract_y
_atom_site_fract_z
Si Si1 0.049164 0.624480 0.840201
Si Si2 0.107648 0.714065 0.534203
Si Si3 0.843894 0.729510 0.738677
Si Si4 0.339433 0.115961 0.909934
Si Si5 0.832179 0.569705 0.584225
Si Si6 0.314344 0.603960 0.099147
Si Si7 0.789060 0.010890 0.724213
Si Si8 0.828536 0.097077 0.443627
O O1 0.128530 0.640042 0.604763
O O2 0.178494 0.603389 0.753642
O O3 0.955515 0.711426 0.003698
O O4 0.946074 0.538460 0.979005
O O5 0.235915 0.692714 0.258396
O O6 0.127861 0.810612 0.558480
O O7 0.939996 0.698978 0.716110
O O8 0.788502 0.648566 0.736074
O O9 0.699668 0.785845 0.986941
O O10 0.225292 0.090270 0.966137
O O11 0.508248 0.111885 0.623348
O O12 0.326181 0.048175 0.038139
O O13 0.752584 0.482832 0.745942
O O14 0.013519 0.554673 0.324872
O O15 0.288336 0.605149 0.997302
O O16 0.735882 0.037187 0.668431
#
# Coordination Sequence:
#
# PCOD8123710 Si02
#       8
#     4   4   4   4   4   4   4   4
#     4  10  18  35  62  96 118 161 218 271 316 376
#     4  12  21  40  67  95 133 165 216 284 326 388
#     4  11  21  40  69  98 129 171 226 273 325 396
#     4  11  25  47  63  98 138 180 222 263 346 411
#     4  12  23  45  70 100 133 176 228 277 331 399
#     4  12  28  42  65 104 139 174 219 283 340 392
#     4  10  21  37  64  88 126 172 214 262 323 395
#     4  12  23  41  67 100 128 166 232 274 323 397
#
# _framework density 21.028469000000001
#
# number of rings (size 3 to 8) (size 9 to 14) (size 15 to 20)
#    0.000    0.750    5.000    3.750    1.750    1.500 
#    2.250    0.000    0.000    0.000    0.000    0.000 
#    0.000    0.000    0.000    0.000    0.000    0.000 
#
# Total GULP energy -396774.139679 kJ/mol
# GULP energy per Si atom -12399.191865 kJ/mol
# Density = 2.098061 g / cm^3
# Si number density = 21.028469 Si / 1000 Ang^3
#
#
#
# Elastic Constant Matrix: (Units=GPa)
#
#
# Indices 1 2 3 4 5 6 
#
# 1 84.9434 12.9522 16.3003 0.0000 19.0041 0.0000
# 2 12.9522 71.2400 33.9598 0.0000 12.6936 0.0000
# 3 16.3003 33.9598 75.7130 0.0000 0.4185 0.0000
# 4 0.0000 0.0000 0.0000 32.2723 0.0000 15.9092
# 5 19.0041 12.6936 0.4185 0.0000 33.8593 0.0000
# 6 0.0000 0.0000 0.0000 15.9092 0.0000 36.9179
#
#
#
# Elastic Compliance Matrix: (Units=1/GPa)
#
#
# Indices 1 2 3 4 5 6 
#
# 1 0.014118 0.000370 -0.003161 0.000000 -0.008023 0.000000
# 2 0.000370 0.019469 -0.008771 0.000000 -0.007398 0.000000
# 3 -0.003161 -0.008771 0.017796 0.000000 0.004842 0.000000
# 4 0.000000 0.000000 0.000000 0.039345 0.000000 -0.016955
# 5 -0.008023 -0.007398 0.004842 0.000000 0.036751 0.000000
# 6 0.000000 0.000000 0.000000 -0.016955 0.000000 0.034394
#
#
# Mechanical properties :
#
#
# Convention : Reuss Voigt Hill
#
# Bulk Modulus (GPa) = 35.38860 39.81345 37.60102
# Shear Modulus (GPa) = 25.71803 31.85550 28.78677
#
# Velocity S-wave (km/s) = 3.50095 3.89636 3.70394
# Velocity P-wave (km/s) = 5.76261 6.26230 6.01764
#
# Compressibility (1/GPa) = 0.02825769
#
# Stress axis : x y z
#
# Youngs Moduli (GPa) = 70.83263 51.36296 56.19326
#
# Poissons Ratio (x) = -0.01898 0.17762
# Poissons Ratio (y) = -0.02618 0.49289
# Poissons Ratio (z) = 0.22389 0.45052
#
# Static dielectric constant tensor:
#      x y z
#    x 3.996500 0.000000 0.354270 
#    y 0.000000 3.887840 0.000000 
#    z 0.354270 0.000000 3.549650 
# 
# 
# High freq. dielectric constant tensor:
#      x y z
#    x 1.831940 0.000000 0.031800 
#    y 0.000000 1.833270 0.000000 
#    z 0.031800 0.000000 1.797640 
# 
# From -- ./inp_files/34216.got.cif
#   From: 2010.03.12/outbox.cif.g09.slc.cpg/sg14_18_cif.got.tgz:34216.got - 2010.03.31 13:35:05.
