data_PCOD8123385
_publ_section_title
;
Structure prediction by ZEFSAII (Michael W. Deem and Ramdas Pophale) SiO2 
 PCOD8123385
Probable space group: P 21/C
;
_chemical_formula_sum "Si O2"
_cell_formula_units_Z 28
_cell_length_a 10.816953
_cell_length_b 12.844254
_cell_length_c 19.626271
_cell_angle_alpha 90.000000
_cell_angle_beta 32.057737
_cell_angle_gamma 90.000000
_cell_volume 1447.307829
_symmetry_space_group_name_H-M "P 21/C"
_symmetry_group_IT_number 14
_symmetry_cell_setting 'monoclinic'
loop_
_space_group_symop_operation_xyz
x,y,z
-x,1/2+y,1/2-z
-x,-y,-z
x,1/2-y,1/2+z
loop_
_atom_site_type_symbol
_atom_site_label
_atom_site_fract_x
_atom_site_fract_y
_atom_site_fract_z
Si Si1 0.873921 0.991783 0.949894
Si Si2 0.238445 0.523033 0.925598
Si Si3 0.703928 0.416340 0.401926
Si Si4 0.620412 0.711322 0.530168
Si Si5 0.302314 0.564558 0.328870
Si Si6 0.069949 0.403247 0.118356
Si Si7 0.292778 0.794355 0.309205
O O1 0.821219 0.087325 0.922117
O O2 0.807632 0.882772 0.944374
O O3 0.716652 0.007313 0.089986
O O4 0.144671 0.993128 0.845217
O O5 0.428678 0.436098 0.817220
O O6 0.343882 0.634507 0.852604
O O7 0.000000 0.500000 0.000000
O O8 0.191368 0.506446 0.028529
O O9 0.500000 0.500000 0.500000
O O10 0.584381 0.310329 0.430189
O O11 0.913670 0.446057 0.252761
O O12 0.513089 0.719427 0.656245
O O13 0.737138 0.818128 0.449535
O O14 0.215246 0.683194 0.374964
O O15 0.919528 0.345436 0.131412
#
# Coordination Sequence:
#
# PCOD8123385 Si02
#       7
#     4   4   4   4   4   4   4
#     4  10  21  37  57  86 117 158 200 250 305 356
#     4  10  21  34  56  91 124 153 204 256 299 355
#     4   9  21  38  58  83 118 160 204 252 298 362
#     4  10  17  34  62  83 115 155 206 239 296 375
#     4  11  20  35  61  84 120 157 201 254 305 361
#     4  10  19  35  61  89 116 164 206 244 301 366
#     4  10  19  33  55  89 119 156 200 246 305 359
#
# _framework density 19.346264000000001
#
# number of rings (size 3 to 8) (size 9 to 14) (size 15 to 20)
#    0.000    2.000    4.286    0.000    2.000    0.000 
#    0.000    5.000    0.000    0.000    0.000    0.000 
#    0.000    0.000    0.000    0.000    0.000    0.000 
#
# Total GULP energy -346941.631199 kJ/mol
# GULP energy per Si atom -12390.772543 kJ/mol
# Density = 1.930223 g / cm^3
# Si number density = 19.346264 Si / 1000 Ang^3
#
#
#
# Elastic Constant Matrix: (Units=GPa)
#
#
# Indices 1 2 3 4 5 6 
#
# 1 109.1304 38.4885 46.7675 0.0000 7.6302 0.0000
# 2 38.4885 63.3923 36.1455 0.0000 7.4860 0.0000
# 3 46.7675 36.1455 128.6776 0.0000 -0.6820 0.0000
# 4 0.0000 0.0000 0.0000 29.2747 0.0000 -2.7992
# 5 7.6302 7.4860 -0.6820 0.0000 18.0808 0.0000
# 6 0.0000 0.0000 0.0000 -2.7992 0.0000 25.3878
#
#
#
# Elastic Compliance Matrix: (Units=1/GPa)
#
#
# Indices 1 2 3 4 5 6 
#
# 1 0.012657 -0.005573 -0.003051 0.000000 -0.003149 0.000000
# 2 -0.005573 0.022462 -0.004322 0.000000 -0.007111 0.000000
# 3 -0.003051 -0.004322 0.010113 0.000000 0.003459 0.000000
# 4 0.000000 0.000000 0.000000 0.034523 0.000000 0.003806
# 5 -0.003149 -0.007111 0.003459 0.000000 0.059711 0.000000
# 6 0.000000 0.000000 0.000000 0.003806 0.000000 0.039809
#
#
# Mechanical properties :
#
#
# Convention : Reuss Voigt Hill
#
# Bulk Modulus (GPa) = 51.70725 60.44482 56.07603
# Shear Modulus (GPa) = 23.62802 26.53524 25.08163
#
# Velocity S-wave (km/s) = 3.49853 3.70752 3.60454
# Velocity P-wave (km/s) = 6.56543 7.04550 6.80970
#
# Compressibility (1/GPa) = 0.01933965
#
# Stress axis : x y z
#
# Youngs Moduli (GPa) = 79.01049 44.51887 98.88532
#
# Poissons Ratio (x) = 0.24809 0.30173
# Poissons Ratio (y) = 0.44030 0.42738
# Poissons Ratio (z) = 0.24108 0.19241
#
# Static dielectric constant tensor:
#      x y z
#    x 3.674070 0.000000 0.031310 
#    y 0.000000 3.539690 0.000000 
#    z 0.031310 0.000000 3.633340 
# 
# 
# High freq. dielectric constant tensor:
#      x y z
#    x 1.735170 0.000000 -0.008920 
#    y 0.000000 1.730150 0.000000 
#    z -0.008920 0.000000 1.760120 
# 
# From -- ./inp_files/29844.got.cif
#   From: 2010.03.12/outbox.cif.g09.slc.cpg/sg14_15_cif.got.tgz:29844.got - 2010.03.31 13:35:05.
