data_PCOD8123734
_publ_section_title
;
Structure prediction by ZEFSAII (Michael W. Deem and Ramdas Pophale) SiO2 
 PCOD8123734
Probable space group: P 21/C
;
_chemical_formula_sum "Si O2"
_cell_formula_units_Z 32
_cell_length_a 9.314620
_cell_length_b 26.495429
_cell_length_c 14.042310
_cell_angle_alpha 90.000000
_cell_angle_beta 29.608246
_cell_angle_gamma 90.000000
_cell_volume 1712.223686
_symmetry_space_group_name_H-M "P 21/C"
_symmetry_group_IT_number 14
_symmetry_cell_setting 'monoclinic'
loop_
_space_group_symop_operation_xyz
x,y,z
-x,1/2+y,1/2-z
-x,-y,-z
x,1/2-y,1/2+z
loop_
_atom_site_type_symbol
_atom_site_label
_atom_site_fract_x
_atom_site_fract_y
_atom_site_fract_z
Si Si1 0.126937 0.945201 0.426457
Si Si2 0.528119 0.942906 0.020170
Si Si3 0.515517 0.248030 0.570290
Si Si4 0.398482 0.349166 0.036479
Si Si5 0.290246 0.359969 0.879645
Si Si6 0.119443 0.600872 0.128769
Si Si7 0.260863 0.645177 0.546279
Si Si8 0.040297 0.799463 0.566568
O O1 0.231213 0.929435 0.471520
O O2 0.848920 0.914505 0.550078
O O3 0.402036 0.938851 0.198910
O O4 0.000000 0.000000 0.500000
O O5 0.360657 0.902889 0.050190
O O6 0.868513 0.929638 0.828147
O O7 0.500000 0.000000 0.000000
O O8 0.543924 0.205183 0.473853
O O9 0.664694 0.300244 0.449062
O O10 0.645796 0.225497 0.595579
O O11 0.176488 0.254696 0.782263
O O12 0.086019 0.357907 0.265978
O O13 0.384844 0.351435 0.931788
O O14 0.610724 0.392394 0.955318
O O15 0.576542 0.355010 0.649175
O O16 0.036534 0.319430 0.995250
O O17 0.985051 0.653762 0.170317
#
# Coordination Sequence:
#
# PCOD8123734 Si02
#       8
#     4   4   4   4   4   4   4   4
#     4  11  20  38  65  90 116 158 207 250 304 368
#     4  12  21  38  68  90 117 166 203 249 312 366
#     4  10  18  36  58  86 121 161 198 248 297 358
#     4  11  23  39  62  90 130 163 197 255 311 351
#     4  10  21  39  58  88 122 158 203 249 300 366
#     4  10  22  39  58  94 124 152 206 254 292 366
#     4  11  21  40  61  86 125 161 203 254 301 364
#     4   9  18  35  57  80 123 153 195 249 290 353
#
# _framework density 18.689146999999998
#
# number of rings (size 3 to 8) (size 9 to 14) (size 15 to 20)
#    0.000    1.500    7.500    0.000    0.000    1.000 
#    4.500    2.500    0.000    3.000    0.000    0.000 
#    0.000    0.000    0.000    0.000    0.000    0.000 
#
# Total GULP energy -396573.935315 kJ/mol
# GULP energy per Si atom -12392.935479 kJ/mol
# Density = 1.864661 g / cm^3
# Si number density = 18.689147 Si / 1000 Ang^3
#
#
#
# Elastic Constant Matrix: (Units=GPa)
#
#
# Indices 1 2 3 4 5 6 
#
# 1 135.3700 49.2495 39.6357 0.0000 3.4319 0.0000
# 2 49.2495 122.3033 30.1586 0.0000 -4.6680 0.0000
# 3 39.6357 30.1586 111.8553 0.0000 7.2670 0.0000
# 4 0.0000 0.0000 0.0000 27.5284 0.0000 -3.6216
# 5 3.4319 -4.6680 7.2670 0.0000 32.6195 0.0000
# 6 0.0000 0.0000 0.0000 -3.6216 0.0000 17.7570
#
#
#
# Elastic Compliance Matrix: (Units=1/GPa)
#
#
# Indices 1 2 3 4 5 6 
#
# 1 0.009259 -0.003180 -0.002365 0.000000 -0.000902 0.000000
# 2 -0.003180 0.009957 -0.001697 0.000000 0.002137 0.000000
# 3 -0.002365 -0.001697 0.010386 0.000000 -0.002308 0.000000
# 4 0.000000 0.000000 0.000000 0.037328 0.000000 0.007613
# 5 -0.000902 0.002137 -0.002308 0.000000 0.031571 0.000000
# 6 0.000000 0.000000 0.000000 0.007613 0.000000 0.057868
#
#
# Mechanical properties :
#
#
# Convention : Reuss Voigt Hill
#
# Bulk Modulus (GPa) = 66.14361 67.51291 66.82826
# Shear Modulus (GPa) = 28.42653 32.27997 30.35325
#
# Velocity S-wave (km/s) = 3.90425 4.16047 4.03440
# Velocity P-wave (km/s) = 7.46944 7.69948 7.58533
#
# Compressibility (1/GPa) = 0.01511862
#
# Stress axis : x y z
#
# Youngs Moduli (GPa) = 107.99845 100.43363 96.28754
#
# Poissons Ratio (x) = 0.31936 0.22773
# Poissons Ratio (y) = 0.34342 0.16337
# Poissons Ratio (z) = 0.25542 0.17040
#
# Static dielectric constant tensor:
#      x y z
#    x 3.462610 0.000000 -0.222390 
#    y 0.000000 3.639240 0.000000 
#    z -0.222390 0.000000 3.558170 
# 
# 
# High freq. dielectric constant tensor:
#      x y z
#    x 1.711510 0.000000 -0.011420 
#    y 0.000000 1.739140 0.000000 
#    z -0.011420 0.000000 1.718810 
# 
# From -- ./inp_files/42286.got.cif
#   From: 2010.03.12/outbox.cif.g09.slc.cpg/sg14_22_cif.got.tgz:42286.got - 2010.03.31 13:35:05.
