data_PCOD8123553
_publ_section_title
;
Structure prediction by ZEFSAII (Michael W. Deem and Ramdas Pophale) SiO2 
 PCOD8123553
Probable space group: P 21/C
;
_chemical_formula_sum "Si O2"
_cell_formula_units_Z 24
_cell_length_a 10.996580
_cell_length_b 11.650262
_cell_length_c 11.636126
_cell_angle_alpha 90.000000
_cell_angle_beta 52.335836
_cell_angle_gamma 90.000000
_cell_volume 1180.078090
_symmetry_space_group_name_H-M "P 21/C"
_symmetry_group_IT_number 14
_symmetry_cell_setting 'monoclinic'
loop_
_space_group_symop_operation_xyz
x,y,z
-x,1/2+y,1/2-z
-x,-y,-z
x,1/2-y,1/2+z
loop_
_atom_site_type_symbol
_atom_site_label
_atom_site_fract_x
_atom_site_fract_y
_atom_site_fract_z
Si Si1 0.628348 0.094617 0.399563
Si Si2 0.733866 0.311675 0.071497
Si Si3 0.323976 0.069386 0.008411
Si Si4 0.562940 0.721080 0.157986
Si Si5 0.847745 0.427400 0.566061
Si Si6 0.658063 0.516675 0.254905
O O1 0.739454 0.136940 0.438884
O O2 0.534709 0.201660 0.402231
O O3 0.738976 0.045110 0.236545
O O4 0.500000 0.000000 0.500000
O O5 0.556936 0.268326 0.178653
O O6 0.856722 0.210735 0.033584
O O7 0.765575 0.414882 0.143498
O O8 0.271589 0.076980 0.172249
O O9 0.300769 0.191098 0.955990
O O10 0.221020 0.972513 0.012426
O O11 0.501129 0.039890 0.887233
O O12 0.640013 0.606653 0.162180
O O13 0.000000 0.500000 0.500000
#
# Coordination Sequence:
#
# PCOD8123553 Si02
#       6
#     4   4   4   4   4   4
#     4  11  19  37  65  96 123 159 210 271 322 381
#     4  10  20  34  61  90 125 166 209 261 323 384
#     4  10  20  34  58  87 127 164 205 266 321 377
#     4  10  18  32  57  99 125 150 204 271 329 374
#     4  11  25  42  59  89 130 177 217 254 320 390
#     4  10  18  34  59  96 121 154 212 272 326 373
#
# _framework density 20.337637000000001
#
# number of rings (size 3 to 8) (size 9 to 14) (size 15 to 20)
#    0.000    1.667    5.000    2.000    7.000    0.000 
#    0.000    3.333    0.000    2.000    0.000    0.000 
#    0.000    0.000    0.000    0.000    0.000    0.000 
#
# Total GULP energy -297359.156545 kJ/mol
# GULP energy per Si atom -12389.964856 kJ/mol
# Density = 2.029135 g / cm^3
# Si number density = 20.337637 Si / 1000 Ang^3
#
#
#
# Elastic Constant Matrix: (Units=GPa)
#
#
# Indices 1 2 3 4 5 6 
#
# 1 55.3147 31.6215 47.6703 0.0000 22.7432 0.0000
# 2 31.6215 129.2774 44.6791 0.0000 10.5639 0.0000
# 3 47.6703 44.6791 69.9830 0.0000 25.2298 0.0000
# 4 0.0000 0.0000 0.0000 27.6150 0.0000 2.2280
# 5 22.7432 10.5639 25.2298 0.0000 29.6311 0.0000
# 6 0.0000 0.0000 0.0000 2.2280 0.0000 37.3779
#
#
#
# Elastic Compliance Matrix: (Units=1/GPa)
#
#
# Indices 1 2 3 4 5 6 
#
# 1 0.047023 -0.001273 -0.026506 0.000000 -0.013069 0.000000
# 2 -0.001273 0.010109 -0.006695 0.000000 0.003074 0.000000
# 3 -0.026506 -0.006695 0.041013 0.000000 -0.012190 0.000000
# 4 0.000000 0.000000 0.000000 0.036387 0.000000 -0.002169
# 5 -0.013069 0.003074 -0.012190 0.000000 0.053063 0.000000
# 6 0.000000 0.000000 0.000000 -0.002169 0.000000 0.026883
#
#
# Mechanical properties :
#
#
# Convention : Reuss Voigt Hill
#
# Bulk Modulus (GPa) = 34.25017 55.83523 45.04270
# Shear Modulus (GPa) = 17.05561 27.63175 22.34368
#
# Velocity S-wave (km/s) = 2.89904 3.68999 3.31817
# Velocity P-wave (km/s) = 5.29936 6.75784 6.07255
#
# Compressibility (1/GPa) = 0.02919694
#
# Stress axis : x y z
#
# Youngs Moduli (GPa) = 21.26636 98.91803 24.38249
#
# Poissons Ratio (x) = 0.12595 0.64628
# Poissons Ratio (y) = 0.02708 0.16324
# Poissons Ratio (z) = 0.56368 0.66224
#
# Static dielectric constant tensor:
#      x y z
#    x 3.267790 0.000000 0.474650 
#    y 0.000000 4.055860 0.000000 
#    z 0.474650 0.000000 3.724820 
# 
# 
# High freq. dielectric constant tensor:
#      x y z
#    x 1.753850 0.000000 0.047050 
#    y 0.000000 1.811480 0.000000 
#    z 0.047050 0.000000 1.775760 
# 
# From -- ./inp_files/28707.got.cif
#   From: 2010.03.12/outbox.cif.g09.slc.cpg/sg14_15_cif.got.tgz:28707.got - 2010.03.31 13:35:05.
