data_PCOD8123718
_publ_section_title
;
Structure prediction by ZEFSAII (Michael W. Deem and Ramdas Pophale) SiO2 
 PCOD8123718
Probable space group: P 21/C
;
_chemical_formula_sum "Si O2"
_cell_formula_units_Z 28
_cell_length_a 8.710530
_cell_length_b 22.142002
_cell_length_c 12.087892
_cell_angle_alpha 90.000000
_cell_angle_beta 146.014696
_cell_angle_gamma 90.000000
_cell_volume 1303.192270
_symmetry_space_group_name_H-M "P 21/C"
_symmetry_group_IT_number 14
_symmetry_cell_setting 'monoclinic'
loop_
_space_group_symop_operation_xyz
x,y,z
-x,1/2+y,1/2-z
-x,-y,-z
x,1/2-y,1/2+z
loop_
_atom_site_type_symbol
_atom_site_label
_atom_site_fract_x
_atom_site_fract_y
_atom_site_fract_z
Si Si1 0.608281 0.483940 0.887023
Si Si2 0.973590 0.128268 0.898565
Si Si3 0.519951 0.185768 0.993809
Si Si4 0.418672 0.857179 0.727866
Si Si5 0.383690 0.908992 0.125312
Si Si6 0.078721 0.497368 0.714363
Si Si7 0.096131 0.791349 0.348620
O O1 0.658606 0.426779 0.838919
O O2 0.599148 0.544724 0.808536
O O3 0.337986 0.473835 0.799899
O O4 0.861688 0.490475 0.121855
O O5 0.747096 0.134479 0.858843
O O6 0.849579 0.160021 0.715774
O O7 0.036255 0.057896 0.911164
O O8 0.261559 0.157168 0.109586
O O9 0.463176 0.132394 0.872061
O O10 0.230078 0.220459 0.833705
O O11 0.629444 0.157024 0.172589
O O12 0.760804 0.228781 0.095950
O O13 0.226226 0.814478 0.540160
O O14 0.147197 0.945917 0.922760
#
# Coordination Sequence:
#
# PCOD8123718 Si02
#       7
#     4   4   4   4   4   4   4
#     4  10  19  35  66 104 142 179 218 269 337 418
#     4  10  20  40  71 100 133 182 223 276 329 405
#     4  11  30  46  68  99 134 182 230 285 346 398
#     4  11  22  44  70  96 138 178 221 283 340 394
#     4  11  22  40  66 105 141 172 223 277 341 406
#     4  10  18  35  65 108 137 177 223 260 338 411
#     4  11  27  49  67  96 130 180 239 278 336 408
#
# _framework density 21.485702
#
# number of rings (size 3 to 8) (size 9 to 14) (size 15 to 20)
#    0.000    1.429    4.286    0.857    4.000    2.857 
#    0.000    1.429    0.000    0.000    0.000    0.000 
#    0.000    0.000    0.000    0.000    0.000    0.000 
#
# Total GULP energy -347320.108630 kJ/mol
# GULP energy per Si atom -12404.289594 kJ/mol
# Density = 2.143680 g / cm^3
# Si number density = 21.485702 Si / 1000 Ang^3
#
#
#
# Elastic Constant Matrix: (Units=GPa)
#
#
# Indices 1 2 3 4 5 6 
#
# 1 91.9115 53.1318 49.5983 0.0000 -21.9087 0.0000
# 2 53.1318 79.0294 23.0453 0.0000 -6.9071 0.0000
# 3 49.5983 23.0453 116.5567 0.0000 -16.8526 0.0000
# 4 0.0000 0.0000 0.0000 29.7108 0.0000 -0.7807
# 5 -21.9087 -6.9071 -16.8526 0.0000 31.8351 0.0000
# 6 0.0000 0.0000 0.0000 -0.7807 0.0000 26.5385
#
#
#
# Elastic Compliance Matrix: (Units=1/GPa)
#
#
# Indices 1 2 3 4 5 6 
#
# 1 0.024926 -0.013983 -0.006281 0.000000 0.010795 0.000000
# 2 -0.013983 0.021350 0.001091 0.000000 -0.004413 0.000000
# 3 -0.006281 0.001091 0.011312 0.000000 0.001902 0.000000
# 4 0.000000 0.000000 0.000000 0.033684 0.000000 0.000991
# 5 0.010795 -0.004413 0.001902 0.000000 0.038890 0.000000
# 6 0.000000 0.000000 0.000000 0.000991 0.000000 0.037710
#
#
# Mechanical properties :
#
#
# Convention : Reuss Voigt Hill
#
# Bulk Modulus (GPa) = 51.97133 59.89427 55.93280
# Shear Modulus (GPa) = 23.51480 28.39837 25.95659
#
# Velocity S-wave (km/s) = 3.31182 3.63951 3.47952
# Velocity P-wave (km/s) = 6.23422 6.75265 6.49861
#
# Compressibility (1/GPa) = 0.01924138
#
# Stress axis : x y z
#
# Youngs Moduli (GPa) = 40.11934 46.83776 88.40371
#
# Poissons Ratio (x) = 0.65491 0.55528
# Poissons Ratio (y) = 0.56097 -0.09641
# Poissons Ratio (z) = 0.25200 -0.05108
#
# Static dielectric constant tensor:
#      x y z
#    x 3.699150 0.000000 -0.201020 
#    y 0.000000 3.715380 0.000000 
#    z -0.201020 0.000000 4.011140 
# 
# 
# High freq. dielectric constant tensor:
#      x y z
#    x 1.828290 0.000000 -0.015380 
#    y 0.000000 1.833270 0.000000 
#    z -0.015380 0.000000 1.858960 
# 
# From -- ./inp_files/26843.got.cif
#   From: 2010.03.12/outbox.cif.g09.slc.cpg/sg14_14_cif.got.tgz:26843.got - 2010.03.31 13:35:05.
