data_PCOD8123234
_publ_section_title
;
Structure prediction by ZEFSAII (Michael W. Deem and Ramdas Pophale) SiO2 
 PCOD8123234
Probable space group: P 21/C
;
_chemical_formula_sum "Si O2"
_cell_formula_units_Z 20
_cell_length_a 26.097860
_cell_length_b 8.391708
_cell_length_c 5.263156
_cell_angle_alpha 90.000000
_cell_angle_beta 66.095548
_cell_angle_gamma 90.000000
_cell_volume 1053.788357
_symmetry_space_group_name_H-M "P 21/C"
_symmetry_group_IT_number 14
_symmetry_cell_setting 'monoclinic'
loop_
_space_group_symop_operation_xyz
x,y,z
-x,1/2+y,1/2-z
-x,-y,-z
x,1/2-y,1/2+z
loop_
_atom_site_type_symbol
_atom_site_label
_atom_site_fract_x
_atom_site_fract_y
_atom_site_fract_z
Si Si1 0.961962 0.652439 0.548945
Si Si2 0.168318 0.417232 0.192828
Si Si3 0.334104 0.151637 0.800880
Si Si4 0.784515 0.561070 0.401597
Si Si5 0.541703 0.645700 0.898319
O O1 0.976350 0.770948 0.749357
O O2 0.897474 0.604633 0.695669
O O3 0.000000 0.500000 0.500000
O O4 0.200821 0.249225 0.139242
O O5 0.184692 0.514861 0.414623
O O6 0.190350 0.517317 0.904911
O O7 0.328557 0.209529 0.521922
O O8 0.395219 0.072503 0.716332
O O9 0.282512 0.030496 0.950667
O O10 0.531524 0.734142 0.651988
O O11 0.500000 0.500000 0.000000
#
# Coordination Sequence:
#
# PCOD8123234 Si02
#       5
#     4   4   4   4   4
#     4  12  23  38  55  81 110 144 181 219 265 325
#     4  10  16  27  47  71 105 124 164 215 279 290
#     4  10  16  25  44  74 101 122 166 224 263 289
#     4  10  14  25  46  70 106 119 163 222 278 279
#     4  10  21  35  53  78 113 145 181 218 266 317
#
# _framework density 18.979143000000001
#
# number of rings (size 3 to 8) (size 9 to 14) (size 15 to 20)
#    0.000    1.600    8.000    1.200    0.000    0.000 
#    0.000    0.000    0.000    0.000    0.000    8.400 
#    0.000    0.000    0.000    0.000    0.000    0.000 
#
# Total GULP energy -247827.160665 kJ/mol
# GULP energy per Si atom -12391.358033 kJ/mol
# Density = 1.893595 g / cm^3
# Si number density = 18.979143 Si / 1000 Ang^3
#
#
#
# Elastic Constant Matrix: (Units=GPa)
#
#
# Indices 1 2 3 4 5 6 
#
# 1 111.3777 31.9838 39.2442 0.0000 -6.6963 0.0000
# 2 31.9838 23.9610 11.1621 0.0000 -15.0134 0.0000
# 3 39.2442 11.1621 103.0024 0.0000 15.0065 0.0000
# 4 0.0000 0.0000 0.0000 13.3060 0.0000 0.2096
# 5 -6.6963 -15.0134 15.0065 0.0000 50.4571 0.0000
# 6 0.0000 0.0000 0.0000 0.2096 0.0000 12.6225
#
#
#
# Elastic Compliance Matrix: (Units=1/GPa)
#
#
# Indices 1 2 3 4 5 6 
#
# 1 0.016418 -0.022628 -0.003282 0.000000 -0.003578 0.000000
# 2 -0.022628 0.089957 -0.004797 0.000000 0.025190 0.000000
# 3 -0.003282 -0.004797 0.012282 0.000000 -0.005516 0.000000
# 4 0.000000 0.000000 0.000000 0.075174 0.000000 -0.001249
# 5 -0.003578 0.025190 -0.005516 0.000000 0.028480 0.000000
# 6 0.000000 0.000000 0.000000 -0.001249 0.000000 0.079244
#
#
# Mechanical properties :
#
#
# Convention : Reuss Voigt Hill
#
# Bulk Modulus (GPa) = 17.46922 44.79125 31.13023
# Shear Modulus (GPa) = 13.08733 25.67385 19.38059
#
# Velocity S-wave (km/s) = 2.62880 3.68195 3.19901
# Velocity P-wave (km/s) = 4.29401 6.45966 5.48478
#
# Compressibility (1/GPa) = 0.05724353
#
# Stress axis : x y z
#
# Youngs Moduli (GPa) = 60.91031 11.11644 81.41779
#
# Poissons Ratio (x) = 0.25154 0.26719
# Poissons Ratio (y) = 1.37826 0.39057
# Poissons Ratio (z) = 0.19989 0.05333
#
# Static dielectric constant tensor:
#      x y z
#    x 4.292220 0.000000 0.808260 
#    y 0.000000 2.535750 0.000000 
#    z 0.808260 0.000000 5.278960 
# 
# 
# High freq. dielectric constant tensor:
#      x y z
#    x 1.765720 0.000000 0.010570 
#    y 0.000000 1.637950 0.000000 
#    z 0.010570 0.000000 1.775380 
# 
# From -- ./inp_files/4321.got.cif
#   From: 2010.03.12/outbox.cif.g09.slc.cpg/sg14_3_cif.got.tgz:4321.got - 2010.03.31 13:35:05.
