data_PCOD8123362
_publ_section_title
;
Structure prediction by ZEFSAII (Michael W. Deem and Ramdas Pophale) SiO2 
 PCOD8123362
Probable space group: P 21/C
;
_chemical_formula_sum "Si O2"
_cell_formula_units_Z 32
_cell_length_a 11.754559
_cell_length_b 11.618585
_cell_length_c 16.866398
_cell_angle_alpha 90.000000
_cell_angle_beta 45.262193
_cell_angle_gamma 90.000000
_cell_volume 1636.233378
_symmetry_space_group_name_H-M "P 21/C"
_symmetry_group_IT_number 14
_symmetry_cell_setting 'monoclinic'
loop_
_space_group_symop_operation_xyz
x,y,z
-x,1/2+y,1/2-z
-x,-y,-z
x,1/2-y,1/2+z
loop_
_atom_site_type_symbol
_atom_site_label
_atom_site_fract_x
_atom_site_fract_y
_atom_site_fract_z
Si Si1 0.277787 0.280759 0.870110
Si Si2 0.278193 0.647768 0.485623
Si Si3 0.656707 0.533610 0.842481
Si Si4 0.411726 0.481566 0.722683
Si Si5 0.058262 0.090858 0.909018
Si Si6 0.444357 0.846852 0.332372
Si Si7 0.601499 0.845598 0.525293
Si Si8 0.431306 0.617800 0.568054
O O1 0.297045 0.370145 0.786349
O O2 0.124544 0.202194 0.924528
O O3 0.440151 0.206148 0.791598
O O4 0.278843 0.339351 0.957052
O O5 0.403923 0.554095 0.388027
O O6 0.297106 0.765094 0.426250
O O7 0.305683 0.667109 0.565976
O O8 0.093848 0.617302 0.570079
O O9 0.814589 0.531100 0.711479
O O10 0.538386 0.632069 0.867827
O O11 0.570757 0.408873 0.876703
O O12 0.693817 0.576328 0.913977
O O13 0.391454 0.532648 0.820983
O O14 0.347665 0.576854 0.691416
O O15 0.000000 0.000000 0.000000
O O16 0.567607 0.714198 0.514943
O O17 0.500000 0.500000 0.500000
#
# Coordination Sequence:
#
# PCOD8123362 Si02
#       8
#     4   4   4   4   4   4   4   4
#     4  10  21  35  62  92 120 161 207 262 298 375
#     4  10  21  38  56  86 126 155 200 261 314 375
#     4  10  22  38  62  92 122 163 210 268 302 367
#     4  10  19  35  63  92 115 158 222 260 302 356
#     4  11  25  41  60  90 127 166 201 251 326 374
#     4  10  17  33  61  86 116 152 208 258 293 360
#     4  11  20  38  65  92 120 157 219 258 312 351
#     4  10  21  34  61  91 119 158 203 260 304 363
#
# _framework density 19.557112
#
# number of rings (size 3 to 8) (size 9 to 14) (size 15 to 20)
#    0.000    1.750    3.750    1.500    5.250    0.000 
#    0.000    4.375    0.000    0.000    0.000    0.000 
#    0.000    0.000    0.000    0.000    0.000    0.000 
#
# Total GULP energy -396458.210509 kJ/mol
# GULP energy per Si atom -12389.319078 kJ/mol
# Density = 1.951260 g / cm^3
# Si number density = 19.557112 Si / 1000 Ang^3
#
#
#
# Elastic Constant Matrix: (Units=GPa)
#
#
# Indices 1 2 3 4 5 6 
#
# 1 96.9203 25.2800 44.4262 0.0000 11.0602 0.0000
# 2 25.2800 90.8029 38.6952 0.0000 2.9193 0.0000
# 3 44.4262 38.6952 97.6594 0.0000 3.4009 0.0000
# 4 0.0000 0.0000 0.0000 31.2677 0.0000 6.8155
# 5 11.0602 2.9193 3.4009 0.0000 25.7112 0.0000
# 6 0.0000 0.0000 0.0000 6.8155 0.0000 29.6763
#
#
#
# Elastic Compliance Matrix: (Units=1/GPa)
#
#
# Indices 1 2 3 4 5 6 
#
# 1 0.013792 -0.001298 -0.005584 0.000000 -0.005047 0.000000
# 2 -0.001298 0.013389 -0.004703 0.000000 -0.000340 0.000000
# 3 -0.005584 -0.004703 0.014608 0.000000 0.001004 0.000000
# 4 0.000000 0.000000 0.000000 0.033667 0.000000 -0.007732
# 5 -0.005047 -0.000340 0.001004 0.000000 0.040970 0.000000
# 6 0.000000 0.000000 0.000000 -0.007732 0.000000 0.035473
#
#
# Mechanical properties :
#
#
# Convention : Reuss Voigt Hill
#
# Bulk Modulus (GPa) = 53.70625 55.79838 54.75231
# Shear Modulus (GPa) = 27.58225 29.12977 28.35601
#
# Velocity S-wave (km/s) = 3.75953 3.86355 3.81190
# Velocity P-wave (km/s) = 6.80928 6.96388 6.88701
#
# Compressibility (1/GPa) = 0.01861981
#
# Stress axis : x y z
#
# Youngs Moduli (GPa) = 72.50682 74.68681 68.45389
#
# Poissons Ratio (x) = 0.09693 0.38225
# Poissons Ratio (y) = 0.09410 0.32193
# Poissons Ratio (z) = 0.40488 0.35125
#
# Static dielectric constant tensor:
#      x y z
#    x 4.080720 0.000000 0.273320 
#    y 0.000000 3.422360 0.000000 
#    z 0.273320 0.000000 3.477430 
# 
# 
# High freq. dielectric constant tensor:
#      x y z
#    x 1.747120 0.000000 0.040240 
#    y 0.000000 1.777650 0.000000 
#    z 0.040240 0.000000 1.733580 
# 
# From -- ./inp_files/57699.got.cif
#   From: 2010.03.12/outbox.cif.g09.slc.cpg/sg14_29_cif.got.tgz:57699.got - 2010.03.31 13:35:05.
