data_PCOD8123487
_publ_section_title
;
Structure prediction by ZEFSAII (Michael W. Deem and Ramdas Pophale) SiO2 
 PCOD8123487
Probable space group: P 21/C
;
_chemical_formula_sum "Si O2"
_cell_formula_units_Z 24
_cell_length_a 11.798530
_cell_length_b 8.492325
_cell_length_c 18.344999
_cell_angle_alpha 90.000000
_cell_angle_beta 44.556648
_cell_angle_gamma 90.000000
_cell_volume 1289.645993
_symmetry_space_group_name_H-M "P 21/C"
_symmetry_group_IT_number 14
_symmetry_cell_setting 'monoclinic'
loop_
_space_group_symop_operation_xyz
x,y,z
-x,1/2+y,1/2-z
-x,-y,-z
x,1/2-y,1/2+z
loop_
_atom_site_type_symbol
_atom_site_label
_atom_site_fract_x
_atom_site_fract_y
_atom_site_fract_z
Si Si1 0.627541 0.504318 0.850956
Si Si2 0.888005 0.360239 0.633320
Si Si3 0.976245 0.406657 0.196281
Si Si4 0.093009 0.847728 0.044325
Si Si5 0.710211 0.106365 0.465748
Si Si6 0.857634 0.726942 0.255878
O O1 0.722350 0.440976 0.737299
O O2 0.658631 0.383664 0.904084
O O3 0.691097 0.680302 0.843366
O O4 0.438154 0.527001 0.921388
O O5 0.908258 0.193085 0.661277
O O6 0.866786 0.325314 0.558354
O O7 0.046274 0.467926 0.579337
O O8 0.842491 0.540516 0.278264
O O9 0.138901 0.490668 0.094449
O O10 0.004087 0.298070 0.253849
O O11 0.244922 0.779131 0.021661
O O12 0.930608 0.751634 0.141023
#
# Coordination Sequence:
#
# PCOD8123487 Si02
#       6
#     4   4   4   4   4   4
#     4   9  18  34  51  72 101 131 166 210 253 292
#     4  10  19  32  51  75 102 130 165 207 251 301
#     4  10  18  31  53  75  95 126 168 206 246 296
#     4   9  18  33  51  71  98 131 165 202 246 298
#     4   9  18  33  53  72  98 133 168 207 250 295
#     4   9  17  30  51  72  94 127 166 205 244 295
#
# _framework density 18.609756999999998
#
# number of rings (size 3 to 8) (size 9 to 14) (size 15 to 20)
#    0.000    2.667    0.000    4.000    0.000    2.667 
#    0.000    8.333    0.000   12.000    0.000    0.000 
#    0.000    0.000    0.000    0.000    0.000    0.000 
#
# Total GULP energy -297370.856974 kJ/mol
# GULP energy per Si atom -12390.452374 kJ/mol
# Density = 1.856740 g / cm^3
# Si number density = 18.609757 Si / 1000 Ang^3
#
#
#
# Elastic Constant Matrix: (Units=GPa)
#
#
# Indices 1 2 3 4 5 6 
#
# 1 56.3718 36.5716 33.5076 0.0000 -2.3254 0.0000
# 2 36.5716 113.0305 25.0421 0.0000 12.1716 0.0000
# 3 33.5076 25.0421 98.8559 0.0000 10.1227 0.0000
# 4 0.0000 0.0000 0.0000 20.7667 0.0000 4.9305
# 5 -2.3254 12.1716 10.1227 0.0000 25.9553 0.0000
# 6 0.0000 0.0000 0.0000 4.9305 0.0000 27.6268
#
#
#
# Elastic Compliance Matrix: (Units=1/GPa)
#
#
# Indices 1 2 3 4 5 6 
#
# 1 0.028762 -0.008463 -0.008620 0.000000 0.009907 0.000000
# 2 -0.008463 0.012201 0.000460 0.000000 -0.006659 0.000000
# 3 -0.008620 0.000460 0.013564 0.000000 -0.006278 0.000000
# 4 0.000000 0.000000 0.000000 0.050285 0.000000 -0.008974
# 5 0.009907 -0.006659 -0.006278 0.000000 0.044987 0.000000
# 6 0.000000 0.000000 0.000000 -0.008974 0.000000 0.037798
#
#
# Mechanical properties :
#
#
# Convention : Reuss Voigt Hill
#
# Bulk Modulus (GPa) = 46.99138 50.94452 48.96795
# Shear Modulus (GPa) = 21.93598 26.41223 24.17410
#
# Velocity S-wave (km/s) = 3.43700 3.77140 3.60808
# Velocity P-wave (km/s) = 6.40752 6.81170 6.61270
#
# Compressibility (1/GPa) = 0.02128050
#
# Stress axis : x y z
#
# Youngs Moduli (GPa) = 34.76775 81.96244 73.72596
#
# Poissons Ratio (x) = 0.69368 0.63549
# Poissons Ratio (y) = 0.29425 -0.03391
# Poissons Ratio (z) = 0.29969 -0.03769
#
# Static dielectric constant tensor:
#      x y z
#    x 3.146420 0.000000 0.044020 
#    y 0.000000 3.569480 0.000000 
#    z 0.044020 0.000000 3.482570 
# 
# 
# High freq. dielectric constant tensor:
#      x y z
#    x 1.681190 0.000000 0.006960 
#    y 0.000000 1.719950 0.000000 
#    z 0.006960 0.000000 1.725750 
# 
# From -- ./inp_files/56967.got.cif
#   From: 2010.03.12/outbox.cif.g09.slc.cpg/sg14_29_cif.got.tgz:56967.got - 2010.03.31 13:35:05.
