data_PCOD8123477
_publ_section_title
;
Structure prediction by ZEFSAII (Michael W. Deem and Ramdas Pophale) SiO2 
 PCOD8123477
Probable space group: P 21/C
;
_chemical_formula_sum "Si O2"
_cell_formula_units_Z 32
_cell_length_a 6.237363
_cell_length_b 22.918336
_cell_length_c 18.805375
_cell_angle_alpha 90.000000
_cell_angle_beta 48.388039
_cell_angle_gamma 90.000000
_cell_volume 2009.879131
_symmetry_space_group_name_H-M "P 21/C"
_symmetry_group_IT_number 14
_symmetry_cell_setting 'monoclinic'
loop_
_space_group_symop_operation_xyz
x,y,z
-x,1/2+y,1/2-z
-x,-y,-z
x,1/2-y,1/2+z
loop_
_atom_site_type_symbol
_atom_site_label
_atom_site_fract_x
_atom_site_fract_y
_atom_site_fract_z
Si Si1 0.383309 0.262485 0.948964
Si Si2 0.486724 0.842450 0.324903
Si Si3 0.920804 0.060901 0.605325
Si Si4 0.336686 0.316413 0.810127
Si Si5 0.965487 0.930712 0.584803
Si Si6 0.996183 0.766711 0.211988
Si Si7 0.105799 0.740935 0.346824
Si Si8 0.543154 0.626797 0.970771
O O1 0.284362 0.275608 0.890515
O O2 0.675580 0.224628 0.884025
O O3 0.427502 0.324971 0.975374
O O4 0.148280 0.223623 0.042558
O O5 0.385019 0.905622 0.317552
O O6 0.806883 0.823219 0.229737
O O7 0.258402 0.796666 0.346749
O O8 0.470383 0.841195 0.413437
O O9 0.034261 0.067546 0.500231
O O10 0.166800 0.088843 0.600918
O O11 0.872624 0.993545 0.636415
O O12 0.269992 0.383931 0.838273
O O13 0.127327 0.292250 0.795509
O O14 0.669637 0.312021 0.712320
O O15 0.277624 0.915559 0.548059
O O16 0.965976 0.759149 0.303124
#
# Coordination Sequence:
#
# PCOD8123477 Si02
#       8
#     4   4   4   4   4   4   4   4
#     4  11  18  30  48  67  96 130 155 195 236 283
#     4  10  18  31  46  66  93 126 162 195 231 281
#     4  10  19  29  46  66  97 131 164 196 228 287
#     4  10  20  31  47  69  97 129 160 198 233 285
#     4  10  19  30  43  69  96 131 165 191 237 282
#     4  10  20  30  47  69  93 129 160 197 243 284
#     4  10  20  32  47  68  96 127 163 196 241 287
#     4  11  17  29  47  65  97 129 156 191 234 279
#
# _framework density 15.921355999999999
#
# number of rings (size 3 to 8) (size 9 to 14) (size 15 to 20)
#    0.000    1.750    5.000    1.125    0.000    0.000 
#    0.000    0.000    0.000    0.000    0.000    0.875 
#    0.000   15.000    0.000    1.875    0.000    0.125 
#
# Total GULP energy -396691.753415 kJ/mol
# GULP energy per Si atom -12396.617294 kJ/mol
# Density = 1.588512 g / cm^3
# Si number density = 15.921356 Si / 1000 Ang^3
#
#
#
# Elastic Constant Matrix: (Units=GPa)
#
#
# Indices 1 2 3 4 5 6 
#
# 1 90.6666 36.7072 35.4046 0.0000 -5.3415 0.0000
# 2 36.7072 97.0667 40.1397 0.0000 -14.1433 0.0000
# 3 35.4046 40.1397 87.8805 0.0000 -19.9822 0.0000
# 4 0.0000 0.0000 0.0000 25.8919 0.0000 -6.5443
# 5 -5.3415 -14.1433 -19.9822 0.0000 28.9646 0.0000
# 6 0.0000 0.0000 0.0000 -6.5443 0.0000 22.7825
#
#
#
# Elastic Compliance Matrix: (Units=1/GPa)
#
#
# Indices 1 2 3 4 5 6 
#
# 1 0.014209 -0.003857 -0.004501 0.000000 -0.002368 0.000000
# 2 -0.003857 0.013917 -0.004055 0.000000 0.003286 0.000000
# 3 -0.004501 -0.004055 0.017086 0.000000 0.008977 0.000000
# 4 0.000000 0.000000 0.000000 0.041646 0.000000 0.011963
# 5 -0.002368 0.003286 0.008977 0.000000 0.041886 0.000000
# 6 0.000000 0.000000 0.000000 0.011963 0.000000 0.047330
#
#
# Mechanical properties :
#
#
# Convention : Reuss Voigt Hill
#
# Bulk Modulus (GPa) = 49.05683 55.56853 52.31268
# Shear Modulus (GPa) = 24.07371 26.41861 25.24616
#
# Velocity S-wave (km/s) = 3.89271 4.07789 3.98638
# Velocity P-wave (km/s) = 7.14725 7.55976 7.35639
#
# Compressibility (1/GPa) = 0.02038452
#
# Stress axis : x y z
#
# Youngs Moduli (GPa) = 70.37705 71.85635 58.52754
#
# Poissons Ratio (x) = 0.27716 0.26345
# Poissons Ratio (y) = 0.27145 0.23735
# Poissons Ratio (z) = 0.31678 0.29140
#
# Static dielectric constant tensor:
#      x y z
#    x 3.338300 0.000000 -0.117110 
#    y 0.000000 2.958250 0.000000 
#    z -0.117110 0.000000 2.984530 
# 
# 
# High freq. dielectric constant tensor:
#      x y z
#    x 1.639290 0.000000 -0.004830 
#    y 0.000000 1.582110 0.000000 
#    z -0.004830 0.000000 1.581130 
# 
# From -- ./inp_files/30820.got.cif
#   From: 2010.03.12/outbox.cif.g09.slc.cpg/sg14_16_cif.got.tgz:30820.got - 2010.03.31 13:35:05.
