data_PCOD8123417
_publ_section_title
;
Structure prediction by ZEFSAII (Michael W. Deem and Ramdas Pophale) SiO2 
 PCOD8123417
Probable space group: P 21/C
;
_chemical_formula_sum "Si O2"
_cell_formula_units_Z 20
_cell_length_a 7.606019
_cell_length_b 14.344746
_cell_length_c 8.933843
_cell_angle_alpha 90.000000
_cell_angle_beta 83.033168
_cell_angle_gamma 90.000000
_cell_volume 967.542587
_symmetry_space_group_name_H-M "P 21/C"
_symmetry_group_IT_number 14
_symmetry_cell_setting 'monoclinic'
loop_
_space_group_symop_operation_xyz
x,y,z
-x,1/2+y,1/2-z
-x,-y,-z
x,1/2-y,1/2+z
loop_
_atom_site_type_symbol
_atom_site_label
_atom_site_fract_x
_atom_site_fract_y
_atom_site_fract_z
Si Si1 0.008126 0.744043 0.434170
Si Si2 0.327345 0.897589 0.628078
Si Si3 0.081676 0.119651 0.310439
Si Si4 0.256527 0.691646 0.660558
Si Si5 0.389043 0.526207 0.801422
O O1 0.150516 0.684321 0.515559
O O2 0.115221 0.811499 0.311013
O O3 0.886408 0.673457 0.350520
O O4 0.888656 0.808302 0.554835
O O5 0.365625 0.788597 0.656517
O O6 0.438061 0.960719 0.734228
O O7 0.119280 0.918795 0.665574
O O8 0.398876 0.918923 0.455969
O O9 0.212028 0.034548 0.312157
O O10 0.386001 0.602786 0.668043
#
# Coordination Sequence:
#
# PCOD8123417 Si02
#       5
#     4   4   4   4   4
#     4   8  18  34  57  80 117 146 180 226 288 311
#     4   9  21  37  55  86 109 150 185 226 279 335
#     4  10  19  38  57  85 110 152 183 229 272 336
#     4  10  17  37  58  80 115 150 175 240 278 321
#     4  11  20  36  62  82 109 152 193 219 278 342
#
# _framework density 20.670925
#
# number of rings (size 3 to 8) (size 9 to 14) (size 15 to 20)
#    0.000    2.800    4.000    0.600    0.000    0.800 
#    7.200    4.000    0.000    0.000    0.000    0.000 
#    0.000    0.000    0.000    0.000    0.000    0.000 
#
# Total GULP energy -247888.902214 kJ/mol
# GULP energy per Si atom -12394.445111 kJ/mol
# Density = 2.062388 g / cm^3
# Si number density = 20.670925 Si / 1000 Ang^3
#
#
#
# Elastic Constant Matrix: (Units=GPa)
#
#
# Indices 1 2 3 4 5 6 
#
# 1 63.4946 43.9822 11.7022 0.0000 -1.9963 0.0000
# 2 43.9822 135.9508 32.2189 0.0000 6.7466 0.0000
# 3 11.7022 32.2189 82.6194 0.0000 16.5573 0.0000
# 4 0.0000 0.0000 0.0000 31.7231 0.0000 0.5103
# 5 -1.9963 6.7466 16.5573 0.0000 15.2437 0.0000
# 6 0.0000 0.0000 0.0000 0.5103 0.0000 30.7486
#
#
#
# Elastic Compliance Matrix: (Units=1/GPa)
#
#
# Indices 1 2 3 4 5 6 
#
# 1 0.021011 -0.006731 -0.001917 0.000000 0.007812 0.000000
# 2 -0.006731 0.010261 -0.002507 0.000000 -0.002700 0.000000
# 3 -0.001917 -0.002507 0.016848 0.000000 -0.017442 0.000000
# 4 0.000000 0.000000 0.000000 0.031531 0.000000 -0.000523
# 5 0.007812 -0.002700 -0.017442 0.000000 0.086763 0.000000
# 6 0.000000 0.000000 0.000000 -0.000523 0.000000 0.032530
#
#
# Mechanical properties :
#
#
# Convention : Reuss Voigt Hill
#
# Bulk Modulus (GPa) = 38.74370 50.87463 44.80916
# Shear Modulus (GPa) = 21.75257 28.48719 25.11988
#
# Velocity S-wave (km/s) = 3.24748 3.71634 3.48979
# Velocity P-wave (km/s) = 5.73108 6.56354 6.16138
#
# Compressibility (1/GPa) = 0.02581065
#
# Stress axis : x y z
#
# Youngs Moduli (GPa) = 47.59506 97.45418 59.35324
#
# Poissons Ratio (x) = 0.65593 0.11377
# Poissons Ratio (y) = 0.32035 0.14881
# Poissons Ratio (z) = 0.09123 0.24434
#
# Static dielectric constant tensor:
#      x y z
#    x 3.491620 0.000000 0.360790 
#    y 0.000000 3.842760 0.000000 
#    z 0.360790 0.000000 3.893580 
# 
# 
# High freq. dielectric constant tensor:
#      x y z
#    x 1.775800 0.000000 0.025270 
#    y 0.000000 1.810490 0.000000 
#    z 0.025270 0.000000 1.804030 
# 
# From -- ./inp_files/8179.got.cif
#   From: 2010.03.12/outbox.cif.g09.slc.cpg/sg14_5_cif.got.tgz:8179.got - 2010.03.31 13:35:05.
