data_PCOD8123273
_publ_section_title
;
Structure prediction by ZEFSAII (Michael W. Deem and Ramdas Pophale) SiO2 
 PCOD8123273
Probable space group: P 21/C
;
_chemical_formula_sum "Si O2"
_cell_formula_units_Z 32
_cell_length_a 13.267533
_cell_length_b 11.630376
_cell_length_c 16.607188
_cell_angle_alpha 90.000000
_cell_angle_beta 135.485618
_cell_angle_gamma 90.000000
_cell_volume 1796.605561
_symmetry_space_group_name_H-M "P 21/C"
_symmetry_group_IT_number 14
_symmetry_cell_setting 'monoclinic'
loop_
_space_group_symop_operation_xyz
x,y,z
-x,1/2+y,1/2-z
-x,-y,-z
x,1/2-y,1/2+z
loop_
_atom_site_type_symbol
_atom_site_label
_atom_site_fract_x
_atom_site_fract_y
_atom_site_fract_z
Si Si1 0.468446 0.312651 0.980829
Si Si2 0.185540 0.035833 0.672087
Si Si3 0.320066 0.790860 0.135303
Si Si4 0.405017 0.037818 0.195493
Si Si5 0.118308 0.900036 0.475538
Si Si6 0.371188 0.252226 0.262259
Si Si7 0.403792 0.859983 0.828751
Si Si8 0.372381 0.506189 0.033570
O O1 0.355632 0.271380 0.848816
O O2 0.583979 0.399264 0.007856
O O3 0.542010 0.198398 0.058583
O O4 0.384263 0.378481 0.003928
O O5 0.281577 0.136312 0.687184
O O6 0.051143 0.093220 0.643445
O O7 0.133373 0.954131 0.571703
O O8 0.282488 0.954152 0.784823
O O9 0.460017 0.765704 0.161145
O O10 0.341388 0.740731 0.236666
O O11 0.299375 0.928361 0.128336
O O12 0.181364 0.730637 0.014649
O O13 0.310907 0.143808 0.176798
O O14 0.470155 0.070721 0.145864
O O15 0.535218 0.013419 0.331985
O O16 0.205925 0.973139 0.459828
#
# Coordination Sequence:
#
# PCOD8123273 Si02
#       8
#     4   4   4   4   4   4   4   4
#     4  10  20  29  52  80 107 132 173 217 258 309
#     4  10  20  34  52  77 107 135 176 213 267 312
#     4  10  16  32  53  78  99 133 179 215 261 298
#     4  10  17  30  55  77 103 129 172 225 253 294
#     4  10  19  34  56  75 100 141 175 217 257 315
#     4  10  19  33  49  79 107 136 168 219 262 309
#     4  10  18  29  52  81 104 133 170 224 258 306
#     4  10  17  33  51  78 104 138 176 208 256 313
#
# _framework density 17.811364999999999
#
# number of rings (size 3 to 8) (size 9 to 14) (size 15 to 20)
#    0.000    2.000    7.500    0.000    1.750    0.500 
#    0.000    1.875    0.000    0.000    0.000    0.000 
#    0.000    0.000    0.000    0.000    0.000    0.000 
#
# Total GULP energy -396632.118360 kJ/mol
# GULP energy per Si atom -12394.753699 kJ/mol
# Density = 1.777083 g / cm^3
# Si number density = 17.811365 Si / 1000 Ang^3
#
#
#
# Elastic Constant Matrix: (Units=GPa)
#
#
# Indices 1 2 3 4 5 6 
#
# 1 71.8937 32.4861 30.1907 0.0000 13.3072 0.0000
# 2 32.4861 130.9656 36.3420 0.0000 18.2207 0.0000
# 3 30.1907 36.3420 41.2001 0.0000 9.0832 0.0000
# 4 0.0000 0.0000 0.0000 25.3393 0.0000 -2.5877
# 5 13.3072 18.2207 9.0832 0.0000 19.4710 0.0000
# 6 0.0000 0.0000 0.0000 -2.5877 0.0000 25.0599
#
#
#
# Elastic Compliance Matrix: (Units=1/GPa)
#
#
# Indices 1 2 3 4 5 6 
#
# 1 0.021188 -0.000449 -0.013410 0.000000 -0.007805 0.000000
# 2 -0.000449 0.010769 -0.007820 0.000000 -0.006122 0.000000
# 3 -0.013410 -0.007820 0.041646 0.000000 -0.002945 0.000000
# 4 0.000000 0.000000 0.000000 0.039885 0.000000 0.004119
# 5 -0.007805 -0.006122 -0.002945 0.000000 0.063796 0.000000
# 6 0.000000 0.000000 0.000000 0.004119 0.000000 0.040330
#
#
# Mechanical properties :
#
#
# Convention : Reuss Voigt Hill
#
# Bulk Modulus (GPa) = 33.06338 49.12192 41.09265
# Shear Modulus (GPa) = 18.44661 23.64339 21.04500
#
# Velocity S-wave (km/s) = 3.22167 3.64735 3.44110
# Velocity P-wave (km/s) = 5.69581 6.73620 6.23773
#
# Compressibility (1/GPa) = 0.03024494
#
# Stress axis : x y z
#
# Youngs Moduli (GPa) = 47.19625 92.86088 24.01210
#
# Poissons Ratio (x) = 0.04167 0.32199
# Poissons Ratio (y) = 0.02118 0.18778
# Poissons Ratio (z) = 0.63289 0.72621
#
# Static dielectric constant tensor:
#      x y z
#    x 3.293840 0.000000 0.033520 
#    y 0.000000 3.722850 0.000000 
#    z 0.033520 0.000000 2.999560 
# 
# 
# High freq. dielectric constant tensor:
#      x y z
#    x 1.672050 0.000000 -0.013260 
#    y 0.000000 1.706470 0.000000 
#    z -0.013260 0.000000 1.638360 
# 
# From -- ./inp_files/57573.got.cif
#   From: 2010.03.12/outbox.cif.g09.slc.cpg/sg14_29_cif.got.tgz:57573.got - 2010.03.31 13:35:05.
