data_PCOD8123088
_publ_section_title
;
Structure prediction by ZEFSAII (Michael W. Deem and Ramdas Pophale) SiO2 
 PCOD8123088
Probable space group: P 2/C
;
_chemical_formula_sum "Si O2"
_cell_formula_units_Z 12
_cell_length_a 9.280520
_cell_length_b 4.930185
_cell_length_c 16.814156
_cell_angle_alpha 90.000000
_cell_angle_beta 134.994043
_cell_angle_gamma 90.000000
_cell_volume 544.052425
_symmetry_space_group_name_H-M "P 2/C"
_symmetry_group_IT_number 13
_symmetry_cell_setting 'monoclinic'
loop_
_space_group_symop_operation_xyz
x,y,z
-x,y,1/2-z
-x,-y,-z
x,-y,1/2+z
loop_
_atom_site_type_symbol
_atom_site_label
_atom_site_fract_x
_atom_site_fract_y
_atom_site_fract_z
Si Si1 0.603260 0.120322 0.710570
Si Si2 0.987546 0.249389 0.553078
Si Si3 0.551938 0.624505 0.935504
O O1 0.500000 0.999447 0.750000
O O2 0.832919 0.225330 0.812155
O O3 0.468680 0.380300 0.634859
O O4 0.598091 0.877249 0.643683
O O5 0.000000 0.500000 0.500000
O O6 0.780592 0.259229 0.523173
O O7 0.000000 0.000000 0.500000
O O8 0.500000 0.500000 0.000000
#
# Coordination Sequence:
#
# PCOD8123088 Si02
#       3
#     4   4   4
#     4  12  23  43  74 100 137 188 240 281 347 431
#     4  12  23  41  71 103 133 184 239 285 345 427
#     4  12  26  45  67 106 146 177 230 303 355 407
#
# _framework density 22.056697
#
# number of rings (size 3 to 8) (size 9 to 14) (size 15 to 20)
#    0.000    0.000    6.667    4.000    0.000    1.333 
#    0.000    3.333    0.000    0.000    0.000    0.000 
#    0.000    0.000    0.000    0.000    0.000    0.000 
#
# Total GULP energy -148842.678303 kJ/mol
# GULP energy per Si atom -12403.556525 kJ/mol
# Density = 2.200649 g / cm^3
# Si number density = 22.056697 Si / 1000 Ang^3
#
#
#
# Elastic Constant Matrix: (Units=GPa)
#
#
# Indices 1 2 3 4 5 6 
#
# 1 146.2299 50.3913 75.9413 0.0000 11.2694 0.0000
# 2 50.3913 173.3236 68.0581 0.0000 7.2671 0.0000
# 3 75.9413 68.0581 146.4976 0.0000 18.3236 0.0000
# 4 0.0000 0.0000 0.0000 57.0522 0.0000 -8.7109
# 5 11.2694 7.2671 18.3236 0.0000 22.9964 0.0000
# 6 0.0000 0.0000 0.0000 -8.7109 0.0000 38.5133
#
#
#
# Elastic Compliance Matrix: (Units=1/GPa)
#
#
# Indices 1 2 3 4 5 6 
#
# 1 0.009517 -0.001023 -0.004349 0.000000 -0.000875 0.000000
# 2 -0.001023 0.007170 -0.002866 0.000000 0.000519 0.000000
# 3 -0.004349 -0.002866 0.011142 0.000000 -0.005842 0.000000
# 4 0.000000 0.000000 0.000000 0.018155 0.000000 0.004106
# 5 -0.000875 0.000519 -0.005842 0.000000 0.048405 0.000000
# 6 0.000000 0.000000 0.000000 0.004106 0.000000 0.026894
#
#
# Mechanical properties :
#
#
# Convention : Reuss Voigt Hill
#
# Bulk Modulus (GPa) = 88.06600 94.98137 91.52369
# Shear Modulus (GPa) = 35.32503 41.82307 38.57405
#
# Velocity S-wave (km/s) = 4.00629 4.35922 4.18647
# Velocity P-wave (km/s) = 7.83672 8.27604 8.05938
#
# Compressibility (1/GPa) = 0.01135512
#
# Stress axis : x y z
#
# Youngs Moduli (GPa) = 105.07699 139.46083 89.74682
#
# Poissons Ratio (x) = 0.14261 0.39029
# Poissons Ratio (y) = 0.10745 0.25721
# Poissons Ratio (z) = 0.45696 0.39969
#
# Static dielectric constant tensor:
#      x y z
#    x 3.804500 0.000000 0.255750 
#    y 0.000000 4.321900 0.000000 
#    z 0.255750 0.000000 4.121640 
# 
# 
# High freq. dielectric constant tensor:
#      x y z
#    x 1.852270 0.000000 0.010850 
#    y 0.000000 1.893950 0.000000 
#    z 0.010850 0.000000 1.876480 
# 
# From -- ./inp_files/30969.got.cif
#   From: 2010.06.25/outbox.cif.g09.slc.cpg/sg13_16_cif.got.tgz:30969.got - 2010.06.28 04:50:58.
