data_PCOD8123353
_publ_section_title
;
Structure prediction by ZEFSAII (Michael W. Deem and Ramdas Pophale) SiO2 
 PCOD8123353
Probable space group: P 21/C
;
_chemical_formula_sum "Si O2"
_cell_formula_units_Z 28
_cell_length_a 8.135729
_cell_length_b 18.625047
_cell_length_c 19.392834
_cell_angle_alpha 90.000000
_cell_angle_beta 30.767110
_cell_angle_gamma 90.000000
_cell_volume 1503.221467
_symmetry_space_group_name_H-M "P 21/C"
_symmetry_group_IT_number 14
_symmetry_cell_setting 'monoclinic'
loop_
_space_group_symop_operation_xyz
x,y,z
-x,1/2+y,1/2-z
-x,-y,-z
x,1/2-y,1/2+z
loop_
_atom_site_type_symbol
_atom_site_label
_atom_site_fract_x
_atom_site_fract_y
_atom_site_fract_z
Si Si1 0.417176 0.773703 0.698274
Si Si2 0.066878 0.710546 0.468441
Si Si3 0.491928 0.778341 0.945635
Si Si4 0.922112 0.315135 0.285932
Si Si5 0.994489 0.105939 0.194757
Si Si6 0.167703 0.437810 0.481104
Si Si7 0.255956 0.973438 0.147514
O O1 0.209747 0.776900 0.841851
O O2 0.320918 0.702558 0.689469
O O3 0.323871 0.844303 0.685851
O O4 0.796840 0.772295 0.577648
O O5 0.354669 0.712842 0.418691
O O6 0.880421 0.635238 0.544321
O O7 0.718201 0.708308 0.863820
O O8 0.690825 0.846980 0.900808
O O9 0.195931 0.768820 0.105178
O O10 0.924883 0.399146 0.304480
O O11 0.010610 0.073079 0.112524
O O12 0.991787 0.037958 0.248996
O O13 0.542256 0.460485 0.354988
O O14 0.000000 0.500000 0.500000
O O15 0.500000 0.000000 0.000000
#
# Coordination Sequence:
#
# PCOD8123353 Si02
#       7
#     4   4   4   4   4   4   4
#     4  10  20  38  56  82 119 153 196 239 302 339
#     4  11  21  35  55  86 116 149 190 243 291 344
#     4  11  21  35  57  87 115 153 198 238 287 351
#     4  11  20  36  59  82 115 155 192 241 288 351
#     4   9  19  33  54  79 115 150 185 246 284 341
#     4  10  18  29  52  85 113 140 182 247 288 326
#     4  10  17  33  54  84 110 145 196 240 285 334
#
# _framework density 18.626664000000002
#
# number of rings (size 3 to 8) (size 9 to 14) (size 15 to 20)
#    0.000    1.714    4.286    3.429    2.000    0.000 
#    0.000    0.000    0.000    8.571    0.000    0.000 
#    0.000    0.000    0.000    0.000    0.000    0.000 
#
# Total GULP energy -346976.088401 kJ/mol
# GULP energy per Si atom -12392.003157 kJ/mol
# Density = 1.858427 g / cm^3
# Si number density = 18.626664 Si / 1000 Ang^3
#
#
#
# Elastic Constant Matrix: (Units=GPa)
#
#
# Indices 1 2 3 4 5 6 
#
# 1 89.7903 41.6281 14.8030 0.0000 -15.3117 0.0000
# 2 41.6281 122.2114 42.2326 0.0000 -9.0616 0.0000
# 3 14.8030 42.2326 61.3679 0.0000 -7.8477 0.0000
# 4 0.0000 0.0000 0.0000 23.7375 0.0000 -4.8133
# 5 -15.3117 -9.0616 -7.8477 0.0000 24.8245 0.0000
# 6 0.0000 0.0000 0.0000 -4.8133 0.0000 36.4187
#
#
#
# Elastic Compliance Matrix: (Units=1/GPa)
#
#
# Indices 1 2 3 4 5 6 
#
# 1 0.014422 -0.004576 0.000619 0.000000 0.007421 0.000000
# 2 -0.004576 0.012253 -0.007417 0.000000 -0.000695 0.000000
# 3 0.000619 -0.007417 0.021836 0.000000 0.004577 0.000000
# 4 0.000000 0.000000 0.000000 0.043288 0.000000 0.005721
# 5 0.007421 -0.000695 0.004577 0.000000 0.046053 0.000000
# 6 0.000000 0.000000 0.000000 0.005721 0.000000 0.028215
#
#
# Mechanical properties :
#
#
# Convention : Reuss Voigt Hill
#
# Bulk Modulus (GPa) = 38.81639 52.29966 45.55802
# Shear Modulus (GPa) = 25.32904 28.64320 26.98612
#
# Velocity S-wave (km/s) = 3.69158 3.92567 3.81043
# Velocity P-wave (km/s) = 6.24938 6.97758 6.62350
#
# Compressibility (1/GPa) = 0.02576232
#
# Stress axis : x y z
#
# Youngs Moduli (GPa) = 69.33835 81.61246 45.79678
#
# Poissons Ratio (x) = 0.37349 -0.02837
# Poissons Ratio (y) = 0.31732 0.33969
# Poissons Ratio (z) = -0.04295 0.60535
#
# Static dielectric constant tensor:
#      x y z
#    x 3.568430 0.000000 -0.195650 
#    y 0.000000 3.870050 0.000000 
#    z -0.195650 0.000000 3.152870 
# 
# 
# High freq. dielectric constant tensor:
#      x y z
#    x 1.731620 0.000000 -0.016140 
#    y 0.000000 1.724910 0.000000 
#    z -0.016140 0.000000 1.680030 
# 
# From -- ./inp_files/72509.got.cif
#   From: 2010.03.12/outbox.cif.g09.slc.cpg/sg14_37_cif.got.tgz:72509.got - 2010.03.31 13:35:05.
