data_PCOD8123359
_publ_section_title
;
Structure prediction by ZEFSAII (Michael W. Deem and Ramdas Pophale) SiO2 
 PCOD8123359
Probable space group: P 21/C
;
_chemical_formula_sum "Si O2"
_cell_formula_units_Z 32
_cell_length_a 16.362579
_cell_length_b 15.384901
_cell_length_c 19.022523
_cell_angle_alpha 90.000000
_cell_angle_beta 160.099008
_cell_angle_gamma 90.000000
_cell_volume 1630.042063
_symmetry_space_group_name_H-M "P 21/C"
_symmetry_group_IT_number 14
_symmetry_cell_setting 'monoclinic'
loop_
_space_group_symop_operation_xyz
x,y,z
-x,1/2+y,1/2-z
-x,-y,-z
x,1/2-y,1/2+z
loop_
_atom_site_type_symbol
_atom_site_label
_atom_site_fract_x
_atom_site_fract_y
_atom_site_fract_z
Si Si1 0.029803 0.901791 0.110399
Si Si2 0.377962 0.074012 0.694891
Si Si3 0.869453 0.503380 0.769838
Si Si4 0.474598 0.807672 0.463143
Si Si5 0.543686 0.872563 0.090967
Si Si6 0.656152 0.543967 0.207916
Si Si7 0.688695 0.899044 0.513806
Si Si8 0.870517 0.987251 0.114871
O O1 0.185073 0.814223 0.220022
O O2 0.155389 0.990319 0.185779
O O3 0.974414 0.912233 0.148457
O O4 0.785732 0.893196 0.868795
O O5 0.421725 0.137231 0.797003
O O6 0.350774 0.127644 0.599971
O O7 0.137351 0.017686 0.512046
O O8 0.604393 0.009691 0.872975
O O9 0.710211 0.415592 0.635001
O O10 0.760914 0.569074 0.738409
O O11 0.868422 0.550023 0.692575
O O12 0.560754 0.721670 0.570496
O O13 0.516332 0.895019 0.541298
O O14 0.612762 0.816715 0.500348
O O15 0.474635 0.482572 0.102719
O O16 0.964788 0.925186 0.751798
#
# Coordination Sequence:
#
# PCOD8123359 Si02
#       8
#     4   4   4   4   4   4   4   4
#     4  10  18  31  55  85 121 150 182 218 282 351
#     4  10  20  36  64  80 106 150 201 241 277 338
#     4   9  21  40  62  78 100 150 207 241 279 333
#     4  11  21  34  56  87 122 149 179 238 291 341
#     4  10  22  41  59  79 109 151 197 243 286 331
#     4  10  18  31  54  86 117 156 188 217 274 356
#     4  10  18  33  59  87 116 150 186 229 287 345
#     4  10  17  33  59  86 110 144 189 235 275 338
#
# _framework density 19.631395000000001
#
# number of rings (size 3 to 8) (size 9 to 14) (size 15 to 20)
#    0.000    2.000    3.750    1.125    0.000    1.000 
#    0.000    5.000    0.000    0.000    0.000    0.000 
#    0.000    0.000    0.000    0.000    0.000    0.000 
#
# Total GULP energy -396699.746048 kJ/mol
# GULP energy per Si atom -12396.867064 kJ/mol
# Density = 1.958671 g / cm^3
# Si number density = 19.631395 Si / 1000 Ang^3
#
#
#
# Elastic Constant Matrix: (Units=GPa)
#
#
# Indices 1 2 3 4 5 6 
#
# 1 131.1436 36.8707 32.7002 0.0000 -6.3059 0.0000
# 2 36.8707 54.8968 19.9159 0.0000 -5.4890 0.0000
# 3 32.7002 19.9159 114.0196 0.0000 4.2570 0.0000
# 4 0.0000 0.0000 0.0000 11.2034 0.0000 -6.3781
# 5 -6.3059 -5.4890 4.2570 0.0000 34.4970 0.0000
# 6 0.0000 0.0000 0.0000 -6.3781 0.0000 18.6124
#
#
#
# Elastic Compliance Matrix: (Units=1/GPa)
#
#
# Indices 1 2 3 4 5 6 
#
# 1 0.009759 -0.005782 -0.001830 0.000000 0.001090 0.000000
# 2 -0.005782 0.023312 -0.002524 0.000000 0.002964 0.000000
# 3 -0.001830 -0.002524 0.009809 0.000000 -0.001947 0.000000
# 4 0.000000 0.000000 0.000000 0.110893 0.000000 0.038001
# 5 0.001090 0.002964 -0.001947 0.000000 0.029899 0.000000
# 6 0.000000 0.000000 0.000000 0.038001 0.000000 0.066750
#
#
# Mechanical properties :
#
#
# Convention : Reuss Voigt Hill
#
# Bulk Modulus (GPa) = 44.23258 53.22597 48.72928
# Shear Modulus (GPa) = 17.97080 26.90076 22.43578
#
# Velocity S-wave (km/s) = 3.02886 3.70576 3.38428
# Velocity P-wave (km/s) = 5.90021 6.74402 6.33617
#
# Compressibility (1/GPa) = 0.02260777
#
# Stress axis : x y z
#
# Youngs Moduli (GPa) = 102.46453 42.89719 101.94974
#
# Poissons Ratio (x) = 0.24803 0.18654
# Poissons Ratio (y) = 0.59246 0.25735
# Poissons Ratio (z) = 0.18748 0.10828
#
# Static dielectric constant tensor:
#      x y z
#    x 3.911070 0.000000 -0.010440 
#    y 0.000000 2.912930 0.000000 
#    z -0.010440 0.000000 3.893260 
# 
# 
# High freq. dielectric constant tensor:
#      x y z
#    x 1.785840 0.000000 -0.000960 
#    y 0.000000 1.697010 0.000000 
#    z -0.000960 0.000000 1.783970 
# 
# From -- ./inp_files/69434.got.cif
#   From: 2010.03.12/outbox.cif.g09.slc.cpg/sg14_35_cif.got.tgz:69434.got - 2010.03.31 13:35:05.
