data_PCOD8123040
_publ_section_title
;
Structure prediction by ZEFSAII (Michael W. Deem and Ramdas Pophale) SiO2 
 PCOD8123040
Probable space group: P 2/C
;
_chemical_formula_sum "Si O2"
_cell_formula_units_Z 22
_cell_length_a 12.596493
_cell_length_b 9.020679
_cell_length_c 15.619695
_cell_angle_alpha 90.000000
_cell_angle_beta 146.995969
_cell_angle_gamma 90.000000
_cell_volume 966.756807
_symmetry_space_group_name_H-M "P 2/C"
_symmetry_group_IT_number 13
_symmetry_cell_setting 'monoclinic'
loop_
_space_group_symop_operation_xyz
x,y,z
-x,y,1/2-z
-x,-y,-z
x,-y,1/2+z
loop_
_atom_site_type_symbol
_atom_site_label
_atom_site_fract_x
_atom_site_fract_y
_atom_site_fract_z
Si Si1 0.932815 0.766278 0.059122
Si Si2 0.331753 0.161117 0.737104
Si Si3 0.000000 0.534283 0.250000
Si Si4 0.272246 0.838187 0.742023
Si Si5 0.313293 0.288798 0.438047
Si Si6 0.873876 0.913490 0.564314
O O1 0.940064 0.626610 0.126117
O O2 0.136699 0.783268 0.150181
O O3 0.877803 0.909817 0.078577
O O4 0.761859 0.752036 0.871073
O O5 0.305375 0.145214 0.616802
O O6 0.383251 0.994663 0.805626
O O7 0.496044 0.281650 0.873188
O O8 0.804769 0.441365 0.136902
O O9 0.385827 0.738447 0.888924
O O10 0.061215 0.859636 0.640654
O O11 0.164983 0.157224 0.368600
#
# Coordination Sequence:
#
# PCOD8123040 Si02
#       6
#     4   4   2   4   4   4
#     4   9  22  41  61  83 123 166 203 244 308 371
#     4   9  20  37  65  90 115 153 208 266 303 340
#     4  12  26  36  60  90 130 176 196 236 314 378
#     4   9  18  38  62  91 113 154 206 255 306 350
#     4  12  21  36  62  95 121 155 208 253 305 360
#     4   9  18  38  65  87 113 156 206 257 298 355
#
# _framework density 22.756498000000001
#
# number of rings (size 3 to 8) (size 9 to 14) (size 15 to 20)
#    0.000    2.182    1.818    3.273    5.091    1.455 
#    0.000    0.000    4.000    0.000    0.000    0.000 
#    0.000    0.000    0.000    0.000    0.000    0.000 
#
# Total GULP energy -272596.319002 kJ/mol
# GULP energy per Si atom -12390.741773 kJ/mol
# Density = 2.270470 g / cm^3
# Si number density = 22.756498 Si / 1000 Ang^3
#
#
#
# Elastic Constant Matrix: (Units=GPa)
#
#
# Indices 1 2 3 4 5 6 
#
# 1 56.9156 38.6699 14.7241 0.0000 -34.3551 0.0000
# 2 38.6699 104.4734 37.9886 0.0000 -27.2926 0.0000
# 3 14.7241 37.9886 99.9455 0.0000 -19.6787 0.0000
# 4 0.0000 0.0000 0.0000 38.1800 0.0000 -8.0547
# 5 -34.3551 -27.2926 -19.6787 0.0000 38.5159 0.0000
# 6 0.0000 0.0000 0.0000 -8.0547 0.0000 22.7108
#
#
#
# Elastic Compliance Matrix: (Units=1/GPa)
#
#
# Indices 1 2 3 4 5 6 
#
# 1 0.042932 -0.008227 0.003552 0.000000 0.034279 0.000000
# 2 -0.008227 0.014283 -0.004079 0.000000 0.000698 0.000000
# 3 0.003552 -0.004079 0.012327 0.000000 0.006576 0.000000
# 4 0.000000 0.000000 0.000000 0.028310 0.000000 0.010041
# 5 0.034279 0.000698 0.006576 0.000000 0.060394 0.000000
# 6 0.000000 0.000000 0.000000 0.010041 0.000000 0.047593
#
#
# Mechanical properties :
#
#
# Convention : Reuss Voigt Hill
#
# Bulk Modulus (GPa) = 19.21875 49.34441 34.28158
# Shear Modulus (GPa) = 20.77333 31.21147 25.99240
#
# Velocity S-wave (km/s) = 3.02462 3.70745 3.38331
# Velocity P-wave (km/s) = 4.54549 6.32911 5.50995
#
# Compressibility (1/GPa) = 0.05203251
#
# Stress axis : x y z
#
# Youngs Moduli (GPa) = 23.29248 70.01439 81.11976
#
# Poissons Ratio (x) = 0.57604 -0.28811
# Poissons Ratio (y) = 0.19164 0.33091
# Poissons Ratio (z) = -0.08273 0.28561
#
# Static dielectric constant tensor:
#      x y z
#    x 4.342490 0.000000 -0.581120 
#    y 0.000000 3.769430 0.000000 
#    z -0.581120 0.000000 4.586020 
# 
# 
# High freq. dielectric constant tensor:
#      x y z
#    x 1.901840 0.000000 -0.017570 
#    y 0.000000 1.855670 0.000000 
#    z -0.017570 0.000000 1.914450 
# 
# From -- ./inp_files/63529.got.cif
#   From: 2010.06.25/outbox.cif.g09.slc.cpg/sg13_32_cif.got.tgz:63529.got - 2010.06.28 04:50:58.
