data_PCOD8123701
_publ_section_title
;
Structure prediction by ZEFSAII (Michael W. Deem and Ramdas Pophale) SiO2 
 PCOD8123701
Probable space group: P 21/C
;
_chemical_formula_sum "Si O2"
_cell_formula_units_Z 28
_cell_length_a 15.289884
_cell_length_b 13.922247
_cell_length_c 9.178878
_cell_angle_alpha 90.000000
_cell_angle_beta 34.472094
_cell_angle_gamma 90.000000
_cell_volume 1105.918746
_symmetry_space_group_name_H-M "P 21/C"
_symmetry_group_IT_number 14
_symmetry_cell_setting 'monoclinic'
loop_
_space_group_symop_operation_xyz
x,y,z
-x,1/2+y,1/2-z
-x,-y,-z
x,1/2-y,1/2+z
loop_
_atom_site_type_symbol
_atom_site_label
_atom_site_fract_x
_atom_site_fract_y
_atom_site_fract_z
Si Si1 0.984305 0.256372 0.424503
Si Si2 0.307481 0.640715 0.580531
Si Si3 0.915030 0.925162 0.824200
Si Si4 0.475582 0.308314 0.170946
Si Si5 0.186421 0.461750 0.864902
Si Si6 0.260997 0.589983 0.323438
Si Si7 0.269603 0.236067 0.221424
O O1 0.056404 0.190640 0.189119
O O2 0.864139 0.184537 0.667867
O O3 0.896546 0.351426 0.493350
O O4 0.124232 0.285743 0.339788
O O5 0.435421 0.708245 0.475407
O O6 0.321483 0.539264 0.646865
O O7 0.335618 0.628256 0.370434
O O8 0.882774 0.931926 0.696660
O O9 0.068536 0.988412 0.639789
O O10 0.781013 0.976430 0.104847
O O11 0.603939 0.394041 0.982494
O O12 0.347328 0.316047 0.218728
O O13 0.392205 0.310660 0.439369
O O14 0.231269 0.358708 0.873912
#
# Coordination Sequence:
#
# PCOD8123701 Si02
#       7
#     4   4   4   4   4   4   4
#     4   9  20  33  60  87 109 148 199 236 276 340
#     4   9  18  38  59  85 104 154 195 233 277 343
#     4   8  15  32  56  85 109 141 197 236 277 330
#     4  11  23  36  55  82 122 148 188 224 293 351
#     4   8  16  32  58  82 108 140 196 242 272 328
#     4  10  18  35  61  79 114 153 185 235 286 334
#     4  11  22  36  54  87 115 146 185 241 279 338
#
# _framework density 25.318314000000001
#
# number of rings (size 3 to 8) (size 9 to 14) (size 15 to 20)
#    0.000    2.571    1.429    2.571    4.000    0.571 
#    0.000    6.429    0.000    3.429    0.000    0.000 
#    0.000    0.000    0.000    0.000    0.000    0.000 
#
# Total GULP energy -346909.091018 kJ/mol
# GULP energy per Si atom -12389.610393 kJ/mol
# Density = 2.526069 g / cm^3
# Si number density = 25.318314 Si / 1000 Ang^3
#
#
#
# Elastic Constant Matrix: (Units=GPa)
#
#
# Indices 1 2 3 4 5 6 
#
# 1 40.6194 6.7746 8.7830 0.0000 -12.0249 0.0000
# 2 6.7746 81.6807 -6.0289 0.0000 -20.7876 0.0000
# 3 8.7830 -6.0289 45.1716 0.0000 -21.7093 0.0000
# 4 0.0000 0.0000 0.0000 32.1240 0.0000 -0.5096
# 5 -12.0249 -20.7876 -21.7093 0.0000 34.2086 0.0000
# 6 0.0000 0.0000 0.0000 -0.5096 0.0000 17.0445
#
#
#
# Elastic Compliance Matrix: (Units=1/GPa)
#
#
# Indices 1 2 3 4 5 6 
#
# 1 0.027511 -0.000083 -0.001060 0.000000 0.008947 0.000000
# 2 -0.000083 0.017458 0.010692 0.000000 0.017365 0.000000
# 3 -0.001060 0.010692 0.038437 0.000000 0.030517 0.000000
# 4 0.000000 0.000000 0.000000 0.031144 0.000000 0.000931
# 5 0.008947 0.017365 0.030517 0.000000 0.062296 0.000000
# 6 0.000000 0.000000 0.000000 0.000931 0.000000 0.058698
#
#
# Mechanical properties :
#
#
# Convention : Reuss Voigt Hill
#
# Bulk Modulus (GPa) = 9.75581 20.72547 15.24064
# Shear Modulus (GPa) = 19.95094 27.20496 23.57795
#
# Velocity S-wave (km/s) = 2.81019 3.28154 3.05497
# Velocity P-wave (km/s) = 3.79357 4.74992 4.29842
#
# Compressibility (1/GPa) = 0.10250305
#
# Stress axis : x y z
#
# Youngs Moduli (GPa) = 36.34973 57.27998 26.01635
#
# Poissons Ratio (x) = 0.00475 0.02758
# Poissons Ratio (y) = 0.00301 -0.27816
# Poissons Ratio (z) = 0.03854 -0.61241
#
# Static dielectric constant tensor:
#      x y z
#    x 4.031520 0.000000 -0.208880 
#    y 0.000000 4.849320 0.000000 
#    z -0.208880 0.000000 5.028860 
# 
# 
# High freq. dielectric constant tensor:
#      x y z
#    x 1.956420 0.000000 -0.006600 
#    y 0.000000 2.016160 0.000000 
#    z -0.006600 0.000000 2.028380 
# 
# From -- ./inp_files/34074.got.cif
#   From: 2010.03.12/outbox.cif.g09.slc.cpg/sg14_18_cif.got.tgz:34074.got - 2010.03.31 13:35:05.
