data_PCOD8123399
_publ_section_title
;
Structure prediction by ZEFSAII (Michael W. Deem and Ramdas Pophale) SiO2 
 PCOD8123399
Probable space group: P 21/C
;
_chemical_formula_sum "Si O2"
_cell_formula_units_Z 20
_cell_length_a 7.690596
_cell_length_b 8.002705
_cell_length_c 19.135885
_cell_angle_alpha 90.000000
_cell_angle_beta 42.608639
_cell_angle_gamma 90.000000
_cell_volume 797.307143
_symmetry_space_group_name_H-M "P 21/C"
_symmetry_group_IT_number 14
_symmetry_cell_setting 'monoclinic'
loop_
_space_group_symop_operation_xyz
x,y,z
-x,1/2+y,1/2-z
-x,-y,-z
x,1/2-y,1/2+z
loop_
_atom_site_type_symbol
_atom_site_label
_atom_site_fract_x
_atom_site_fract_y
_atom_site_fract_z
Si Si1 0.204563 0.605063 0.269383
Si Si2 0.569422 0.460179 0.657059
Si Si3 0.256517 0.202986 0.440852
Si Si4 0.870577 0.746234 0.261783
Si Si5 0.941944 0.990493 0.627199
O O1 0.237715 0.624796 0.343610
O O2 0.465125 0.622825 0.149140
O O3 0.995105 0.742098 0.302861
O O4 0.091784 0.424112 0.284467
O O5 0.722015 0.594379 0.564952
O O6 0.429848 0.316121 0.651733
O O7 0.347463 0.560220 0.767926
O O8 0.132789 0.140798 0.550305
O O9 0.075936 0.144172 0.430585
O O10 0.040996 0.614672 0.165010
#
# Coordination Sequence:
#
# PCOD8123399 Si02
#       5
#     4   4   4   4   4
#     4  11  19  33  57  80 111 148 180 224 275 321
#     4   9  18  37  58  80 110 143 182 232 272 316
#     4  10  17  35  63  79 107 148 183 226 275 321
#     4  10  21  34  55  86 109 145 189 218 273 334
#     4   8  19  33  57  87 105 141 192 216 273 337
#
# _framework density 25.084434999999999
#
# number of rings (size 3 to 8) (size 9 to 14) (size 15 to 20)
#    1.200    1.200    2.000    1.200    0.000    0.800 
#    0.000    0.000    4.400   10.800    0.000    0.000 
#    0.000    0.000    0.000    0.000    0.000    0.000 
#
# Total GULP energy -247837.370311 kJ/mol
# GULP energy per Si atom -12391.868516 kJ/mol
# Density = 2.502734 g / cm^3
# Si number density = 25.084435 Si / 1000 Ang^3
#
#
#
# Elastic Constant Matrix: (Units=GPa)
#
#
# Indices 1 2 3 4 5 6 
#
# 1 144.6124 -8.9898 -2.4120 0.0000 -8.0122 0.0000
# 2 -8.9898 26.9133 -9.5025 0.0000 -8.1784 0.0000
# 3 -2.4120 -9.5025 30.1793 0.0000 6.1454 0.0000
# 4 0.0000 0.0000 0.0000 33.7807 0.0000 -2.0890
# 5 -8.0122 -8.1784 6.1454 0.0000 20.3822 0.0000
# 6 0.0000 0.0000 0.0000 -2.0890 0.0000 31.9063
#
#
#
# Elastic Compliance Matrix: (Units=1/GPa)
#
#
# Indices 1 2 3 4 5 6 
#
# 1 0.007426 0.004141 0.001028 0.000000 0.004271 0.000000
# 2 0.004141 0.048006 0.011925 0.000000 0.017295 0.000000
# 3 0.001028 0.011925 0.038265 0.000000 -0.006348 0.000000
# 4 0.000000 0.000000 0.000000 0.029723 0.000000 0.001946
# 5 0.004271 0.017295 -0.006348 0.000000 0.059595 0.000000
# 6 0.000000 0.000000 0.000000 0.001946 0.000000 0.031469
#
#
# Mechanical properties :
#
#
# Convention : Reuss Voigt Hill
#
# Bulk Modulus (GPa) = 7.81956 17.76625 12.79291
# Shear Modulus (GPa) = 22.42912 32.05447 27.24180
#
# Velocity S-wave (km/s) = 2.99347 3.57860 3.29903
# Velocity P-wave (km/s) = 3.88225 4.91662 4.42973
#
# Compressibility (1/GPa) = 0.12788439
#
# Stress axis : x y z
#
# Youngs Moduli (GPa) = 134.65716 20.83093 26.13360
#
# Poissons Ratio (x) = -0.08627 -0.02686
# Poissons Ratio (y) = -0.55767 -0.31163
# Poissons Ratio (z) = -0.13840 -0.24840
#
# Static dielectric constant tensor:
#      x y z
#    x 4.479120 0.000000 -0.017910 
#    y 0.000000 4.354800 0.000000 
#    z -0.017910 0.000000 4.093420 
# 
# 
# High freq. dielectric constant tensor:
#      x y z
#    x 1.994090 0.000000 0.004450 
#    y 0.000000 2.011880 0.000000 
#    z 0.004450 0.000000 1.959880 
# 
# From -- ./inp_files/54121.got.cif
#   From: 2010.03.12/outbox.cif.g09.slc.cpg/sg14_28_cif.got.tgz:54121.got - 2010.03.31 13:35:05.
