data_PCOD8123372
_publ_section_title
;
Structure prediction by ZEFSAII (Michael W. Deem and Ramdas Pophale) SiO2 
 PCOD8123372
Probable space group: P 21/C
;
_chemical_formula_sum "Si O2"
_cell_formula_units_Z 16
_cell_length_a 11.040570
_cell_length_b 13.981529
_cell_length_c 10.363222
_cell_angle_alpha 90.000000
_cell_angle_beta 143.467054
_cell_angle_gamma 90.000000
_cell_volume 952.282592
_symmetry_space_group_name_H-M "P 21/C"
_symmetry_group_IT_number 14
_symmetry_cell_setting 'monoclinic'
loop_
_space_group_symop_operation_xyz
x,y,z
-x,1/2+y,1/2-z
-x,-y,-z
x,1/2-y,1/2+z
loop_
_atom_site_type_symbol
_atom_site_label
_atom_site_fract_x
_atom_site_fract_y
_atom_site_fract_z
Si Si1 0.968657 0.715577 0.962604
Si Si2 0.753149 0.761296 0.527634
Si Si3 0.656843 0.577150 0.774650
Si Si4 0.600766 0.132656 0.178566
O O1 0.891852 0.774699 0.772781
O O2 0.896665 0.772042 0.030415
O O3 0.860948 0.610299 0.871658
O O4 0.210355 0.704926 0.165635
O O5 0.649069 0.863939 0.403143
O O6 0.579276 0.682716 0.397513
O O7 0.461149 0.605820 0.520581
O O8 0.660694 0.464316 0.806021
#
# Coordination Sequence:
#
# PCOD8123372 Si02
#       4
#     4   4   4   4
#     4   9  19  32  52  75 104 134 169 210 255 302
#     4   9  20  32  49  83 103 128 180 209 249 314
#     4   8  19  33  52  82  98 130 186 205 243 315
#     4  10  17  34  58  73 103 140 167 217 252 295
#
# _framework density 16.801735000000001
#
# number of rings (size 3 to 8) (size 9 to 14) (size 15 to 20)
#    1.500    1.500    0.000    0.750    3.500    0.000 
#    0.000    1.250    0.000    3.000    0.000    0.000 
#    0.000    0.000    0.000    0.000    0.000    0.000 
#
# Total GULP energy -198221.047408 kJ/mol
# GULP energy per Si atom -12388.815463 kJ/mol
# Density = 1.676349 g / cm^3
# Si number density = 16.801735 Si / 1000 Ang^3
#
#
#
# Elastic Constant Matrix: (Units=GPa)
#
#
# Indices 1 2 3 4 5 6 
#
# 1 103.3752 40.8034 48.6232 0.0000 -7.8825 0.0000
# 2 40.8034 47.2217 16.8308 0.0000 11.1391 0.0000
# 3 48.6232 16.8308 79.3957 0.0000 7.0530 0.0000
# 4 0.0000 0.0000 0.0000 22.6507 0.0000 -4.2979
# 5 -7.8825 11.1391 7.0530 0.0000 21.0074 0.0000
# 6 0.0000 0.0000 0.0000 -4.2979 0.0000 23.7192
#
#
#
# Elastic Compliance Matrix: (Units=1/GPa)
#
#
# Indices 1 2 3 4 5 6 
#
# 1 0.030638 -0.028427 -0.015561 0.000000 0.031794 0.000000
# 2 -0.028427 0.051957 0.010091 0.000000 -0.041604 0.000000
# 3 -0.015561 0.010091 0.021625 0.000000 -0.018450 0.000000
# 4 0.000000 0.000000 0.000000 0.045721 0.000000 0.008285
# 5 0.031794 -0.041604 -0.018450 0.000000 0.087787 0.000000
# 6 0.000000 0.000000 0.000000 0.008285 0.000000 0.043661
#
#
# Mechanical properties :
#
#
# Convention : Reuss Voigt Hill
#
# Bulk Modulus (GPa) = 27.45356 49.16752 38.31054
# Shear Modulus (GPa) = 13.83797 21.72447 17.78122
#
# Velocity S-wave (km/s) = 2.87296 3.59972 3.25668
# Velocity P-wave (km/s) = 5.23263 6.82673 6.08213
#
# Compressibility (1/GPa) = 0.03642514
#
# Stress axis : x y z
#
# Youngs Moduli (GPa) = 32.63973 19.24655 46.24302
#
# Poissons Ratio (x) = 0.54712 0.71959
# Poissons Ratio (y) = 0.92784 -0.46662
# Poissons Ratio (z) = 0.50791 -0.19421
#
# Static dielectric constant tensor:
#      x y z
#    x 2.904430 0.000000 -0.049060 
#    y 0.000000 2.875350 0.000000 
#    z -0.049060 0.000000 3.170640 
# 
# 
# High freq. dielectric constant tensor:
#      x y z
#    x 1.625210 0.000000 0.001560 
#    y 0.000000 1.618900 0.000000 
#    z 0.001560 0.000000 1.657640 
# 
# From -- ./inp_files/5175.got.cif
#   From: 2010.03.12/outbox.cif.g09.slc.cpg/sg14_3_cif.got.tgz:5175.got - 2010.03.31 13:35:05.
