data_PCOD8123559
_publ_section_title
;
Structure prediction by ZEFSAII (Michael W. Deem and Ramdas Pophale) SiO2 
 PCOD8123559
Probable space group: P 21/C
;
_chemical_formula_sum "Si O2"
_cell_formula_units_Z 32
_cell_length_a 21.807704
_cell_length_b 12.626456
_cell_length_c 22.349999
_cell_angle_alpha 90.000000
_cell_angle_beta 17.895631
_cell_angle_gamma 90.000000
_cell_volume 1891.075840
_symmetry_space_group_name_H-M "P 21/C"
_symmetry_group_IT_number 14
_symmetry_cell_setting 'monoclinic'
loop_
_space_group_symop_operation_xyz
x,y,z
-x,1/2+y,1/2-z
-x,-y,-z
x,1/2-y,1/2+z
loop_
_atom_site_type_symbol
_atom_site_label
_atom_site_fract_x
_atom_site_fract_y
_atom_site_fract_z
Si Si1 0.016182 0.921666 0.696765
Si Si2 0.965201 0.289014 0.386147
Si Si3 0.997927 0.233680 0.186116
Si Si4 0.051012 0.586930 0.370779
Si Si5 0.319180 0.399424 0.921616
Si Si6 0.670695 0.927206 0.449220
Si Si7 0.228400 0.599283 0.333199
Si Si8 0.247698 0.894626 0.029703
O O1 0.190867 0.002634 0.516241
O O2 0.008165 0.835053 0.651768
O O3 0.059378 0.865811 0.719490
O O4 0.809907 0.986215 0.897358
O O5 0.814701 0.303443 0.581499
O O6 0.885822 0.356949 0.403154
O O7 0.182025 0.331235 0.204314
O O8 0.812147 0.315764 0.360565
O O9 0.028385 0.190713 0.090608
O O10 0.198888 0.289761 0.024695
O O11 0.228561 0.535522 0.166849
O O12 0.132447 0.625918 0.358656
O O13 0.866186 0.507202 0.550812
O O14 0.519111 0.389019 0.697931
O O15 0.375336 0.424160 0.937654
O O16 0.464144 0.914133 0.605707
#
# Coordination Sequence:
#
# PCOD8123559 Si02
#       8
#     4   4   4   4   4   4   4   4
#     4  10  18  33  49  74 106 135 162 213 262 296
#     4  10  19  33  50  73 105 134 168 213 256 300
#     4  10  20  34  49  75 107 137 163 211 258 303
#     4  10  21  37  52  76 108 141 167 204 260 302
#     4  11  20  31  52  78 105 135 171 207 260 310
#     4  11  18  32  51  77 107 132 168 211 250 306
#     4  10  21  34  54  77 104 137 175 207 245 314
#     4  10  20  32  47  75 105 134 169 210 254 310
#
# _framework density 16.921583999999999
#
# number of rings (size 3 to 8) (size 9 to 14) (size 15 to 20)
#    0.000    1.750    6.250    1.125    0.000    4.000 
#    0.000    0.000    0.000    3.000    0.000    5.250 
#    0.000    0.000    0.000    0.000    0.000    0.000 
#
# Total GULP energy -396733.530871 kJ/mol
# GULP energy per Si atom -12397.922840 kJ/mol
# Density = 1.688307 g / cm^3
# Si number density = 16.921584 Si / 1000 Ang^3
#
#
#
# Elastic Constant Matrix: (Units=GPa)
#
#
# Indices 1 2 3 4 5 6 
#
# 1 72.3860 34.1500 18.0167 0.0000 7.4341 0.0000
# 2 34.1500 86.2270 28.4621 0.0000 7.7689 0.0000
# 3 18.0167 28.4621 105.3136 0.0000 -11.2884 0.0000
# 4 0.0000 0.0000 0.0000 19.0504 0.0000 8.2320
# 5 7.4341 7.7689 -11.2884 0.0000 22.2240 0.0000
# 6 0.0000 0.0000 0.0000 8.2320 0.0000 24.5161
#
#
#
# Elastic Compliance Matrix: (Units=1/GPa)
#
#
# Indices 1 2 3 4 5 6 
#
# 1 0.017565 -0.005888 -0.001928 0.000000 -0.004797 0.000000
# 2 -0.005888 0.015679 -0.003814 0.000000 -0.005449 0.000000
# 3 -0.001928 -0.003814 0.011705 0.000000 0.007924 0.000000
# 4 0.000000 0.000000 0.000000 0.061402 0.000000 -0.020617
# 5 -0.004797 -0.005449 0.007924 0.000000 0.052530 0.000000
# 6 0.000000 0.000000 0.000000 -0.020617 0.000000 0.047712
#
#
# Mechanical properties :
#
#
# Convention : Reuss Voigt Hill
#
# Bulk Modulus (GPa) = 46.10518 47.24267 46.67392
# Shear Modulus (GPa) = 21.08955 25.37795 23.23375
#
# Velocity S-wave (km/s) = 3.53414 3.87685 3.70945
# Velocity P-wave (km/s) = 6.63016 6.92958 6.78153
#
# Compressibility (1/GPa) = 0.02168954
#
# Stress axis : x y z
#
# Youngs Moduli (GPa) = 56.93092 63.77872 85.43055
#
# Poissons Ratio (x) = 0.37554 0.16469
# Poissons Ratio (y) = 0.33522 0.32585
# Poissons Ratio (z) = 0.10975 0.24326
#
# Static dielectric constant tensor:
#      x y z
#    x 2.980740 0.000000 0.088550 
#    y 0.000000 3.181560 0.000000 
#    z 0.088550 0.000000 3.231940 
# 
# 
# High freq. dielectric constant tensor:
#      x y z
#    x 1.624020 0.000000 0.003130 
#    y 0.000000 1.642980 0.000000 
#    z 0.003130 0.000000 1.660660 
# 
# From -- ./inp_files/69923.got.cif
#   From: 2010.03.12/outbox.cif.g09.slc.cpg/sg14_35_cif.got.tgz:69923.got - 2010.03.31 13:35:05.
