data_PCOD8123860
_publ_section_title
;
Structure prediction by ZEFSAII (Michael W. Deem and Ramdas Pophale) SiO2 
 PCOD8123860
Probable space group: P 21/C
;
_chemical_formula_sum "Si O2"
_cell_formula_units_Z 24
_cell_length_a 7.583108
_cell_length_b 8.518068
_cell_length_c 20.742561
_cell_angle_alpha 90.000000
_cell_angle_beta 57.514361
_cell_angle_gamma 90.000000
_cell_volume 1130.184224
_symmetry_space_group_name_H-M "P 21/C"
_symmetry_group_IT_number 14
_symmetry_cell_setting 'monoclinic'
loop_
_space_group_symop_operation_xyz
x,y,z
-x,1/2+y,1/2-z
-x,-y,-z
x,1/2-y,1/2+z
loop_
_atom_site_type_symbol
_atom_site_label
_atom_site_fract_x
_atom_site_fract_y
_atom_site_fract_z
Si Si1 0.226534 0.968893 0.987139
Si Si2 0.793827 0.900333 0.542796
Si Si3 0.305904 0.669276 0.295000
Si Si4 0.544637 0.195956 0.603270
Si Si5 0.379697 0.146753 0.844103
Si Si6 0.827356 0.712784 0.406465
O O1 0.285220 0.785080 0.976237
O O2 0.405084 0.046946 0.905358
O O3 0.230220 0.034945 0.059371
O O4 0.000000 0.000000 0.000000
O O5 0.799545 0.776415 0.601911
O O6 0.772929 0.814764 0.479207
O O7 0.591563 0.011639 0.590295
O O8 0.000000 0.000000 0.500000
O O9 0.432380 0.744804 0.328813
O O10 0.415100 0.748423 0.211426
O O11 0.319834 0.477458 0.298305
O O12 0.067897 0.725359 0.339427
O O13 0.308365 0.230419 0.627133
#
# Coordination Sequence:
#
# PCOD8123860 Si02
#       6
#     4   4   4   4   4   4
#     4  10  18  40  63  90 118 162 205 252 307 358
#     4  11  21  38  64  90 122 165 209 253 306 361
#     4  11  22  41  61  88 126 160 206 250 315 375
#     4  11  21  37  63  91 125 160 206 253 306 362
#     4  10  22  38  66  86 123 168 200 254 312 367
#     4  11  22  37  63  90 124 160 208 254 303 366
#
# _framework density 21.235475999999998
#
# number of rings (size 3 to 8) (size 9 to 14) (size 15 to 20)
#    0.000    1.333    5.000    3.000    0.000    0.000 
#    0.000    6.667    7.333    0.000    0.000    0.000 
#    0.000    0.000    0.000    0.000    0.000    0.000 
#
# Total GULP energy -297314.940811 kJ/mol
# GULP energy per Si atom -12388.122534 kJ/mol
# Density = 2.118714 g / cm^3
# Si number density = 21.235476 Si / 1000 Ang^3
#
#
#
# Elastic Constant Matrix: (Units=GPa)
#
#
# Indices 1 2 3 4 5 6 
#
# 1 109.5756 27.7187 29.5505 0.0000 -12.8624 0.0000
# 2 27.7187 117.4941 37.0488 0.0000 -14.7969 0.0000
# 3 29.5505 37.0488 92.9658 0.0000 -19.6361 0.0000
# 4 0.0000 0.0000 0.0000 44.6174 0.0000 -4.9351
# 5 -12.8624 -14.7969 -19.6361 0.0000 12.7330 0.0000
# 6 0.0000 0.0000 0.0000 -4.9351 0.0000 24.7626
#
#
#
# Elastic Compliance Matrix: (Units=1/GPa)
#
#
# Indices 1 2 3 4 5 6 
#
# 1 0.010647 -0.001159 -0.001387 0.000000 0.007269 0.000000
# 2 -0.001159 0.010428 -0.002188 0.000000 0.007574 0.000000
# 3 -0.001387 -0.002188 0.016665 0.000000 0.021756 0.000000
# 4 0.000000 0.000000 0.000000 0.022918 0.000000 0.004568
# 5 0.007269 0.007574 0.021756 0.000000 0.128232 0.000000
# 6 0.000000 0.000000 0.000000 0.004568 0.000000 0.041294
#
#
# Mechanical properties :
#
#
# Convention : Reuss Voigt Hill
#
# Bulk Modulus (GPa) = 35.37031 56.51906 45.94469
# Shear Modulus (GPa) = 20.07436 31.47044 25.77240
#
# Velocity S-wave (km/s) = 3.07794 3.85382 3.48753
# Velocity P-wave (km/s) = 5.41517 6.81731 6.15629
#
# Compressibility (1/GPa) = 0.02827230
#
# Stress axis : x y z
#
# Youngs Moduli (GPa) = 93.92682 95.89416 60.00752
#
# Poissons Ratio (x) = 0.11113 0.08323
# Poissons Ratio (y) = 0.10885 0.13128
# Poissons Ratio (z) = 0.13027 0.20979
#
# Static dielectric constant tensor:
#      x y z
#    x 3.405720 0.000000 -0.082970 
#    y 0.000000 -0.608810 0.000000 
#    z -0.082970 0.000000 3.936740 
# 
# 
# High freq. dielectric constant tensor:
#      x y z
#    x 1.787140 0.000000 -0.016110 
#    y 0.000000 1.856590 0.000000 
#    z -0.016110 0.000000 1.827920 
# 
# From -- ./inp_files/71888.got.cif
#   From: 2010.03.12/outbox.cif.g09.slc.cpg/sg14_36_cif.got.tgz:71888.got - 2010.03.31 13:35:05.
