data_PCOD8123164
_publ_section_title
;
Structure prediction by ZEFSAII (Michael W. Deem and Ramdas Pophale) SiO2 
 PCOD8123164
Probable space group: P 2/C
;
_chemical_formula_sum "Si O2"
_cell_formula_units_Z 28
_cell_length_a 10.230188
_cell_length_b 14.106850
_cell_length_c 8.876006
_cell_angle_alpha 90.000000
_cell_angle_beta 123.902827
_cell_angle_gamma 90.000000
_cell_volume 1063.166713
_symmetry_space_group_name_H-M "P 2/C"
_symmetry_group_IT_number 13
_symmetry_cell_setting 'monoclinic'
loop_
_space_group_symop_operation_xyz
x,y,z
-x,y,1/2-z
-x,-y,-z
x,-y,1/2+z
loop_
_atom_site_type_symbol
_atom_site_label
_atom_site_fract_x
_atom_site_fract_y
_atom_site_fract_z
Si Si1 0.169376 0.172788 0.708541
Si Si2 0.000000 0.519208 0.750000
Si Si3 0.830624 0.327212 0.291459
Si Si4 0.217865 0.154196 0.402703
Si Si5 0.782135 0.654196 0.097297
Si Si6 0.521919 0.898288 0.942323
Si Si7 0.478081 0.601712 0.057677
Si Si8 0.000000 0.019208 0.750000
O O1 0.234674 0.188011 0.584458
O O2 0.106093 0.274979 0.730850
O O3 0.306732 0.142665 0.912124
O O4 0.032555 0.091252 0.629477
O O5 0.032555 0.591252 0.629477
O O6 0.153119 0.453237 0.865927
O O7 0.893907 0.225021 0.269150
O O8 0.765326 0.311989 0.415542
O O9 0.693268 0.357335 0.087876
O O10 0.387542 0.165340 0.433857
O O11 0.153119 0.046763 0.365927
O O12 0.612458 0.665340 0.066143
O O13 0.500000 0.903734 0.750000
O O14 0.500000 0.000000 0.000000
O O15 0.500000 0.596266 0.250000
O O16 0.500000 0.500000 0.000000
#
# Coordination Sequence:
#
# PCOD8123164 Si02
#       8
#     4   2   4   4   4   4   4   2
#     4  12  27  48  75 108 147 192 243 299 361 429
#     4  12  28  46  76 104 150 194 248 292 366 424
#     4  12  27  48  75 108 147 192 243 299 361 429
#     4  12  27  48  75 108 147 192 243 299 361 429
#     4  12  27  48  75 108 147 192 243 299 361 429
#     4  12  25  46  77 109 143 187 240 300 363 428
#     4  12  25  46  77 109 143 187 240 300 363 428
#     4  12  28  46  76 104 150 194 248 292 366 424
#
# _framework density 26.336414000000001
#
# number of rings (size 3 to 8) (size 9 to 14) (size 15 to 20)
#    0.000    0.000    2.857    6.857    0.000    9.143 
#    0.000    0.000    0.000    0.000    0.000    0.000 
#    0.000    0.000    0.000    0.000    0.000    0.000 
#
# Total GULP energy -347182.113219 kJ/mol
# GULP energy per Si atom -12399.361186 kJ/mol
# Density = 2.627647 g / cm^3
# Si number density = 26.336414 Si / 1000 Ang^3
#
#
#
# Elastic Constant Matrix: (Units=GPa)
#
#
# Indices 1 2 3 4 5 6 
#
# 1 150.6720 44.3787 45.8954 0.0000 -36.9299 0.0000
# 2 44.3787 168.7463 32.4877 0.0000 -28.4710 0.0000
# 3 45.8954 32.4877 110.6227 0.0000 -59.2541 0.0000
# 4 0.0000 0.0000 0.0000 32.4191 0.0000 -5.9219
# 5 -36.9299 -28.4710 -59.2541 0.0000 60.6967 0.0000
# 6 0.0000 0.0000 0.0000 -5.9219 0.0000 32.1277
#
#
#
# Elastic Compliance Matrix: (Units=1/GPa)
#
#
# Indices 1 2 3 4 5 6 
#
# 1 0.008200 -0.001385 -0.001406 0.000000 0.002967 0.000000
# 2 -0.001385 0.006687 -0.000336 0.000000 0.001965 0.000000
# 3 -0.001406 -0.000336 0.019240 0.000000 0.017769 0.000000
# 4 0.000000 0.000000 0.000000 0.031921 0.000000 0.005884
# 5 0.002967 0.001965 0.017769 0.000000 0.036549 0.000000
# 6 0.000000 0.000000 0.000000 0.005884 0.000000 0.032210
#
#
# Mechanical properties :
#
#
# Convention : Reuss Voigt Hill
#
# Bulk Modulus (GPa) = 35.87919 75.06274 55.47096
# Shear Modulus (GPa) = 33.25498 45.53400 39.39449
#
# Velocity S-wave (km/s) = 3.55730 4.16256 3.87178
# Velocity P-wave (km/s) = 5.52499 7.18790 6.41059
#
# Compressibility (1/GPa) = 0.02787131
#
# Stress axis : x y z
#
# Youngs Moduli (GPa) = 121.94399 149.54988 51.97552
#
# Poissons Ratio (x) = 0.20718 0.07309
# Poissons Ratio (y) = 0.16894 0.01748
# Poissons Ratio (z) = 0.17148 0.05029
#
# Static dielectric constant tensor:
#      x y z
#    x 5.266000 0.000000 -0.009010 
#    y 0.000000 5.183070 0.000000 
#    z -0.009010 0.000000 4.299360 
# 
# 
# High freq. dielectric constant tensor:
#      x y z
#    x 2.082890 0.000000 -0.013240 
#    y 0.000000 2.086850 0.000000 
#    z -0.013240 0.000000 2.032590 
# 
# From -- ./inp_files/16904.got.cif
#   From: 2010.06.25/outbox.cif.g09.slc.cpg/sg13_9_cif.got.tgz:16904.got - 2010.06.28 04:50:58.
