data_PCOD8123020
_publ_section_title
;
Structure prediction by ZEFSAII (Michael W. Deem and Ramdas Pophale) SiO2 
 PCOD8123020
Probable space group: P 2/C
;
_chemical_formula_sum "Si O2"
_cell_formula_units_Z 18
_cell_length_a 7.770558
_cell_length_b 9.054756
_cell_length_c 11.004118
_cell_angle_alpha 90.000000
_cell_angle_beta 102.093739
_cell_angle_gamma 90.000000
_cell_volume 757.071602
_symmetry_space_group_name_H-M "P 2/C"
_symmetry_group_IT_number 13
_symmetry_cell_setting 'monoclinic'
loop_
_space_group_symop_operation_xyz
x,y,z
-x,y,1/2-z
-x,-y,-z
x,-y,1/2+z
loop_
_atom_site_type_symbol
_atom_site_label
_atom_site_fract_x
_atom_site_fract_y
_atom_site_fract_z
Si Si1 0.669514 0.434712 0.593261
Si Si2 0.500000 0.787358 0.250000
Si Si3 0.256369 0.100951 0.512687
Si Si4 0.683259 0.271581 0.209815
Si Si5 0.878093 0.788823 0.970616
O O1 0.500000 0.500000 0.500000
O O2 0.622875 0.313928 0.686014
O O3 0.761314 0.573274 0.672319
O O4 0.805368 0.361452 0.518930
O O5 0.617429 0.892870 0.352019
O O6 0.355457 0.160201 0.407453
O O7 0.088079 0.205211 0.513720
O O8 0.203834 0.932870 0.476594
O O9 0.500000 0.301339 0.250000
O O10 0.828798 0.204508 0.320985
#
# Coordination Sequence:
#
# PCOD8123020 Si02
#       5
#     4   2   4   4   4
#     4  12  23  46  71 106 147 190 241 299 364 438
#     4  12  24  44  72 106 138 186 248 288 366 442
#     4  11  28  47  74 108 144 196 243 306 373 428
#     4  12  24  47  76 104 143 191 242 302 364 444
#     4  11  27  50  70 107 154 187 249 307 361 442
#
# _framework density 23.775822999999999
#
# number of rings (size 3 to 8) (size 9 to 14) (size 15 to 20)
#    0.000    0.444    5.556    0.667    4.667    3.556 
#    4.000    0.000    0.000    0.000    0.000    0.000 
#    0.000    0.000    0.000    0.000    0.000    0.000 
#
# Total GULP energy -223328.935852 kJ/mol
# GULP energy per Si atom -12407.163103 kJ/mol
# Density = 2.372171 g / cm^3
# Si number density = 23.775823 Si / 1000 Ang^3
#
#
#
# Elastic Constant Matrix: (Units=GPa)
#
#
# Indices 1 2 3 4 5 6 
#
# 1 90.5434 40.2485 52.6202 0.0000 8.6744 0.0000
# 2 40.2485 100.0565 28.8710 0.0000 -13.0007 0.0000
# 3 52.6202 28.8710 133.9867 0.0000 0.4975 0.0000
# 4 0.0000 0.0000 0.0000 42.3501 0.0000 -2.2033
# 5 8.6744 -13.0007 0.4975 0.0000 38.7902 0.0000
# 6 0.0000 0.0000 0.0000 -2.2033 0.0000 40.2335
#
#
#
# Elastic Compliance Matrix: (Units=1/GPa)
#
#
# Indices 1 2 3 4 5 6 
#
# 1 0.017627 -0.006265 -0.005551 0.000000 -0.005970 0.000000
# 2 -0.006265 0.013411 -0.000451 0.000000 0.005902 0.000000
# 3 -0.005551 -0.000451 0.009737 0.000000 0.000965 0.000000
# 4 0.000000 0.000000 0.000000 0.023680 0.000000 0.001297
# 5 -0.005970 0.005902 0.000965 0.000000 0.029080 0.000000
# 6 0.000000 0.000000 0.000000 0.001297 0.000000 0.024926
#
#
# Mechanical properties :
#
#
# Convention : Reuss Voigt Hill
#
# Bulk Modulus (GPa) = 61.56871 63.11842 62.34357
# Shear Modulus (GPa) = 33.69062 37.79788 35.74425
#
# Velocity S-wave (km/s) = 3.76841 3.99151 3.88156
# Velocity P-wave (km/s) = 6.69972 6.91721 6.80933
#
# Compressibility (1/GPa) = 0.01624202
#
# Stress axis : x y z
#
# Youngs Moduli (GPa) = 56.73129 74.56300 102.70148
#
# Poissons Ratio (x) = 0.46712 0.57005
# Poissons Ratio (y) = 0.35541 0.04636
# Poissons Ratio (z) = 0.31489 0.03366
#
# Static dielectric constant tensor:
#      x y z
#    x 4.067800 0.000000 -0.028200 
#    y 0.000000 4.452800 0.000000 
#    z -0.028200 0.000000 4.584610 
# 
# 
# High freq. dielectric constant tensor:
#      x y z
#    x 1.930840 0.000000 -0.005460 
#    y 0.000000 1.954020 0.000000 
#    z -0.005460 0.000000 1.952890 
# 
# From -- ./inp_files/27675.got.cif
#   From: 2010.06.25/outbox.cif.g09.slc.cpg/sg13_14_cif.got.tgz:27675.got - 2010.06.28 04:50:58.
