data_PCOD8123768
_publ_section_title
;
Structure prediction by ZEFSAII (Michael W. Deem and Ramdas Pophale) SiO2 
 PCOD8123768
Probable space group: P 21/C
;
_chemical_formula_sum "Si O2"
_cell_formula_units_Z 32
_cell_length_a 9.205651
_cell_length_b 11.720882
_cell_length_c 29.008562
_cell_angle_alpha 90.000000
_cell_angle_beta 28.031478
_cell_angle_gamma 90.000000
_cell_volume 1470.952789
_symmetry_space_group_name_H-M "P 21/C"
_symmetry_group_IT_number 14
_symmetry_cell_setting 'monoclinic'
loop_
_space_group_symop_operation_xyz
x,y,z
-x,1/2+y,1/2-z
-x,-y,-z
x,1/2-y,1/2+z
loop_
_atom_site_type_symbol
_atom_site_label
_atom_site_fract_x
_atom_site_fract_y
_atom_site_fract_z
Si Si1 0.996227 0.870102 0.137395
Si Si2 0.837306 0.387143 0.659769
Si Si3 0.038666 0.796308 0.543893
Si Si4 0.176139 0.449838 0.814444
Si Si5 0.425688 0.892471 0.361229
Si Si6 0.055382 0.349247 0.075759
Si Si7 0.741621 0.309323 0.876051
Si Si8 0.433864 0.650776 0.170835
O O1 0.670113 0.840873 0.255144
O O2 0.026745 0.818210 0.077602
O O3 0.253622 0.812413 0.098435
O O4 0.049782 0.004794 0.114637
O O5 0.545361 0.431500 0.711672
O O6 0.736809 0.322757 0.734054
O O7 0.016344 0.288125 0.582916
O O8 0.362515 0.814592 0.424803
O O9 0.771196 0.791699 0.579948
O O10 0.980865 0.900308 0.595191
O O11 0.099428 0.585590 0.836841
O O12 0.026496 0.389063 0.812150
O O13 0.100102 0.905314 0.425921
O O14 0.547471 0.014908 0.343241
O O15 0.419458 0.374224 0.975456
O O16 0.761955 0.290403 0.815364
#
# Coordination Sequence:
#
# PCOD8123768 Si02
#       8
#     4   4   4   4   4   4   4   4
#     4  10  23  43  59  89 135 163 210 265 300 386
#     4  10  23  42  68  84 124 185 208 240 322 396
#     4  10  18  36  67  90 117 163 212 253 316 365
#     4  10  21  38  63  96 123 154 215 271 305 368
#     4  11  19  37  68  89 118 171 213 254 308 380
#     4  12  20  37  65  93 121 169 210 254 319 378
#     4  11  23  37  60  95 132 148 205 277 321 354
#     4  10  19  37  61  95 123 153 209 265 315 359
#
# _framework density 21.754605999999999
#
# number of rings (size 3 to 8) (size 9 to 14) (size 15 to 20)
#    0.000    1.500    5.000    3.750    0.000    1.500 
#    9.000    0.625    0.000    0.000    0.000    0.000 
#    0.000    0.000    0.000    0.000    0.000    0.000 
#
# Total GULP energy -396470.885097 kJ/mol
# GULP energy per Si atom -12389.715159 kJ/mol
# Density = 2.170509 g / cm^3
# Si number density = 21.754606 Si / 1000 Ang^3
#
#
#
# Elastic Constant Matrix: (Units=GPa)
#
#
# Indices 1 2 3 4 5 6 
#
# 1 110.9176 4.1695 7.2484 0.0000 -13.9731 0.0000
# 2 4.1695 76.6240 -3.8736 0.0000 -7.3471 0.0000
# 3 7.2484 -3.8736 31.2652 0.0000 7.7273 0.0000
# 4 0.0000 0.0000 0.0000 24.2790 0.0000 -1.4228
# 5 -13.9731 -7.3471 7.7273 0.0000 31.1043 0.0000
# 6 0.0000 0.0000 0.0000 -1.4228 0.0000 22.8401
#
#
#
# Elastic Compliance Matrix: (Units=1/GPa)
#
#
# Indices 1 2 3 4 5 6 
#
# 1 0.009932 -0.000215 -0.003643 0.000000 0.005316 0.000000
# 2 -0.000215 0.013383 0.001013 0.000000 0.002813 0.000000
# 3 -0.003643 0.001013 0.035478 0.000000 -0.010211 0.000000
# 4 0.000000 0.000000 0.000000 0.041339 0.000000 0.002575
# 5 0.005316 0.002813 -0.010211 0.000000 0.037739 0.000000
# 6 0.000000 0.000000 0.000000 0.002575 0.000000 0.043943
#
#
# Mechanical properties :
#
#
# Convention : Reuss Voigt Hill
#
# Bulk Modulus (GPa) = 18.83141 25.98840 22.40990
# Shear Modulus (GPa) = 24.36584 29.72885 27.04735
#
# Velocity S-wave (km/s) = 3.35032 3.70070 3.52986
# Velocity P-wave (km/s) = 4.86223 5.49840 5.19007
#
# Compressibility (1/GPa) = 0.05310277
#
# Stress axis : x y z
#
# Youngs Moduli (GPa) = 100.68950 74.71958 28.18633
#
# Poissons Ratio (x) = 0.01606 0.10268
# Poissons Ratio (y) = 0.02164 -0.02854
# Poissons Ratio (z) = 0.36681 -0.07567
#
# Static dielectric constant tensor:
#      x y z
#    x 3.974490 0.000000 0.018860 
#    y 0.000000 3.843460 0.000000 
#    z 0.018860 0.000000 3.731610 
# 
# 
# High freq. dielectric constant tensor:
#      x y z
#    x 1.846750 0.000000 0.001540 
#    y 0.000000 1.843470 0.000000 
#    z 0.001540 0.000000 1.829390 
# 
# From -- ./inp_files/79595.got.cif
#   From: 2010.03.12/outbox.cif.g09.slc.cpg/sg14_40_cif.got.tgz:79595.got - 2010.03.31 13:35:05.
