data_PCOD8123578
_publ_section_title
;
Structure prediction by ZEFSAII (Michael W. Deem and Ramdas Pophale) SiO2 
 PCOD8123578
Probable space group: P 21/C
;
_chemical_formula_sum "Si O2"
_cell_formula_units_Z 24
_cell_length_a 11.894902
_cell_length_b 11.856119
_cell_length_c 24.032523
_cell_angle_alpha 90.000000
_cell_angle_beta 160.292753
_cell_angle_gamma 90.000000
_cell_volume 1142.901532
_symmetry_space_group_name_H-M "P 21/C"
_symmetry_group_IT_number 14
_symmetry_cell_setting 'monoclinic'
loop_
_space_group_symop_operation_xyz
x,y,z
-x,1/2+y,1/2-z
-x,-y,-z
x,1/2-y,1/2+z
loop_
_atom_site_type_symbol
_atom_site_label
_atom_site_fract_x
_atom_site_fract_y
_atom_site_fract_z
Si Si1 0.382788 0.464361 0.678901
Si Si2 0.523100 0.074556 0.456189
Si Si3 0.431622 0.667983 0.638339
Si Si4 0.583179 0.920834 0.377382
Si Si5 0.996411 0.776018 0.840647
Si Si6 0.788011 0.235997 0.351801
O O1 0.568440 0.546887 0.721557
O O2 0.564911 0.480160 0.823173
O O3 0.441454 0.336736 0.686416
O O4 0.000000 0.500000 0.500000
O O5 0.182396 0.147895 0.289833
O O6 0.833556 0.162331 0.605094
O O7 0.500000 0.000000 0.500000
O O8 0.566806 0.982059 0.428483
O O9 0.740759 0.748655 0.771170
O O10 0.190494 0.717853 0.574700
O O11 0.259572 0.649976 0.497809
O O12 0.264268 0.838193 0.216612
O O13 0.914421 0.846261 0.526162
#
# Coordination Sequence:
#
# PCOD8123578 Si02
#       6
#     4   4   4   4   4   4
#     4  11  19  31  53  86 124 164 199 241 301 374
#     4  11  25  45  65  87 116 158 213 262 302 346
#     4  10  18  33  56  85 119 159 195 231 298 379
#     4  11  23  37  57  88 125 165 206 253 304 364
#     4  10  21  40  63  85 115 156 198 245 300 369
#     4  11  21  34  56  91 131 162 197 250 308 368
#
# _framework density 20.999182999999999
#
# number of rings (size 3 to 8) (size 9 to 14) (size 15 to 20)
#    0.000    1.333    0.000    9.500    0.000    1.333 
#    0.000    3.333    0.000    0.000    0.000    0.000 
#    0.000    0.000    0.000    0.000    0.000    0.000 
#
# Total GULP energy -297363.585779 kJ/mol
# GULP energy per Si atom -12390.149407 kJ/mol
# Density = 2.095139 g / cm^3
# Si number density = 20.999183 Si / 1000 Ang^3
#
#
#
# Elastic Constant Matrix: (Units=GPa)
#
#
# Indices 1 2 3 4 5 6 
#
# 1 113.9928 64.5101 43.9363 0.0000 -23.2498 0.0000
# 2 64.5101 130.9653 39.5496 0.0000 -19.7076 0.0000
# 3 43.9363 39.5496 80.6007 0.0000 -9.1154 0.0000
# 4 0.0000 0.0000 0.0000 47.2799 0.0000 -3.2325
# 5 -23.2498 -19.7076 -9.1154 0.0000 24.4083 0.0000
# 6 0.0000 0.0000 0.0000 -3.2325 0.0000 39.2431
#
#
#
# Elastic Compliance Matrix: (Units=1/GPa)
#
#
# Indices 1 2 3 4 5 6 
#
# 1 0.015090 -0.004609 -0.004970 0.000000 0.008797 0.000000
# 2 -0.004609 0.011247 -0.002585 0.000000 0.003726 0.000000
# 3 -0.004970 -0.002585 0.016301 0.000000 -0.000733 0.000000
# 4 0.000000 0.000000 0.000000 0.021270 0.000000 0.001752
# 5 0.008797 0.003726 -0.000733 0.000000 0.052084 0.000000
# 6 0.000000 0.000000 0.000000 0.001752 0.000000 0.025626
#
#
# Mechanical properties :
#
#
# Convention : Reuss Voigt Hill
#
# Bulk Modulus (GPa) = 54.60925 69.06121 61.83523
# Shear Modulus (GPa) = 29.06136 34.02379 31.54258
#
# Velocity S-wave (km/s) = 3.72415 4.02959 3.87988
# Velocity P-wave (km/s) = 6.67490 7.38980 7.04143
#
# Compressibility (1/GPa) = 0.01831192
#
# Stress axis : x y z
#
# Youngs Moduli (GPa) = 66.26817 88.91270 61.34433
#
# Poissons Ratio (x) = 0.40976 0.30486
# Poissons Ratio (y) = 0.30540 0.15859
# Poissons Ratio (z) = 0.32933 0.22986
#
# Static dielectric constant tensor:
#      x y z
#    x 3.378140 0.000000 0.083020 
#    y 0.000000 4.699360 0.000000 
#    z 0.083020 0.000000 4.134210 
# 
# 
# High freq. dielectric constant tensor:
#      x y z
#    x 1.768890 0.000000 -0.001650 
#    y 0.000000 1.846840 0.000000 
#    z -0.001650 0.000000 1.837990 
# 
# From -- ./inp_files/12375.got.cif
#   From: 2010.03.12/outbox.cif.g09.slc.cpg/sg14_7_cif.got.tgz:12375.got - 2010.03.31 13:35:05.
