data_PCOD8123407
_publ_section_title
;
Structure prediction by ZEFSAII (Michael W. Deem and Ramdas Pophale) SiO2 
 PCOD8123407
Probable space group: P 21/C
;
_chemical_formula_sum "Si O2"
_cell_formula_units_Z 28
_cell_length_a 9.528936
_cell_length_b 13.924389
_cell_length_c 12.751472
_cell_angle_alpha 90.000000
_cell_angle_beta 124.112413
_cell_angle_gamma 90.000000
_cell_volume 1400.809709
_symmetry_space_group_name_H-M "P 21/C"
_symmetry_group_IT_number 14
_symmetry_cell_setting 'monoclinic'
loop_
_space_group_symop_operation_xyz
x,y,z
-x,1/2+y,1/2-z
-x,-y,-z
x,1/2-y,1/2+z
loop_
_atom_site_type_symbol
_atom_site_label
_atom_site_fract_x
_atom_site_fract_y
_atom_site_fract_z
Si Si1 0.004659 0.353621 0.508363
Si Si2 0.779650 0.434096 0.588860
Si Si3 0.722880 0.400119 0.230094
Si Si4 0.008030 0.643757 0.027356
Si Si5 0.057380 0.517156 0.849699
Si Si6 0.354863 0.684976 0.283593
Si Si7 0.354320 0.450463 0.646684
O O1 0.887509 0.361565 0.561686
O O2 0.901349 0.384941 0.362996
O O3 0.079115 0.246758 0.524005
O O4 0.161444 0.423224 0.590127
O O5 0.669230 0.366931 0.616429
O O6 0.645257 0.496315 0.465460
O O7 0.902146 0.505120 0.704283
O O8 0.772687 0.444412 0.137071
O O9 0.624618 0.298322 0.183762
O O10 0.599882 0.474061 0.241098
O O11 0.203023 0.661749 0.140701
O O12 0.908791 0.584579 0.076586
O O13 0.996533 0.591715 0.911471
O O14 0.523023 0.641194 0.300164
#
# Coordination Sequence:
#
# PCOD8123407 Si02
#       7
#     4   4   4   4   4   4   4
#     4  10  18  36  62  88 107 147 203 239 275 340
#     4  10  18  35  63  86 108 149 193 243 280 338
#     4  10  19  37  62  81 117 156 190 237 289 341
#     4   9  21  34  57  81 122 148 192 234 286 346
#     4  10  17  36  59  85 106 157 192 234 278 341
#     4  10  22  36  56  86 121 151 185 232 306 337
#     4  11  20  37  60  89 115 145 197 247 283 340
#
# _framework density 19.988441000000002
#
# number of rings (size 3 to 8) (size 9 to 14) (size 15 to 20)
#    0.000    2.000    2.857    2.143    0.000    0.000 
#    7.714    0.714    9.429    0.000    0.000    0.000 
#    0.000    0.000    0.000    0.000    0.000    0.000 
#
# Total GULP energy -347140.945518 kJ/mol
# GULP energy per Si atom -12397.890911 kJ/mol
# Density = 1.994295 g / cm^3
# Si number density = 19.988441 Si / 1000 Ang^3
#
#
#
# Elastic Constant Matrix: (Units=GPa)
#
#
# Indices 1 2 3 4 5 6 
#
# 1 69.8674 39.0005 14.7495 0.0000 -13.0184 0.0000
# 2 39.0005 133.0502 26.2899 0.0000 -10.2856 0.0000
# 3 14.7495 26.2899 63.8068 0.0000 -21.7181 0.0000
# 4 0.0000 0.0000 0.0000 25.9461 0.0000 -1.7873
# 5 -13.0184 -10.2856 -21.7181 0.0000 25.2883 0.0000
# 6 0.0000 0.0000 0.0000 -1.7873 0.0000 40.0631
#
#
#
# Elastic Compliance Matrix: (Units=1/GPa)
#
#
# Indices 1 2 3 4 5 6 
#
# 1 0.018407 -0.004873 0.000429 0.000000 0.007862 0.000000
# 2 -0.004873 0.009479 -0.003279 0.000000 -0.001469 0.000000
# 3 0.000429 -0.003279 0.023380 0.000000 0.018966 0.000000
# 4 0.000000 0.000000 0.000000 0.038660 0.000000 0.001725
# 5 0.007862 -0.001469 0.018966 0.000000 0.059282 0.000000
# 6 0.000000 0.000000 0.000000 0.001725 0.000000 0.025038
#
#
# Mechanical properties :
#
#
# Convention : Reuss Voigt Hill
#
# Bulk Modulus (GPa) = 27.91762 47.42269 37.67015
# Shear Modulus (GPa) = 24.79770 30.70514 27.75142
#
# Velocity S-wave (km/s) = 3.52604 3.92362 3.73013
# Velocity P-wave (km/s) = 5.52942 6.65605 6.11872
#
# Compressibility (1/GPa) = 0.03581968
#
# Stress axis : x y z
#
# Youngs Moduli (GPa) = 54.32658 105.50095 42.77187
#
# Poissons Ratio (x) = 0.51406 -0.01834
# Poissons Ratio (y) = 0.26471 0.14026
# Poissons Ratio (z) = -0.02329 0.34596
#
# Static dielectric constant tensor:
#      x y z
#    x 3.282290 0.000000 -0.265500 
#    y 0.000000 3.946230 0.000000 
#    z -0.265500 0.000000 3.598750 
# 
# 
# High freq. dielectric constant tensor:
#      x y z
#    x 1.752940 0.000000 -0.026100 
#    y 0.000000 1.794610 0.000000 
#    z -0.026100 0.000000 1.770500 
# 
# From -- ./inp_files/25114.got.cif
#   From: 2010.03.12/outbox.cif.g09.slc.cpg/sg14_13_cif.got.tgz:25114.got - 2010.03.31 13:35:05.
