data_PCOD8123434
_publ_section_title
;
Structure prediction by ZEFSAII (Michael W. Deem and Ramdas Pophale) SiO2 
 PCOD8123434
Probable space group: P 21/C
;
_chemical_formula_sum "Si O2"
_cell_formula_units_Z 32
_cell_length_a 19.749261
_cell_length_b 8.702180
_cell_length_c 21.042794
_cell_angle_alpha 90.000000
_cell_angle_beta 31.519000
_cell_angle_gamma 90.000000
_cell_volume 1890.611716
_symmetry_space_group_name_H-M "P 21/C"
_symmetry_group_IT_number 14
_symmetry_cell_setting 'monoclinic'
loop_
_space_group_symop_operation_xyz
x,y,z
-x,1/2+y,1/2-z
-x,-y,-z
x,1/2-y,1/2+z
loop_
_atom_site_type_symbol
_atom_site_label
_atom_site_fract_x
_atom_site_fract_y
_atom_site_fract_z
Si Si1 0.639340 0.883749 0.324053
Si Si2 0.345690 0.899202 0.570536
Si Si3 0.842495 0.685534 0.223066
Si Si4 0.151808 0.649970 0.759249
Si Si5 0.950569 0.264221 0.535168
Si Si6 0.064300 0.334287 0.637532
Si Si7 0.133522 0.404477 0.184756
Si Si8 0.840555 0.538047 0.561267
O O1 0.488180 0.860571 0.430981
O O2 0.703660 0.732861 0.304352
O O3 0.708560 0.912390 0.201447
O O4 0.656067 0.027951 0.357762
O O5 0.274686 0.737122 0.632730
O O6 0.272566 0.009795 0.578367
O O7 0.826046 0.528597 0.275349
O O8 0.895137 0.824464 0.224654
O O9 0.950616 0.656167 0.082483
O O10 0.140415 0.666208 0.844959
O O11 0.023097 0.712156 0.829508
O O12 0.859479 0.355949 0.558042
O O13 0.031828 0.382532 0.512738
O O14 0.141804 0.231392 0.626396
O O15 0.166430 0.415968 0.507752
O O16 0.978421 0.469169 0.739014
#
# Coordination Sequence:
#
# PCOD8123434 Si02
#       8
#     4   4   4   4   4   4   4   4
#     4   9  17  31  50  71  95 132 164 195 242 294
#     4   9  18  31  49  70  97 130 163 197 242 290
#     4  10  18  28  46  73 102 126 155 199 247 296
#     4  10  18  28  46  74 103 126 152 200 249 292
#     4   9  15  27  45  73 102 121 151 196 249 294
#     4  10  19  31  49  70  94 128 161 201 246 292
#     4  10  19  32  48  69  95 124 163 200 240 294
#     4   9  15  28  50  70  95 127 160 195 244 293
#
# _framework density 16.925739
#
# number of rings (size 3 to 8) (size 9 to 14) (size 15 to 20)
#    0.000    2.500    2.500    1.125    0.000    0.500 
#    0.000    0.000    0.000    4.500    0.000    0.000 
#    0.000    0.000    0.000    0.000    0.000    0.000 
#
# Total GULP energy -396622.803070 kJ/mol
# GULP energy per Si atom -12394.462596 kJ/mol
# Density = 1.688722 g / cm^3
# Si number density = 16.925739 Si / 1000 Ang^3
#
#
#
# Elastic Constant Matrix: (Units=GPa)
#
#
# Indices 1 2 3 4 5 6 
#
# 1 58.1895 24.9699 36.4516 0.0000 -0.2165 0.0000
# 2 24.9699 86.1089 25.3762 0.0000 -6.7104 0.0000
# 3 36.4516 25.3762 87.7593 0.0000 -6.2316 0.0000
# 4 0.0000 0.0000 0.0000 14.1707 0.0000 5.1128
# 5 -0.2165 -6.7104 -6.2316 0.0000 20.3055 0.0000
# 6 0.0000 0.0000 0.0000 5.1128 0.0000 27.6007
#
#
#
# Elastic Compliance Matrix: (Units=1/GPa)
#
#
# Indices 1 2 3 4 5 6 
#
# 1 0.025089 -0.004857 -0.009314 0.000000 -0.004196 0.000000
# 2 -0.004857 0.013834 -0.001699 0.000000 0.003999 0.000000
# 3 -0.009314 -0.001699 0.016058 0.000000 0.004267 0.000000
# 4 0.000000 0.000000 0.000000 0.075622 0.000000 -0.014008
# 5 -0.004196 0.003999 0.004267 0.000000 0.051834 0.000000
# 6 0.000000 0.000000 0.000000 -0.014008 0.000000 0.038826
#
#
# Mechanical properties :
#
#
# Convention : Reuss Voigt Hill
#
# Bulk Modulus (GPa) = 43.02958 45.07257 44.05107
# Shear Modulus (GPa) = 19.17546 22.09938 20.63742
#
# Velocity S-wave (km/s) = 3.36954 3.61732 3.49562
# Velocity P-wave (km/s) = 6.37308 6.64335 6.50962
#
# Compressibility (1/GPa) = 0.02323983
#
# Stress axis : x y z
#
# Youngs Moduli (GPa) = 39.85859 72.28600 62.27518
#
# Poissons Ratio (x) = 0.35112 0.58005
# Poissons Ratio (y) = 0.19361 0.10579
# Poissons Ratio (z) = 0.37125 0.12279
#
# Static dielectric constant tensor:
#      x y z
#    x 2.974120 0.000000 0.099840 
#    y 0.000000 3.123160 0.000000 
#    z 0.099840 0.000000 3.065080 
# 
# 
# High freq. dielectric constant tensor:
#      x y z
#    x 1.618880 0.000000 0.010970 
#    y 0.000000 1.653490 0.000000 
#    z 0.010970 0.000000 1.637570 
# 
# From -- ./inp_files/66887.got.cif
#   From: 2010.03.12/outbox.cif.g09.slc.cpg/sg14_34_cif.got.tgz:66887.got - 2010.03.31 13:35:05.
