data_PCOD8123253
_publ_section_title
;
Structure prediction by ZEFSAII (Michael W. Deem and Ramdas Pophale) SiO2 
 PCOD8123253
Probable space group: P 21/C
;
_chemical_formula_sum "Si O2"
_cell_formula_units_Z 32
_cell_length_a 8.875198
_cell_length_b 8.995670
_cell_length_c 25.590092
_cell_angle_alpha 90.000000
_cell_angle_beta 60.560271
_cell_angle_gamma 90.000000
_cell_volume 1779.255607
_symmetry_space_group_name_H-M "P 21/C"
_symmetry_group_IT_number 14
_symmetry_cell_setting 'monoclinic'
loop_
_space_group_symop_operation_xyz
x,y,z
-x,1/2+y,1/2-z
-x,-y,-z
x,1/2-y,1/2+z
loop_
_atom_site_type_symbol
_atom_site_label
_atom_site_fract_x
_atom_site_fract_y
_atom_site_fract_z
Si Si1 0.405045 0.367858 0.653622
Si Si2 0.448456 0.922248 0.762090
Si Si3 0.026770 0.143595 0.926673
Si Si4 0.215536 0.631602 0.437688
Si Si5 0.791630 0.846567 0.249089
Si Si6 0.075313 0.024362 0.160239
Si Si7 0.143214 0.775450 0.344062
Si Si8 0.194867 0.112230 0.335906
O O1 0.457749 0.449434 0.698386
O O2 0.578294 0.345171 0.590117
O O3 0.308423 0.208108 0.681684
O O4 0.274351 0.472967 0.643755
O O5 0.326210 0.777032 0.787865
O O6 0.595793 0.897055 0.693190
O O7 0.338478 0.067830 0.767770
O O8 0.116849 0.301297 0.898993
O O9 0.170572 0.037362 0.928476
O O10 0.947402 0.073068 0.887804
O O11 0.870036 0.173779 0.992891
O O12 0.140993 0.739735 0.406005
O O13 0.853099 0.697675 0.209180
O O14 0.960061 0.951901 0.227443
O O15 0.011605 0.192139 0.159768
O O16 0.112552 0.949874 0.343885
#
# Coordination Sequence:
#
# PCOD8123253 Si02
#       8
#     4   4   4   4   4   4   4   4
#     4  10  18  29  53  75  93 124 164 197 236 285
#     4   9  17  31  48  70  98 126 158 195 239 294
#     4   9  19  34  51  69  98 129 164 207 241 283
#     4   9  18  34  51  71  94 128 169 204 241 282
#     4   9  19  33  47  70 103 129 154 194 243 294
#     4   9  19  34  48  70 101 130 158 195 242 290
#     4   9  18  30  48  71  98 126 157 200 244 285
#     4  10  16  27  50  73  93 125 162 197 242 286
#
# _framework density 17.985049
#
# number of rings (size 3 to 8) (size 9 to 14) (size 15 to 20)
#    0.000    2.750    0.000    4.500    0.000    4.000 
#    0.000    1.250    0.000   12.750    0.000    0.000 
#    0.000    0.000    0.000    0.000    0.000    0.000 
#
# Total GULP energy -396584.510556 kJ/mol
# GULP energy per Si atom -12393.265955 kJ/mol
# Density = 1.794411 g / cm^3
# Si number density = 17.985049 Si / 1000 Ang^3
#
#
#
# Elastic Constant Matrix: (Units=GPa)
#
#
# Indices 1 2 3 4 5 6 
#
# 1 90.7146 25.5132 34.2417 0.0000 -16.2979 0.0000
# 2 25.5132 115.9989 43.9010 0.0000 -9.5956 0.0000
# 3 34.2417 43.9010 114.9019 0.0000 -29.1638 0.0000
# 4 0.0000 0.0000 0.0000 23.7165 0.0000 -2.6017
# 5 -16.2979 -9.5956 -29.1638 0.0000 18.3340 0.0000
# 6 0.0000 0.0000 0.0000 -2.6017 0.0000 13.9059
#
#
#
# Elastic Compliance Matrix: (Units=1/GPa)
#
#
# Indices 1 2 3 4 5 6 
#
# 1 0.013629 -0.001859 -0.000877 0.000000 0.009747 0.000000
# 2 -0.001859 0.010354 -0.004102 0.000000 -0.002759 0.000000
# 3 -0.000877 -0.004102 0.016417 0.000000 0.023188 0.000000
# 4 0.000000 0.000000 0.000000 0.043048 0.000000 0.008054
# 5 0.009747 -0.002759 0.023188 0.000000 0.098649 0.000000
# 6 0.000000 0.000000 0.000000 0.008054 0.000000 0.073419
#
#
# Mechanical properties :
#
#
# Convention : Reuss Voigt Hill
#
# Bulk Modulus (GPa) = 37.42152 58.76969 48.09560
# Shear Modulus (GPa) = 17.97907 25.72191 21.85049
#
# Velocity S-wave (km/s) = 3.16518 3.78588 3.48936
# Velocity P-wave (km/s) = 5.84893 7.20128 6.56005
#
# Compressibility (1/GPa) = 0.02672259
#
# Stress axis : x y z
#
# Youngs Moduli (GPa) = 73.37440 96.58103 60.91111
#
# Poissons Ratio (x) = 0.17957 0.05343
# Poissons Ratio (y) = 0.13642 0.24987
# Poissons Ratio (z) = 0.06437 0.39620
#
# Static dielectric constant tensor:
#      x y z
#    x 3.129730 0.000000 -0.257280 
#    y 0.000000 3.315380 0.000000 
#    z -0.257280 0.000000 3.434750 
# 
# 
# High freq. dielectric constant tensor:
#      x y z
#    x 1.677570 0.000000 -0.018530 
#    y 0.000000 1.689930 0.000000 
#    z -0.018530 0.000000 1.682030 
# 
# From -- ./inp_files/76257.got.cif
#   From: 2010.03.12/outbox.cif.g09.slc.cpg/sg14_39_cif.got.tgz:76257.got - 2010.03.31 13:35:05.
