data_PCOD8123110
_publ_section_title
;
Structure prediction by ZEFSAII (Michael W. Deem and Ramdas Pophale) SiO2 
 PCOD8123110
Probable space group: P 2/C
;
_chemical_formula_sum "Si O2"
_cell_formula_units_Z 18
_cell_length_a 4.983013
_cell_length_b 10.276906
_cell_length_c 16.011658
_cell_angle_alpha 90.000000
_cell_angle_beta 67.377851
_cell_angle_gamma 90.000000
_cell_volume 756.870170
_symmetry_space_group_name_H-M "P 2/C"
_symmetry_group_IT_number 13
_symmetry_cell_setting 'monoclinic'
loop_
_space_group_symop_operation_xyz
x,y,z
-x,y,1/2-z
-x,-y,-z
x,-y,1/2+z
loop_
_atom_site_type_symbol
_atom_site_label
_atom_site_fract_x
_atom_site_fract_y
_atom_site_fract_z
Si Si1 0.000000 0.915790 0.250000
Si Si2 0.756733 0.953277 0.636508
Si Si3 0.000000 0.412134 0.250000
Si Si4 0.503863 0.791872 0.104238
Si Si5 0.305219 0.789403 0.596213
Si Si6 0.500000 0.595454 0.250000
O O1 0.835380 0.827916 0.338212
O O2 0.744117 0.003755 0.237427
O O3 0.542516 0.838008 0.635109
O O4 0.091601 0.905057 0.592070
O O5 0.711000 0.081208 0.586010
O O6 0.129078 0.325947 0.160070
O O7 0.233495 0.503923 0.263193
O O8 0.596566 0.683803 0.160129
O O9 0.531214 0.737475 0.006709
#
# Coordination Sequence:
#
# PCOD8123110 Si02
#       6
#     2   4   2   4   4   2
#     4  12  24  42  74 114 152 194 230 284 386 434
#     4  12  25  45  73 116 148 187 231 305 378 461
#     4  12  30  50  70 106 140 214 250 318 346 426
#     4  12  27  46  78 112 146 197 237 315 367 447
#     4  12  29  46  76 109 158 184 248 297 386 442
#     4  12  28  50  76  98 148 196 278 290 362 424
#
# _framework density 23.782147999999999
#
# number of rings (size 3 to 8) (size 9 to 14) (size 15 to 20)
#    0.000    0.000    4.444    4.000    6.222    1.778 
#    0.000    0.000    0.000    0.000    0.000    0.000 
#    0.000    0.000    0.000    0.000    0.000    0.000 
#
# Total GULP energy -223183.797444 kJ/mol
# GULP energy per Si atom -12399.099858 kJ/mol
# Density = 2.372802 g / cm^3
# Si number density = 23.782148 Si / 1000 Ang^3
#
#
#
# Elastic Constant Matrix: (Units=GPa)
#
#
# Indices 1 2 3 4 5 6 
#
# 1 168.2850 56.2461 46.4971 0.0000 14.3704 0.0000
# 2 56.2461 122.1748 69.5075 0.0000 8.3224 0.0000
# 3 46.4971 69.5075 188.2958 0.0000 -5.9110 0.0000
# 4 0.0000 0.0000 0.0000 -1.6652 0.0000 14.1698
# 5 14.3704 8.3224 -5.9110 0.0000 24.9172 0.0000
# 6 0.0000 0.0000 0.0000 14.1698 0.0000 46.1929
#
#
#
# Elastic Compliance Matrix: (Units=1/GPa)
#
#
# Indices 1 2 3 4 5 6 
#
# 1 0.007391 -0.002598 -0.000980 0.000000 -0.003627 0.000000
# 2 -0.002598 0.011776 -0.003810 0.000000 -0.003339 0.000000
# 3 -0.000980 -0.003810 0.007070 0.000000 0.003515 0.000000
# 4 0.000000 0.000000 0.000000 -0.166339 0.000000 0.051025
# 5 -0.003627 -0.003339 0.003515 0.000000 0.044174 0.000000
# 6 0.000000 0.000000 0.000000 0.051025 0.000000 0.005996
#
#
# Mechanical properties :
#
#
# Convention : Reuss Voigt Hill
#
# Bulk Modulus (GPa) = 87.25745 91.47300 89.36522
# Shear Modulus (GPa) = -70.09187 34.32266 -17.88461
#
# Velocity S-wave (km/s) = -5.43475 3.80308 -2.74527
# Velocity P-wave (km/s) = 1.61616 7.60467 5.25447
#
# Compressibility (1/GPa) = 0.01146034
#
# Stress axis : x y z
#
# Youngs Moduli (GPa) = 135.29641 84.91629 141.44921
#
# Poissons Ratio (x) = 0.22062 0.13861
# Poissons Ratio (y) = 0.35151 0.53897
# Poissons Ratio (z) = 0.13259 0.32356
#
# Static dielectric constant tensor:
#      x y z
#    x 4.451160 0.000000 0.110440 
#    y 0.000000 4.249300 0.000000 
#    z 0.110440 0.000000 4.344520 
# 
# 
# High freq. dielectric constant tensor:
#      x y z
#    x 1.968990 0.000000 0.002190 
#    y 0.000000 1.920440 0.000000 
#    z 0.002190 0.000000 1.951800 
# 
# From -- ./inp_files/43266.got.cif
#   From: 2010.06.25/outbox.cif.g09.slc.cpg/sg13_22_cif.got.tgz:43266.got - 2010.06.28 04:50:58.
