data_PCOD8123516
_publ_section_title
;
Structure prediction by ZEFSAII (Michael W. Deem and Ramdas Pophale) SiO2 
 PCOD8123516
Probable space group: P 21/C
;
_chemical_formula_sum "Si O2"
_cell_formula_units_Z 24
_cell_length_a 13.652044
_cell_length_b 12.668254
_cell_length_c 9.840456
_cell_angle_alpha 90.000000
_cell_angle_beta 48.077736
_cell_angle_gamma 90.000000
_cell_volume 1266.289321
_symmetry_space_group_name_H-M "P 21/C"
_symmetry_group_IT_number 14
_symmetry_cell_setting 'monoclinic'
loop_
_space_group_symop_operation_xyz
x,y,z
-x,1/2+y,1/2-z
-x,-y,-z
x,1/2-y,1/2+z
loop_
_atom_site_type_symbol
_atom_site_label
_atom_site_fract_x
_atom_site_fract_y
_atom_site_fract_z
Si Si1 0.776408 0.743033 0.495953
Si Si2 0.081709 0.347023 0.372405
Si Si3 0.627659 0.953568 0.158195
Si Si4 0.189651 0.567072 0.322171
Si Si5 0.519184 0.852367 0.760155
Si Si6 0.554296 0.329518 0.980042
O O1 0.887276 0.775314 0.286518
O O2 0.845817 0.704640 0.567552
O O3 0.686304 0.645696 0.519670
O O4 0.677774 0.840398 0.619069
O O5 0.131150 0.465934 0.297223
O O6 0.925124 0.348383 0.540418
O O7 0.556317 0.908853 0.359705
O O8 0.747455 0.028695 0.093726
O O9 0.523775 0.025808 0.170900
O O10 0.300411 0.623077 0.127621
O O11 0.469763 0.814725 0.657664
O O12 0.451433 0.781979 0.938641
#
# Coordination Sequence:
#
# PCOD8123516 Si02
#       6
#     4   4   4   4   4   4
#     4  10  19  34  52  78 104 135 174 209 255 303
#     4  10  20  33  54  74 102 139 171 206 248 313
#     4   9  18  33  55  76 103 134 170 215 255 303
#     4   9  18  34  53  74  99 139 177 199 249 315
#     4  10  18  32  52  74 100 132 168 214 259 297
#     4  10  19  32  54  78 102 130 170 219 255 296
#
# _framework density 18.953016000000002
#
# number of rings (size 3 to 8) (size 9 to 14) (size 15 to 20)
#    0.000    2.333    0.000    6.000    0.000    2.667 
#    0.000    9.167    0.000   10.000    0.000    0.000 
#    0.000    0.000    0.000    0.000    0.000    0.000 
#
# Total GULP energy -297484.402750 kJ/mol
# GULP energy per Si atom -12395.183448 kJ/mol
# Density = 1.890988 g / cm^3
# Si number density = 18.953016 Si / 1000 Ang^3
#
#
#
# Elastic Constant Matrix: (Units=GPa)
#
#
# Indices 1 2 3 4 5 6 
#
# 1 49.3435 8.9114 22.1363 0.0000 -25.6916 0.0000
# 2 8.9114 48.6341 25.3431 0.0000 -13.9038 0.0000
# 3 22.1363 25.3431 91.3369 0.0000 -16.2889 0.0000
# 4 0.0000 0.0000 0.0000 40.1699 0.0000 -10.3258
# 5 -25.6916 -13.9038 -16.2889 0.0000 31.7540 0.0000
# 6 0.0000 0.0000 0.0000 -10.3258 0.0000 29.2317
#
#
#
# Elastic Compliance Matrix: (Units=1/GPa)
#
#
# Indices 1 2 3 4 5 6 
#
# 1 0.036887 0.004118 -0.004885 0.000000 0.029142 0.000000
# 2 0.004118 0.026400 -0.006238 0.000000 0.011691 0.000000
# 3 -0.004885 -0.006238 0.013947 0.000000 0.000470 0.000000
# 4 0.000000 0.000000 0.000000 0.027380 0.000000 0.009672
# 5 0.029142 0.011691 0.000470 0.000000 0.060431 0.000000
# 6 0.000000 0.000000 0.000000 0.009672 0.000000 0.037626
#
#
# Mechanical properties :
#
#
# Convention : Reuss Voigt Hill
#
# Bulk Modulus (GPa) = 15.81690 33.56623 24.69156
# Shear Modulus (GPa) = 21.02980 29.09272 25.06126
#
# Velocity S-wave (km/s) = 3.33464 3.92215 3.64027
# Velocity P-wave (km/s) = 4.81559 6.18544 5.54299
#
# Compressibility (1/GPa) = 0.06322352
#
# Stress axis : x y z
#
# Youngs Moduli (GPa) = 27.10956 37.87840 71.69841
#
# Poissons Ratio (x) = -0.15598 0.35028
# Poissons Ratio (y) = -0.11164 0.44727
# Poissons Ratio (z) = 0.13244 0.23630
#
# Static dielectric constant tensor:
#      x y z
#    x 3.332520 0.000000 -0.313960 
#    y 0.000000 3.689660 0.000000 
#    z -0.313960 0.000000 3.391460 
# 
# 
# High freq. dielectric constant tensor:
#      x y z
#    x 1.718750 0.000000 -0.022920 
#    y 0.000000 1.735350 0.000000 
#    z -0.022920 0.000000 1.724390 
# 
# From -- ./inp_files/16142.got.cif
#   From: 2010.03.12/outbox.cif.g09.slc.cpg/sg14_9_cif.got.tgz:16142.got - 2010.03.31 13:35:05.
