data_PCOD8123043
_publ_section_title
;
Structure prediction by ZEFSAII (Michael W. Deem and Ramdas Pophale) SiO2 
 PCOD8123043
Probable space group: P 2/C
;
_chemical_formula_sum "Si O2"
_cell_formula_units_Z 20
_cell_length_a 7.692275
_cell_length_b 12.131440
_cell_length_c 15.384960
_cell_angle_alpha 90.000000
_cell_angle_beta 37.636534
_cell_angle_gamma 90.000000
_cell_volume 876.710193
_symmetry_space_group_name_H-M "P 2/C"
_symmetry_group_IT_number 13
_symmetry_cell_setting 'monoclinic'
loop_
_space_group_symop_operation_xyz
x,y,z
-x,y,1/2-z
-x,-y,-z
x,-y,1/2+z
loop_
_atom_site_type_symbol
_atom_site_label
_atom_site_fract_x
_atom_site_fract_y
_atom_site_fract_z
Si Si1 0.125284 0.235135 0.019910
Si Si2 0.306987 0.605283 0.591485
Si Si3 0.256327 0.060875 0.245489
Si Si4 0.500000 0.890435 0.250000
Si Si5 0.281814 0.772859 0.977430
Si Si6 0.000000 0.116693 0.750000
O O1 0.243560 0.340306 0.023561
O O2 0.991872 0.151491 0.144299
O O3 0.409657 0.183168 0.867201
O O4 0.907073 0.270684 0.029147
O O5 0.500000 0.500000 0.500000
O O6 0.477481 0.684855 0.590140
O O7 0.000000 0.569835 0.750000
O O8 0.237905 0.972946 0.332318
O O9 0.560933 0.119334 0.120176
O O10 0.246276 0.975183 0.168716
O O11 0.079708 0.803196 0.138537
#
# Coordination Sequence:
#
# PCOD8123043 Si02
#       6
#     4   4   4   2   4   2
#     4  12  25  46  71 108 150 195 244 302 364 440
#     4  12  30  53  80 104 139 188 256 327 383 432
#     4  12  21  41  67 106 156 199 241 282 356 445
#     4  12  22  38  70 110 156 196 232 278 350 456
#     4  12  25  46  73 105 153 194 251 301 365 447
#     4  12  24  38  68 112 152 206 242 288 356 446
#
# _framework density 22.812556000000001
#
# number of rings (size 3 to 8) (size 9 to 14) (size 15 to 20)
#    0.000    0.000    6.000    4.800    1.400    0.800 
#    0.000    0.000    0.000    0.000    0.000    0.000 
#    0.000    0.000    0.000    0.000    0.000    0.000 
#
# Total GULP energy -247764.843922 kJ/mol
# GULP energy per Si atom -12388.242196 kJ/mol
# Density = 2.276063 g / cm^3
# Si number density = 22.812556 Si / 1000 Ang^3
#
#
#
# Elastic Constant Matrix: (Units=GPa)
#
#
# Indices 1 2 3 4 5 6 
#
# 1 143.0076 70.4052 19.6244 0.0000 -10.2185 0.0000
# 2 70.4052 120.9968 55.6095 0.0000 -10.1747 0.0000
# 3 19.6244 55.6095 113.1420 0.0000 -10.6807 0.0000
# 4 0.0000 0.0000 0.0000 18.1891 0.0000 -1.7562
# 5 -10.2185 -10.1747 -10.6807 0.0000 31.7678 0.0000
# 6 0.0000 0.0000 0.0000 -1.7562 0.0000 40.1176
#
#
#
# Elastic Compliance Matrix: (Units=1/GPa)
#
#
# Indices 1 2 3 4 5 6 
#
# 1 0.010069 -0.006442 0.001581 0.000000 0.001707 0.000000
# 2 -0.006442 0.014889 -0.006141 0.000000 0.000632 0.000000
# 3 0.001581 -0.006141 0.011820 0.000000 0.002516 0.000000
# 4 0.000000 0.000000 0.000000 0.055211 0.000000 0.002417
# 5 0.001707 0.000632 0.002516 0.000000 0.033076 0.000000
# 6 0.000000 0.000000 0.000000 0.002417 0.000000 0.025033
#
#
# Mechanical properties :
#
#
# Convention : Reuss Voigt Hill
#
# Bulk Modulus (GPa) = 67.68673 74.26942 70.97808
# Shear Modulus (GPa) = 28.24450 33.44872 30.84661
#
# Velocity S-wave (km/s) = 3.52250 3.83331 3.68118
# Velocity P-wave (km/s) = 6.80288 7.22630 7.01779
#
# Compressibility (1/GPa) = 0.01477394
#
# Stress axis : x y z
#
# Youngs Moduli (GPa) = 99.31249 67.16563 84.60299
#
# Poissons Ratio (x) = 0.43269 -0.13375
# Poissons Ratio (y) = 0.63978 0.51953
# Poissons Ratio (z) = -0.15701 0.41245
#
# Static dielectric constant tensor:
#      x y z
#    x 4.851530 0.000000 -0.057910 
#    y 0.000000 3.902520 0.000000 
#    z -0.057910 0.000000 4.029910 
# 
# 
# High freq. dielectric constant tensor:
#      x y z
#    x 1.925150 0.000000 -0.004670 
#    y 0.000000 1.875140 0.000000 
#    z -0.004670 0.000000 1.901510 
# 
# From -- ./inp_files/34052.got.cif
#   From: 2010.06.25/outbox.cif.g09.slc.cpg/sg13_18_cif.got.tgz:34052.got - 2010.06.28 04:50:58.
