data_PCOD8123569
_publ_section_title
;
Structure prediction by ZEFSAII (Michael W. Deem and Ramdas Pophale) SiO2 
 PCOD8123569
Probable space group: P 21/C
;
_chemical_formula_sum "Si O2"
_cell_formula_units_Z 32
_cell_length_a 26.180197
_cell_length_b 9.020114
_cell_length_c 20.652767
_cell_angle_alpha 90.000000
_cell_angle_beta 21.160772
_cell_angle_gamma 90.000000
_cell_volume 1760.571782
_symmetry_space_group_name_H-M "P 21/C"
_symmetry_group_IT_number 14
_symmetry_cell_setting 'monoclinic'
loop_
_space_group_symop_operation_xyz
x,y,z
-x,1/2+y,1/2-z
-x,-y,-z
x,1/2-y,1/2+z
loop_
_atom_site_type_symbol
_atom_site_label
_atom_site_fract_x
_atom_site_fract_y
_atom_site_fract_z
Si Si1 0.859494 0.418434 0.691426
Si Si2 0.691258 0.623668 0.478086
Si Si3 0.583104 0.469334 0.723739
Si Si4 0.723594 0.550510 0.969859
Si Si5 0.850570 0.431173 0.186407
Si Si6 0.566572 0.086278 0.479148
Si Si7 0.368901 0.896136 0.157992
Si Si8 0.374109 0.856874 0.301325
O O1 0.830622 0.451861 0.800994
O O2 0.871218 0.243095 0.672422
O O3 0.721690 0.478339 0.814877
O O4 0.000000 0.500000 0.500000
O O5 0.684001 0.563168 0.559115
O O6 0.770119 0.779700 0.400476
O O7 0.784580 0.510951 0.326477
O O8 0.541902 0.630171 0.616489
O O9 0.663961 0.314195 0.639329
O O10 0.438392 0.446275 0.857706
O O11 0.548119 0.566671 0.828368
O O12 0.720083 0.476016 0.046113
O O13 0.763099 0.465423 0.224338
O O14 0.000000 0.500000 0.000000
O O15 0.582202 0.254390 0.440381
O O16 0.500000 0.000000 0.500000
O O17 0.330365 0.874165 0.278316
O O18 0.500000 0.000000 0.000000
#
# Coordination Sequence:
#
# PCOD8123569 Si02
#       8
#     4   4   4   4   4   4   4   4
#     4  10  21  37  59  82 109 149 191 233 279 338
#     4  10  19  33  55  82 112 148 187 231 279 335
#     4   9  18  31  53  82 115 145 182 231 282 331
#     4   9  19  31  55  83 110 146 190 229 277 337
#     4  11  23  38  58  81 114 150 193 233 278 345
#     4  10  20  35  56  88 115 145 183 232 284 337
#     4  11  22  34  58  86 118 147 185 234 287 332
#     4  10  18  33  54  83 117 146 181 235 284 332
#
# _framework density 18.175913999999999
#
# number of rings (size 3 to 8) (size 9 to 14) (size 15 to 20)
#    0.000    2.000    2.500    1.500    1.750    4.000 
#    0.000    0.000    2.750    0.000    0.000    0.000 
#    0.000    0.000    0.000    0.000    0.000    0.000 
#
# Total GULP energy -396440.420753 kJ/mol
# GULP energy per Si atom -12388.763149 kJ/mol
# Density = 1.813454 g / cm^3
# Si number density = 18.175914 Si / 1000 Ang^3
#
#
#
# Elastic Constant Matrix: (Units=GPa)
#
#
# Indices 1 2 3 4 5 6 
#
# 1 122.1351 54.5052 58.5195 0.0000 24.7109 0.0000
# 2 54.5052 101.1988 52.3825 0.0000 6.3479 0.0000
# 3 58.5195 52.3825 100.1769 0.0000 10.6742 0.0000
# 4 0.0000 0.0000 0.0000 35.1396 0.0000 8.9505
# 5 24.7109 6.3479 10.6742 0.0000 28.7869 0.0000
# 6 0.0000 0.0000 0.0000 8.9505 0.0000 31.6355
#
#
#
# Elastic Compliance Matrix: (Units=1/GPa)
#
#
# Indices 1 2 3 4 5 6 
#
# 1 0.014665 -0.004649 -0.005105 0.000000 -0.009670 0.000000
# 2 -0.004649 0.015027 -0.005428 0.000000 0.002690 0.000000
# 3 -0.005105 -0.005428 0.015834 0.000000 -0.000292 0.000000
# 4 0.000000 0.000000 0.000000 0.030668 0.000000 -0.008677
# 5 -0.009670 0.002690 -0.000292 0.000000 0.042554 0.000000
# 6 0.000000 0.000000 0.000000 -0.008677 0.000000 0.034065
#
#
# Mechanical properties :
#
#
# Convention : Reuss Voigt Hill
#
# Bulk Modulus (GPa) = 65.96117 72.70280 69.33199
# Shear Modulus (GPa) = 26.56294 29.65264 28.10779
#
# Velocity S-wave (km/s) = 3.82702 4.04347 3.93673
# Velocity P-wave (km/s) = 7.47645 7.86676 7.67409
#
# Compressibility (1/GPa) = 0.01516043
#
# Stress axis : x y z
#
# Youngs Moduli (GPa) = 68.18843 66.54858 63.15492
#
# Poissons Ratio (x) = 0.30941 0.32242
# Poissons Ratio (y) = 0.31704 0.34281
# Poissons Ratio (z) = 0.34812 0.36123
#
# Static dielectric constant tensor:
#      x y z
#    x 6.312750 0.000000 1.791040 
#    y 0.000000 3.582100 0.000000 
#    z 1.791040 0.000000 4.041000 
# 
# 
# High freq. dielectric constant tensor:
#      x y z
#    x 1.697070 0.000000 0.025900 
#    y 0.000000 1.719530 0.000000 
#    z 0.025900 0.000000 1.684740 
# 
# From -- ./inp_files/70479.got.cif
#   From: 2010.03.12/outbox.cif.g09.slc.cpg/sg14_36_cif.got.tgz:70479.got - 2010.03.31 13:35:05.
