data_PCOD8123771
_publ_section_title
;
Structure prediction by ZEFSAII (Michael W. Deem and Ramdas Pophale) SiO2 
 PCOD8123771
Probable space group: P 21/C
;
_chemical_formula_sum "Si O2"
_cell_formula_units_Z 28
_cell_length_a 7.566020
_cell_length_b 7.214249
_cell_length_c 27.289594
_cell_angle_alpha 90.000000
_cell_angle_beta 115.518194
_cell_angle_gamma 90.000000
_cell_volume 1344.244073
_symmetry_space_group_name_H-M "P 21/C"
_symmetry_group_IT_number 14
_symmetry_cell_setting 'monoclinic'
loop_
_space_group_symop_operation_xyz
x,y,z
-x,1/2+y,1/2-z
-x,-y,-z
x,1/2-y,1/2+z
loop_
_atom_site_type_symbol
_atom_site_label
_atom_site_fract_x
_atom_site_fract_y
_atom_site_fract_z
Si Si1 0.569820 0.395611 0.868838
Si Si2 0.193077 0.259596 0.107794
Si Si3 0.241448 0.829805 0.757086
Si Si4 0.207580 0.914764 0.435172
Si Si5 0.157607 0.522223 0.818290
Si Si6 0.624895 0.866638 0.463001
Si Si7 0.634974 0.059245 0.814638
O O1 0.705815 0.552451 0.858234
O O2 0.344895 0.402892 0.823266
O O3 0.586478 0.436552 0.929198
O O4 0.640252 0.193155 0.862394
O O5 0.293952 0.216160 0.066493
O O6 0.964621 0.280242 0.067578
O O7 0.218684 0.104368 0.152140
O O8 0.204994 0.730551 0.804977
O O9 0.280801 0.667457 0.722094
O O10 0.421132 0.973224 0.779218
O O11 0.044681 0.944683 0.725645
O O12 0.142532 0.986362 0.374696
O O13 0.413547 0.802455 0.458459
O O14 0.225796 0.089455 0.474900
#
# Coordination Sequence:
#
# PCOD8123771 Si02
#       7
#     4   4   4   4   4   4   4
#     4   9  20  42  62  93 126 159 209 270 314 390
#     4  10  21  39  66  93 126 166 208 265 322 383
#     4  12  26  39  65  90 131 176 222 273 324 386
#     4  10  18  36  69  90 127 170 207 261 325 393
#     4  11  23  41  61  92 125 171 217 266 322 380
#     4   8  19  38  65  97 124 167 209 255 336 385
#     4  12  24  42  63  93 127 169 218 266 323 384
#
# _framework density 20.829550000000001
#
# number of rings (size 3 to 8) (size 9 to 14) (size 15 to 20)
#    0.857    0.857    1.429    3.000    4.000    0.000 
#    2.571    0.714    0.000    5.143    0.000    0.000 
#    0.000    0.000    0.000    0.000    0.000    0.000 
#
# Total GULP energy -346867.373707 kJ/mol
# GULP energy per Si atom -12388.120490 kJ/mol
# Density = 2.078214 g / cm^3
# Si number density = 20.829550 Si / 1000 Ang^3
#
#
#
# Elastic Constant Matrix: (Units=GPa)
#
#
# Indices 1 2 3 4 5 6 
#
# 1 107.5352 26.5695 17.2696 0.0000 14.7993 0.0000
# 2 26.5695 62.5665 6.8894 0.0000 -0.9471 0.0000
# 3 17.2696 6.8894 60.4346 0.0000 -1.5316 0.0000
# 4 0.0000 0.0000 0.0000 26.4423 0.0000 -1.5902
# 5 14.7993 -0.9471 -1.5316 0.0000 33.8946 0.0000
# 6 0.0000 0.0000 0.0000 -1.5902 0.0000 23.7205
#
#
#
# Elastic Compliance Matrix: (Units=1/GPa)
#
#
# Indices 1 2 3 4 5 6 
#
# 1 0.011673 -0.004715 -0.002934 0.000000 -0.005361 0.000000
# 2 -0.004715 0.018095 -0.000651 0.000000 0.002535 0.000000
# 3 -0.002934 -0.000651 0.017512 0.000000 0.002054 0.000000
# 4 0.000000 0.000000 0.000000 0.037971 0.000000 0.002546
# 5 -0.005361 0.002535 0.002054 0.000000 0.032008 0.000000
# 6 0.000000 0.000000 0.000000 0.002546 0.000000 0.042328
#
#
# Mechanical properties :
#
#
# Convention : Reuss Voigt Hill
#
# Bulk Modulus (GPa) = 32.59530 36.88815 34.74172
# Shear Modulus (GPa) = 26.82186 28.79867 27.81026
#
# Velocity S-wave (km/s) = 3.59232 3.72235 3.65791
# Velocity P-wave (km/s) = 5.73489 6.01851 5.87841
#
# Compressibility (1/GPa) = 0.03067927
#
# Stress axis : x y z
#
# Youngs Moduli (GPa) = 85.66526 55.26251 57.10523
#
# Poissons Ratio (x) = 0.26058 0.16755
# Poissons Ratio (y) = 0.40393 0.03719
# Poissons Ratio (z) = 0.25135 0.03599
#
# Static dielectric constant tensor:
#      x y z
#    x 4.031490 0.000000 0.028420 
#    y 0.000000 3.366380 0.000000 
#    z 0.028420 0.000000 3.731130 
# 
# 
# High freq. dielectric constant tensor:
#      x y z
#    x 1.834890 0.000000 0.002260 
#    y 0.000000 1.767630 0.000000 
#    z 0.002260 0.000000 1.818440 
# 
# From -- ./inp_files/79297.got.cif
#   From: 2010.03.12/outbox.cif.g09.slc.cpg/sg14_40_cif.got.tgz:79297.got - 2010.03.31 13:35:05.
