data_PCOD8123564
_publ_section_title
;
Structure prediction by ZEFSAII (Michael W. Deem and Ramdas Pophale) SiO2 
 PCOD8123564
Probable space group: P 21/C
;
_chemical_formula_sum "Si O2"
_cell_formula_units_Z 32
_cell_length_a 14.729643
_cell_length_b 12.052207
_cell_length_c 22.457322
_cell_angle_alpha 90.000000
_cell_angle_beta 26.193115
_cell_angle_gamma 90.000000
_cell_volume 1759.734545
_symmetry_space_group_name_H-M "P 21/C"
_symmetry_group_IT_number 14
_symmetry_cell_setting 'monoclinic'
loop_
_space_group_symop_operation_xyz
x,y,z
-x,1/2+y,1/2-z
-x,-y,-z
x,1/2-y,1/2+z
loop_
_atom_site_type_symbol
_atom_site_label
_atom_site_fract_x
_atom_site_fract_y
_atom_site_fract_z
Si Si1 0.228755 0.028295 0.494385
Si Si2 0.293187 0.903911 0.346683
Si Si3 0.122475 0.075731 0.363234
Si Si4 0.196015 0.491963 0.148650
Si Si5 0.740385 0.546796 0.428676
Si Si6 0.537051 0.174585 0.455288
Si Si7 0.423108 0.262926 0.400616
Si Si8 0.585414 0.636187 0.399659
O O1 0.293766 0.157710 0.453598
O O2 0.369171 0.952005 0.366737
O O3 0.246504 0.978581 0.550247
O O4 0.991487 0.016419 0.612176
O O5 0.436525 0.806707 0.236740
O O6 0.055033 0.860119 0.494501
O O7 0.284960 0.010260 0.308273
O O8 0.251313 0.164429 0.248533
O O9 0.286950 0.584429 0.139173
O O10 0.955706 0.481355 0.304713
O O11 0.306603 0.375382 0.097037
O O12 0.727982 0.638114 0.488799
O O13 0.723460 0.605911 0.375278
O O14 0.553115 0.462006 0.544807
O O15 0.566804 0.228814 0.372409
O O16 0.560256 0.262532 0.495386
#
# Coordination Sequence:
#
# PCOD8123564 Si02
#       8
#     4   4   4   4   4   4   4   4
#     4   9  19  34  54  74 110 144 175 227 265 328
#     4   9  18  34  53  76 103 142 176 225 257 316
#     4   9  17  34  53  70 111 135 175 227 266 310
#     4  10  19  39  50  80 112 147 180 216 284 326
#     4  10  19  30  54  79 111 130 181 237 254 332
#     4   9  22  34  57  76 113 147 177 224 273 337
#     4  10  19  34  53  83 106 142 186 214 277 321
#     4  10  18  33  51  83 103 138 180 227 274 307
#
# _framework density 18.184560999999999
#
# number of rings (size 3 to 8) (size 9 to 14) (size 15 to 20)
#    0.750    1.750    2.500    0.000    0.000    4.000 
#    2.250    1.250    0.000    0.000    0.000    6.125 
#    0.000    0.000    0.000    0.000    0.000    0.000 
#
# Total GULP energy -396420.463506 kJ/mol
# GULP energy per Si atom -12388.139485 kJ/mol
# Density = 1.814317 g / cm^3
# Si number density = 18.184561 Si / 1000 Ang^3
#
#
#
# Elastic Constant Matrix: (Units=GPa)
#
#
# Indices 1 2 3 4 5 6 
#
# 1 57.7173 17.8375 17.0541 0.0000 12.7028 0.0000
# 2 17.8375 58.2395 17.0332 0.0000 11.7625 0.0000
# 3 17.0541 17.0332 67.4676 0.0000 18.1477 0.0000
# 4 0.0000 0.0000 0.0000 22.3274 0.0000 6.4469
# 5 12.7028 11.7625 18.1477 0.0000 28.3095 0.0000
# 6 0.0000 0.0000 0.0000 6.4469 0.0000 30.9328
#
#
#
# Elastic Compliance Matrix: (Units=1/GPa)
#
#
# Indices 1 2 3 4 5 6 
#
# 1 0.020731 -0.004425 -0.002556 0.000000 -0.005825 0.000000
# 2 -0.004425 0.020273 -0.002740 0.000000 -0.004681 0.000000
# 3 -0.002556 -0.002740 0.018784 0.000000 -0.009756 0.000000
# 4 0.000000 0.000000 0.000000 0.047656 0.000000 -0.009932
# 5 -0.005825 -0.004681 -0.009756 0.000000 0.046136 0.000000
# 6 0.000000 0.000000 0.000000 -0.009932 0.000000 0.034398
#
#
# Mechanical properties :
#
#
# Convention : Reuss Voigt Hill
#
# Bulk Modulus (GPa) = 24.78714 31.91933 28.35324
# Shear Modulus (GPa) = 22.63779 25.08059 23.85919
#
# Velocity S-wave (km/s) = 3.53213 3.71782 3.62616
# Velocity P-wave (km/s) = 5.50409 6.00172 5.75829
#
# Compressibility (1/GPa) = 0.04034349
#
# Stress axis : x y z
#
# Youngs Moduli (GPa) = 48.23750 49.32737 53.23659
#
# Poissons Ratio (x) = 0.21829 0.13608
# Poissons Ratio (y) = 0.21347 0.14589
# Poissons Ratio (z) = 0.12330 0.13518
#
# Static dielectric constant tensor:
#      x y z
#    x 3.334550 0.000000 0.169920 
#    y 0.000000 3.183220 0.000000 
#    z 0.169920 0.000000 3.193170 
# 
# 
# High freq. dielectric constant tensor:
#      x y z
#    x 1.696540 0.000000 0.013400 
#    y 0.000000 1.680090 0.000000 
#    z 0.013400 0.000000 1.693880 
# 
# From -- ./inp_files/77814.got.cif
#   From: 2010.03.12/outbox.cif.g09.slc.cpg/sg14_39_cif.got.tgz:77814.got - 2010.03.31 13:35:05.
