data_PCOD8123123
_publ_section_title
;
Structure prediction by ZEFSAII (Michael W. Deem and Ramdas Pophale) SiO2 
 PCOD8123123
Probable space group: P 2/C
;
_chemical_formula_sum "Si O2"
_cell_formula_units_Z 24
_cell_length_a 12.422252
_cell_length_b 6.879797
_cell_length_c 14.394284
_cell_angle_alpha 90.000000
_cell_angle_beta 60.744860
_cell_angle_gamma 90.000000
_cell_volume 1073.266695
_symmetry_space_group_name_H-M "P 2/C"
_symmetry_group_IT_number 13
_symmetry_cell_setting 'monoclinic'
loop_
_space_group_symop_operation_xyz
x,y,z
-x,y,1/2-z
-x,-y,-z
x,-y,1/2+z
loop_
_atom_site_type_symbol
_atom_site_label
_atom_site_fract_x
_atom_site_fract_y
_atom_site_fract_z
Si Si1 0.398762 0.553606 0.469366
Si Si2 0.000000 0.634747 0.750000
Si Si3 0.755385 0.955919 0.191010
Si Si4 0.218308 0.791761 0.987341
Si Si5 0.500000 0.230608 0.750000
Si Si6 0.960213 0.630436 0.103993
Si Si7 0.226706 0.130485 0.115284
O O1 0.500000 0.500000 0.500000
O O2 0.311644 0.381359 0.469520
O O3 0.464126 0.637125 0.351520
O O4 0.324792 0.701340 0.564590
O O5 0.924874 0.505425 0.706466
O O6 0.906612 0.773674 0.844533
O O7 0.614583 0.902885 0.230056
O O8 0.846299 0.773938 0.128404
O O9 0.769142 0.012696 0.291347
O O10 0.788384 0.150506 0.118719
O O11 0.081690 0.748099 0.082978
O O12 0.263836 0.984798 0.018344
O O13 0.000000 0.500000 0.000000
#
# Coordination Sequence:
#
# PCOD8123123 Si02
#       7
#     4   2   4   4   2   4   4
#     4  12  29  48  76 103 147 194 243 305 359 437
#     4  12  24  44  76 108 144 188 238 302 362 430
#     4  12  27  44  77 107 147 196 242 300 363 438
#     4  12  25  50  73 107 145 190 240 305 364 425
#     4  12  28  50  72 110 146 194 248 292 372 436
#     4  12  24  45  75 108 147 190 243 298 366 427
#     4  12  26  49  73 110 144 188 247 296 368 430
#
# _framework density 22.361637000000002
#
# number of rings (size 3 to 8) (size 9 to 14) (size 15 to 20)
#    0.000    0.000    3.333    6.500    7.000    1.333 
#    0.000    0.000    0.000    0.000    0.000    0.000 
#    0.000    0.000    0.000    0.000    0.000    0.000 
#
# Total GULP energy -297649.923652 kJ/mol
# GULP energy per Si atom -12402.080152 kJ/mol
# Density = 2.231074 g / cm^3
# Si number density = 22.361637 Si / 1000 Ang^3
#
#
#
# Elastic Constant Matrix: (Units=GPa)
#
#
# Indices 1 2 3 4 5 6 
#
# 1 114.9384 37.8316 22.9263 0.0000 -13.1945 0.0000
# 2 37.8316 106.4285 33.9046 0.0000 -6.0275 0.0000
# 3 22.9263 33.9046 92.3075 0.0000 -8.1535 0.0000
# 4 0.0000 0.0000 0.0000 19.4845 0.0000 -99.7009
# 5 -13.1945 -6.0275 -8.1535 0.0000 39.3984 0.0000
# 6 0.0000 0.0000 0.0000 -99.7009 0.0000 -415.7219
#
#
#
# Elastic Compliance Matrix: (Units=1/GPa)
#
#
# Indices 1 2 3 4 5 6 
#
# 1 0.010274 -0.003128 -0.001163 0.000000 0.002722 0.000000
# 2 -0.003128 0.011620 -0.003491 0.000000 0.000008 0.000000
# 3 -0.001163 -0.003491 0.012552 0.000000 0.001674 0.000000
# 4 0.000000 0.000000 0.000000 0.023044 0.000000 -0.005527
# 5 0.002722 0.000008 0.001674 0.000000 0.026641 0.000000
# 6 0.000000 0.000000 0.000000 -0.005527 0.000000 -0.001080
#
#
# Mechanical properties :
#
#
# Convention : Reuss Voigt Hill
#
# Bulk Modulus (GPa) = 52.95261 55.88882 54.42071
# Shear Modulus (GPa) = 47.66096 -56.76702 -4.55303
#
# Velocity S-wave (km/s) = 4.62169 -5.04391 -1.42846
# Velocity P-wave (km/s) = 7.22575 2.97891 4.65498
#
# Compressibility (1/GPa) = 0.01888481
#
# Stress axis : x y z
#
# Youngs Moduli (GPa) = 97.33238 86.05737 79.66798
#
# Poissons Ratio (x) = 0.26915 0.09262
# Poissons Ratio (y) = 0.30441 0.27809
# Poissons Ratio (z) = 0.11316 0.30039
#
# Static dielectric constant tensor:
#      x y z
#    x 4.136710 0.000000 -0.117760 
#    y 0.000000 4.245890 0.000000 
#    z -0.117760 0.000000 3.916160 
# 
# 
# High freq. dielectric constant tensor:
#      x y z
#    x 1.889750 0.000000 0.002320 
#    y 0.000000 1.896550 0.000000 
#    z 0.002320 0.000000 1.899530 
# 
# From -- ./inp_files/52127.got.cif
#   From: 2010.06.25/outbox.cif.g09.slc.cpg/sg13_27_cif.got.tgz:52127.got - 2010.06.28 04:50:58.
