data_PCOD8123809
_publ_section_title
;
Structure prediction by ZEFSAII (Michael W. Deem and Ramdas Pophale) SiO2 
 PCOD8123809
Probable space group: P 21/C
;
_chemical_formula_sum "Si O2"
_cell_formula_units_Z 20
_cell_length_a 18.095594
_cell_length_b 8.978016
_cell_length_c 18.831413
_cell_angle_alpha 90.000000
_cell_angle_beta 21.892597
_cell_angle_gamma 90.000000
_cell_volume 1140.751688
_symmetry_space_group_name_H-M "P 21/C"
_symmetry_group_IT_number 14
_symmetry_cell_setting 'monoclinic'
loop_
_space_group_symop_operation_xyz
x,y,z
-x,1/2+y,1/2-z
-x,-y,-z
x,1/2-y,1/2+z
loop_
_atom_site_type_symbol
_atom_site_label
_atom_site_fract_x
_atom_site_fract_y
_atom_site_fract_z
Si Si1 0.482830 0.689432 0.680304
Si Si2 0.167036 0.594825 0.483632
Si Si3 0.540619 0.138038 0.164655
Si Si4 0.582271 0.881521 0.328698
Si Si5 0.709732 0.643612 0.870076
O O1 0.269709 0.764749 0.851041
O O2 0.571879 0.777519 0.669961
O O3 0.437538 0.517519 0.736733
O O4 0.638316 0.710052 0.477050
O O5 0.236113 0.600859 0.505426
O O6 0.246087 0.443078 0.376320
O O7 0.934062 0.604288 0.687275
O O8 0.535795 0.243480 0.100470
O O9 0.685565 0.824736 0.308411
O O10 0.419596 0.005482 0.488843
#
# Coordination Sequence:
#
# PCOD8123809 Si02
#       5
#     4   4   4   4   4
#     4   9  19  35  52  74 105 137 171 218 256 305
#     4   9  18  35  55  76 104 137 175 211 252 311
#     4  10  18  38  54  73 109 138 171 218 262 299
#     4  10  20  36  55  79 106 140 168 215 261 306
#     4  10  20  34  56  78 106 136 177 209 258 312
#
# _framework density 17.532299999999999
#
# number of rings (size 3 to 8) (size 9 to 14) (size 15 to 20)
#    1.200    1.200    2.000    0.600    0.000    2.400 
#    0.000    1.000    0.000    0.000    0.000    0.000 
#    0.000    0.000    0.000    0.000    0.000    0.000 
#
# Total GULP energy -247777.706073 kJ/mol
# GULP energy per Si atom -12388.885304 kJ/mol
# Density = 1.749240 g / cm^3
# Si number density = 17.532300 Si / 1000 Ang^3
#
#
#
# Elastic Constant Matrix: (Units=GPa)
#
#
# Indices 1 2 3 4 5 6 
#
# 1 66.3824 28.4681 1.4694 0.0000 -4.6719 0.0000
# 2 28.4681 88.8081 3.4571 0.0000 11.8332 0.0000
# 3 1.4694 3.4571 54.7331 0.0000 -14.0301 0.0000
# 4 0.0000 0.0000 0.0000 10.9351 0.0000 6.8645
# 5 -4.6719 11.8332 -14.0301 0.0000 21.0810 0.0000
# 6 0.0000 0.0000 0.0000 6.8645 0.0000 27.3794
#
#
#
# Elastic Compliance Matrix: (Units=1/GPa)
#
#
# Indices 1 2 3 4 5 6 
#
# 1 0.018946 -0.007522 0.002562 0.000000 0.010127 0.000000
# 2 -0.007522 0.015591 -0.004164 0.000000 -0.013190 0.000000
# 3 0.002562 -0.004164 0.023161 0.000000 0.018319 0.000000
# 4 0.000000 0.000000 0.000000 0.108530 0.000000 -0.027210
# 5 0.010127 -0.013190 0.018319 0.000000 0.069276 0.000000
# 6 0.000000 0.000000 0.000000 -0.027210 0.000000 0.043346
#
#
# Mechanical properties :
#
#
# Convention : Reuss Voigt Hill
#
# Bulk Modulus (GPa) = 25.34854 30.74586 28.04720
# Shear Modulus (GPa) = 16.11617 23.64771 19.88194
#
# Velocity S-wave (km/s) = 3.03517 3.67660 3.37117
# Velocity P-wave (km/s) = 5.17422 5.96640 5.58437
#
# Compressibility (1/GPa) = 0.03945000
#
# Stress axis : x y z
#
# Youngs Moduli (GPa) = 52.78110 64.13892 43.17674
#
# Poissons Ratio (x) = 0.48248 -0.11063
# Poissons Ratio (y) = 0.39704 0.17978
# Poissons Ratio (z) = -0.13524 0.26707
#
# Static dielectric constant tensor:
#      x y z
#    x 3.383960 0.000000 0.155520 
#    y 0.000000 3.143190 0.000000 
#    z 0.155520 0.000000 2.952180 
# 
# 
# High freq. dielectric constant tensor:
#      x y z
#    x 1.679660 0.000000 0.006890 
#    y 0.000000 1.670200 0.000000 
#    z 0.006890 0.000000 1.646400 
# 
# From -- ./inp_files/52654.got.cif
#   From: 2010.03.12/outbox.cif.g09.slc.cpg/sg14_27_cif.got.tgz:52654.got - 2010.03.31 13:35:05.
