data_PCOD8123446
_publ_section_title
;
Structure prediction by ZEFSAII (Michael W. Deem and Ramdas Pophale) SiO2 
 PCOD8123446
Probable space group: P 21/C
;
_chemical_formula_sum "Si O2"
_cell_formula_units_Z 32
_cell_length_a 10.644288
_cell_length_b 8.324364
_cell_length_c 21.383583
_cell_angle_alpha 90.000000
_cell_angle_beta 60.146908
_cell_angle_gamma 90.000000
_cell_volume 1643.311106
_symmetry_space_group_name_H-M "P 21/C"
_symmetry_group_IT_number 14
_symmetry_cell_setting 'monoclinic'
loop_
_space_group_symop_operation_xyz
x,y,z
-x,1/2+y,1/2-z
-x,-y,-z
x,1/2-y,1/2+z
loop_
_atom_site_type_symbol
_atom_site_label
_atom_site_fract_x
_atom_site_fract_y
_atom_site_fract_z
Si Si1 0.883339 0.688306 0.847401
Si Si2 0.887527 0.075925 0.249199
Si Si3 0.313060 0.671181 0.650682
Si Si4 0.614075 0.924075 0.249199
Si Si5 0.385575 0.171181 0.150682
Si Si6 0.574062 0.243203 0.500000
Si Si7 0.698768 0.588006 0.000000
Si Si8 0.421858 0.311694 0.847401
O O1 0.948633 0.546824 0.786673
O O2 0.727723 0.716163 0.855917
O O3 0.850789 0.632975 0.927164
O O4 0.979393 0.851237 0.824453
O O5 0.832889 0.233408 0.299487
O O6 0.768220 0.000000 0.231780
O O7 0.315016 0.500000 0.684985
O O8 0.332446 0.647562 0.570993
O O9 0.439556 0.783838 0.644083
O O10 0.568137 0.766592 0.299487
O O11 0.628299 0.851237 0.175547
O O12 0.478021 0.046824 0.286673
O O13 0.525569 0.147562 0.070993
O O14 0.433280 0.177866 0.500000
O O15 0.676205 0.102073 0.500000
O O16 0.705117 0.632975 0.072836
#
# Coordination Sequence:
#
# PCOD8123446 Si02
#       8
#     4   4   4   4   4   4   4   4
#     4  10  19  33  51  73 104 139 176 215 270 318
#     4  10  20  33  51  76 106 140 179 220 264 316
#     4  10  18  29  49  78 106 132 167 220 269 320
#     4  10  20  33  51  76 106 140 179 220 264 316
#     4  10  18  29  49  78 106 132 167 220 269 320
#     4   9  15  28  48  76 105 129 166 217 276 318
#     4   9  16  30  51  72 102 140 170 216 270 318
#     4  10  19  33  51  73 104 139 176 215 270 318
#
# _framework density 19.47288
#
# number of rings (size 3 to 8) (size 9 to 14) (size 15 to 20)
#    0.000    2.250    2.500    1.875    0.000    0.000 
#    0.000    0.625    0.000    0.000    0.000   18.375 
#    0.000    0.000    0.000    0.000    0.000    0.000 
#
# Total GULP energy -396473.363619 kJ/mol
# GULP energy per Si atom -12389.792613 kJ/mol
# Density = 1.942856 g / cm^3
# Si number density = 19.472880 Si / 1000 Ang^3
#
#
#
# Elastic Constant Matrix: (Units=GPa)
#
#
# Indices 1 2 3 4 5 6 
#
# 1 27.3779 9.8574 33.3015 0.0000 1.4444 0.0000
# 2 9.8574 94.2242 38.5211 0.0000 1.1630 0.0000
# 3 33.3015 38.5211 115.9168 0.0000 2.1478 0.0000
# 4 0.0000 0.0000 0.0000 29.9807 0.0000 -0.0492
# 5 1.4444 1.1630 2.1478 0.0000 14.8665 0.0000
# 6 0.0000 0.0000 0.0000 -0.0492 0.0000 31.1912
#
#
#
# Elastic Compliance Matrix: (Units=1/GPa)
#
#
# Indices 1 2 3 4 5 6 
#
# 1 0.056351 0.000854 -0.016414 0.000000 -0.003170 0.000000
# 2 0.000854 0.012297 -0.004324 0.000000 -0.000420 0.000000
# 3 -0.016414 -0.004324 0.014783 0.000000 -0.000203 0.000000
# 4 0.000000 0.000000 0.000000 0.033355 0.000000 0.000053
# 5 -0.003170 -0.000420 -0.000203 0.000000 0.067635 0.000000
# 6 0.000000 0.000000 0.000000 0.000053 0.000000 0.032060
#
#
# Mechanical properties :
#
#
# Convention : Reuss Voigt Hill
#
# Bulk Modulus (GPa) = 22.90259 44.54208 33.72234
# Shear Modulus (GPa) = 18.46359 25.59695 22.03027
#
# Velocity S-wave (km/s) = 3.08258 3.62953 3.36718
# Velocity P-wave (km/s) = 4.94535 6.36303 5.69845
#
# Compressibility (1/GPa) = 0.04366318
#
# Stress axis : x y z
#
# Youngs Moduli (GPa) = 17.74592 81.32370 67.64462
#
# Poissons Ratio (x) = -0.06948 1.11033
# Poissons Ratio (y) = -0.01516 0.29250
# Poissons Ratio (z) = 0.29128 0.35164
#
# Static dielectric constant tensor:
#      x y z
#    x 2.968700 0.000000 0.038190 
#    y 0.000000 3.484290 0.000000 
#    z 0.038190 0.000000 3.910050 
# 
# 
# High freq. dielectric constant tensor:
#      x y z
#    x 1.693590 0.000000 0.002830 
#    y 0.000000 1.766730 0.000000 
#    z 0.002830 0.000000 1.763430 
# 
# From -- ./inp_files/55385.got.cif
#   From: 2010.03.12/outbox.cif.g09.slc.cpg/sg14_28_cif.got.tgz:55385.got - 2010.03.31 13:35:05.
