data_PCOD8123330
_publ_section_title
;
Structure prediction by ZEFSAII (Michael W. Deem and Ramdas Pophale) SiO2 
 PCOD8123330
Probable space group: P 21/C
;
_chemical_formula_sum "Si O2"
_cell_formula_units_Z 28
_cell_length_a 17.701493
_cell_length_b 18.525252
_cell_length_c 9.020912
_cell_angle_alpha 90.000000
_cell_angle_beta 149.939092
_cell_angle_gamma 90.000000
_cell_volume 1481.812098
_symmetry_space_group_name_H-M "P 21/C"
_symmetry_group_IT_number 14
_symmetry_cell_setting 'monoclinic'
loop_
_space_group_symop_operation_xyz
x,y,z
-x,1/2+y,1/2-z
-x,-y,-z
x,1/2-y,1/2+z
loop_
_atom_site_type_symbol
_atom_site_label
_atom_site_fract_x
_atom_site_fract_y
_atom_site_fract_z
Si Si1 0.021416 0.575093 0.196592
Si Si2 0.848218 0.071884 0.379745
Si Si3 0.278157 0.017923 0.227603
Si Si4 0.591156 0.515467 0.378869
Si Si5 0.195113 0.254011 0.881804
Si Si6 0.076629 0.346592 0.431927
Si Si7 0.727993 0.847051 0.240303
O O1 0.097193 0.610843 0.178866
O O2 0.155720 0.547183 0.532349
O O3 0.915127 0.508160 0.977083
O O4 0.907236 0.634359 0.068644
O O5 0.912271 0.115522 0.630048
O O6 0.667865 0.057362 0.079646
O O7 0.335819 0.029049 0.158216
O O8 0.413247 0.997772 0.567695
O O9 0.206451 0.092854 0.157803
O O10 0.620064 0.584190 0.534620
O O11 0.079355 0.303354 0.589961
O O12 0.099882 0.205771 0.832549
O O13 0.293979 0.204804 0.939425
O O14 0.311406 0.303964 0.175268
#
# Coordination Sequence:
#
# PCOD8123330 Si02
#       7
#     4   4   4   4   4   4   4
#     4   8  13  25  46  68  90 112 147 192 225 261
#     4   8  13  25  46  68  90 112 147 192 225 261
#     4   9  16  28  50  73  93 120 156 196 231 272
#     4   9  16  28  50  73  93 120 156 196 231 272
#     4  10  20  28  50  66  98 122 156 188 226 284
#     4  10  17  32  47  73  89 123 155 192 231 278
#     4  10  17  32  47  73  89 123 155 192 231 278
#
# _framework density 18.895783000000002
#
# number of rings (size 3 to 8) (size 9 to 14) (size 15 to 20)
#    0.000    2.857    2.857    1.714    0.000    0.000 
#    0.000    7.143    0.000   10.286    0.000    0.000 
#    0.000    0.000    0.000    0.000    0.000    0.000 
#
# Total GULP energy -346874.812356 kJ/mol
# GULP energy per Si atom -12388.386156 kJ/mol
# Density = 1.885278 g / cm^3
# Si number density = 18.895783 Si / 1000 Ang^3
#
#
#
# Elastic Constant Matrix: (Units=GPa)
#
#
# Indices 1 2 3 4 5 6 
#
# 1 35.6170 24.0648 28.5473 0.0000 -14.7634 0.0000
# 2 24.0648 85.0806 55.2835 0.0000 -9.8117 0.0000
# 3 28.5473 55.2835 144.2239 0.0000 0.4125 0.0000
# 4 0.0000 0.0000 0.0000 32.3499 0.0000 -16.0637
# 5 -14.7634 -9.8117 0.4125 0.0000 26.3943 0.0000
# 6 0.0000 0.0000 0.0000 -16.0637 0.0000 11.9352
#
#
#
# Elastic Compliance Matrix: (Units=1/GPa)
#
#
# Indices 1 2 3 4 5 6 
#
# 1 0.048362 -0.006044 -0.007327 0.000000 0.024918 0.000000
# 2 -0.006044 0.017388 -0.005478 0.000000 0.003168 0.000000
# 3 -0.007327 -0.005478 0.010502 0.000000 -0.006299 0.000000
# 4 0.000000 0.000000 0.000000 0.093199 0.000000 0.125437
# 5 0.024918 0.003168 -0.006299 0.000000 0.053101 0.000000
# 6 0.000000 0.000000 0.000000 0.125437 0.000000 0.252612
#
#
# Mechanical properties :
#
#
# Convention : Reuss Voigt Hill
#
# Bulk Modulus (GPa) = 25.93822 53.41252 39.67537
# Shear Modulus (GPa) = 9.51090 24.60428 17.05759
#
# Velocity S-wave (km/s) = 2.24595 3.61238 3.00779
# Velocity P-wave (km/s) = 4.52576 6.76220 5.75369
#
# Compressibility (1/GPa) = 0.03855314
#
# Stress axis : x y z
#
# Youngs Moduli (GPa) = 20.67747 57.51122 95.22309
#
# Poissons Ratio (x) = 0.34762 0.69769
# Poissons Ratio (y) = 0.12498 0.52161
# Poissons Ratio (z) = 0.15150 0.31503
#
# Static dielectric constant tensor:
#      x y z
#    x 3.063130 0.000000 -0.115820 
#    y 0.000000 3.537210 0.000000 
#    z -0.115820 0.000000 3.621160 
# 
# 
# High freq. dielectric constant tensor:
#      x y z
#    x 1.686720 0.000000 -0.022570 
#    y 0.000000 1.728810 0.000000 
#    z -0.022570 0.000000 1.726510 
# 
# From -- ./inp_files/14128.got.cif
#   From: 2010.03.12/outbox.cif.g09.slc.cpg/sg14_8_cif.got.tgz:14128.got - 2010.03.31 13:35:05.
