data_PCOD8123305
_publ_section_title
;
Structure prediction by ZEFSAII (Michael W. Deem and Ramdas Pophale) SiO2 
 PCOD8123305
Probable space group: P 21/C
;
_chemical_formula_sum "Si O2"
_cell_formula_units_Z 32
_cell_length_a 9.631359
_cell_length_b 18.143326
_cell_length_c 10.542556
_cell_angle_alpha 90.000000
_cell_angle_beta 69.465812
_cell_angle_gamma 90.000000
_cell_volume 1725.206321
_symmetry_space_group_name_H-M "P 21/C"
_symmetry_group_IT_number 14
_symmetry_cell_setting 'monoclinic'
loop_
_space_group_symop_operation_xyz
x,y,z
-x,1/2+y,1/2-z
-x,-y,-z
x,1/2-y,1/2+z
loop_
_atom_site_type_symbol
_atom_site_label
_atom_site_fract_x
_atom_site_fract_y
_atom_site_fract_z
Si Si1 0.254943 0.210926 0.610258
Si Si2 0.432826 0.716625 0.464050
Si Si3 0.550370 0.450903 0.599503
Si Si4 0.587745 0.040400 0.645047
Si Si5 0.598987 0.191988 0.755663
Si Si6 0.280850 0.048035 0.606559
Si Si7 0.160827 0.478137 0.403682
Si Si8 0.754746 0.811982 0.107690
O O1 0.428128 0.230006 0.561206
O O2 0.229288 0.127255 0.570482
O O3 0.178185 0.263376 0.529499
O O4 0.185237 0.217828 0.774981
O O5 0.483198 0.634030 0.416128
O O6 0.335429 0.715123 0.626302
O O7 0.345287 0.750730 0.370740
O O8 0.500000 0.500000 0.500000
O O9 0.450697 0.472605 0.751444
O O10 0.723859 0.464905 0.570497
O O11 0.653247 0.110035 0.700657
O O12 0.440442 0.064907 0.618409
O O13 0.711973 0.011775 0.507519
O O14 0.422602 0.191835 0.833297
O O15 0.169000 0.016359 0.748141
O O16 0.197564 0.395318 0.435069
O O17 0.000000 0.500000 0.500000
#
# Coordination Sequence:
#
# PCOD8123305 Si02
#       8
#     4   4   4   4   4   4   4   4
#     4   9  16  28  45  76 108 126 172 222 270 315
#     4  10  19  26  46  71 110 138 168 207 282 319
#     4  11  19  32  52  84 106 132 178 228 271 314
#     4  10  17  29  48  75 114 131 175 224 275 316
#     4  10  17  31  44  77 114 136 165 224 273 329
#     4   9  18  30  50  78 102 145 175 223 271 324
#     4  10  20  37  55  73 107 149 186 214 261 337
#     4   9  16  30  47  77  99 133 177 219 263 315
#
# _framework density 18.548507000000001
#
# number of rings (size 3 to 8) (size 9 to 14) (size 15 to 20)
#    0.000    2.250    6.250    0.750    5.250    1.000 
#    0.000    0.000    0.000    6.750    0.000    0.000 
#    0.000    0.000    0.000    0.000    0.000    0.000 
#
# Total GULP energy -396570.410858 kJ/mol
# GULP energy per Si atom -12392.825339 kJ/mol
# Density = 1.850629 g / cm^3
# Si number density = 18.548507 Si / 1000 Ang^3
#
#
#
# Elastic Constant Matrix: (Units=GPa)
#
#
# Indices 1 2 3 4 5 6 
#
# 1 17.1412 10.2491 32.1767 0.0000 2.2492 0.0000
# 2 10.2491 86.1426 56.7734 0.0000 14.1457 0.0000
# 3 32.1767 56.7734 130.9039 0.0000 20.8133 0.0000
# 4 0.0000 0.0000 0.0000 36.9962 0.0000 11.7728
# 5 2.2492 14.1457 20.8133 0.0000 28.6998 0.0000
# 6 0.0000 0.0000 0.0000 11.7728 0.0000 13.4210
#
#
#
# Elastic Compliance Matrix: (Units=1/GPa)
#
#
# Indices 1 2 3 4 5 6 
#
# 1 0.114331 0.005913 -0.032530 0.000000 0.011717 0.000000
# 2 0.005913 0.016838 -0.008322 0.000000 -0.002727 0.000000
# 3 -0.032530 -0.008322 0.020558 0.000000 -0.008257 0.000000
# 4 0.000000 0.000000 0.000000 0.037496 0.000000 -0.032892
# 5 0.011717 -0.002727 -0.008257 0.000000 0.041258 0.000000
# 6 0.000000 0.000000 0.000000 -0.032892 0.000000 0.103362
#
#
# Mechanical properties :
#
#
# Convention : Reuss Voigt Hill
#
# Bulk Modulus (GPa) = 12.21803 48.06511 30.14157
# Shear Modulus (GPa) = 11.60080 24.82263 18.21172
#
# Velocity S-wave (km/s) = 2.50357 3.66219 3.13684
# Velocity P-wave (km/s) = 3.86763 6.62205 5.42264
#
# Compressibility (1/GPa) = 0.08184622
#
# Stress axis : x y z
#
# Youngs Moduli (GPa) = 8.74655 59.38933 48.64388
#
# Poissons Ratio (x) = -0.35114 1.58240
# Poissons Ratio (y) = -0.05171 0.40484
# Poissons Ratio (z) = 0.28453 0.49426
#
# Static dielectric constant tensor:
#      x y z
#    x 2.544090 0.000000 0.128290 
#    y 0.000000 3.634140 0.000000 
#    z 0.128290 0.000000 3.343000 
# 
# 
# High freq. dielectric constant tensor:
#      x y z
#    x 1.643440 0.000000 0.043370 
#    y 0.000000 1.730500 0.000000 
#    z 0.043370 0.000000 1.726910 
# 
# From -- ./inp_files/30201.got.cif
#   From: 2010.03.12/outbox.cif.g09.slc.cpg/sg14_16_cif.got.tgz:30201.got - 2010.03.31 13:35:05.
