data_PCOD8123933
_publ_section_title
;
Structure prediction by ZEFSAII (Michael W. Deem and Ramdas Pophale) SiO2 
 PCOD8123933
Probable space group: P 21/C
;
_chemical_formula_sum "Si O2"
_cell_formula_units_Z 32
_cell_length_a 15.066890
_cell_length_b 15.530681
_cell_length_c 9.063161
_cell_angle_alpha 90.000000
_cell_angle_beta 126.979785
_cell_angle_gamma 90.000000
_cell_volume 1694.173370
_symmetry_space_group_name_H-M "P 21/C"
_symmetry_group_IT_number 14
_symmetry_cell_setting 'monoclinic'
loop_
_space_group_symop_operation_xyz
x,y,z
-x,1/2+y,1/2-z
-x,-y,-z
x,1/2-y,1/2+z
loop_
_atom_site_type_symbol
_atom_site_label
_atom_site_fract_x
_atom_site_fract_y
_atom_site_fract_z
Si Si1 0.124988 0.001845 0.449640
Si Si2 0.499999 0.594368 0.321936
Si Si3 0.500001 0.098160 0.828033
Si Si4 0.124992 0.998155 0.800341
Si Si5 0.264613 0.335056 0.094753
Si Si6 0.735387 0.335054 0.565531
Si Si7 0.264620 0.838764 0.584394
Si Si8 0.264623 0.161237 0.944845
O O1 0.188158 0.087370 0.458633
O O2 0.999997 0.002594 0.261478
O O3 0.125147 0.000001 0.625148
O O4 0.187954 0.917442 0.453029
O O5 0.499998 0.589139 0.497187
O O6 0.500005 0.497379 0.258194
O O7 0.390559 0.643611 0.156492
O O8 0.609436 0.643616 0.375371
O O9 0.390588 0.148615 0.665694
O O10 0.609409 0.148620 0.884516
O O11 0.188162 0.912630 0.917684
O O12 0.187959 0.082558 0.922885
O O13 0.257631 0.327272 0.263074
O O14 0.220323 0.247314 0.978329
O O15 0.742368 0.327271 0.747815
O O16 0.779681 0.247312 0.537699
#
# Coordination Sequence:
#
# PCOD8123933 Si02
#       8
#     4   4   4   4   4   4   4   4
#     4   9  18  33  52  72  95 129 170 202 232 283
#     4   9  15  28  51  74  95 126 165 197 232 286
#     4   9  15  28  51  74  95 126 165 197 232 286
#     4   9  18  33  52  72  95 129 170 202 232 283
#     4  10  19  32  52  75  99 127 161 201 242 287
#     4  10  19  32  52  75  99 127 161 201 242 287
#     4  10  19  32  52  75  99 127 161 201 242 287
#     4  10  19  32  52  75  99 127 161 201 242 287
#
# _framework density 18.888266999999999
#
# number of rings (size 3 to 8) (size 9 to 14) (size 15 to 20)
#    0.000    2.500    2.500    0.750    0.000    1.000 
#    0.000    1.250    0.000    3.000    0.000    0.000 
#    0.000    0.000    0.000    0.000    0.000    0.000 
#
# Total GULP energy -396778.915779 kJ/mol
# GULP energy per Si atom -12399.341118 kJ/mol
# Density = 1.884528 g / cm^3
# Si number density = 18.888267 Si / 1000 Ang^3
#
#
#
# Elastic Constant Matrix: (Units=GPa)
#
#
# Indices 1 2 3 4 5 6 
#
# 1 85.3064 48.0789 36.2200 0.0000 40.5285 0.0000
# 2 48.0789 145.4802 31.2987 0.0000 19.6410 0.0000
# 3 36.2200 31.2987 32.4716 0.0000 21.3450 0.0000
# 4 0.0000 0.0000 0.0000 25.4903 0.0000 -6.1438
# 5 40.5285 19.6410 21.3450 0.0000 29.7066 0.0000
# 6 0.0000 0.0000 0.0000 -6.1438 0.0000 20.2466
#
#
#
# Elastic Compliance Matrix: (Units=1/GPa)
#
#
# Indices 1 2 3 4 5 6 
#
# 1 0.039476 -0.004851 -0.011490 0.000000 -0.042393 0.000000
# 2 -0.004851 0.009272 -0.007290 0.000000 0.005726 0.000000
# 3 -0.011490 -0.007290 0.070435 0.000000 -0.030113 0.000000
# 4 0.000000 0.000000 0.000000 0.042326 0.000000 0.012844
# 5 -0.042393 0.005726 -0.030113 0.000000 0.109350 0.000000
# 6 0.000000 0.000000 0.000000 0.012844 0.000000 0.053288
#
#
# Mechanical properties :
#
#
# Convention : Reuss Voigt Hill
#
# Bulk Modulus (GPa) = 13.90445 54.93927 34.42186
# Shear Modulus (GPa) = 12.64595 24.93273 18.78934
#
# Velocity S-wave (km/s) = 2.59030 3.63714 3.15741
# Velocity P-wave (km/s) = 4.04025 6.84017 5.61745
#
# Compressibility (1/GPa) = 0.07191940
#
# Stress axis : x y z
#
# Youngs Moduli (GPa) = 25.33212 107.84771 14.19759
#
# Poissons Ratio (x) = 0.52313 0.16314
# Poissons Ratio (y) = 0.12288 0.10351
# Poissons Ratio (z) = 0.29108 0.78626
#
# Static dielectric constant tensor:
#      x y z
#    x 3.428670 0.000000 0.428740 
#    y 0.000000 3.556780 0.000000 
#    z 0.428740 0.000000 3.062610 
# 
# 
# High freq. dielectric constant tensor:
#      x y z
#    x 1.716840 0.000000 0.031900 
#    y 0.000000 1.750340 0.000000 
#    z 0.031900 0.000000 1.689600 
# 
# From -- ./inp_files/16268.got.cif
#   From: 2010.03.12/outbox.cif.g09.slc.cpg/sg14_9_cif.got.tgz:16268.got - 2010.03.31 13:35:05.
