data_PCOD8123547
_publ_section_title
;
Structure prediction by ZEFSAII (Michael W. Deem and Ramdas Pophale) SiO2 
 PCOD8123547
Probable space group: P 21/C
;
_chemical_formula_sum "Si O2"
_cell_formula_units_Z 24
_cell_length_a 9.659842
_cell_length_b 21.612848
_cell_length_c 5.276970
_cell_angle_alpha 90.000000
_cell_angle_beta 117.922440
_cell_angle_gamma 90.000000
_cell_volume 973.450008
_symmetry_space_group_name_H-M "P 21/C"
_symmetry_group_IT_number 14
_symmetry_cell_setting 'monoclinic'
loop_
_space_group_symop_operation_xyz
x,y,z
-x,1/2+y,1/2-z
-x,-y,-z
x,1/2-y,1/2+z
loop_
_atom_site_type_symbol
_atom_site_label
_atom_site_fract_x
_atom_site_fract_y
_atom_site_fract_z
Si Si1 0.499834 0.080468 0.260796
Si Si2 0.936528 0.880922 0.706849
Si Si3 0.623494 0.216270 0.449166
Si Si4 0.734600 0.768557 0.548882
Si Si5 0.965662 0.177026 0.700596
Si Si6 0.671333 0.959256 0.379093
O O1 0.567768 0.148728 0.319002
O O2 0.429213 0.067153 0.474989
O O3 0.642437 0.032677 0.328490
O O4 0.372806 0.073766 0.925926
O O5 0.777782 0.839294 0.557705
O O6 0.857711 0.948435 0.597544
O O7 0.049719 0.863237 0.570762
O O8 0.016728 0.870749 0.047617
O O9 0.567546 0.234235 0.686493
O O10 0.812445 0.217503 0.609879
O O11 0.636709 0.742423 0.225157
O O12 0.891682 0.725828 0.702401
#
# Coordination Sequence:
#
# PCOD8123547 Si02
#       6
#     4   4   4   4   4   4
#     4  10  23  42  63  87 116 166 207 247 310 356
#     4  10  18  32  56  84 111 148 194 238 289 353
#     4  12  23  40  63  88 124 160 202 247 294 371
#     4   8  14  25  41  68 101 135 170 205 269 332
#     4  10  19  33  54  85 120 154 187 234 304 358
#     4  10  21  42  65  84 120 159 206 257 302 362
#
# _framework density 24.654575000000001
#
# number of rings (size 3 to 8) (size 9 to 14) (size 15 to 20)
#    0.000    2.000    0.000    6.000    0.000    0.000 
#    0.000   16.667    0.000    0.000    0.000    0.000 
#    0.000    0.000    0.000    0.000    0.000    0.000 
#
# Total GULP energy -297521.986965 kJ/mol
# GULP energy per Si atom -12396.749457 kJ/mol
# Density = 2.459846 g / cm^3
# Si number density = 24.654575 Si / 1000 Ang^3
#
#
#
# Elastic Constant Matrix: (Units=GPa)
#
#
# Indices 1 2 3 4 5 6 
#
# 1 67.2789 13.0341 37.0226 0.0000 -22.4707 0.0000
# 2 13.0341 96.4400 34.4896 0.0000 -4.9184 0.0000
# 3 37.0226 34.4896 146.1939 0.0000 -33.6566 0.0000
# 4 0.0000 0.0000 0.0000 38.5160 0.0000 2.8406
# 5 -22.4707 -4.9184 -33.6566 0.0000 49.6320 0.0000
# 6 0.0000 0.0000 0.0000 2.8406 0.0000 27.9200
#
#
#
# Elastic Compliance Matrix: (Units=1/GPa)
#
#
# Indices 1 2 3 4 5 6 
#
# 1 0.018890 -0.001138 -0.003048 0.000000 0.006372 0.000000
# 2 -0.001138 0.011421 -0.002683 0.000000 -0.001203 0.000000
# 3 -0.003048 -0.002683 0.009321 0.000000 0.004675 0.000000
# 4 0.000000 0.000000 0.000000 0.026160 0.000000 -0.002661
# 5 0.006372 -0.001203 0.004675 0.000000 0.026085 0.000000
# 6 0.000000 0.000000 0.000000 -0.002661 0.000000 0.036087
#
#
# Mechanical properties :
#
#
# Convention : Reuss Voigt Hill
#
# Bulk Modulus (GPa) = 38.61932 53.22283 45.92107
# Shear Modulus (GPa) = 33.25938 38.23804 35.74871
#
# Velocity S-wave (km/s) = 3.67688 3.94248 3.81199
# Velocity P-wave (km/s) = 5.80724 6.50834 6.16776
#
# Compressibility (1/GPa) = 0.02589377
#
# Stress axis : x y z
#
# Youngs Moduli (GPa) = 52.93895 87.55672 107.27905
#
# Poissons Ratio (x) = 0.09963 0.32701
# Poissons Ratio (y) = 0.06024 0.28785
# Poissons Ratio (z) = 0.16137 0.23493
#
# Static dielectric constant tensor:
#      x y z
#    x 4.787750 0.000000 -0.611290 
#    y 0.000000 4.352270 0.000000 
#    z -0.611290 0.000000 5.227870 
# 
# 
# High freq. dielectric constant tensor:
#      x y z
#    x 1.991490 0.000000 -0.016470 
#    y 0.000000 1.959340 0.000000 
#    z -0.016470 0.000000 2.012850 
# 
# From -- ./inp_files/2903.got.cif
#   From: 2010.03.12/outbox.cif.g09.slc.cpg/sg14_2_cif.got.tgz:2903.got - 2010.03.31 13:35:05.
