data_PCOD8123904
_publ_section_title
;
Structure prediction by ZEFSAII (Michael W. Deem and Ramdas Pophale) SiO2 
 PCOD8123904
Probable space group: P 21/C
;
_chemical_formula_sum "Si O2"
_cell_formula_units_Z 32
_cell_length_a 9.328326
_cell_length_b 8.783692
_cell_length_c 27.673059
_cell_angle_alpha 90.000000
_cell_angle_beta 47.063041
_cell_angle_gamma 90.000000
_cell_volume 1660.009414
_symmetry_space_group_name_H-M "P 21/C"
_symmetry_group_IT_number 14
_symmetry_cell_setting 'monoclinic'
loop_
_space_group_symop_operation_xyz
x,y,z
-x,1/2+y,1/2-z
-x,-y,-z
x,1/2-y,1/2+z
loop_
_atom_site_type_symbol
_atom_site_label
_atom_site_fract_x
_atom_site_fract_y
_atom_site_fract_z
Si Si1 0.645725 0.317419 0.104270
Si Si2 0.373241 0.301826 0.990751
Si Si3 0.307472 0.837864 0.511697
Si Si4 0.665038 0.086239 0.238156
Si Si5 0.045691 0.723000 0.887119
Si Si6 0.039383 0.572577 0.151867
Si Si7 0.612524 0.108965 0.355176
Si Si8 0.355628 0.227246 0.243660
O O1 0.832950 0.342010 0.095488
O O2 0.536044 0.475197 0.123385
O O3 0.491817 0.201552 0.164896
O O4 0.719070 0.259018 0.034745
O O5 0.345828 0.483204 0.997271
O O6 0.164192 0.218788 0.044133
O O7 0.508213 0.255200 0.005177
O O8 0.487606 0.263679 0.914009
O O9 0.115481 0.822352 0.589664
O O10 0.844794 0.136432 0.163009
O O11 0.691998 0.165288 0.284980
O O12 0.456992 0.143289 0.265450
O O13 0.665848 0.904876 0.239760
O O14 0.019715 0.593536 0.852962
O O15 0.207538 0.551078 0.153329
O O16 0.855021 0.655096 0.218467
#
# Coordination Sequence:
#
# PCOD8123904 Si02
#       8
#     4   4   4   4   4   4   4   4
#     4   9  17  29  47  72 100 127 164 201 239 283
#     4   8  15  28  47  72 100 125 163 206 240 280
#     4   8  15  28  46  72 100 127 161 205 240 281
#     4  10  21  35  52  72 100 131 164 204 244 290
#     4  10  19  31  52  78 101 129 162 204 248 289
#     4  10  19  31  52  77 101 127 161 203 249 292
#     4   9  18  31  49  75 101 129 165 204 242 287
#     4  10  20  35  51  71  99 130 164 203 242 291
#
# _framework density 19.276999
#
# number of rings (size 3 to 8) (size 9 to 14) (size 15 to 20)
#    0.000    2.750    0.000    4.500    0.000    8.500 
#    0.000    0.000    0.000   11.250    0.000    0.000 
#    0.000    0.000    0.000    0.000    0.000    0.000 
#
# Total GULP energy -396513.550477 kJ/mol
# GULP energy per Si atom -12391.048452 kJ/mol
# Density = 1.923312 g / cm^3
# Si number density = 19.276999 Si / 1000 Ang^3
#
#
#
# Elastic Constant Matrix: (Units=GPa)
#
#
# Indices 1 2 3 4 5 6 
#
# 1 68.9957 -5.0140 3.3559 0.0000 6.4206 0.0000
# 2 -5.0140 24.3419 -11.5474 0.0000 -1.9003 0.0000
# 3 3.3559 -11.5474 29.7387 0.0000 5.9100 0.0000
# 4 0.0000 0.0000 0.0000 19.3728 0.0000 -2.5033
# 5 6.4206 -1.9003 5.9100 0.0000 40.6495 0.0000
# 6 0.0000 0.0000 0.0000 -2.5033 0.0000 9.6001
#
#
#
# Elastic Compliance Matrix: (Units=1/GPa)
#
#
# Indices 1 2 3 4 5 6 
#
# 1 0.014911 0.002830 -0.000146 0.000000 -0.002202 0.000000
# 2 0.002830 0.050904 0.019630 0.000000 -0.000921 0.000000
# 3 -0.000146 0.019630 0.042300 0.000000 -0.005209 0.000000
# 4 0.000000 0.000000 0.000000 0.053419 0.000000 0.013929
# 5 -0.002202 -0.000921 -0.005209 0.000000 0.025663 0.000000
# 6 0.000000 0.000000 0.000000 0.013929 0.000000 0.107798
#
#
# Mechanical properties :
#
#
# Convention : Reuss Voigt Hill
#
# Bulk Modulus (GPa) = 6.54693 10.74059 8.64376
# Shear Modulus (GPa) = 16.59577 23.00995 19.80286
#
# Velocity S-wave (km/s) = 2.93731 3.45867 3.20860
# Velocity P-wave (km/s) = 3.86100 4.64044 4.26855
#
# Compressibility (1/GPa) = 0.15274344
#
# Stress axis : x y z
#
# Youngs Moduli (GPa) = 67.06312 19.64464 23.64061
#
# Poissons Ratio (x) = -0.05560 0.00346
# Poissons Ratio (y) = -0.18980 -0.46406
# Poissons Ratio (z) = 0.00980 -0.38562
#
# Static dielectric constant tensor:
#      x y z
#    x 3.738310 0.000000 0.235620 
#    y 0.000000 2.859860 0.000000 
#    z 0.235620 0.000000 4.463970 
# 
# 
# High freq. dielectric constant tensor:
#      x y z
#    x 1.760150 0.000000 0.000730 
#    y 0.000000 1.680850 0.000000 
#    z 0.000730 0.000000 1.770730 
# 
# From -- ./inp_files/76355.got.cif
#   From: 2010.03.12/outbox.cif.g09.slc.cpg/sg14_39_cif.got.tgz:76355.got - 2010.03.31 13:35:05.
