data_PCOD8123278
_publ_section_title
;
Structure prediction by ZEFSAII (Michael W. Deem and Ramdas Pophale) SiO2 
 PCOD8123278
Probable space group: P 21/C
;
_chemical_formula_sum "Si O2"
_cell_formula_units_Z 32
_cell_length_a 24.263865
_cell_length_b 11.537932
_cell_length_c 11.893737
_cell_angle_alpha 90.000000
_cell_angle_beta 28.110439
_cell_angle_gamma 90.000000
_cell_volume 1568.867647
_symmetry_space_group_name_H-M "P 21/C"
_symmetry_group_IT_number 14
_symmetry_cell_setting 'monoclinic'
loop_
_space_group_symop_operation_xyz
x,y,z
-x,1/2+y,1/2-z
-x,-y,-z
x,1/2-y,1/2+z
loop_
_atom_site_type_symbol
_atom_site_label
_atom_site_fract_x
_atom_site_fract_y
_atom_site_fract_z
Si Si1 0.277283 0.370769 0.712843
Si Si2 0.901015 0.811083 0.052993
Si Si3 0.922425 0.940505 0.795215
Si Si4 0.340245 0.093215 0.775685
Si Si5 0.691303 0.841396 0.593902
Si Si6 0.321146 0.586682 0.482516
Si Si7 0.557943 0.664193 0.130572
Si Si8 0.083813 0.663944 0.826759
O O1 0.266604 0.490239 0.663942
O O2 0.389041 0.294270 0.472233
O O3 0.159296 0.295621 0.907149
O O4 0.293164 0.405589 0.815236
O O5 0.924307 0.917873 0.925948
O O6 0.028249 0.781213 0.876690
O O7 0.816339 0.845035 0.307314
O O8 0.020882 0.865376 0.556832
O O9 0.941556 0.074090 0.728920
O O10 0.799552 0.903268 0.965002
O O11 0.386213 0.083401 0.566504
O O12 0.370209 0.216128 0.776784
O O13 0.385883 0.982528 0.764304
O O14 0.596015 0.897598 0.679580
O O15 0.417323 0.666031 0.371684
O O16 0.221412 0.671124 0.610695
#
# Coordination Sequence:
#
# PCOD8123278 Si02
#       8
#     4   4   4   4   4   4   4   4
#     4  10  19  33  57  82 110 142 193 237 274 328
#     4  11  16  34  60  85 109 144 192 237 271 332
#     4  10  17  31  58  85 108 140 187 231 274 329
#     4  10  16  33  55  84 101 136 187 239 261 318
#     4  10  17  32  57  85 104 140 191 237 270 310
#     4  11  21  35  54  83 114 148 182 229 285 339
#     4  10  20  32  54  82 109 144 188 230 275 328
#     4  10  21  33  56  89 115 142 184 230 287 340
#
# _framework density 20.396878000000001
#
# number of rings (size 3 to 8) (size 9 to 14) (size 15 to 20)
#    0.000    1.750    7.500    1.875    0.000    0.500 
#    0.000    2.500    2.750    8.250    0.000    0.000 
#    0.000    0.000    0.000    0.000    0.000    0.000 
#
# Total GULP energy -396479.743420 kJ/mol
# GULP energy per Si atom -12389.991982 kJ/mol
# Density = 2.035045 g / cm^3
# Si number density = 20.396878 Si / 1000 Ang^3
#
#
#
# Elastic Constant Matrix: (Units=GPa)
#
#
# Indices 1 2 3 4 5 6 
#
# 1 126.6747 17.7585 27.5570 0.0000 2.4054 0.0000
# 2 17.7585 23.2074 8.9026 0.0000 -9.6391 0.0000
# 3 27.5570 8.9026 43.2077 0.0000 -11.8725 0.0000
# 4 0.0000 0.0000 0.0000 18.2266 0.0000 -6.0314
# 5 2.4054 -9.6391 -11.8725 0.0000 38.6736 0.0000
# 6 0.0000 0.0000 0.0000 -6.0314 0.0000 25.8914
#
#
#
# Elastic Compliance Matrix: (Units=1/GPa)
#
#
# Indices 1 2 3 4 5 6 
#
# 1 0.010385 -0.007358 -0.006322 0.000000 -0.004421 0.000000
# 2 -0.007358 0.055434 -0.003066 0.000000 0.013333 0.000000
# 3 -0.006322 -0.003066 0.030258 0.000000 0.008918 0.000000
# 4 0.000000 0.000000 0.000000 0.059448 0.000000 0.013848
# 5 -0.004421 0.013333 0.008918 0.000000 0.032193 0.000000
# 6 0.000000 0.000000 0.000000 0.013848 0.000000 0.041849
#
#
# Mechanical properties :
#
#
# Convention : Reuss Voigt Hill
#
# Bulk Modulus (GPa) = 15.97786 33.50289 24.74038
# Shear Modulus (GPa) = 17.61067 25.81643 21.71355
#
# Velocity S-wave (km/s) = 2.94155 3.56153 3.26629
# Velocity P-wave (km/s) = 4.40312 5.77701 5.13621
#
# Compressibility (1/GPa) = 0.06258661
#
# Stress axis : x y z
#
# Youngs Moduli (GPa) = 96.29334 18.03959 33.04891
#
# Poissons Ratio (x) = 0.13273 0.20894
# Poissons Ratio (y) = 0.70848 0.10131
# Poissons Ratio (z) = 0.60877 0.05530
#
# Static dielectric constant tensor:
#      x y z
#    x 4.041650 0.000000 0.042800 
#    y 0.000000 3.286510 0.000000 
#    z 0.042800 0.000000 3.609950 
# 
# 
# High freq. dielectric constant tensor:
#      x y z
#    x 1.814470 0.000000 0.002520 
#    y 0.000000 1.734820 0.000000 
#    z 0.002520 0.000000 1.788320 
# 
# From -- ./inp_files/35324.got.cif
#   From: 2010.03.12/outbox.cif.g09.slc.cpg/sg14_18_cif.got.tgz:35324.got - 2010.03.31 13:35:05.
