data_PCOD8123006
_publ_section_title
;
Structure prediction by ZEFSAII (Michael W. Deem and Ramdas Pophale) SiO2 
 PCOD8123006
Probable space group: P 2/C
;
_chemical_formula_sum "Si O2"
_cell_formula_units_Z 18
_cell_length_a 15.040350
_cell_length_b 5.865183
_cell_length_c 14.196064
_cell_angle_alpha 90.000000
_cell_angle_beta 35.806289
_cell_angle_gamma 90.000000
_cell_volume 732.652423
_symmetry_space_group_name_H-M "P 2/C"
_symmetry_group_IT_number 13
_symmetry_cell_setting 'monoclinic'
loop_
_space_group_symop_operation_xyz
x,y,z
-x,y,1/2-z
-x,-y,-z
x,-y,1/2+z
loop_
_atom_site_type_symbol
_atom_site_label
_atom_site_fract_x
_atom_site_fract_y
_atom_site_fract_z
Si Si1 0.089950 0.124542 0.817289
Si Si2 0.554046 0.540156 0.304657
Si Si3 0.000000 0.442788 0.750000
Si Si4 0.142751 0.237607 0.972633
Si Si5 0.373353 0.191626 0.103785
O O1 0.123198 0.285843 0.699506
O O2 0.211120 0.920101 0.721326
O O3 0.085986 0.281859 0.914075
O O4 0.922776 0.011569 0.944061
O O5 0.500000 0.448644 0.250000
O O6 0.633150 0.331410 0.292642
O O7 0.410726 0.634395 0.486766
O O8 0.674133 0.748521 0.186957
O O9 0.087303 0.581211 0.596027
O O10 0.500000 0.000000 0.000000
#
# Coordination Sequence:
#
# PCOD8123006 Si02
#       5
#     4   4   2   4   4
#     4  11  27  49  75 107 147 194 245 299 364 433
#     4  11  28  46  77 107 145 194 242 298 365 434
#     4  12  28  42  78 108 146 192 246 302 354 438
#     4  11  27  48  72 108 149 192 241 303 362 427
#     4  11  26  50  73 108 151 188 237 308 363 428
#
# _framework density 24.568266999999999
#
# number of rings (size 3 to 8) (size 9 to 14) (size 15 to 20)
#    0.000    0.889    2.222    1.333   18.667    0.889 
#    0.000    0.000    0.000    0.000    0.000    0.000 
#    0.000    0.000    0.000    0.000    0.000    0.000 
#
# Total GULP energy -223138.469926 kJ/mol
# GULP energy per Si atom -12396.581663 kJ/mol
# Density = 2.451235 g / cm^3
# Si number density = 24.568267 Si / 1000 Ang^3
#
#
#
# Elastic Constant Matrix: (Units=GPa)
#
#
# Indices 1 2 3 4 5 6 
#
# 1 141.1154 72.4322 72.8546 0.0000 44.6125 0.0000
# 2 72.4322 88.4818 51.6660 0.0000 21.8422 0.0000
# 3 72.8546 51.6660 124.8444 0.0000 17.9168 0.0000
# 4 0.0000 0.0000 0.0000 39.3661 0.0000 3.9552
# 5 44.6125 21.8422 17.9168 0.0000 45.4509 0.0000
# 6 0.0000 0.0000 0.0000 3.9552 0.0000 53.6173
#
#
#
# Elastic Compliance Matrix: (Units=1/GPa)
#
#
# Indices 1 2 3 4 5 6 
#
# 1 0.017806 -0.008807 -0.005136 0.000000 -0.011220 0.000000
# 2 -0.008807 0.020422 -0.003333 0.000000 0.000145 0.000000
# 3 -0.005136 -0.003333 0.012118 0.000000 0.001865 0.000000
# 4 0.000000 0.000000 0.000000 0.025592 0.000000 -0.001888
# 5 -0.011220 0.000145 0.001865 0.000000 0.032210 0.000000
# 6 0.000000 0.000000 0.000000 -0.001888 0.000000 0.018790
#
#
# Mechanical properties :
#
#
# Convention : Reuss Voigt Hill
#
# Bulk Modulus (GPa) = 63.31182 83.14969 73.23075
# Shear Modulus (GPa) = 29.98425 38.18611 34.08518
#
# Velocity S-wave (km/s) = 3.49728 3.94672 3.72878
# Velocity P-wave (km/s) = 6.49104 7.39504 6.95774
#
# Compressibility (1/GPa) = 0.01579484
#
# Stress axis : x y z
#
# Youngs Moduli (GPa) = 56.16187 48.96733 82.51941
#
# Poissons Ratio (x) = 0.43127 0.42379
# Poissons Ratio (y) = 0.49464 0.27500
# Poissons Ratio (z) = 0.28843 0.16318
#
# Static dielectric constant tensor:
#      x y z
#    x 4.561470 0.000000 0.198300 
#    y 0.000000 4.375390 0.000000 
#    z 0.198300 0.000000 4.657360 
# 
# 
# High freq. dielectric constant tensor:
#      x y z
#    x 1.979310 0.000000 0.017960 
#    y 0.000000 1.971730 0.000000 
#    z 0.017960 0.000000 1.985380 
# 
# From -- ./inp_files/52015.got.cif
#   From: 2010.06.25/outbox.cif.g09.slc.cpg/sg13_27_cif.got.tgz:52015.got - 2010.06.28 04:50:58.
