data_PCOD8123422
_publ_section_title
;
Structure prediction by ZEFSAII (Michael W. Deem and Ramdas Pophale) SiO2 
 PCOD8123422
Probable space group: P 21/C
;
_chemical_formula_sum "Si O2"
_cell_formula_units_Z 28
_cell_length_a 27.470474
_cell_length_b 9.135232
_cell_length_c 8.907264
_cell_angle_alpha 90.000000
_cell_angle_beta 39.545213
_cell_angle_gamma 90.000000
_cell_volume 1423.167407
_symmetry_space_group_name_H-M "P 21/C"
_symmetry_group_IT_number 14
_symmetry_cell_setting 'monoclinic'
loop_
_space_group_symop_operation_xyz
x,y,z
-x,1/2+y,1/2-z
-x,-y,-z
x,1/2-y,1/2+z
loop_
_atom_site_type_symbol
_atom_site_label
_atom_site_fract_x
_atom_site_fract_y
_atom_site_fract_z
Si Si1 0.581216 0.571650 0.278877
Si Si2 0.225293 0.102531 0.460031
Si Si3 0.916040 0.560213 0.194070
Si Si4 0.720032 0.361123 0.984867
Si Si5 0.138671 0.248348 0.418390
Si Si6 0.755573 0.073157 0.059625
Si Si7 0.646306 0.694697 0.835018
O O1 0.500000 0.500000 0.500000
O O2 0.593960 0.726695 0.333915
O O3 0.639161 0.443439 0.189311
O O4 0.589565 0.614143 0.084822
O O5 0.163178 0.121019 0.477303
O O6 0.304035 0.173139 0.209370
O O7 0.228120 0.934701 0.506818
O O8 0.209420 0.191557 0.652932
O O9 0.897958 0.619292 0.402501
O O10 0.846136 0.452839 0.311085
O O11 0.923112 0.685569 0.050624
O O12 0.000000 0.500000 0.000000
O O13 0.750789 0.377862 0.743788
O O14 0.719034 0.191383 0.032611
O O15 0.707944 0.926983 0.134056
#
# Coordination Sequence:
#
# PCOD8123422 Si02
#       7
#     4   4   4   4   4   4   4
#     4  10  23  41  61  94 126 156 203 253 311 371
#     4  10  17  37  63  90 109 159 214 252 287 370
#     4  11  24  40  60  90 125 159 208 262 318 363
#     4  10  23  36  59  91 123 156 205 259 299 353
#     4  10  19  38  65  83 119 158 213 252 304 377
#     4  11  22  38  59  88 122 157 215 250 302 370
#     4  10  20  38  68  86 117 169 207 244 304 374
#
# _framework density 19.674424999999999
#
# number of rings (size 3 to 8) (size 9 to 14) (size 15 to 20)
#    0.000    1.714    4.286    1.714    2.000    4.571 
#    0.000    2.857    0.000    0.000    0.000    0.000 
#    0.000    0.000    0.000    0.000    0.000    0.000 
#
# Total GULP energy -346879.292302 kJ/mol
# GULP energy per Si atom -12388.546154 kJ/mol
# Density = 1.962965 g / cm^3
# Si number density = 19.674425 Si / 1000 Ang^3
#
#
#
# Elastic Constant Matrix: (Units=GPa)
#
#
# Indices 1 2 3 4 5 6 
#
# 1 70.3413 39.0923 46.2025 0.0000 -5.9766 0.0000
# 2 39.0923 98.9516 35.1435 0.0000 -6.0921 0.0000
# 3 46.2025 35.1435 98.2335 0.0000 -9.6260 0.0000
# 4 0.0000 0.0000 0.0000 29.5176 0.0000 1.0607
# 5 -5.9766 -6.0921 -9.6260 0.0000 26.7461 0.0000
# 6 0.0000 0.0000 0.0000 1.0607 0.0000 37.4747
#
#
#
# Elastic Compliance Matrix: (Units=1/GPa)
#
#
# Indices 1 2 3 4 5 6 
#
# 1 0.023422 -0.006097 -0.008767 0.000000 0.000690 0.000000
# 2 -0.006097 0.013201 -0.001756 0.000000 0.001012 0.000000
# 3 -0.008767 -0.001756 0.015238 0.000000 0.003125 0.000000
# 4 0.000000 0.000000 0.000000 0.033913 0.000000 -0.000960
# 5 0.000690 0.001012 0.003125 0.000000 0.038898 0.000000
# 6 0.000000 0.000000 0.000000 -0.000960 0.000000 0.026712
#
#
# Mechanical properties :
#
#
# Convention : Reuss Voigt Hill
#
# Bulk Modulus (GPa) = 53.70505 56.48922 55.09713
# Shear Modulus (GPa) = 26.20136 28.55356 27.37746
#
# Velocity S-wave (km/s) = 3.65327 3.81373 3.73436
# Velocity P-wave (km/s) = 6.71947 6.94025 6.83075
#
# Compressibility (1/GPa) = 0.01862022
#
# Stress axis : x y z
#
# Youngs Moduli (GPa) = 42.69471 75.75448 65.62645
#
# Poissons Ratio (x) = 0.46187 0.57537
# Poissons Ratio (y) = 0.26031 0.11522
# Poissons Ratio (z) = 0.37432 0.13301
#
# Static dielectric constant tensor:
#      x y z
#    x 3.483920 0.000000 0.242270 
#    y 0.000000 3.772300 0.000000 
#    z 0.242270 0.000000 3.599790 
# 
# 
# High freq. dielectric constant tensor:
#      x y z
#    x 1.757980 0.000000 0.021360 
#    y 0.000000 1.763370 0.000000 
#    z 0.021360 0.000000 1.758580 
# 
# From -- ./inp_files/17602.got.cif
#   From: 2010.03.12/outbox.cif.g09.slc.cpg/sg14_9_cif.got.tgz:17602.got - 2010.03.31 13:35:05.
