data_PCOD8123441
_publ_section_title
;
Structure prediction by ZEFSAII (Michael W. Deem and Ramdas Pophale) SiO2 
 PCOD8123441
Probable space group: P 21/C
;
_chemical_formula_sum "Si O2"
_cell_formula_units_Z 32
_cell_length_a 5.260776
_cell_length_b 12.833216
_cell_length_c 24.906730
_cell_angle_alpha 90.000000
_cell_angle_beta 89.783020
_cell_angle_gamma 90.000000
_cell_volume 1681.507903
_symmetry_space_group_name_H-M "P 21/C"
_symmetry_group_IT_number 14
_symmetry_cell_setting 'monoclinic'
loop_
_space_group_symop_operation_xyz
x,y,z
-x,1/2+y,1/2-z
-x,-y,-z
x,1/2-y,1/2+z
loop_
_atom_site_type_symbol
_atom_site_label
_atom_site_fract_x
_atom_site_fract_y
_atom_site_fract_z
Si Si1 0.788585 0.249333 0.308827
Si Si2 0.750331 0.549072 0.044647
Si Si3 0.253398 0.338511 0.070032
Si Si4 0.755641 0.156466 0.422402
Si Si5 0.753501 0.199965 0.536981
Si Si6 0.217493 0.545827 0.752662
Si Si7 0.715520 0.611295 0.811818
Si Si8 0.711030 0.815627 0.749750
O O1 0.756347 0.233078 0.371956
O O2 0.769727 0.372319 0.296068
O O3 0.563835 0.189371 0.278157
O O4 0.064898 0.207407 0.292504
O O5 0.506861 0.592960 0.076193
O O6 0.721230 0.425894 0.041422
O O7 0.000354 0.580121 0.078297
O O8 0.773176 0.588853 0.983080
O O9 0.493904 0.259410 0.064663
O O10 0.265771 0.405424 0.124377
O O11 0.000535 0.265338 0.070492
O O12 0.771933 0.232179 0.474682
O O13 0.447181 0.564332 0.793951
O O14 0.248582 0.431475 0.727027
O O15 0.949544 0.551822 0.783980
O O16 0.727646 0.734468 0.798750
#
# Coordination Sequence:
#
# PCOD8123441 Si02
#       8
#     4   4   4   4   4   4   4   4
#     4  10  21  34  50  73  96 127 166 194 236 292
#     4  10  19  28  41  66  94 120 153 186 228 285
#     4  10  18  29  43  62  92 122 147 186 226 275
#     4  10  18  29  43  62  92 122 147 186 226 275
#     4  10  19  28  41  66  94 120 153 186 228 285
#     4  10  21  35  50  71  98 125 161 206 239 276
#     4  10  21  34  50  73  96 127 166 194 236 292
#     4  10  21  35  50  71  98 125 161 206 239 276
#
# _framework density 19.030539000000001
#
# number of rings (size 3 to 8) (size 9 to 14) (size 15 to 20)
#    0.000    2.000    0.000    6.000    0.000    8.000 
#    0.000    0.000    0.000    0.000    0.000    7.000 
#    0.000    0.000    0.000    0.000    0.000    0.000 
#
# Total GULP energy -396585.547092 kJ/mol
# GULP energy per Si atom -12393.298347 kJ/mol
# Density = 1.898722 g / cm^3
# Si number density = 19.030539 Si / 1000 Ang^3
#
#
#
# Elastic Constant Matrix: (Units=GPa)
#
#
# Indices 1 2 3 4 5 6 
#
# 1 127.7251 -6.0959 11.2264 0.0000 7.6011 0.0000
# 2 -6.0959 69.4858 9.6664 0.0000 3.1720 0.0000
# 3 11.2264 9.6664 64.3699 0.0000 3.2683 0.0000
# 4 0.0000 0.0000 0.0000 13.8988 0.0000 0.5834
# 5 7.6011 3.1720 3.2683 0.0000 20.8526 0.0000
# 6 0.0000 0.0000 0.0000 0.5834 0.0000 9.6602
#
#
#
# Elastic Compliance Matrix: (Units=1/GPa)
#
#
# Indices 1 2 3 4 5 6 
#
# 1 0.008179 0.001050 -0.001436 0.000000 -0.002916 0.000000
# 2 0.001050 0.014909 -0.002306 0.000000 -0.002289 0.000000
# 3 -0.001436 -0.002306 0.016217 0.000000 -0.001667 0.000000
# 4 0.000000 0.000000 0.000000 0.072132 0.000000 -0.004356
# 5 -0.002916 -0.002289 -0.001667 0.000000 0.049628 0.000000
# 6 0.000000 0.000000 0.000000 -0.004356 0.000000 0.103780
#
#
# Mechanical properties :
#
#
# Convention : Reuss Voigt Hill
#
# Bulk Modulus (GPa) = 29.47973 32.35274 30.91623
# Shear Modulus (GPa) = 17.75977 25.33460 21.54718
#
# Velocity S-wave (km/s) = 3.05819 3.65260 3.36853
# Velocity P-wave (km/s) = 5.29097 5.90136 5.60448
#
# Compressibility (1/GPa) = 0.03392162
#
# Stress axis : x y z
#
# Youngs Moduli (GPa) = 122.26099 67.07425 61.66521
#
# Poissons Ratio (x) = -0.07046 0.08856
# Poissons Ratio (y) = -0.12843 0.14219
# Poissons Ratio (z) = 0.17559 0.15466
#
# Static dielectric constant tensor:
#      x y z
#    x 4.919820 0.000000 -0.023900 
#    y 0.000000 3.091370 0.000000 
#    z -0.023900 0.000000 3.364360 
# 
# 
# High freq. dielectric constant tensor:
#      x y z
#    x 1.788190 0.000000 -0.000660 
#    y 0.000000 1.673020 0.000000 
#    z -0.000660 0.000000 1.728660 
# 
# From -- ./inp_files/22130.got.cif
#   From: 2010.03.12/outbox.cif.g09.slc.cpg/sg14_12_cif.got.tgz:22130.got - 2010.03.31 13:35:05.
