data_PCOD8123550
_publ_section_title
;
Structure prediction by ZEFSAII (Michael W. Deem and Ramdas Pophale) SiO2 
 PCOD8123550
Probable space group: P 21/C
;
_chemical_formula_sum "Si O2"
_cell_formula_units_Z 32
_cell_length_a 7.878154
_cell_length_b 11.735050
_cell_length_c 18.108598
_cell_angle_alpha 90.000000
_cell_angle_beta 110.668195
_cell_angle_gamma 90.000000
_cell_volume 1566.401410
_symmetry_space_group_name_H-M "P 21/C"
_symmetry_group_IT_number 14
_symmetry_cell_setting 'monoclinic'
loop_
_space_group_symop_operation_xyz
x,y,z
-x,1/2+y,1/2-z
-x,-y,-z
x,1/2-y,1/2+z
loop_
_atom_site_type_symbol
_atom_site_label
_atom_site_fract_x
_atom_site_fract_y
_atom_site_fract_z
Si Si1 0.716726 0.758173 0.612584
Si Si2 0.298570 0.820759 0.376769
Si Si3 0.116536 0.026027 0.280154
Si Si4 0.048671 0.267139 0.994005
Si Si5 0.669556 0.356627 0.956873
Si Si6 0.653511 0.905471 0.388064
Si Si7 0.004669 0.172485 0.138644
Si Si8 0.204798 0.385307 0.238608
O O1 0.798424 0.874098 0.658145
O O2 0.836265 0.724463 0.558976
O O3 0.502720 0.771798 0.563679
O O4 0.725652 0.652649 0.670554
O O5 0.262499 0.882945 0.449851
O O6 0.513070 0.808590 0.394756
O O7 0.206490 0.694659 0.368220
O O8 0.226802 0.907476 0.301997
O O9 0.098203 0.063345 0.191031
O O10 0.912015 0.000959 0.275302
O O11 0.843272 0.304104 0.939483
O O12 0.150663 0.374433 0.047795
O O13 0.033054 0.166826 0.054221
O O14 0.596353 0.470581 0.907761
O O15 0.637685 0.910346 0.296542
O O16 0.089039 0.286373 0.184232
#
# Coordination Sequence:
#
# PCOD8123550 Si02
#       8
#     4   4   4   4   4   4   4   4
#     4  11  20  37  57  84 113 146 187 229 278 328
#     4  10  18  32  57  85 111 141 179 233 279 329
#     4  10  18  37  55  76 113 147 181 228 276 325
#     4  10  20  34  56  79 112 146 182 227 281 327
#     4  11  20  33  57  89 112 141 181 231 289 334
#     4  11  18  34  53  82 115 141 177 234 287 327
#     4   8  19  35  54  78 109 149 183 223 281 330
#     4   9  21  35  52  79 114 145 187 230 268 333
#
# _framework density 20.428991
#
# number of rings (size 3 to 8) (size 9 to 14) (size 15 to 20)
#    0.000    2.000    2.500    3.000    0.000    0.000 
#    9.000    0.625    0.000    3.000    0.000    0.000 
#    0.000    0.000    0.000    0.000    0.000    0.000 
#
# Total GULP energy -396433.225750 kJ/mol
# GULP energy per Si atom -12388.538305 kJ/mol
# Density = 2.038249 g / cm^3
# Si number density = 20.428991 Si / 1000 Ang^3
#
#
#
# Elastic Constant Matrix: (Units=GPa)
#
#
# Indices 1 2 3 4 5 6 
#
# 1 131.2143 13.6399 43.0226 0.0000 0.3350 0.0000
# 2 13.6399 29.5003 22.8436 0.0000 4.7840 0.0000
# 3 43.0226 22.8436 97.0440 0.0000 -9.0508 0.0000
# 4 0.0000 0.0000 0.0000 24.4344 0.0000 5.4462
# 5 0.3350 4.7840 -9.0508 0.0000 27.8000 0.0000
# 6 0.0000 0.0000 0.0000 5.4462 0.0000 13.1659
#
#
#
# Elastic Compliance Matrix: (Units=1/GPa)
#
#
# Indices 1 2 3 4 5 6 
#
# 1 0.008994 -0.000965 -0.003873 0.000000 -0.001203 0.000000
# 2 -0.000965 0.044848 -0.011188 0.000000 -0.011348 0.000000
# 3 -0.003873 -0.011188 0.015303 0.000000 0.006954 0.000000
# 4 0.000000 0.000000 0.000000 0.045083 0.000000 -0.018649
# 5 -0.001203 -0.011348 0.006954 0.000000 0.040203 0.000000
# 6 0.000000 0.000000 0.000000 -0.018649 0.000000 0.083668
#
#
# Mechanical properties :
#
#
# Convention : Reuss Voigt Hill
#
# Bulk Modulus (GPa) = 26.95742 46.30785 36.63264
# Shear Modulus (GPa) = 17.69825 24.96355 21.33090
#
# Velocity S-wave (km/s) = 2.94654 3.49946 3.23483
# Velocity P-wave (km/s) = 4.98001 6.24861 5.65003
#
# Compressibility (1/GPa) = 0.03709554
#
# Stress axis : x y z
#
# Youngs Moduli (GPa) = 111.18275 22.29774 65.34460
#
# Poissons Ratio (x) = 0.02151 0.25305
# Poissons Ratio (y) = 0.10727 0.73105
# Poissons Ratio (z) = 0.43056 0.24946
#
# Static dielectric constant tensor:
#      x y z
#    x 3.959970 0.000000 -0.097890 
#    y 0.000000 3.266140 0.000000 
#    z -0.097890 0.000000 3.886190 
# 
# 
# High freq. dielectric constant tensor:
#      x y z
#    x 1.807290 0.000000 -0.001460 
#    y 0.000000 1.743220 0.000000 
#    z -0.001460 0.000000 1.795880 
# 
# From -- ./inp_files/55464.got.cif
#   From: 2010.03.12/outbox.cif.g09.slc.cpg/sg14_28_cif.got.tgz:55464.got - 2010.03.31 13:35:05.
