data_PCOD8123573
_publ_section_title
;
Structure prediction by ZEFSAII (Michael W. Deem and Ramdas Pophale) SiO2 
 PCOD8123573
Probable space group: P 21/C
;
_chemical_formula_sum "Si O2"
_cell_formula_units_Z 32
_cell_length_a 9.512060
_cell_length_b 14.340235
_cell_length_c 19.977642
_cell_angle_alpha 90.000000
_cell_angle_beta 42.908196
_cell_angle_gamma 90.000000
_cell_volume 1855.286503
_symmetry_space_group_name_H-M "P 21/C"
_symmetry_group_IT_number 14
_symmetry_cell_setting 'monoclinic'
loop_
_space_group_symop_operation_xyz
x,y,z
-x,1/2+y,1/2-z
-x,-y,-z
x,1/2-y,1/2+z
loop_
_atom_site_type_symbol
_atom_site_label
_atom_site_fract_x
_atom_site_fract_y
_atom_site_fract_z
Si Si1 0.291551 0.488961 0.860485
Si Si2 0.409039 0.665365 0.228407
Si Si3 0.260805 0.793435 0.398257
Si Si4 0.013374 0.955878 0.651318
Si Si5 0.373886 0.833376 0.498039
Si Si6 0.882515 0.197200 0.291601
Si Si7 0.180732 0.175500 0.477809
Si Si8 0.160771 0.150411 0.635999
O O1 0.521843 0.441318 0.778129
O O2 0.310786 0.599698 0.859615
O O3 0.170210 0.437507 0.965189
O O4 0.179360 0.457860 0.831211
O O5 0.357651 0.722044 0.312584
O O6 0.218585 0.665010 0.243190
O O7 0.607777 0.717655 0.125801
O O8 0.351749 0.769742 0.439542
O O9 0.015539 0.776001 0.487988
O O10 0.226513 0.924478 0.539374
O O11 0.974476 0.884305 0.726611
O O12 0.038141 0.054902 0.677305
O O13 0.300687 0.778358 0.590739
O O14 0.608162 0.867550 0.419565
O O15 0.033129 0.284182 0.230143
O O16 0.167913 0.195959 0.560471
#
# Coordination Sequence:
#
# PCOD8123573 Si02
#       8
#     4   4   4   4   4   4   4   4
#     4  10  20  34  55  83 111 131 184 222 269 318
#     4  10  22  33  53  84 107 140 179 219 267 328
#     4  12  20  35  59  78 112 144 169 228 277 301
#     4  10  20  35  53  85 109 134 180 226 269 314
#     4  10  22  32  54  86 107 133 186 222 268 315
#     4  10  22  35  50  84 111 138 177 223 262 330
#     4  10  18  33  55  82 101 137 179 222 260 323
#     4  12  20  34  59  74 114 144 169 223 280 299
#
# _framework density 17.248010000000001
#
# number of rings (size 3 to 8) (size 9 to 14) (size 15 to 20)
#    1.500    0.000    5.000    1.500    3.500    0.000 
#    0.000    0.000    0.000    3.000    0.000    0.000 
#    0.000    0.000    0.000    0.000    0.000    0.000 
#
# Total GULP energy -396470.499031 kJ/mol
# GULP energy per Si atom -12389.703095 kJ/mol
# Density = 1.720875 g / cm^3
# Si number density = 17.248010 Si / 1000 Ang^3
#
#
#
# Elastic Constant Matrix: (Units=GPa)
#
#
# Indices 1 2 3 4 5 6 
#
# 1 90.4408 8.4169 6.0519 0.0000 11.6177 0.0000
# 2 8.4169 23.0222 16.2004 0.0000 -3.9881 0.0000
# 3 6.0519 16.2004 44.5383 0.0000 5.9491 0.0000
# 4 0.0000 0.0000 0.0000 19.9422 0.0000 5.5523
# 5 11.6177 -3.9881 5.9491 0.0000 27.3030 0.0000
# 6 0.0000 0.0000 0.0000 5.5523 0.0000 18.4245
#
#
#
# Elastic Compliance Matrix: (Units=1/GPa)
#
#
# Indices 1 2 3 4 5 6 
#
# 1 0.012443 -0.006914 0.001716 0.000000 -0.006679 0.000000
# 2 -0.006914 0.067529 -0.026094 0.000000 0.018491 0.000000
# 3 0.001716 -0.026094 0.033286 0.000000 -0.011794 0.000000
# 4 0.000000 0.000000 0.000000 0.054738 0.000000 -0.016496
# 5 -0.006679 0.018491 -0.011794 0.000000 0.044739 0.000000
# 6 0.000000 0.000000 0.000000 -0.016496 0.000000 0.059246
#
#
# Mechanical properties :
#
#
# Convention : Reuss Voigt Hill
#
# Bulk Modulus (GPa) = 19.73324 24.37109 22.05216
# Shear Modulus (GPa) = 14.22652 21.62274 17.92463
#
# Velocity S-wave (km/s) = 2.87509 3.54451 3.22720
# Velocity P-wave (km/s) = 4.74207 5.55985 5.16716
#
# Compressibility (1/GPa) = 0.05067593
#
# Stress axis : x y z
#
# Youngs Moduli (GPa) = 80.36341 14.80846 30.04253
#
# Poissons Ratio (x) = 0.10238 -0.05156
# Poissons Ratio (y) = 0.55562 0.78392
# Poissons Ratio (z) = -0.13791 0.38641
#
# Static dielectric constant tensor:
#      x y z
#    x 3.409280 0.000000 0.039000 
#    y 0.000000 2.852180 0.000000 
#    z 0.039000 0.000000 3.021100 
# 
# 
# High freq. dielectric constant tensor:
#      x y z
#    x 1.689990 0.000000 0.005120 
#    y 0.000000 1.626980 0.000000 
#    z 0.005120 0.000000 1.644380 
# 
# From -- ./inp_files/65735.got.cif
#   From: 2010.03.12/outbox.cif.g09.slc.cpg/sg14_33_cif.got.tgz:65735.got - 2010.03.31 13:35:05.
