data_PCOD8123753
_publ_section_title
;
Structure prediction by ZEFSAII (Michael W. Deem and Ramdas Pophale) SiO2 
 PCOD8123753
Probable space group: P 21/C
;
_chemical_formula_sum "Si O2"
_cell_formula_units_Z 28
_cell_length_a 13.855496
_cell_length_b 15.791941
_cell_length_c 8.889396
_cell_angle_alpha 90.000000
_cell_angle_beta 137.036290
_cell_angle_gamma 90.000000
_cell_volume 1325.616821
_symmetry_space_group_name_H-M "P 21/C"
_symmetry_group_IT_number 14
_symmetry_cell_setting 'monoclinic'
loop_
_space_group_symop_operation_xyz
x,y,z
-x,1/2+y,1/2-z
-x,-y,-z
x,1/2-y,1/2+z
loop_
_atom_site_type_symbol
_atom_site_label
_atom_site_fract_x
_atom_site_fract_y
_atom_site_fract_z
Si Si1 0.195573 0.169312 0.475691
Si Si2 0.757961 0.244268 0.147361
Si Si3 0.301694 0.015438 0.144885
Si Si4 0.106432 0.638618 0.455469
Si Si5 0.743736 0.840796 0.119849
Si Si6 0.564409 0.286936 0.679797
Si Si7 0.554813 0.603458 0.918698
O O1 0.207998 0.266305 0.436270
O O2 0.171729 0.166391 0.627844
O O3 0.339907 0.120091 0.600186
O O4 0.062241 0.124656 0.243179
O O5 0.848498 0.179478 0.151856
O O6 0.860727 0.299202 0.368767
O O7 0.646605 0.189443 0.119990
O O8 0.667317 0.307129 0.937405
O O9 0.442898 0.968583 0.245889
O O10 0.347065 0.078563 0.328904
O O11 0.184102 0.950237 0.070632
O O12 0.228352 0.069599 0.928569
O O13 0.577153 0.839466 0.965824
O O14 0.534683 0.186152 0.638886
#
# Coordination Sequence:
#
# PCOD8123753 Si02
#       7
#     4   4   4   4   4   4   4
#     4  11  24  44  62  92 127 177 211 250 320 402
#     4  10  19  36  60  89 119 165 209 255 307 382
#     4  11  23  40  65  97 128 163 211 276 322 363
#     4  11  24  41  64  90 131 168 215 258 317 388
#     4  11  23  38  70  90 127 165 216 266 320 375
#     4  10  18  36  63  93 116 161 211 262 308 383
#     4  10  21  41  64  92 129 161 212 264 323 372
#
# _framework density 21.122243000000001
#
# number of rings (size 3 to 8) (size 9 to 14) (size 15 to 20)
#    0.000    1.429    2.857    5.143    2.000    1.714 
#    0.000    0.000    0.000    0.000    0.000    0.000 
#    0.000    0.000    0.000    0.000    0.000    0.000 
#
# Total GULP energy -347260.607930 kJ/mol
# GULP energy per Si atom -12402.164569 kJ/mol
# Density = 2.107417 g / cm^3
# Si number density = 21.122243 Si / 1000 Ang^3
#
#
#
# Elastic Constant Matrix: (Units=GPa)
#
#
# Indices 1 2 3 4 5 6 
#
# 1 54.9417 16.0191 27.8276 0.0000 -4.3673 0.0000
# 2 16.0191 79.1084 27.1743 0.0000 -8.3709 0.0000
# 3 27.8276 27.1743 98.9355 0.0000 -2.3528 0.0000
# 4 0.0000 0.0000 0.0000 20.3738 0.0000 -2.3188
# 5 -4.3673 -8.3709 -2.3528 0.0000 38.9993 0.0000
# 6 0.0000 0.0000 0.0000 -2.3188 0.0000 22.0342
#
#
#
# Elastic Compliance Matrix: (Units=1/GPa)
#
#
# Indices 1 2 3 4 5 6 
#
# 1 0.021773 -0.002373 -0.005434 0.000000 0.001601 0.000000
# 2 -0.002373 0.014521 -0.003258 0.000000 0.002655 0.000000
# 3 -0.005434 -0.003258 0.012518 0.000000 -0.000553 0.000000
# 4 0.000000 0.000000 0.000000 0.049678 0.000000 0.005228
# 5 0.001601 0.002655 -0.000553 0.000000 0.026357 0.000000
# 6 0.000000 0.000000 0.000000 0.005228 0.000000 0.045934
#
#
# Mechanical properties :
#
#
# Convention : Reuss Voigt Hill
#
# Bulk Modulus (GPa) = 37.47868 41.66973 39.57420
# Shear Modulus (GPa) = 24.77644 27.07911 25.92777
#
# Velocity S-wave (km/s) = 3.42863 3.58441 3.50739
# Velocity P-wave (km/s) = 5.78413 6.07465 5.93117
#
# Compressibility (1/GPa) = 0.02668184
#
# Stress axis : x y z
#
# Youngs Moduli (GPa) = 45.92936 68.86384 79.88628
#
# Poissons Ratio (x) = 0.16340 0.43412
# Poissons Ratio (y) = 0.10898 0.26027
# Poissons Ratio (z) = 0.24959 0.22436
#
# Static dielectric constant tensor:
#      x y z
#    x 3.863560 0.000000 -0.009260 
#    y 0.000000 3.545310 0.000000 
#    z -0.009260 0.000000 3.946110 
# 
# 
# High freq. dielectric constant tensor:
#      x y z
#    x 1.827900 0.000000 -0.000540 
#    y 0.000000 1.800430 0.000000 
#    z -0.000540 0.000000 1.840370 
# 
# From -- ./inp_files/16279.got.cif
#   From: 2010.03.12/outbox.cif.g09.slc.cpg/sg14_9_cif.got.tgz:16279.got - 2010.03.31 13:35:05.
