data_PCOD8123868
_publ_section_title
;
Structure prediction by ZEFSAII (Michael W. Deem and Ramdas Pophale) SiO2 
 PCOD8123868
Probable space group: P 21/C
;
_chemical_formula_sum "Si O2"
_cell_formula_units_Z 24
_cell_length_a 7.906656
_cell_length_b 8.888790
_cell_length_c 18.747476
_cell_angle_alpha 90.000000
_cell_angle_beta 125.486531
_cell_angle_gamma 90.000000
_cell_volume 1072.845376
_symmetry_space_group_name_H-M "P 21/C"
_symmetry_group_IT_number 14
_symmetry_cell_setting 'monoclinic'
loop_
_space_group_symop_operation_xyz
x,y,z
-x,1/2+y,1/2-z
-x,-y,-z
x,1/2-y,1/2+z
loop_
_atom_site_type_symbol
_atom_site_label
_atom_site_fract_x
_atom_site_fract_y
_atom_site_fract_z
Si Si1 0.836363 0.095722 0.416518
Si Si2 0.811277 0.354200 0.177615
Si Si3 0.250728 0.425453 0.240686
Si Si4 0.597043 0.847182 0.645938
Si Si5 0.320134 0.554922 0.405023
Si Si6 0.929942 0.788144 0.132177
O O1 0.654590 0.165499 0.421693
O O2 0.976891 0.229315 0.418529
O O3 0.706232 0.998255 0.325785
O O4 0.000000 0.000000 0.500000
O O5 0.648575 0.476266 0.166530
O O6 0.706629 0.235282 0.097430
O O7 0.000196 0.440750 0.185293
O O8 0.898894 0.254618 0.264939
O O9 0.321406 0.249924 0.265413
O O10 0.368665 0.510014 0.334440
O O11 0.707637 0.786005 0.600591
O O12 0.500000 0.500000 0.500000
O O13 0.110234 0.468574 0.380207
#
# Coordination Sequence:
#
# PCOD8123868 Si02
#       6
#     4   4   4   4   4   4
#     4  12  26  40  65 100 137 182 229 277 340 413
#     4  10  18  41  71  92 124 178 212 280 341 393
#     4  10  21  44  61  98 129 165 229 271 333 404
#     4  10  23  40  71  91 129 183 216 283 338 394
#     4  10  21  36  70  96 124 172 217 275 338 395
#     4  10  21  45  61  97 132 166 231 270 338 405
#
# _framework density 22.370418999999998
#
# number of rings (size 3 to 8) (size 9 to 14) (size 15 to 20)
#    0.000    2.000    3.333    3.000    4.667    3.333 
#    0.000    0.000    0.000    6.000    0.000    0.000 
#    0.000    0.000    0.000    0.000    0.000    0.000 
#
# Total GULP energy -297421.356494 kJ/mol
# GULP energy per Si atom -12392.556521 kJ/mol
# Density = 2.231950 g / cm^3
# Si number density = 22.370419 Si / 1000 Ang^3
#
#
#
# Elastic Constant Matrix: (Units=GPa)
#
#
# Indices 1 2 3 4 5 6 
#
# 1 119.6972 28.6405 11.0209 0.0000 16.5239 0.0000
# 2 28.6405 112.4096 16.6598 0.0000 -0.5385 0.0000
# 3 11.0209 16.6598 82.5669 0.0000 6.8606 0.0000
# 4 0.0000 0.0000 0.0000 27.5807 0.0000 0.3947
# 5 16.5239 -0.5385 6.8606 0.0000 21.8399 0.0000
# 6 0.0000 0.0000 0.0000 0.3947 0.0000 28.4867
#
#
#
# Elastic Compliance Matrix: (Units=1/GPa)
#
#
# Indices 1 2 3 4 5 6 
#
# 1 0.010034 -0.002565 -0.000191 0.000000 -0.007595 0.000000
# 2 -0.002565 0.009840 -0.001873 0.000000 0.002772 0.000000
# 3 -0.000191 -0.001873 0.012842 0.000000 -0.003936 0.000000
# 4 0.000000 0.000000 0.000000 0.036264 0.000000 -0.000502
# 5 -0.007595 0.002772 -0.003936 0.000000 0.052839 0.000000
# 6 0.000000 0.000000 0.000000 -0.000502 0.000000 0.035111
#
#
# Mechanical properties :
#
#
# Convention : Reuss Voigt Hill
#
# Bulk Modulus (GPa) = 42.62837 47.47957 45.05397
# Shear Modulus (GPa) = 28.73429 32.80496 30.76962
#
# Velocity S-wave (km/s) = 3.58785 3.83357 3.71274
# Velocity P-wave (km/s) = 6.02168 6.39260 6.20991
#
# Compressibility (1/GPa) = 0.02345855
#
# Stress axis : x y z
#
# Youngs Moduli (GPa) = 99.65999 101.62164 77.87001
#
# Poissons Ratio (x) = 0.26063 0.01486
# Poissons Ratio (y) = 0.25560 0.14589
# Poissons Ratio (z) = 0.01901 0.19039
#
# Static dielectric constant tensor:
#      x y z
#    x 3.867920 0.000000 0.072810 
#    y 0.000000 4.266640 0.000000 
#    z 0.072810 0.000000 3.805320 
# 
# 
# High freq. dielectric constant tensor:
#      x y z
#    x 1.854030 0.000000 0.013000 
#    y 0.000000 1.893300 0.000000 
#    z 0.013000 0.000000 1.861580 
# 
# From -- ./inp_files/64882.got.cif
#   From: 2010.03.12/outbox.cif.g09.slc.cpg/sg14_33_cif.got.tgz:64882.got - 2010.03.31 13:35:05.
