data_PCOD8123421
_publ_section_title
;
Structure prediction by ZEFSAII (Michael W. Deem and Ramdas Pophale) SiO2 
 PCOD8123421
Probable space group: P 21/C
;
_chemical_formula_sum "Si O2"
_cell_formula_units_Z 24
_cell_length_a 16.137754
_cell_length_b 8.468903
_cell_length_c 17.754440
_cell_angle_alpha 90.000000
_cell_angle_beta 29.083692
_cell_angle_gamma 90.000000
_cell_volume 1179.480951
_symmetry_space_group_name_H-M "P 21/C"
_symmetry_group_IT_number 14
_symmetry_cell_setting 'monoclinic'
loop_
_space_group_symop_operation_xyz
x,y,z
-x,1/2+y,1/2-z
-x,-y,-z
x,1/2-y,1/2+z
loop_
_atom_site_type_symbol
_atom_site_label
_atom_site_fract_x
_atom_site_fract_y
_atom_site_fract_z
Si Si1 0.210276 0.172998 0.850801
Si Si2 0.064569 0.054436 0.260673
Si Si3 0.692904 0.151268 0.286767
Si Si4 0.919995 0.149194 0.519627
Si Si5 0.013778 0.801676 0.834058
Si Si6 0.395251 0.158704 0.082001
O O1 0.333915 0.306740 0.716510
O O2 0.032743 0.191792 0.945357
O O3 0.303316 0.005055 0.767511
O O4 0.160917 0.205791 0.977360
O O5 0.023512 0.090889 0.207723
O O6 0.237621 0.138677 0.150227
O O7 0.911780 0.114252 0.437196
O O8 0.078326 0.867724 0.256196
O O9 0.504994 0.189173 0.467702
O O10 0.828431 0.123298 0.246098
O O11 0.737635 0.305635 0.199605
O O12 0.000000 0.000000 0.500000
O O13 0.500000 0.000000 0.000000
#
# Coordination Sequence:
#
# PCOD8123421 Si02
#       6
#     4   4   4   4   4   4
#     4  10  22  37  62  91 124 157 211 254 301 370
#     4  11  24  38  62  92 125 158 205 259 314 363
#     4  11  21  39  67  91 121 160 209 255 303 370
#     4  10  17  37  62  87 115 167 207 244 292 376
#     4  11  23  40  60  94 125 158 205 259 308 366
#     4  11  22  42  65  87 121 169 209 246 312 377
#
# _framework density 20.347933000000001
#
# number of rings (size 3 to 8) (size 9 to 14) (size 15 to 20)
#    0.000    1.333    5.000    3.500    7.000    0.000 
#    0.000    3.333    0.000    0.000    0.000    0.000 
#    0.000    0.000    0.000    0.000    0.000    0.000 
#
# Total GULP energy -297440.537004 kJ/mol
# GULP energy per Si atom -12393.355709 kJ/mol
# Density = 2.030162 g / cm^3
# Si number density = 20.347933 Si / 1000 Ang^3
#
#
#
# Elastic Constant Matrix: (Units=GPa)
#
#
# Indices 1 2 3 4 5 6 
#
# 1 81.3351 26.1742 48.5655 0.0000 20.9100 0.0000
# 2 26.1742 86.9264 28.7024 0.0000 8.6341 0.0000
# 3 48.5655 28.7024 122.6116 0.0000 19.8484 0.0000
# 4 0.0000 0.0000 0.0000 43.4238 0.0000 5.4794
# 5 20.9100 8.6341 19.8484 0.0000 32.3886 0.0000
# 6 0.0000 0.0000 0.0000 5.4794 0.0000 24.3010
#
#
#
# Elastic Compliance Matrix: (Units=1/GPa)
#
#
# Indices 1 2 3 4 5 6 
#
# 1 0.018472 -0.003020 -0.005339 0.000000 -0.007849 0.000000
# 2 -0.003020 0.013047 -0.001788 0.000000 -0.000433 0.000000
# 3 -0.005339 -0.001788 0.011161 0.000000 -0.002916 0.000000
# 4 0.000000 0.000000 0.000000 0.023703 0.000000 -0.005345
# 5 -0.007849 -0.000433 -0.002916 0.000000 0.037845 0.000000
# 6 0.000000 0.000000 0.000000 -0.005345 0.000000 0.042356
#
#
# Mechanical properties :
#
#
# Convention : Reuss Voigt Hill
#
# Bulk Modulus (GPa) = 44.66990 55.30637 49.98814
# Shear Modulus (GPa) = 28.67957 32.51808 30.59883
#
# Velocity S-wave (km/s) = 3.75835 4.00196 3.88207
# Velocity P-wave (km/s) = 6.39017 6.97091 6.68685
#
# Compressibility (1/GPa) = 0.02238644
#
# Stress axis : x y z
#
# Youngs Moduli (GPa) = 54.13454 76.64851 89.59488
#
# Poissons Ratio (x) = 0.23145 0.47838
# Poissons Ratio (y) = 0.16346 0.16020
# Poissons Ratio (z) = 0.28905 0.13705
#
# Static dielectric constant tensor:
#      x y z
#    x 3.351120 0.000000 0.217520 
#    y 0.000000 3.767620 0.000000 
#    z 0.217520 0.000000 4.336750 
# 
# 
# High freq. dielectric constant tensor:
#      x y z
#    x 1.736200 0.000000 0.021610 
#    y 0.000000 1.811620 0.000000 
#    z 0.021610 0.000000 1.814340 
# 
# From -- ./inp_files/54508.got.cif
#   From: 2010.03.12/outbox.cif.g09.slc.cpg/sg14_28_cif.got.tgz:54508.got - 2010.03.31 13:35:05.
