data_PCOD8123557
_publ_section_title
;
Structure prediction by ZEFSAII (Michael W. Deem and Ramdas Pophale) SiO2 
 PCOD8123557
Probable space group: P 21/C
;
_chemical_formula_sum "Si O2"
_cell_formula_units_Z 32
_cell_length_a 12.083108
_cell_length_b 8.136011
_cell_length_c 27.479919
_cell_angle_alpha 90.000000
_cell_angle_beta 143.270961
_cell_angle_gamma 90.000000
_cell_volume 1615.584369
_symmetry_space_group_name_H-M "P 21/C"
_symmetry_group_IT_number 14
_symmetry_cell_setting 'monoclinic'
loop_
_space_group_symop_operation_xyz
x,y,z
-x,1/2+y,1/2-z
-x,-y,-z
x,1/2-y,1/2+z
loop_
_atom_site_type_symbol
_atom_site_label
_atom_site_fract_x
_atom_site_fract_y
_atom_site_fract_z
Si Si1 0.786685 0.929911 0.349276
Si Si2 0.188654 0.139172 0.203472
Si Si3 0.175208 0.977168 0.819741
Si Si4 0.951635 0.666723 0.638030
Si Si5 0.452787 0.051943 0.641800
Si Si6 0.086869 0.849237 0.336169
Si Si7 0.318689 0.870244 0.779000
Si Si8 0.182083 0.039191 0.461590
O O1 0.775811 0.733135 0.335127
O O2 0.695439 0.974315 0.368046
O O3 0.672326 0.023486 0.266702
O O4 0.998155 0.988648 0.426062
O O5 0.105436 0.275729 0.210493
O O6 0.378085 0.071956 0.292309
O O7 0.040494 0.993202 0.143388
O O8 0.199991 0.795406 0.850723
O O9 0.333052 0.984785 0.832980
O O10 0.187162 0.112084 0.867093
O O11 0.971701 0.011780 0.723784
O O12 0.829805 0.767381 0.556292
O O13 0.117408 0.784300 0.714679
O O14 0.517032 0.240281 0.665323
O O15 0.359588 0.009548 0.557563
O O16 0.207187 0.930399 0.421618
#
# Coordination Sequence:
#
# PCOD8123557 Si02
#       8
#     4   4   4   4   4   4   4   4
#     4  10  19  38  58  79 103 147 192 227 265 329
#     4   9  19  34  56  84 104 137 188 231 261 322
#     4  11  16  32  60  82 100 144 188 225 262 320
#     4   9  18  32  57  79 107 139 185 220 266 332
#     4  11  22  35  55  79 116 144 178 231 286 310
#     4  10  18  32  61  81 108 138 190 220 265 332
#     4  10  19  33  55  84 106 138 187 227 267 322
#     4  10  20  38  53  82 112 145 178 227 276 337
#
# _framework density 19.807075999999999
#
# number of rings (size 3 to 8) (size 9 to 14) (size 15 to 20)
#    0.000    2.000    5.000    1.125    0.000    0.000 
#    0.000    5.625    0.000    0.000    0.000    0.000 
#    0.000    0.000    0.000    0.000    0.000    0.000 
#
# Total GULP energy -396580.084972 kJ/mol
# GULP energy per Si atom -12393.127655 kJ/mol
# Density = 1.976199 g / cm^3
# Si number density = 19.807076 Si / 1000 Ang^3
#
#
#
# Elastic Constant Matrix: (Units=GPa)
#
#
# Indices 1 2 3 4 5 6 
#
# 1 57.0174 20.9815 13.0220 0.0000 -19.1962 0.0000
# 2 20.9815 96.9916 28.1533 0.0000 -16.9604 0.0000
# 3 13.0220 28.1533 62.0324 0.0000 -18.5455 0.0000
# 4 0.0000 0.0000 0.0000 16.7562 0.0000 1.1935
# 5 -19.1962 -16.9604 -18.5455 0.0000 21.1849 0.0000
# 6 0.0000 0.0000 0.0000 1.1935 0.0000 27.1313
#
#
#
# Elastic Compliance Matrix: (Units=1/GPa)
#
#
# Indices 1 2 3 4 5 6 
#
# 1 0.025810 -0.002178 0.002764 0.000000 0.024064 0.000000
# 2 -0.002178 0.012755 -0.003886 0.000000 0.004836 0.000000
# 3 0.002764 -0.003886 0.023193 0.000000 0.019697 0.000000
# 4 0.000000 0.000000 0.000000 0.059867 0.000000 -0.002634
# 5 0.024064 0.004836 0.019697 0.000000 0.090123 0.000000
# 6 0.000000 0.000000 0.000000 -0.002634 0.000000 0.036974
#
#
# Mechanical properties :
#
#
# Convention : Reuss Voigt Hill
#
# Bulk Modulus (GPa) = 18.12925 37.81722 27.97323
# Shear Modulus (GPa) = 18.26778 23.27346 20.77062
#
# Velocity S-wave (km/s) = 3.04021 3.43156 3.24179
# Velocity P-wave (km/s) = 4.63645 5.90212 5.30715
#
# Compressibility (1/GPa) = 0.05515948
#
# Stress axis : x y z
#
# Youngs Moduli (GPa) = 38.74445 78.40127 43.11727
#
# Poissons Ratio (x) = 0.17075 -0.11920
# Poissons Ratio (y) = 0.08438 0.16754
# Poissons Ratio (z) = -0.10711 0.30464
#
# Static dielectric constant tensor:
#      x y z
#    x 3.645470 0.000000 -0.102280 
#    y 0.000000 3.913650 0.000000 
#    z -0.102280 0.000000 3.106980 
# 
# 
# High freq. dielectric constant tensor:
#      x y z
#    x 1.773530 0.000000 -0.011220 
#    y 0.000000 1.784580 0.000000 
#    z -0.011220 0.000000 1.721980 
# 
# From -- ./inp_files/77044.got.cif
#   From: 2010.03.12/outbox.cif.g09.slc.cpg/sg14_39_cif.got.tgz:77044.got - 2010.03.31 13:35:05.
