data_PCOD8123725
_publ_section_title
;
Structure prediction by ZEFSAII (Michael W. Deem and Ramdas Pophale) SiO2 
 PCOD8123725
Probable space group: P 21/C
;
_chemical_formula_sum "Si O2"
_cell_formula_units_Z 28
_cell_length_a 13.059582
_cell_length_b 17.617382
_cell_length_c 10.251338
_cell_angle_alpha 90.000000
_cell_angle_beta 142.396343
_cell_angle_gamma 90.000000
_cell_volume 1439.197403
_symmetry_space_group_name_H-M "P 21/C"
_symmetry_group_IT_number 14
_symmetry_cell_setting 'monoclinic'
loop_
_space_group_symop_operation_xyz
x,y,z
-x,1/2+y,1/2-z
-x,-y,-z
x,1/2-y,1/2+z
loop_
_atom_site_type_symbol
_atom_site_label
_atom_site_fract_x
_atom_site_fract_y
_atom_site_fract_z
Si Si1 0.185683 0.050974 0.807089
Si Si2 0.538461 0.255382 0.799069
Si Si3 0.172879 0.192358 0.443557
Si Si4 0.940841 0.707183 0.891988
Si Si5 0.318841 0.810465 0.801827
Si Si6 0.153163 0.017255 0.479581
Si Si7 0.461259 0.919922 0.762646
O O1 0.181060 0.142185 0.787166
O O2 0.185867 0.011445 0.666826
O O3 0.363308 0.033585 0.058252
O O4 0.028764 0.020526 0.734571
O O5 0.364214 0.212648 0.612742
O O6 0.628305 0.244919 0.748842
O O7 0.524399 0.345978 0.817944
O O8 0.651026 0.215322 0.021304
O O9 0.116859 0.232622 0.521933
O O10 0.063516 0.222187 0.211264
O O11 0.146858 0.102656 0.422291
O O12 0.124009 0.670453 0.086738
O O13 0.422105 0.887170 0.870035
O O14 0.305893 0.973270 0.561028
#
# Coordination Sequence:
#
# PCOD8123725 Si02
#       7
#     4   4   4   4   4   4   4
#     4  10  18  36  55  87 117 157 190 247 304 350
#     4  10  20  36  59  86 120 156 204 240 299 356
#     4  11  22  38  61  91 117 159 200 250 299 357
#     4  11  20  37  60  87 122 157 198 249 296 360
#     4  10  20  35  59  92 114 155 204 245 295 356
#     4  10  21  34  58  90 121 146 206 252 297 349
#     4  10  20  36  60  85 123 158 194 251 308 339
#
# _framework density 19.455287999999999
#
# number of rings (size 3 to 8) (size 9 to 14) (size 15 to 20)
#    0.857    0.857    2.857    3.857    0.000    0.000 
#    2.571    0.000    0.000    6.857    0.000    0.000 
#    0.000    0.000    0.000    0.000    0.000    0.000 
#
# Total GULP energy -347050.912108 kJ/mol
# GULP energy per Si atom -12394.675432 kJ/mol
# Density = 1.941101 g / cm^3
# Si number density = 19.455288 Si / 1000 Ang^3
#
#
#
# Elastic Constant Matrix: (Units=GPa)
#
#
# Indices 1 2 3 4 5 6 
#
# 1 37.3974 0.8586 11.4014 0.0000 13.3094 0.0000
# 2 0.8586 67.9082 22.4699 0.0000 4.4351 0.0000
# 3 11.4014 22.4699 88.5193 0.0000 26.3018 0.0000
# 4 0.0000 0.0000 0.0000 30.1733 0.0000 4.6149
# 5 13.3094 4.4351 26.3018 0.0000 35.8653 0.0000
# 6 0.0000 0.0000 0.0000 4.6149 0.0000 30.5003
#
#
#
# Elastic Compliance Matrix: (Units=1/GPa)
#
#
# Indices 1 2 3 4 5 6 
#
# 1 0.030869 0.000619 -0.000903 0.000000 -0.010869 0.000000
# 2 0.000619 0.016135 -0.004493 0.000000 0.001070 0.000000
# 3 -0.000903 -0.004493 0.015713 0.000000 -0.010632 0.000000
# 4 0.000000 0.000000 0.000000 0.033927 0.000000 -0.005133
# 5 -0.010869 0.001070 -0.010632 0.000000 0.039581 0.000000
# 6 0.000000 0.000000 0.000000 -0.005133 0.000000 0.033563
#
#
# Mechanical properties :
#
#
# Convention : Reuss Voigt Hill
#
# Bulk Modulus (GPa) = 18.81085 29.25385 24.03235
# Shear Modulus (GPa) = 25.37233 29.91412 27.64322
#
# Velocity S-wave (km/s) = 3.61520 3.92546 3.77352
# Velocity P-wave (km/s) = 5.20730 5.96781 5.60048
#
# Compressibility (1/GPa) = 0.05316081
#
# Stress axis : x y z
#
# Youngs Moduli (GPa) = 32.39456 61.97769 63.64102
#
# Poissons Ratio (x) = -0.03833 0.05749
# Poissons Ratio (y) = -0.02004 0.28597
# Poissons Ratio (z) = 0.02926 0.27849
#
# Static dielectric constant tensor:
#      x y z
#    x 3.581050 0.000000 0.219520 
#    y 0.000000 3.410820 0.000000 
#    z 0.219520 0.000000 3.422090 
# 
# 
# High freq. dielectric constant tensor:
#      x y z
#    x 1.737050 0.000000 0.035740 
#    y 0.000000 1.745950 0.000000 
#    z 0.035740 0.000000 1.750880 
# 
# From -- ./inp_files/32937.got.cif
#   From: 2010.03.12/outbox.cif.g09.slc.cpg/sg14_17_cif.got.tgz:32937.got - 2010.03.31 13:35:05.
