data_PCOD8123166
_publ_section_title
;
Structure prediction by ZEFSAII (Michael W. Deem and Ramdas Pophale) SiO2 
 PCOD8123166
Probable space group: P 2/C
;
_chemical_formula_sum "Si O2"
_cell_formula_units_Z 16
_cell_length_a 8.115268
_cell_length_b 9.510843
_cell_length_c 17.632688
_cell_angle_alpha 90.000000
_cell_angle_beta 151.687415
_cell_angle_gamma 90.000000
_cell_volume 645.470908
_symmetry_space_group_name_H-M "P 2/C"
_symmetry_group_IT_number 13
_symmetry_cell_setting 'monoclinic'
loop_
_space_group_symop_operation_xyz
x,y,z
-x,y,1/2-z
-x,-y,-z
x,-y,1/2+z
loop_
_atom_site_type_symbol
_atom_site_label
_atom_site_fract_x
_atom_site_fract_y
_atom_site_fract_z
Si Si1 0.337890 0.196577 0.511811
Si Si2 0.406510 0.440546 0.797342
Si Si3 0.662111 0.696577 0.988190
Si Si4 0.593490 0.940546 0.702658
O O1 0.305786 0.329783 0.555521
O O2 0.500001 0.249999 0.500001
O O3 0.965250 0.131116 0.345360
O O4 0.591899 0.080524 0.651446
O O5 0.500000 0.482965 0.750000
O O6 0.034749 0.368884 0.654639
O O7 0.408102 0.580523 0.848556
O O8 0.694213 0.829783 0.944478
O O9 0.500000 0.982963 0.750000
#
# Coordination Sequence:
#
# PCOD8123166 Si02
#       4
#     4   4   4   4
#     4  12  26  45  71 106 141 182 232 289 347 412
#     4  12  25  47  73 104 140 184 232 287 347 414
#     4  12  26  45  71 106 141 182 232 289 347 412
#     4  12  25  47  73 104 140 184 232 287 347 414
#
# _framework density 24.788104000000001
#
# number of rings (size 3 to 8) (size 9 to 14) (size 15 to 20)
#    0.000    0.000    0.000   10.500    0.000    4.000 
#    0.000    0.000    0.000    0.000    0.000    0.000 
#    0.000    0.000    0.000    0.000    0.000    0.000 
#
# Total GULP energy -198547.501759 kJ/mol
# GULP energy per Si atom -12409.218860 kJ/mol
# Density = 2.473169 g / cm^3
# Si number density = 24.788104 Si / 1000 Ang^3
#
#
#
# Elastic Constant Matrix: (Units=GPa)
#
#
# Indices 1 2 3 4 5 6 
#
# 1 171.1934 86.6108 80.0275 0.0000 -14.0142 0.0000
# 2 86.6108 171.7926 48.1046 0.0000 -41.1284 0.0000
# 3 80.0275 48.1046 90.9478 0.0000 -27.6837 0.0000
# 4 0.0000 0.0000 0.0000 69.5852 0.0000 -21.0733
# 5 -14.0142 -41.1284 -27.6837 0.0000 39.8216 0.0000
# 6 0.0000 0.0000 0.0000 -21.0733 0.0000 46.7321
#
#
#
# Elastic Compliance Matrix: (Units=1/GPa)
#
#
# Indices 1 2 3 4 5 6 
#
# 1 0.013386 -0.005722 -0.011564 0.000000 -0.009239 0.000000
# 2 -0.005722 0.010510 0.002749 0.000000 0.010753 0.000000
# 3 -0.011564 0.002749 0.024534 0.000000 0.015825 0.000000
# 4 0.000000 0.000000 0.000000 0.016644 0.000000 0.007505
# 5 -0.009239 0.010753 0.015825 0.000000 0.043968 0.000000
# 6 0.000000 0.000000 0.000000 0.007505 0.000000 0.024783
#
#
# Mechanical properties :
#
#
# Convention : Reuss Voigt Hill
#
# Bulk Modulus (GPa) = 51.66502 95.93552 73.80027
# Shear Modulus (GPa) = 29.52433 45.84051 37.68242
#
# Velocity S-wave (km/s) = 3.45493 4.30501 3.90318
# Velocity P-wave (km/s) = 6.06657 7.96850 7.08168
#
# Compressibility (1/GPa) = 0.01935545
#
# Stress axis : x y z
#
# Youngs Moduli (GPa) = 74.70498 95.14377 40.75968
#
# Poissons Ratio (x) = 0.54444 0.47135
# Poissons Ratio (y) = 0.42748 -0.11205
# Poissons Ratio (z) = 0.86390 -0.26155
#
# Static dielectric constant tensor:
#      x y z
#    x 4.469130 0.000000 -0.144650 
#    y 0.000000 5.100480 0.000000 
#    z -0.144650 0.000000 5.144810 
# 
# 
# High freq. dielectric constant tensor:
#      x y z
#    x 1.982000 0.000000 -0.016500 
#    y 0.000000 2.016160 0.000000 
#    z -0.016500 0.000000 2.008670 
# 
# From -- ./inp_files/10775.got.cif
#   From: 2010.06.25/outbox.cif.g09.slc.cpg/sg13_6_cif.got.tgz:10775.got - 2010.06.28 04:50:58.
