data_PCOD8123112
_publ_section_title
;
Structure prediction by ZEFSAII (Michael W. Deem and Ramdas Pophale) SiO2 
 PCOD8123112
Probable space group: P 2/C
;
_chemical_formula_sum "Si O2"
_cell_formula_units_Z 12
_cell_length_a 5.501239
_cell_length_b 21.789327
_cell_length_c 5.023814
_cell_angle_alpha 90.000000
_cell_angle_beta 52.996020
_cell_angle_gamma 90.000000
_cell_volume 480.909951
_symmetry_space_group_name_H-M "P 2/C"
_symmetry_group_IT_number 13
_symmetry_cell_setting 'monoclinic'
loop_
_space_group_symop_operation_xyz
x,y,z
-x,y,1/2-z
-x,-y,-z
x,-y,1/2+z
loop_
_atom_site_type_symbol
_atom_site_label
_atom_site_fract_x
_atom_site_fract_y
_atom_site_fract_z
Si Si1 0.000000 0.543723 0.250000
Si Si2 0.000000 0.204252 0.250000
Si Si3 0.500000 0.634511 0.750000
Si Si4 0.500000 0.284305 0.750000
Si Si5 0.500000 0.128172 0.250000
Si Si6 0.000000 0.956717 0.250000
O O1 0.724192 0.589733 0.449484
O O2 0.000000 0.500000 0.500000
O O3 0.805276 0.243691 0.596579
O O4 0.742332 0.166692 0.262447
O O5 0.392725 0.677419 0.579774
O O6 0.300866 0.085464 0.575793
O O7 0.000000 0.000000 0.500000
#
# Coordination Sequence:
#
# PCOD8123112 Si02
#       6
#     2   2   2   2   2   2
#     4  12  24  43  69 102 141 189 242 302 366 438
#     4  12  27  49  76 110 150 199 251 310 374 448
#     4  12  25  45  70 104 144 191 243 304 368 440
#     4  12  26  47  73 106 147 195 246 306 372 444
#     4  12  27  50  77 112 151 198 251 310 374 448
#     4  12  27  50  77 112 151 198 249 310 376 448
#
# _framework density 24.952696
#
# number of rings (size 3 to 8) (size 9 to 14) (size 15 to 20)
#    0.000    0.000    0.000   10.000    0.000    5.333 
#    0.000    0.000    0.000    0.000    0.000    0.000 
#    0.000    0.000    0.000    0.000    0.000    0.000 
#
# Total GULP energy -148684.715101 kJ/mol
# GULP energy per Si atom -12390.392925 kJ/mol
# Density = 2.489590 g / cm^3
# Si number density = 24.952696 Si / 1000 Ang^3
#
#
#
# Elastic Constant Matrix: (Units=GPa)
#
#
# Indices 1 2 3 4 5 6 
#
# 1 164.9880 91.9052 74.8448 0.0000 -3.4841 0.0000
# 2 91.9052 166.1041 91.7599 0.0000 -5.5914 0.0000
# 3 74.8448 91.7599 180.0044 0.0000 -11.0443 0.0000
# 4 0.0000 0.0000 0.0000 25.7698 0.0000 -18.6535
# 5 -3.4841 -5.5914 -11.0443 0.0000 63.5504 0.0000
# 6 0.0000 0.0000 0.0000 -18.6535 0.0000 8.2533
#
#
#
# Elastic Compliance Matrix: (Units=1/GPa)
#
#
# Indices 1 2 3 4 5 6 
#
# 1 0.009121 -0.004109 -0.001708 0.000000 -0.000158 0.000000
# 2 -0.004109 0.010231 -0.003503 0.000000 0.000066 0.000000
# 3 -0.001708 -0.003503 0.008113 0.000000 0.001008 0.000000
# 4 0.000000 0.000000 0.000000 -0.061016 0.000000 -0.137903
# 5 -0.000158 0.000066 0.001008 0.000000 0.015908 0.000000
# 6 0.000000 0.000000 0.000000 -0.137903 0.000000 -0.190513
#
#
# Mechanical properties :
#
#
# Convention : Reuss Voigt Hill
#
# Bulk Modulus (GPa) = 113.29696 114.23514 113.76605
# Shear Modulus (GPa) = -26.79888 36.35381 4.77747
#
# Velocity S-wave (km/s) = -3.28073 3.82109 1.38520
# Velocity P-wave (km/s) = 5.58143 8.08379 6.94622
#
# Compressibility (1/GPa) = 0.00882636
#
# Stress axis : x y z
#
# Youngs Moduli (GPa) = 109.63619 97.74252 123.25790
#
# Poissons Ratio (x) = 0.40158 0.21050
# Poissons Ratio (y) = 0.45045 0.43177
# Poissons Ratio (z) = 0.18724 0.34239
#
# Static dielectric constant tensor:
#      x y z
#    x 4.223590 0.000000 -0.389000 
#    y 0.000000 5.571660 0.000000 
#    z -0.389000 0.000000 3.610610 
# 
# 
# High freq. dielectric constant tensor:
#      x y z
#    x 1.978510 0.000000 -0.013370 
#    y 0.000000 2.029350 0.000000 
#    z -0.013370 0.000000 2.028130 
# 
# From -- ./inp_files/312.got.cif
#   From: 2010.06.25/outbox.cif.g09.slc.cpg/sg13_1_cif.got.tgz:312.got - 2010.06.28 04:50:58.
