data_PCOD8123514
_publ_section_title
;
Structure prediction by ZEFSAII (Michael W. Deem and Ramdas Pophale) SiO2 
 PCOD8123514
Probable space group: P 21/C
;
_chemical_formula_sum "Si O2"
_cell_formula_units_Z 32
_cell_length_a 21.899842
_cell_length_b 7.711584
_cell_length_c 22.825602
_cell_angle_alpha 90.000000
_cell_angle_beta 19.379303
_cell_angle_gamma 90.000000
_cell_volume 1279.115860
_symmetry_space_group_name_H-M "P 21/C"
_symmetry_group_IT_number 14
_symmetry_cell_setting 'monoclinic'
loop_
_space_group_symop_operation_xyz
x,y,z
-x,1/2+y,1/2-z
-x,-y,-z
x,1/2-y,1/2+z
loop_
_atom_site_type_symbol
_atom_site_label
_atom_site_fract_x
_atom_site_fract_y
_atom_site_fract_z
Si Si1 0.203848 0.032302 0.565443
Si Si2 0.379505 0.158514 0.967665
Si Si3 0.338834 0.323193 0.229823
Si Si4 0.805609 0.029540 0.962121
Si Si5 0.246352 0.820125 0.629689
Si Si6 0.126407 0.182556 0.525491
Si Si7 0.839309 0.689915 0.735000
Si Si8 0.262183 0.685809 0.359954
O O1 0.355062 0.166684 0.451565
O O2 0.198051 0.016611 0.499198
O O3 0.247204 0.847166 0.557291
O O4 0.003671 0.106382 0.765571
O O5 0.598285 0.158679 0.784537
O O6 0.319977 0.991515 0.982970
O O7 0.259056 0.165415 0.135840
O O8 0.233783 0.189845 0.367437
O O9 0.252954 0.308954 0.244217
O O10 0.320434 0.518057 0.269447
O O11 0.552054 0.263855 0.031756
O O12 0.832812 0.845176 0.969341
O O13 0.712100 0.155736 0.093600
O O14 0.094993 0.677069 0.785645
O O15 0.180952 0.001387 0.717606
O O16 0.053674 0.739220 0.533484
#
# Coordination Sequence:
#
# PCOD8123514 Si02
#       8
#     4   4   4   4   4   4   4   4
#     4   9  16  36  52  69 111 139 169 217 261 315
#     4  10  20  34  52  79 107 142 177 212 267 324
#     4  11  20  31  51  78 110 138 175 219 263 324
#     4   9  18  36  51  75 111 138 174 219 265 317
#     4  10  18  32  50  77 103 142 167 216 272 313
#     4   9  19  32  49  76 104 138 176 213 262 319
#     4  11  20  33  51  76 110 142 172 216 275 316
#     4  11  19  34  50  80 108 137 173 219 268 320
#
# _framework density 25.01728
#
# number of rings (size 3 to 8) (size 9 to 14) (size 15 to 20)
#    0.000    2.000    7.500    0.750    0.000    0.000 
#    9.000    0.000    0.000    0.750    0.000    1.750 
#    0.000    0.000    0.000    0.000    0.000    0.000 
#
# Total GULP energy -396693.034794 kJ/mol
# GULP energy per Si atom -12396.657337 kJ/mol
# Density = 2.496034 g / cm^3
# Si number density = 25.017280 Si / 1000 Ang^3
#
#
#
# Elastic Constant Matrix: (Units=GPa)
#
#
# Indices 1 2 3 4 5 6 
#
# 1 169.6552 20.2958 62.3360 0.0000 -5.5106 0.0000
# 2 20.2958 35.7196 20.3770 0.0000 -1.6287 0.0000
# 3 62.3360 20.3770 157.5884 0.0000 -34.3527 0.0000
# 4 0.0000 0.0000 0.0000 5.0872 0.0000 -6.4468
# 5 -5.5106 -1.6287 -34.3527 0.0000 39.0153 0.0000
# 6 0.0000 0.0000 0.0000 -6.4468 0.0000 17.2781
#
#
#
# Elastic Compliance Matrix: (Units=1/GPa)
#
#
# Indices 1 2 3 4 5 6 
#
# 1 0.007200 -0.002525 -0.002875 0.000000 -0.001620 0.000000
# 2 -0.002525 0.031342 -0.003523 0.000000 -0.002150 0.000000
# 3 -0.002875 -0.003523 0.009675 0.000000 0.007965 0.000000
# 4 0.000000 0.000000 0.000000 0.372890 0.000000 0.139132
# 5 -0.001620 -0.002150 0.007965 0.000000 0.032326 0.000000
# 6 0.000000 0.000000 0.000000 0.139132 0.000000 0.109790
#
#
# Mechanical properties :
#
#
# Convention : Reuss Voigt Hill
#
# Bulk Modulus (GPa) = 32.92471 63.22009 48.07240
# Shear Modulus (GPa) = 8.45751 29.60642 19.03197
#
# Velocity S-wave (km/s) = 1.84065 3.44385 2.76117
# Velocity P-wave (km/s) = 4.20793 6.41396 5.42428
#
# Compressibility (1/GPa) = 0.03037233
#
# Stress axis : x y z
#
# Youngs Moduli (GPa) = 138.88949 31.90609 103.36390
#
# Poissons Ratio (x) = 0.08056 0.29713
# Poissons Ratio (y) = 0.35069 0.36410
# Poissons Ratio (z) = 0.39925 0.11239
#
# Static dielectric constant tensor:
#      x y z
#    x 4.634820 0.000000 0.043350 
#    y 0.000000 4.106150 0.000000 
#    z 0.043350 0.000000 4.667130 
# 
# 
# High freq. dielectric constant tensor:
#      x y z
#    x 1.985470 0.000000 -0.006050 
#    y 0.000000 1.961550 0.000000 
#    z -0.006050 0.000000 2.009080 
# 
# From -- ./inp_files/69922.got.cif
#   From: 2010.03.12/outbox.cif.g09.slc.cpg/sg14_35_cif.got.tgz:69922.got - 2010.03.31 13:35:05.
