data_PCOD8123741
_publ_section_title
;
Structure prediction by ZEFSAII (Michael W. Deem and Ramdas Pophale) SiO2 
 PCOD8123741
Probable space group: P 21/C
;
_chemical_formula_sum "Si O2"
_cell_formula_units_Z 32
_cell_length_a 21.309479
_cell_length_b 9.564193
_cell_length_c 8.982500
_cell_angle_alpha 90.000000
_cell_angle_beta 114.659563
_cell_angle_gamma 90.000000
_cell_volume 1663.750030
_symmetry_space_group_name_H-M "P 21/C"
_symmetry_group_IT_number 14
_symmetry_cell_setting 'monoclinic'
loop_
_space_group_symop_operation_xyz
x,y,z
-x,1/2+y,1/2-z
-x,-y,-z
x,1/2-y,1/2+z
loop_
_atom_site_type_symbol
_atom_site_label
_atom_site_fract_x
_atom_site_fract_y
_atom_site_fract_z
Si Si1 0.122154 0.858291 0.202800
Si Si2 0.949530 0.372054 0.682613
Si Si3 0.755461 0.351377 0.686179
Si Si4 0.111124 0.368890 0.859832
Si Si5 0.338194 0.789809 0.645090
Si Si6 0.524803 0.191801 0.616869
Si Si7 0.532573 0.428267 0.815724
Si Si8 0.862904 0.586848 0.768454
O O1 0.072563 0.774174 0.265768
O O2 0.190042 0.771469 0.230582
O O3 0.145411 0.999700 0.309323
O O4 0.083882 0.892910 0.011840
O O5 0.927563 0.500148 0.767074
O O6 0.030760 0.369904 0.740388
O O7 0.712139 0.371908 0.793552
O O8 0.704929 0.310300 0.503913
O O9 0.793191 0.496097 0.682641
O O10 0.146996 0.228650 0.834260
O O11 0.122189 0.378199 0.046173
O O12 0.391607 0.686655 0.784603
O O13 0.383821 0.907838 0.603522
O O14 0.499735 0.348223 0.639391
O O15 0.501271 0.150420 0.429869
O O16 0.490220 0.087947 0.704375
#
# Coordination Sequence:
#
# PCOD8123741 Si02
#       8
#     4   4   4   4   4   4   4   4
#     4  11  22  36  59  85 111 152 190 245 281 343
#     4  11  21  38  58  89 107 147 194 239 300 353
#     4  11  21  38  59  79 114 149 204 214 270 349
#     4  12  22  39  58  80 119 143 190 248 305 339
#     4  10  18  36  60  83 108 157 180 229 265 338
#     4   9  18  34  58  88 117 143 188 225 289 317
#     4   9  18  34  58  89 115 146 181 233 280 326
#     4  11  24  37  58  83 111 155 185 243 291 345
#
# _framework density 19.23366
#
# number of rings (size 3 to 8) (size 9 to 14) (size 15 to 20)
#    0.750    0.750    1.250    6.750    0.000    0.500 
#    0.000    0.000    8.250    0.000    0.000    0.000 
#    0.000    0.000    0.000    0.000    0.000    0.000 
#
# Total GULP energy -396677.462844 kJ/mol
# GULP energy per Si atom -12396.170714 kJ/mol
# Density = 1.918988 g / cm^3
# Si number density = 19.233660 Si / 1000 Ang^3
#
#
#
# Elastic Constant Matrix: (Units=GPa)
#
#
# Indices 1 2 3 4 5 6 
#
# 1 82.7664 40.8789 4.4027 0.0000 -11.7517 0.0000
# 2 40.8789 109.9034 14.6075 0.0000 -12.0369 0.0000
# 3 4.4027 14.6075 58.2572 0.0000 -12.8074 0.0000
# 4 0.0000 0.0000 0.0000 29.7034 0.0000 -10.8587
# 5 -11.7517 -12.0369 -12.8074 0.0000 32.1418 0.0000
# 6 0.0000 0.0000 0.0000 -10.8587 0.0000 30.7175
#
#
#
# Elastic Compliance Matrix: (Units=1/GPa)
#
#
# Indices 1 2 3 4 5 6 
#
# 1 0.015247 -0.005377 0.001073 0.000000 0.003989 0.000000
# 2 -0.005377 0.011550 -0.002160 0.000000 0.001499 0.000000
# 3 0.001073 -0.002160 0.019218 0.000000 0.007241 0.000000
# 4 0.000000 0.000000 0.000000 0.038663 0.000000 0.013667
# 5 0.003989 0.001499 0.007241 0.000000 0.036017 0.000000
# 6 0.000000 0.000000 0.000000 0.013667 0.000000 0.037386
#
#
# Mechanical properties :
#
#
# Convention : Reuss Voigt Hill
#
# Bulk Modulus (GPa) = 30.22417 41.18948 35.70682
# Shear Modulus (GPa) = 27.46676 31.24840 29.35758
#
# Velocity S-wave (km/s) = 3.78306 4.03510 3.91111
# Velocity P-wave (km/s) = 5.90173 6.57047 6.24506
#
# Compressibility (1/GPa) = 0.03308610
#
# Stress axis : x y z
#
# Youngs Moduli (GPa) = 65.58589 86.57887 52.03537
#
# Poissons Ratio (x) = 0.46553 -0.05582
# Poissons Ratio (y) = 0.35265 0.11241
# Poissons Ratio (z) = -0.07036 0.18703
#
# Static dielectric constant tensor:
#      x y z
#    x 3.615800 0.000000 -0.254940 
#    y 0.000000 3.553330 0.000000 
#    z -0.254940 0.000000 3.518660 
# 
# 
# High freq. dielectric constant tensor:
#      x y z
#    x 1.739940 0.000000 -0.021280 
#    y 0.000000 1.740700 0.000000 
#    z -0.021280 0.000000 1.752730 
# 
# From -- ./inp_files/18605.got.cif
#   From: 2010.03.12/outbox.cif.g09.slc.cpg/sg14_10_cif.got.tgz:18605.got - 2010.03.31 13:35:05.
