data_PCOD8123429
_publ_section_title
;
Structure prediction by ZEFSAII (Michael W. Deem and Ramdas Pophale) SiO2 
 PCOD8123429
Probable space group: P 21/C
;
_chemical_formula_sum "Si O2"
_cell_formula_units_Z 28
_cell_length_a 8.896460
_cell_length_b 11.036390
_cell_length_c 21.858785
_cell_angle_alpha 90.000000
_cell_angle_beta 40.179431
_cell_angle_gamma 90.000000
_cell_volume 1384.693022
_symmetry_space_group_name_H-M "P 21/C"
_symmetry_group_IT_number 14
_symmetry_cell_setting 'monoclinic'
loop_
_space_group_symop_operation_xyz
x,y,z
-x,1/2+y,1/2-z
-x,-y,-z
x,1/2-y,1/2+z
loop_
_atom_site_type_symbol
_atom_site_label
_atom_site_fract_x
_atom_site_fract_y
_atom_site_fract_z
Si Si1 0.675129 0.543394 0.893813
Si Si2 0.659391 0.398291 0.423113
Si Si3 0.208037 0.234879 0.073703
Si Si4 0.110150 0.084411 0.217171
Si Si5 0.077168 0.403630 0.385635
Si Si6 0.591142 0.788446 0.309616
Si Si7 0.896343 0.169234 0.068653
O O1 0.835180 0.643868 0.875251
O O2 0.551846 0.607669 0.873535
O O3 0.843977 0.432774 0.821729
O O4 0.500000 0.500000 0.000000
O O5 0.500000 0.500000 0.500000
O O6 0.484068 0.283682 0.469966
O O7 0.762278 0.451107 0.326485
O O8 0.865972 0.371037 0.405868
O O9 0.107180 0.126412 0.147190
O O10 0.059511 0.253946 0.058907
O O11 0.241730 0.180238 0.218773
O O12 0.307455 0.350991 0.282437
O O13 0.119050 0.542859 0.390170
O O14 0.026410 0.335189 0.463972
O O15 0.352805 0.728100 0.363574
#
# Coordination Sequence:
#
# PCOD8123429 Si02
#       7
#     4   4   4   4   4   4   4
#     4  11  24  41  63  92 125 166 212 263 311 365
#     4  10  17  38  65  91 116 154 219 264 296 362
#     4  10  22  39  64  95 121 163 210 266 311 371
#     4  10  21  39  65  90 118 163 216 260 307 367
#     4  11  22  41  65  92 128 168 208 265 309 378
#     4  11  25  42  64  96 129 167 206 264 320 378
#     4  11  23  41  63  93 130 167 207 249 326 386
#
# _framework density 20.221088000000002
#
# number of rings (size 3 to 8) (size 9 to 14) (size 15 to 20)
#    0.000    1.429    4.286    2.571    6.000    1.143 
#    5.143    0.714    0.000    0.000    0.000    0.000 
#    0.000    0.000    0.000    0.000    0.000    0.000 
#
# Total GULP energy -346948.116734 kJ/mol
# GULP energy per Si atom -12391.004169 kJ/mol
# Density = 2.017506 g / cm^3
# Si number density = 20.221088 Si / 1000 Ang^3
#
#
#
# Elastic Constant Matrix: (Units=GPa)
#
#
# Indices 1 2 3 4 5 6 
#
# 1 124.9697 40.9329 53.6142 0.0000 -6.9693 0.0000
# 2 40.9329 41.5416 41.6189 0.0000 4.7232 0.0000
# 3 53.6142 41.6189 153.1923 0.0000 6.6923 0.0000
# 4 0.0000 0.0000 0.0000 33.9097 0.0000 -0.2082
# 5 -6.9693 4.7232 6.6923 0.0000 29.0533 0.0000
# 6 0.0000 0.0000 0.0000 -0.2082 0.0000 14.1781
#
#
#
# Elastic Compliance Matrix: (Units=1/GPa)
#
#
# Indices 1 2 3 4 5 6 
#
# 1 0.012774 -0.011650 -0.001538 0.000000 0.005312 0.000000
# 2 -0.011650 0.044024 -0.007524 0.000000 -0.008219 0.000000
# 3 -0.001538 -0.007524 0.009165 0.000000 -0.001257 0.000000
# 4 0.000000 0.000000 0.000000 0.029493 0.000000 0.000433
# 5 0.005312 -0.008219 -0.001257 0.000000 0.037319 0.000000
# 6 0.000000 0.000000 0.000000 0.000433 0.000000 0.070537
#
#
# Mechanical properties :
#
#
# Convention : Reuss Voigt Hill
#
# Bulk Modulus (GPa) = 40.75092 65.78174 53.26633
# Shear Modulus (GPa) = 19.76944 27.66408 23.71676
#
# Velocity S-wave (km/s) = 3.13015 3.70277 3.42844
# Velocity P-wave (km/s) = 5.76717 7.13320 6.48625
#
# Compressibility (1/GPa) = 0.02453932
#
# Stress axis : x y z
#
# Youngs Moduli (GPa) = 78.28544 22.71477 109.11255
#
# Poissons Ratio (x) = 0.26463 0.16776
# Poissons Ratio (y) = 0.91204 0.82096
# Poissons Ratio (z) = 0.12037 0.17091
#
# Static dielectric constant tensor:
#      x y z
#    x 3.695690 0.000000 -0.029040 
#    y 0.000000 4.422920 0.000000 
#    z -0.029040 0.000000 4.111770 
# 
# 
# High freq. dielectric constant tensor:
#      x y z
#    x 1.777400 0.000000 0.004160 
#    y 0.000000 1.782750 0.000000 
#    z 0.004160 0.000000 1.799240 
# 
# From -- ./inp_files/65545.got.cif
#   From: 2010.03.12/outbox.cif.g09.slc.cpg/sg14_33_cif.got.tgz:65545.got - 2010.03.31 13:35:05.
