data_PCOD8123680
_publ_section_title
;
Structure prediction by ZEFSAII (Michael W. Deem and Ramdas Pophale) SiO2 
 PCOD8123680
Probable space group: P 21/C
;
_chemical_formula_sum "Si O2"
_cell_formula_units_Z 28
_cell_length_a 5.293574
_cell_length_b 9.500930
_cell_length_c 22.312765
_cell_angle_alpha 90.000000
_cell_angle_beta 97.763046
_cell_angle_gamma 90.000000
_cell_volume 1111.910703
_symmetry_space_group_name_H-M "P 21/C"
_symmetry_group_IT_number 14
_symmetry_cell_setting 'monoclinic'
loop_
_space_group_symop_operation_xyz
x,y,z
-x,1/2+y,1/2-z
-x,-y,-z
x,1/2-y,1/2+z
loop_
_atom_site_type_symbol
_atom_site_label
_atom_site_fract_x
_atom_site_fract_y
_atom_site_fract_z
Si Si1 0.677013 0.901760 0.210566
Si Si2 0.179200 0.767177 0.924490
Si Si3 0.496179 0.896954 0.703887
Si Si4 0.235796 0.312964 0.411632
Si Si5 0.991468 0.038831 0.675405
Si Si6 0.253030 0.745793 0.056857
Si Si7 0.295137 0.079741 0.047884
O O1 0.519906 0.037705 0.228981
O O2 0.483225 0.770576 0.210076
O O3 0.765266 0.921611 0.144237
O O4 0.926911 0.879887 0.260651
O O5 0.450669 0.841386 0.921025
O O6 0.120218 0.651304 0.873740
O O7 0.943817 0.876262 0.918746
O O8 0.189266 0.686128 0.989233
O O9 0.248855 0.958377 0.659083
O O10 0.767734 0.928881 0.681964
O O11 0.467334 0.195640 0.410940
O O12 0.231890 0.391620 0.475923
O O13 0.975382 0.220116 0.403617
O O14 0.330011 0.913287 0.054727
#
# Coordination Sequence:
#
# PCOD8123680 Si02
#       7
#     4   4   4   4   4   4   4
#     4  10  26  45  67  95 131 173 222 271 332 389
#     4  10  18  35  57  83 128 158 211 260 321 376
#     4  10  25  45  64  93 131 167 226 268 325 387
#     4  10  20  34  60  85 130 162 207 268 331 371
#     4  10  24  41  65  93 124 173 215 268 322 390
#     4  10  20  35  55  95 128 169 211 270 319 385
#     4  10  19  35  56  95 128 168 213 270 318 384
#
# _framework density 25.181881000000001
#
# number of rings (size 3 to 8) (size 9 to 14) (size 15 to 20)
#    0.857    1.143    0.000    5.143    4.000    1.143 
#   10.286    0.000    0.000   20.571    0.000    0.000 
#    0.000    0.000    0.000    0.000    0.000    0.000 
#
# Total GULP energy -346886.376747 kJ/mol
# GULP energy per Si atom -12388.799170 kJ/mol
# Density = 2.512457 g / cm^3
# Si number density = 25.181881 Si / 1000 Ang^3
#
#
#
# Elastic Constant Matrix: (Units=GPa)
#
#
# Indices 1 2 3 4 5 6 
#
# 1 186.2589 17.8841 48.1744 0.0000 -14.9869 0.0000
# 2 17.8841 57.5890 15.5130 0.0000 8.2778 0.0000
# 3 48.1744 15.5130 63.4818 0.0000 -5.6344 0.0000
# 4 0.0000 0.0000 0.0000 25.3524 0.0000 6.8912
# 5 -14.9869 8.2778 -5.6344 0.0000 42.9610 0.0000
# 6 0.0000 0.0000 0.0000 6.8912 0.0000 41.7234
#
#
#
# Elastic Compliance Matrix: (Units=1/GPa)
#
#
# Indices 1 2 3 4 5 6 
#
# 1 0.006869 -0.001138 -0.004758 0.000000 0.001991 0.000000
# 2 -0.001138 0.019567 -0.004339 0.000000 -0.004736 0.000000
# 3 -0.004758 -0.004339 0.020590 0.000000 0.001877 0.000000
# 4 0.000000 0.000000 0.000000 0.041298 0.000000 -0.006821
# 5 0.001991 -0.004736 0.001877 0.000000 0.025130 0.000000
# 6 0.000000 0.000000 0.000000 -0.006821 0.000000 0.025094
#
#
# Mechanical properties :
#
#
# Convention : Reuss Voigt Hill
#
# Bulk Modulus (GPa) = 37.65383 52.27473 44.96428
# Shear Modulus (GPa) = 29.78509 37.05791 33.42150
#
# Velocity S-wave (km/s) = 3.44291 3.84032 3.64703
# Velocity P-wave (km/s) = 5.54888 6.36145 5.96901
#
# Compressibility (1/GPa) = 0.02655773
#
# Stress axis : x y z
#
# Youngs Moduli (GPa) = 145.58319 51.10584 48.56750
#
# Poissons Ratio (x) = 0.05815 0.23108
# Poissons Ratio (y) = 0.16564 0.21071
# Poissons Ratio (z) = 0.69266 0.22173
#
# Static dielectric constant tensor:
#      x y z
#    x 5.638860 0.000000 -0.031860 
#    y 0.000000 4.016280 0.000000 
#    z -0.031860 0.000000 4.576340 
# 
# 
# High freq. dielectric constant tensor:
#      x y z
#    x 2.041700 0.000000 0.002290 
#    y 0.000000 1.963590 0.000000 
#    z 0.002290 0.000000 2.008370 
# 
# From -- ./inp_files/75652.got.cif
#   From: 2010.03.12/outbox.cif.g09.slc.cpg/sg14_38_cif.got.tgz:75652.got - 2010.03.31 13:35:05.
