data_PCOD8123576
_publ_section_title
;
Structure prediction by ZEFSAII (Michael W. Deem and Ramdas Pophale) SiO2 
 PCOD8123576
Probable space group: P 21/C
;
_chemical_formula_sum "Si O2"
_cell_formula_units_Z 32
_cell_length_a 8.543952
_cell_length_b 9.867117
_cell_length_c 22.675328
_cell_angle_alpha 90.000000
_cell_angle_beta 122.595519
_cell_angle_gamma 90.000000
_cell_volume 1610.533437
_symmetry_space_group_name_H-M "P 21/C"
_symmetry_group_IT_number 14
_symmetry_cell_setting 'monoclinic'
loop_
_space_group_symop_operation_xyz
x,y,z
-x,1/2+y,1/2-z
-x,-y,-z
x,1/2-y,1/2+z
loop_
_atom_site_type_symbol
_atom_site_label
_atom_site_fract_x
_atom_site_fract_y
_atom_site_fract_z
Si Si1 0.879469 0.347580 0.416426
Si Si2 0.495085 0.744286 0.707211
Si Si3 0.620779 0.952336 0.448464
Si Si4 0.504526 0.824494 0.973699
Si Si5 0.206388 0.960238 0.977964
Si Si6 0.057173 0.090138 0.400547
Si Si7 0.648696 0.701011 0.114923
Si Si8 0.682132 0.968293 0.326103
O O1 0.687447 0.346078 0.341597
O O2 0.836124 0.358982 0.476965
O O3 0.012582 0.468153 0.420003
O O4 0.978851 0.204521 0.428359
O O5 0.630074 0.747177 0.677721
O O6 0.602871 0.668009 0.781024
O O7 0.441498 0.898346 0.714479
O O8 0.506426 0.815600 0.439173
O O9 0.783059 0.981741 0.528540
O O10 0.699090 0.943025 0.398844
O O11 0.482702 0.075498 0.426040
O O12 0.292517 0.878264 0.939367
O O13 0.590468 0.817554 0.057369
O O14 0.640264 0.930357 0.968081
O O15 0.140515 0.154916 0.357182
O O16 0.893811 0.989339 0.347067
#
# Coordination Sequence:
#
# PCOD8123576 Si02
#       8
#     4   4   4   4   4   4   4   4
#     4  10  19  34  56  85 122 153 188 238 290 348
#     4  10  22  42  60  80 119 161 199 239 299 359
#     4  10  20  37  61  86 116 148 196 248 294 347
#     4  10  18  33  55  90 120 147 189 233 299 347
#     4  10  19  31  54  91 120 152 185 238 295 343
#     4  10  19  38  62  89 113 147 201 249 292 344
#     4  10  19  38  60  82 117 155 182 244 304 340
#     4  10  23  41  61  85 114 159 200 246 295 355
#
# _framework density 19.869194
#
# number of rings (size 3 to 8) (size 9 to 14) (size 15 to 20)
#    0.000    2.000    3.750    1.875    0.000    1.000 
#    2.250    5.000    0.000    1.500    0.000    0.000 
#    0.000    0.000    0.000    0.000    0.000    0.000 
#
# Total GULP energy -396663.092518 kJ/mol
# GULP energy per Si atom -12395.721641 kJ/mol
# Density = 1.982397 g / cm^3
# Si number density = 19.869194 Si / 1000 Ang^3
#
#
#
# Elastic Constant Matrix: (Units=GPa)
#
#
# Indices 1 2 3 4 5 6 
#
# 1 129.4323 22.3390 27.1403 0.0000 2.6483 0.0000
# 2 22.3390 53.9504 20.6400 0.0000 0.9352 0.0000
# 3 27.1403 20.6400 50.0667 0.0000 1.4027 0.0000
# 4 0.0000 0.0000 0.0000 30.8157 0.0000 -5.2241
# 5 2.6483 0.9352 1.4027 0.0000 15.3228 0.0000
# 6 0.0000 0.0000 0.0000 -5.2241 0.0000 28.0124
#
#
#
# Elastic Compliance Matrix: (Units=1/GPa)
#
#
# Indices 1 2 3 4 5 6 
#
# 1 0.008947 -0.002187 -0.003919 0.000000 -0.001054 0.000000
# 2 -0.002187 0.022545 -0.008101 0.000000 -0.000256 0.000000
# 3 -0.003919 -0.008101 0.025470 0.000000 -0.001160 0.000000
# 4 0.000000 0.000000 0.000000 0.033510 0.000000 0.006249
# 5 -0.001054 -0.000256 -0.001160 0.000000 0.065566 0.000000
# 6 0.000000 0.000000 0.000000 0.006249 0.000000 0.036864
#
#
# Mechanical properties :
#
#
# Convention : Reuss Voigt Hill
#
# Bulk Modulus (GPa) = 35.02963 41.52087 38.27525
# Shear Modulus (GPa) = 21.66072 25.71886 23.68979
#
# Velocity S-wave (km/s) = 3.30535 3.60169 3.45670
# Velocity P-wave (km/s) = 5.67763 6.18375 5.93609
#
# Compressibility (1/GPa) = 0.02854726
#
# Stress axis : x y z
#
# Youngs Moduli (GPa) = 111.77178 44.35580 39.26195
#
# Poissons Ratio (x) = 0.09701 0.15386
# Poissons Ratio (y) = 0.24445 0.31808
# Poissons Ratio (z) = 0.43801 0.35934
#
# Static dielectric constant tensor:
#      x y z
#    x 4.212880 0.000000 0.025130 
#    y 0.000000 3.669420 0.000000 
#    z 0.025130 0.000000 3.184330 
# 
# 
# High freq. dielectric constant tensor:
#      x y z
#    x 1.802160 0.000000 0.000730 
#    y 0.000000 1.779690 0.000000 
#    z 0.000730 0.000000 1.717820 
# 
# From -- ./inp_files/65625.got.cif
#   From: 2010.03.12/outbox.cif.g09.slc.cpg/sg14_33_cif.got.tgz:65625.got - 2010.03.31 13:35:05.
