data_PCOD8123178
_publ_section_title
;
Structure prediction by ZEFSAII (Michael W. Deem and Ramdas Pophale) SiO2 
 PCOD8123178
Probable space group: P 2/C
;
_chemical_formula_sum "Si O2"
_cell_formula_units_Z 12
_cell_length_a 7.836881
_cell_length_b 13.539449
_cell_length_c 9.137162
_cell_angle_alpha 90.000000
_cell_angle_beta 147.646185
_cell_angle_gamma 90.000000
_cell_volume 518.833335
_symmetry_space_group_name_H-M "P 2/C"
_symmetry_group_IT_number 13
_symmetry_cell_setting 'monoclinic'
loop_
_space_group_symop_operation_xyz
x,y,z
-x,y,1/2-z
-x,-y,-z
x,-y,1/2+z
loop_
_atom_site_type_symbol
_atom_site_label
_atom_site_fract_x
_atom_site_fract_y
_atom_site_fract_z
Si Si1 0.795422 0.098886 0.357128
Si Si2 0.408579 0.210197 0.851149
Si Si3 0.366387 0.408976 0.992828
O O1 0.500000 0.085413 0.250000
O O2 0.035018 0.182074 0.592712
O O3 0.647627 0.127600 0.092004
O O4 0.000000 0.000000 0.500000
O O5 0.500000 0.224413 0.750000
O O6 0.461465 0.310945 0.975053
O O7 0.000000 0.426489 0.750000
O O8 0.500000 0.400584 0.250000
O O9 0.500000 0.500000 0.000000
#
# Coordination Sequence:
#
# PCOD8123178 Si02
#       3
#     4   4   4
#     4  12  26  47  71 101 140 185 233 285 344 411
#     4  12  26  46  71 103 140 183 231 285 345 411
#     4  12  26  47  73 104 140 182 229 284 345 412
#
# _framework density 23.128817000000002
#
# number of rings (size 3 to 8) (size 9 to 14) (size 15 to 20)
#    0.000    0.000    0.000   11.000    0.000    5.333 
#    0.000    1.667    0.000    0.000    0.000    0.000 
#    0.000    0.000    0.000    0.000    0.000    0.000 
#
# Total GULP energy -148864.485844 kJ/mol
# GULP energy per Si atom -12405.373820 kJ/mol
# Density = 2.307617 g / cm^3
# Si number density = 23.128817 Si / 1000 Ang^3
#
#
#
# Elastic Constant Matrix: (Units=GPa)
#
#
# Indices 1 2 3 4 5 6 
#
# 1 189.8283 113.2664 110.2448 0.0000 -11.2151 0.0000
# 2 113.2664 144.9238 80.4467 0.0000 -10.0150 0.0000
# 3 110.2448 80.4467 215.5697 0.0000 -9.7538 0.0000
# 4 0.0000 0.0000 0.0000 44.1870 0.0000 0.7869
# 5 -11.2151 -10.0150 -9.7538 0.0000 58.7060 0.0000
# 6 0.0000 0.0000 0.0000 0.7869 0.0000 43.9357
#
#
#
# Elastic Compliance Matrix: (Units=1/GPa)
#
#
# Indices 1 2 3 4 5 6 
#
# 1 0.011352 -0.007102 -0.003136 0.000000 0.000436 0.000000
# 2 -0.007102 0.013199 -0.001263 0.000000 0.000685 0.000000
# 3 -0.003136 -0.001263 0.006727 0.000000 0.000303 0.000000
# 4 0.000000 0.000000 0.000000 0.022638 0.000000 -0.000405
# 5 0.000436 0.000685 0.000303 0.000000 0.017285 0.000000
# 6 0.000000 0.000000 0.000000 -0.000405 0.000000 0.022768
#
#
# Mechanical properties :
#
#
# Convention : Reuss Voigt Hill
#
# Bulk Modulus (GPa) = 120.79678 128.69306 124.74492
# Shear Modulus (GPa) = 41.76111 45.78998 43.77555
#
# Velocity S-wave (km/s) = 4.25383 4.45430 4.35522
# Velocity P-wave (km/s) = 8.74460 9.06736 8.90744
#
# Compressibility (1/GPa) = 0.00827837
#
# Stress axis : x y z
#
# Youngs Moduli (GPa) = 88.08896 75.76455 148.64513
#
# Poissons Ratio (x) = 0.53805 0.46610
# Poissons Ratio (y) = 0.62557 0.18769
# Poissons Ratio (z) = 0.27622 0.09567
#
# Static dielectric constant tensor:
#      x y z
#    x 4.211130 0.000000 0.091840 
#    y 0.000000 4.363530 0.000000 
#    z 0.091840 0.000000 5.009160 
# 
# 
# High freq. dielectric constant tensor:
#      x y z
#    x 1.931600 0.000000 0.001500 
#    y 0.000000 1.924380 0.000000 
#    z 0.001500 0.000000 1.946940 
# 
# From -- ./inp_files/11003.got.cif
#   From: 2010.06.25/outbox.cif.g09.slc.cpg/sg13_6_cif.got.tgz:11003.got - 2010.06.28 04:50:58.
