data_PCOD8123926
_publ_section_title
;
Structure prediction by ZEFSAII (Michael W. Deem and Ramdas Pophale) SiO2 
 PCOD8123926
Probable space group: P 21/C
;
_chemical_formula_sum "Si O2"
_cell_formula_units_Z 32
_cell_length_a 22.309739
_cell_length_b 9.429661
_cell_length_c 22.101931
_cell_angle_alpha 90.000000
_cell_angle_beta 158.552594
_cell_angle_gamma 90.000000
_cell_volume 1700.132660
_symmetry_space_group_name_H-M "P 21/C"
_symmetry_group_IT_number 14
_symmetry_cell_setting 'monoclinic'
loop_
_space_group_symop_operation_xyz
x,y,z
-x,1/2+y,1/2-z
-x,-y,-z
x,1/2-y,1/2+z
loop_
_atom_site_type_symbol
_atom_site_label
_atom_site_fract_x
_atom_site_fract_y
_atom_site_fract_z
Si Si1 0.969307 0.819392 0.678741
Si Si2 0.768967 0.054080 0.431247
Si Si3 0.788383 0.339248 0.701729
Si Si4 0.755170 0.883728 0.913302
Si Si5 0.976709 0.844693 0.004402
Si Si6 0.504405 0.336209 0.351925
Si Si7 0.952605 0.597531 0.900741
Si Si8 0.255735 0.835326 0.031486
O O1 0.846614 0.685279 0.557590
O O2 0.103196 0.797526 0.753297
O O3 0.864988 0.962598 0.571880
O O4 0.063737 0.822315 0.831418
O O5 0.683828 0.185964 0.384732
O O6 0.893264 0.116170 0.498694
O O7 0.632620 0.958216 0.270122
O O8 0.850906 0.232740 0.814078
O O9 0.598902 0.317987 0.504891
O O10 0.807033 0.508501 0.732119
O O11 0.576375 0.814788 0.738712
O O12 0.732861 0.049646 0.904322
O O13 0.852602 0.850485 0.943461
O O14 0.897938 0.750485 0.875744
O O15 0.000000 0.000000 0.000000
O O16 0.628141 0.380835 0.414627
O O17 0.000000 0.500000 0.000000
#
# Coordination Sequence:
#
# PCOD8123926 Si02
#       8
#     4   4   4   4   4   4   4   4
#     4   8  17  32  51  72  98 130 167 204 243 286
#     4  10  19  32  51  75  97 130 171 201 237 295
#     4   8  17  33  53  72  96 130 168 201 239 292
#     4  10  20  34  51  75 104 134 161 201 255 296
#     4  10  19  35  55  76  99 126 162 212 256 285
#     4  10  20  35  49  71 106 136 159 196 247 299
#     4   9  17  34  55  73  92 125 171 211 237 277
#     4  11  19  31  51  76 102 131 164 202 243 296
#
# _framework density 18.822058999999999
#
# number of rings (size 3 to 8) (size 9 to 14) (size 15 to 20)
#    0.000    2.500    0.000    4.500    0.000    0.000 
#    0.000    7.500    0.000    0.000    0.000    0.000 
#    0.000    0.000    0.000    0.000    0.000    0.000 
#
# Total GULP energy -396606.995581 kJ/mol
# GULP energy per Si atom -12393.968612 kJ/mol
# Density = 1.877922 g / cm^3
# Si number density = 18.822059 Si / 1000 Ang^3
#
#
#
# Elastic Constant Matrix: (Units=GPa)
#
#
# Indices 1 2 3 4 5 6 
#
# 1 49.1237 21.9406 14.4623 0.0000 -0.8434 0.0000
# 2 21.9406 129.6950 44.3252 0.0000 -6.8216 0.0000
# 3 14.4623 44.3252 114.7360 0.0000 -12.5273 0.0000
# 4 0.0000 0.0000 0.0000 16.9682 0.0000 -0.6818
# 5 -0.8434 -6.8216 -12.5273 0.0000 18.7625 0.0000
# 6 0.0000 0.0000 0.0000 -0.6818 0.0000 31.0290
#
#
#
# Elastic Compliance Matrix: (Units=1/GPa)
#
#
# Indices 1 2 3 4 5 6 
#
# 1 0.022289 -0.003261 -0.001693 0.000000 -0.001314 0.000000
# 2 -0.003261 0.009378 -0.003080 0.000000 0.001207 0.000000
# 3 -0.001693 -0.003080 0.010774 0.000000 0.005997 0.000000
# 4 0.000000 0.000000 0.000000 0.058986 0.000000 0.001296
# 5 -0.001314 0.001207 0.005997 0.000000 0.057682 0.000000
# 6 0.000000 0.000000 0.000000 0.001296 0.000000 0.032256
#
#
# Mechanical properties :
#
#
# Convention : Reuss Voigt Hill
#
# Bulk Modulus (GPa) = 37.91859 50.55675 44.23767
# Shear Modulus (GPa) = 23.12405 27.54039 25.33222
#
# Velocity S-wave (km/s) = 3.50889 3.82933 3.67260
# Velocity P-wave (km/s) = 6.05028 6.81692 6.44501
#
# Compressibility (1/GPa) = 0.02637229
#
# Stress axis : x y z
#
# Youngs Moduli (GPa) = 44.86467 106.62955 92.81719
#
# Poissons Ratio (x) = 0.34773 0.15715
# Poissons Ratio (y) = 0.14631 0.28590
# Poissons Ratio (z) = 0.07596 0.32844
#
# Static dielectric constant tensor:
#      x y z
#    x 3.192380 0.000000 -0.342420 
#    y 0.000000 3.735930 0.000000 
#    z -0.342420 0.000000 3.818850 
# 
# 
# High freq. dielectric constant tensor:
#      x y z
#    x 1.714690 0.000000 -0.006790 
#    y 0.000000 1.733480 0.000000 
#    z -0.006790 0.000000 1.716520 
# 
# From -- ./inp_files/71930.got.cif
#   From: 2010.03.12/outbox.cif.g09.slc.cpg/sg14_36_cif.got.tgz:71930.got - 2010.03.31 13:35:05.
