data_PCOD8123244
_publ_section_title
;
Structure prediction by ZEFSAII (Michael W. Deem and Ramdas Pophale) SiO2 
 PCOD8123244
Probable space group: P 21/C
;
_chemical_formula_sum "Si O2"
_cell_formula_units_Z 32
_cell_length_a 16.552436
_cell_length_b 14.444301
_cell_length_c 11.444180
_cell_angle_alpha 90.000000
_cell_angle_beta 145.784877
_cell_angle_gamma 90.000000
_cell_volume 1538.553120
_symmetry_space_group_name_H-M "P 21/C"
_symmetry_group_IT_number 14
_symmetry_cell_setting 'monoclinic'
loop_
_space_group_symop_operation_xyz
x,y,z
-x,1/2+y,1/2-z
-x,-y,-z
x,1/2-y,1/2+z
loop_
_atom_site_type_symbol
_atom_site_label
_atom_site_fract_x
_atom_site_fract_y
_atom_site_fract_z
Si Si1 0.731450 0.808086 0.404019
Si Si2 0.907934 0.870427 0.061329
Si Si3 0.530617 0.405360 0.100723
Si Si4 0.297288 0.482119 0.531379
Si Si5 0.668844 0.511487 0.693688
Si Si6 0.481967 0.820904 0.648099
Si Si7 0.768445 0.103410 0.525444
Si Si8 0.771369 0.917318 0.666041
O O1 0.823806 0.725814 0.460834
O O2 0.708746 0.884134 0.276951
O O3 0.576649 0.772190 0.266472
O O4 0.821797 0.853677 0.618150
O O5 0.074331 0.851887 0.283907
O O6 0.848755 0.941802 0.087691
O O7 0.886751 0.914773 0.907907
O O8 0.656141 0.422734 0.346457
O O9 0.500000 0.500000 0.000000
O O10 0.574291 0.331244 0.053438
O O11 0.381020 0.373807 0.978594
O O12 0.272246 0.506038 0.366093
O O13 0.423828 0.407876 0.696659
O O14 0.500000 0.500000 0.500000
O O15 0.741105 0.435213 0.863340
O O16 0.346334 0.816790 0.574750
O O17 0.752396 0.022712 0.602384
#
# Coordination Sequence:
#
# PCOD8123244 Si02
#       8
#     4   4   4   4   4   4   4   4
#     4  10  24  37  63  91 118 163 202 252 308 370
#     4  11  23  36  60  87 122 163 199 246 309 367
#     4  10  15  32  61  93 112 148 211 261 290 356
#     4  10  18  34  62  88 117 161 203 246 304 359
#     4  11  22  40  66  91 122 160 213 251 303 369
#     4  10  18  35  61  88 121 154 200 263 300 345
#     4  11  22  38  60  88 122 158 204 252 303 366
#     4  11  19  37  63  87 116 156 213 247 299 366
#
# _framework density 20.798763000000001
#
# number of rings (size 3 to 8) (size 9 to 14) (size 15 to 20)
#    0.000    1.500    7.500    1.125    3.500    0.500 
#    0.000    1.250   11.000    0.000    0.000    0.000 
#    0.000    0.000    0.000    0.000    0.000    0.000 
#
# Total GULP energy -396743.903342 kJ/mol
# GULP energy per Si atom -12398.246979 kJ/mol
# Density = 2.075142 g / cm^3
# Si number density = 20.798763 Si / 1000 Ang^3
#
#
#
# Elastic Constant Matrix: (Units=GPa)
#
#
# Indices 1 2 3 4 5 6 
#
# 1 96.6718 18.6813 58.8957 0.0000 -15.7651 0.0000
# 2 18.6813 40.6939 23.8176 0.0000 -9.6941 0.0000
# 3 58.8957 23.8176 105.2942 0.0000 -4.5503 0.0000
# 4 0.0000 0.0000 0.0000 19.3941 0.0000 -1.7219
# 5 -15.7651 -9.6941 -4.5503 0.0000 47.4703 0.0000
# 6 0.0000 0.0000 0.0000 -1.7219 0.0000 18.5283
#
#
#
# Elastic Compliance Matrix: (Units=1/GPa)
#
#
# Indices 1 2 3 4 5 6 
#
# 1 0.016729 -0.001457 -0.008837 0.000000 0.004411 0.000000
# 2 -0.001457 0.029784 -0.005704 0.000000 0.005052 0.000000
# 3 -0.008837 -0.005704 0.015618 0.000000 -0.002603 0.000000
# 4 0.000000 0.000000 0.000000 0.051991 0.000000 0.004832
# 5 0.004411 0.005052 -0.002603 0.000000 0.023313 0.000000
# 6 0.000000 0.000000 0.000000 0.004832 0.000000 0.054420
#
#
# Mechanical properties :
#
#
# Convention : Reuss Voigt Hill
#
# Bulk Modulus (GPa) = 33.18345 49.49436 41.33891
# Shear Modulus (GPa) = 21.37692 26.49624 23.93658
#
# Velocity S-wave (km/s) = 3.20941 3.57309 3.39612
# Velocity P-wave (km/s) = 5.45187 6.39305 5.94113
#
# Compressibility (1/GPa) = 0.03013550
#
# Stress axis : x y z
#
# Youngs Moduli (GPa) = 59.77624 33.57463 64.02861
#
# Poissons Ratio (x) = 0.04891 0.56583
# Poissons Ratio (y) = 0.08707 0.36523
# Poissons Ratio (z) = 0.52825 0.19151
#
# Static dielectric constant tensor:
#      x y z
#    x 3.766840 0.000000 -0.334680 
#    y 0.000000 3.693220 0.000000 
#    z -0.334680 0.000000 3.804530 
# 
# 
# High freq. dielectric constant tensor:
#      x y z
#    x 1.816370 0.000000 -0.020010 
#    y 0.000000 1.789200 0.000000 
#    z -0.020010 0.000000 1.799970 
# 
# From -- ./inp_files/34354.got.cif
#   From: 2010.03.12/outbox.cif.g09.slc.cpg/sg14_18_cif.got.tgz:34354.got - 2010.03.31 13:35:05.
