data_PCOD8123630
_publ_section_title
;
Structure prediction by ZEFSAII (Michael W. Deem and Ramdas Pophale) SiO2 
 PCOD8123630
Probable space group: P 21/C
;
_chemical_formula_sum "Si O2"
_cell_formula_units_Z 24
_cell_length_a 18.331514
_cell_length_b 7.771832
_cell_length_c 24.900123
_cell_angle_alpha 90.000000
_cell_angle_beta 160.741098
_cell_angle_gamma 90.000000
_cell_volume 1170.100134
_symmetry_space_group_name_H-M "P 21/C"
_symmetry_group_IT_number 14
_symmetry_cell_setting 'monoclinic'
loop_
_space_group_symop_operation_xyz
x,y,z
-x,1/2+y,1/2-z
-x,-y,-z
x,1/2-y,1/2+z
loop_
_atom_site_type_symbol
_atom_site_label
_atom_site_fract_x
_atom_site_fract_y
_atom_site_fract_z
Si Si1 0.032154 0.562238 0.935375
Si Si2 0.273756 0.677390 0.347494
Si Si3 0.302784 0.390808 0.211069
Si Si4 0.764210 0.224999 0.521760
Si Si5 0.988009 0.433010 0.269294
Si Si6 0.575926 0.892611 0.970464
O O1 0.177934 0.689208 0.000105
O O2 0.873613 0.460251 0.785553
O O3 0.885762 0.670404 0.877141
O O4 0.192319 0.427741 0.076910
O O5 0.137162 0.847013 0.267570
O O6 0.368931 0.584542 0.466636
O O7 0.475642 0.729942 0.447475
O O8 0.500323 0.254183 0.341158
O O9 0.399618 0.572799 0.300622
O O10 0.825242 0.064921 0.603934
O O11 0.914528 0.384685 0.645774
O O12 0.199601 0.313936 0.398085
#
# Coordination Sequence:
#
# PCOD8123630 Si02
#       6
#     4   4   4   4   4   4
#     4  10  20  38  58  82 108 158 195 230 283 351
#     4  10  18  34  58  78 110 153 195 226 284 345
#     4   9  20  36  58  79 114 153 193 227 282 354
#     4  11  21  35  59  87 117 148 194 243 289 339
#     4  11  19  34  55  86 114 144 187 247 284 327
#     4   9  18  33  56  77 110 154 188 228 279 354
#
# _framework density 20.511064000000001
#
# number of rings (size 3 to 8) (size 9 to 14) (size 15 to 20)
#    0.000    2.000    5.000    0.000    0.000    2.667 
#    0.000    5.000    0.000   10.000    0.000    0.000 
#    0.000    0.000    0.000    0.000    0.000    0.000 
#
# Total GULP energy -297354.595259 kJ/mol
# GULP energy per Si atom -12389.774802 kJ/mol
# Density = 2.046438 g / cm^3
# Si number density = 20.511064 Si / 1000 Ang^3
#
#
#
# Elastic Constant Matrix: (Units=GPa)
#
#
# Indices 1 2 3 4 5 6 
#
# 1 124.4945 19.9604 30.4566 0.0000 7.3310 0.0000
# 2 19.9604 23.5490 8.3504 0.0000 -5.3408 0.0000
# 3 30.4566 8.3504 81.6243 0.0000 4.2785 0.0000
# 4 0.0000 0.0000 0.0000 25.8099 0.0000 4.7307
# 5 7.3310 -5.3408 4.2785 0.0000 24.2335 0.0000
# 6 0.0000 0.0000 0.0000 4.7307 0.0000 31.9008
#
#
#
# Elastic Compliance Matrix: (Units=1/GPa)
#
#
# Indices 1 2 3 4 5 6 
#
# 1 0.010398 -0.008895 -0.002728 0.000000 -0.004625 0.000000
# 2 -0.008895 0.054549 -0.003061 0.000000 0.015253 0.000000
# 3 -0.002728 -0.003061 0.013701 0.000000 -0.002268 0.000000
# 4 0.000000 0.000000 0.000000 0.039827 0.000000 -0.005906
# 5 -0.004625 0.015253 -0.002268 0.000000 0.046426 0.000000
# 6 0.000000 0.000000 0.000000 -0.005906 0.000000 0.032223
#
#
# Mechanical properties :
#
#
# Convention : Reuss Voigt Hill
#
# Bulk Modulus (GPa) = 20.29179 38.57807 29.43493
# Shear Modulus (GPa) = 20.58290 27.78218 24.18254
#
# Velocity S-wave (km/s) = 3.17125 3.68434 3.43738
# Velocity P-wave (km/s) = 4.82946 6.07852 5.48963
#
# Compressibility (1/GPa) = 0.04928103
#
# Stress axis : x y z
#
# Youngs Moduli (GPa) = 96.16973 18.33202 72.98728
#
# Poissons Ratio (x) = 0.16307 0.19907
# Poissons Ratio (y) = 0.85547 0.22341
# Poissons Ratio (z) = 0.26230 0.05611
#
# Static dielectric constant tensor:
#      x y z
#    x 4.313860 0.000000 0.309250 
#    y 0.000000 3.004970 0.000000 
#    z 0.309250 0.000000 3.914450 
# 
# 
# High freq. dielectric constant tensor:
#      x y z
#    x 1.826390 0.000000 0.012480 
#    y 0.000000 1.731530 0.000000 
#    z 0.012480 0.000000 1.814030 
# 
# From -- ./inp_files/48271.got.cif
#   From: 2010.03.12/outbox.cif.g09.slc.cpg/sg14_25_cif.got.tgz:48271.got - 2010.03.31 13:35:05.
