data_PCOD8123997
_publ_section_title
;
Structure prediction by ZEFSAII (Michael W. Deem and Ramdas Pophale) SiO2 
 PCOD8123997
Probable space group: P 21/C
;
_chemical_formula_sum "Si O2"
_cell_formula_units_Z 32
_cell_length_a 27.188354
_cell_length_b 9.075741
_cell_length_c 8.820185
_cell_angle_alpha 90.000000
_cell_angle_beta 49.305434
_cell_angle_gamma 90.000000
_cell_volume 1650.153311
_symmetry_space_group_name_H-M "P 21/C"
_symmetry_group_IT_number 14
_symmetry_cell_setting 'monoclinic'
loop_
_space_group_symop_operation_xyz
x,y,z
-x,1/2+y,1/2-z
-x,-y,-z
x,1/2-y,1/2+z
loop_
_atom_site_type_symbol
_atom_site_label
_atom_site_fract_x
_atom_site_fract_y
_atom_site_fract_z
Si Si1 0.670354 0.372141 0.494618
Si Si2 0.567999 0.564418 0.543103
Si Si3 0.054958 0.956573 0.183472
Si Si4 0.196643 0.944449 0.892331
Si Si5 0.443549 0.366947 0.777162
Si Si6 0.337649 0.559619 0.144266
Si Si7 0.949163 0.330647 0.980381
Si Si8 0.191660 0.676133 0.720518
O O1 0.634791 0.488676 0.459194
O O2 0.656775 0.203901 0.472689
O O3 0.647370 0.390986 0.714269
O O4 0.747308 0.408913 0.327314
O O5 0.512391 0.442555 0.665648
O O6 0.549345 0.696786 0.692568
O O7 0.577734 0.624438 0.354416
O O8 0.040051 0.860737 0.363815
O O9 0.046543 0.844398 0.059964
O O10 0.127827 0.032946 0.037993
O O11 0.002883 0.086144 0.271920
O O12 0.266808 0.024256 0.767774
O O13 0.197034 0.850516 0.738431
O O14 0.194459 0.827651 0.034007
O O15 0.390180 0.441042 0.990689
O O16 0.876809 0.387827 0.079205
#
# Coordination Sequence:
#
# PCOD8123997 Si02
#       8
#     4   4   4   4   4   4   4   4
#     4  10  19  33  55  80 106 135 170 212 256 304
#     4  11  24  40  58  80 106 136 170 208 251 300
#     4   9  17  30  48  70  98 131 168 209 251 297
#     4   8  15  28  47  71  98 130 167 206 248 295
#     4  11  24  40  58  80 106 136 170 208 251 300
#     4  10  19  33  55  80 106 135 170 212 256 304
#     4   9  17  30  48  70  98 131 168 209 251 297
#     4   8  15  28  47  71  98 130 167 206 248 295
#
# _framework density 19.392137999999999
#
# number of rings (size 3 to 8) (size 9 to 14) (size 15 to 20)
#    0.000    2.500    0.000    2.250    0.000    5.500 
#    0.000    1.250    0.000    3.000    0.000    0.000 
#    0.000    0.000    0.000    0.000    0.000    0.000 
#
# Total GULP energy -396475.190935 kJ/mol
# GULP energy per Si atom -12389.849717 kJ/mol
# Density = 1.934800 g / cm^3
# Si number density = 19.392138 Si / 1000 Ang^3
#
#
#
# Elastic Constant Matrix: (Units=GPa)
#
#
# Indices 1 2 3 4 5 6 
#
# 1 76.9617 19.3708 24.0479 0.0000 -9.6787 0.0000
# 2 19.3708 49.7442 6.8694 0.0000 -4.5219 0.0000
# 3 24.0479 6.8694 67.1048 0.0000 -11.5738 0.0000
# 4 0.0000 0.0000 0.0000 31.4664 0.0000 -2.2835
# 5 -9.6787 -4.5219 -11.5738 0.0000 19.6993 0.0000
# 6 0.0000 0.0000 0.0000 -2.2835 0.0000 24.3386
#
#
#
# Elastic Compliance Matrix: (Units=1/GPa)
#
#
# Indices 1 2 3 4 5 6 
#
# 1 0.016282 -0.005336 -0.004585 0.000000 0.004081 0.000000
# 2 -0.005336 0.022405 0.000060 0.000000 0.002556 0.000000
# 3 -0.004585 0.000060 0.017974 0.000000 0.008321 0.000000
# 4 0.000000 0.000000 0.000000 0.031998 0.000000 0.003002
# 5 0.004081 0.002556 0.008321 0.000000 0.058244 0.000000
# 6 0.000000 0.000000 0.000000 0.003002 0.000000 0.041369
#
#
# Mechanical properties :
#
#
# Convention : Reuss Voigt Hill
#
# Bulk Modulus (GPa) = 27.07201 32.70967 29.89084
# Shear Modulus (GPa) = 22.69548 24.66904 23.68226
#
# Velocity S-wave (km/s) = 3.42474 3.57054 3.49840
# Velocity P-wave (km/s) = 5.44326 5.82258 5.63611
#
# Compressibility (1/GPa) = 0.03693852
#
# Stress axis : x y z
#
# Youngs Moduli (GPa) = 61.41567 44.63285 55.63528
#
# Poissons Ratio (x) = 0.23818 0.25508
# Poissons Ratio (y) = 0.32774 -0.00332
# Poissons Ratio (z) = 0.28158 -0.00266
#
# Static dielectric constant tensor:
#      x y z
#    x 3.836260 0.000000 -0.208860 
#    y 0.000000 3.090270 0.000000 
#    z -0.208860 0.000000 3.745720 
# 
# 
# High freq. dielectric constant tensor:
#      x y z
#    x 1.771710 0.000000 -0.009640 
#    y 0.000000 1.701990 0.000000 
#    z -0.009640 0.000000 1.767230 
# 
# From -- ./inp_files/18619.got.cif
#   From: 2010.03.12/outbox.cif.g09.slc.cpg/sg14_10_cif.got.tgz:18619.got - 2010.03.31 13:35:05.
