data_PCOD8123930
_publ_section_title
;
Structure prediction by ZEFSAII (Michael W. Deem and Ramdas Pophale) SiO2 
 PCOD8123930
Probable space group: P 21/C
;
_chemical_formula_sum "Si O2"
_cell_formula_units_Z 32
_cell_length_a 23.223510
_cell_length_b 14.967498
_cell_length_c 14.491235
_cell_angle_alpha 90.000000
_cell_angle_beta 20.608788
_cell_angle_gamma 90.000000
_cell_volume 1772.992470
_symmetry_space_group_name_H-M "P 21/C"
_symmetry_group_IT_number 14
_symmetry_cell_setting 'monoclinic'
loop_
_space_group_symop_operation_xyz
x,y,z
-x,1/2+y,1/2-z
-x,-y,-z
x,1/2-y,1/2+z
loop_
_atom_site_type_symbol
_atom_site_label
_atom_site_fract_x
_atom_site_fract_y
_atom_site_fract_z
Si Si1 0.810409 0.121694 0.615848
Si Si2 0.189007 0.705539 0.693751
Si Si3 0.628518 0.677473 0.899055
Si Si4 0.371469 0.677460 0.784640
Si Si5 0.188994 0.205524 0.239271
Si Si6 0.810389 0.621687 0.452942
Si Si7 0.376073 0.457828 0.531651
Si Si8 0.376085 0.542179 0.340126
O O1 0.771784 0.190998 0.756807
O O2 0.768787 0.168569 0.581794
O O3 0.000007 0.094297 0.334113
O O4 0.701762 0.032728 0.786209
O O5 0.292432 0.789358 0.499952
O O6 0.237615 0.616811 0.564677
O O7 0.000005 0.725518 0.960382
O O8 0.707569 0.710662 0.877228
O O9 0.768763 0.668576 0.611859
O O10 0.499980 0.750000 0.054582
O O11 0.537579 0.583477 0.051210
O O12 0.462438 0.583471 0.663910
O O13 0.228236 0.190973 0.072156
O O14 0.237590 0.116799 0.222541
O O15 0.701771 0.532709 0.608481
O O16 0.434150 0.499995 0.348778
#
# Coordination Sequence:
#
# PCOD8123930 Si02
#       8
#     4   4   4   4   4   4   4   4
#     4  10  19  32  52  74  99 132 166 201 241 290
#     4   9  18  33  51  72  97 126 164 204 242 287
#     4  10  20  32  50  75 101 129 161 202 248 292
#     4  10  20  32  50  75 101 129 161 202 248 292
#     4   9  18  33  51  72  97 126 164 204 242 287
#     4  10  19  32  52  74  99 132 166 201 241 290
#     4   9  18  32  51  72  97 129 164 202 243 287
#     4   9  18  32  51  72  97 129 164 202 243 287
#
# _framework density 18.048583000000001
#
# number of rings (size 3 to 8) (size 9 to 14) (size 15 to 20)
#    0.000    2.500    0.000    2.250    0.000    8.000 
#    0.000    0.000    0.000    9.000    0.000    0.000 
#    0.000    0.000    0.000    0.000    0.000    0.000 
#
# Total GULP energy -396806.648352 kJ/mol
# GULP energy per Si atom -12400.207761 kJ/mol
# Density = 1.800750 g / cm^3
# Si number density = 18.048583 Si / 1000 Ang^3
#
#
#
# Elastic Constant Matrix: (Units=GPa)
#
#
# Indices 1 2 3 4 5 6 
#
# 1 100.3653 48.7635 50.4321 0.0000 -4.1779 0.0000
# 2 48.7635 81.5065 46.2606 0.0000 1.0569 0.0000
# 3 50.4321 46.2606 97.5875 0.0000 5.3336 0.0000
# 4 0.0000 0.0000 0.0000 25.2093 0.0000 -2.2502
# 5 -4.1779 1.0569 5.3336 0.0000 25.8217 0.0000
# 6 0.0000 0.0000 0.0000 -2.2502 0.0000 19.9146
#
#
#
# Elastic Compliance Matrix: (Units=1/GPa)
#
#
# Indices 1 2 3 4 5 6 
#
# 1 0.016035 -0.006592 -0.005379 0.000000 0.003975 0.000000
# 2 -0.006592 0.019519 -0.005810 0.000000 -0.000665 0.000000
# 3 -0.005379 -0.005810 0.015996 0.000000 -0.003937 0.000000
# 4 0.000000 0.000000 0.000000 0.040072 0.000000 0.004528
# 5 0.003975 -0.000665 -0.003937 0.000000 0.040211 0.000000
# 6 0.000000 0.000000 0.000000 0.004528 0.000000 0.050726
#
#
# Mechanical properties :
#
#
# Convention : Reuss Voigt Hill
#
# Bulk Modulus (GPa) = 62.54487 63.37465 62.95976
# Shear Modulus (GPa) = 22.37646 23.12265 22.74956
#
# Velocity S-wave (km/s) = 3.52489 3.58318 3.55415
# Velocity P-wave (km/s) = 7.16207 7.23246 7.19735
#
# Compressibility (1/GPa) = 0.01598852
#
# Stress axis : x y z
#
# Youngs Moduli (GPa) = 62.36501 51.23278 62.51451
#
# Poissons Ratio (x) = 0.33771 0.33627
# Poissons Ratio (y) = 0.41109 0.36320
# Poissons Ratio (z) = 0.33546 0.29765
#
# Static dielectric constant tensor:
#      x y z
#    x 3.239890 0.000000 -0.012940 
#    y 0.000000 3.300550 0.000000 
#    z -0.012940 0.000000 3.269980 
# 
# 
# High freq. dielectric constant tensor:
#      x y z
#    x 1.694230 0.000000 -0.002610 
#    y 0.000000 1.687730 0.000000 
#    z -0.002610 0.000000 1.700330 
# 
# From -- ./inp_files/51555.got.cif
#   From: 2010.03.12/outbox.cif.g09.slc.cpg/sg14_26_cif.got.tgz:51555.got - 2010.03.31 13:35:05.
