data_PCOD8123301
_publ_section_title
;
Structure prediction by ZEFSAII (Michael W. Deem and Ramdas Pophale) SiO2 
 PCOD8123301
Probable space group: P 21/C
;
_chemical_formula_sum "Si O2"
_cell_formula_units_Z 32
_cell_length_a 15.093917
_cell_length_b 5.119029
_cell_length_c 30.684572
_cell_angle_alpha 90.000000
_cell_angle_beta 55.915998
_cell_angle_gamma 90.000000
_cell_volume 1963.602948
_symmetry_space_group_name_H-M "P 21/C"
_symmetry_group_IT_number 14
_symmetry_cell_setting 'monoclinic'
loop_
_space_group_symop_operation_xyz
x,y,z
-x,1/2+y,1/2-z
-x,-y,-z
x,1/2-y,1/2+z
loop_
_atom_site_type_symbol
_atom_site_label
_atom_site_fract_x
_atom_site_fract_y
_atom_site_fract_z
Si Si1 0.544240 0.989020 0.535914
Si Si2 0.641216 0.011520 0.216819
Si Si3 0.990405 0.007746 0.555761
Si Si4 0.774871 0.432489 0.999187
Si Si5 0.440811 0.489125 0.713343
Si Si6 0.494153 0.502895 0.397686
Si Si7 0.141463 0.002231 0.891226
Si Si8 0.737047 0.931487 0.057830
O O1 0.674732 0.978122 0.496236
O O2 0.504281 0.232229 0.575290
O O3 0.500000 0.000000 0.500000
O O4 0.491829 0.735366 0.572736
O O5 0.619785 0.260326 0.252244
O O6 0.564929 0.011533 0.195153
O O7 0.619768 0.760526 0.251823
O O8 0.766668 0.012541 0.170387
O O9 0.947082 0.277724 0.587293
O O10 0.914055 0.782394 0.594638
O O11 0.000000 0.000000 0.500000
O O12 0.104035 0.978365 0.549923
O O13 0.764959 0.626113 0.043767
O O14 0.764725 0.122850 0.009855
O O15 0.423681 0.487358 0.665392
O O16 0.387327 0.459998 0.399177
O O17 0.196424 0.948658 0.921866
#
# Coordination Sequence:
#
# PCOD8123301 Si02
#       8
#     4   4   4   4   4   4   4   4
#     4  10  21  35  53  75 102 127 159 208 256 295
#     4  10  21  31  46  68 100 133 168 206 235 278
#     4  12  21  29  46  67  96 132 173 201 221 287
#     4  10  20  31  45  67  95 129 163 196 232 285
#     4  10  19  33  48  69  95 132 172 201 239 287
#     4  10  19  32  53  72  98 130 167 195 250 297
#     4  12  20  31  44  65 101 130 171 194 237 268
#     4  10  17  29  44  66  93 129 162 195 223 281
#
# _framework density 16.296574
#
# number of rings (size 3 to 8) (size 9 to 14) (size 15 to 20)
#    0.000    1.500    3.750    3.000    0.000    0.000 
#    0.000    0.000    0.000    0.000    0.000    0.000 
#    0.000   20.000    0.000    0.000    0.000    0.000 
#
# Total GULP energy -396469.078991 kJ/mol
# GULP energy per Si atom -12389.658718 kJ/mol
# Density = 1.625948 g / cm^3
# Si number density = 16.296574 Si / 1000 Ang^3
#
#
#
# Elastic Constant Matrix: (Units=GPa)
#
#
# Indices 1 2 3 4 5 6 
#
# 1 53.8061 15.4510 44.4719 0.0000 2.4793 0.0000
# 2 15.4510 111.2655 37.1423 0.0000 -1.1635 0.0000
# 3 44.4719 37.1423 93.4771 0.0000 -5.5876 0.0000
# 4 0.0000 0.0000 0.0000 8.3371 0.0000 -3.5781
# 5 2.4793 -1.1635 -5.5876 0.0000 19.5824 0.0000
# 6 0.0000 0.0000 0.0000 -3.5781 0.0000 16.5073
#
#
#
# Elastic Compliance Matrix: (Units=1/GPa)
#
#
# Indices 1 2 3 4 5 6 
#
# 1 0.032039 0.000831 -0.016086 0.000000 -0.008597 0.000000
# 2 0.000831 0.010390 -0.004571 0.000000 -0.000792 0.000000
# 3 -0.016086 -0.004571 0.020624 0.000000 0.007650 0.000000
# 4 0.000000 0.000000 0.000000 0.132249 0.000000 0.028666
# 5 -0.008597 -0.000792 0.007650 0.000000 0.054290 0.000000
# 6 0.000000 0.000000 0.000000 0.028666 0.000000 0.066793
#
#
# Mechanical properties :
#
#
# Convention : Reuss Voigt Hill
#
# Bulk Modulus (GPa) = 42.73532 50.29767 46.51650
# Shear Modulus (GPa) = 13.74239 19.65094 16.69667
#
# Velocity S-wave (km/s) = 2.90706 3.47628 3.20433
# Velocity P-wave (km/s) = 6.12768 6.85884 6.50354
#
# Compressibility (1/GPa) = 0.02339985
#
# Stress axis : x y z
#
# Youngs Moduli (GPa) = 31.21241 96.24933 48.48617
#
# Poissons Ratio (x) = -0.07998 0.77997
# Poissons Ratio (y) = -0.02594 0.22163
# Poissons Ratio (z) = 0.50210 0.43995
#
# Static dielectric constant tensor:
#      x y z
#    x 3.134820 0.000000 -0.172560 
#    y 0.000000 3.328570 0.000000 
#    z -0.172560 0.000000 2.932750 
# 
# 
# High freq. dielectric constant tensor:
#      x y z
#    x 1.591730 0.000000 -0.022600 
#    y 0.000000 1.654370 0.000000 
#    z -0.022600 0.000000 1.602330 
# 
# From -- ./inp_files/77365.got.cif
#   From: 2010.03.12/outbox.cif.g09.slc.cpg/sg14_39_cif.got.tgz:77365.got - 2010.03.31 13:35:05.
