data_PCOD8123428
_publ_section_title
;
Structure prediction by ZEFSAII (Michael W. Deem and Ramdas Pophale) SiO2 
 PCOD8123428
Probable space group: P 21/C
;
_chemical_formula_sum "Si O2"
_cell_formula_units_Z 28
_cell_length_a 16.691918
_cell_length_b 11.759452
_cell_length_c 13.923476
_cell_angle_alpha 90.000000
_cell_angle_beta 155.001363
_cell_angle_gamma 90.000000
_cell_volume 1154.960416
_symmetry_space_group_name_H-M "P 21/C"
_symmetry_group_IT_number 14
_symmetry_cell_setting 'monoclinic'
loop_
_space_group_symop_operation_xyz
x,y,z
-x,1/2+y,1/2-z
-x,-y,-z
x,1/2-y,1/2+z
loop_
_atom_site_type_symbol
_atom_site_label
_atom_site_fract_x
_atom_site_fract_y
_atom_site_fract_z
Si Si1 0.297422 0.059182 0.030015
Si Si2 0.247556 0.623364 0.152122
Si Si3 0.804152 0.146563 0.196542
Si Si4 0.630556 0.624725 0.750915
Si Si5 0.694310 0.944286 0.516538
Si Si6 0.373775 0.232389 0.944396
Si Si7 0.034822 0.864362 0.224950
O O1 0.316286 0.155987 0.971514
O O2 0.189700 0.109586 0.007213
O O3 0.164024 0.960500 0.839203
O O4 0.499904 0.012607 0.284807
O O5 0.125385 0.622028 0.117981
O O6 0.373823 0.508725 0.282094
O O7 0.398765 0.726146 0.320098
O O8 0.109025 0.644378 0.914273
O O9 0.928624 0.249048 0.291644
O O10 0.579606 0.172322 0.956735
O O11 0.744215 0.632818 0.975465
O O12 0.723658 0.693997 0.763008
O O13 0.860885 0.033596 0.718277
O O14 0.681668 0.863023 0.595149
#
# Coordination Sequence:
#
# PCOD8123428 Si02
#       7
#     4   4   4   4   4   4   4
#     4  11  22  37  61  93 120 154 212 253 299 368
#     4  10  17  38  64  90 119 161 207 258 306 346
#     4  10  19  37  62  89 125 156 202 265 297 362
#     4   9  17  35  64  90 112 158 214 251 293 361
#     4  10  23  39  63  87 126 163 200 253 319 357
#     4  11  18  38  63  90 120 157 203 260 306 359
#     4  11  24  38  61  92 127 162 202 251 314 365
#
# _framework density 24.243255999999999
#
# number of rings (size 3 to 8) (size 9 to 14) (size 15 to 20)
#    0.000    1.714    5.714    2.571    2.000    0.571 
#    0.000    2.857    3.143    7.714    0.000    0.000 
#    0.000    0.000    0.000    0.000    0.000    0.000 
#
# Total GULP energy -347068.833294 kJ/mol
# GULP energy per Si atom -12395.315475 kJ/mol
# Density = 2.418808 g / cm^3
# Si number density = 24.243256 Si / 1000 Ang^3
#
#
#
# Elastic Constant Matrix: (Units=GPa)
#
#
# Indices 1 2 3 4 5 6 
#
# 1 123.6382 55.9396 16.1671 0.0000 19.9313 0.0000
# 2 55.9396 73.0187 1.6232 0.0000 9.8049 0.0000
# 3 16.1671 1.6232 26.7013 0.0000 7.9356 0.0000
# 4 0.0000 0.0000 0.0000 11.8319 0.0000 -3.7523
# 5 19.9313 9.8049 7.9356 0.0000 28.5539 0.0000
# 6 0.0000 0.0000 0.0000 -3.7523 0.0000 56.5115
#
#
#
# Elastic Compliance Matrix: (Units=1/GPa)
#
#
# Indices 1 2 3 4 5 6 
#
# 1 0.014325 -0.010203 -0.006674 0.000000 -0.004641 0.000000
# 2 -0.010203 0.021634 0.005400 0.000000 -0.001808 0.000000
# 3 -0.006674 0.005400 0.043962 0.000000 -0.009413 0.000000
# 4 0.000000 0.000000 0.000000 0.086335 0.000000 0.005733
# 5 -0.004641 -0.001808 -0.009413 0.000000 0.041498 0.000000
# 6 0.000000 0.000000 0.000000 0.005733 0.000000 0.018076
#
#
# Mechanical properties :
#
#
# Convention : Reuss Voigt Hill
#
# Bulk Modulus (GPa) = 17.55414 41.20200 29.37807
# Shear Modulus (GPa) = 18.67242 29.35467 24.01355
#
# Velocity S-wave (km/s) = 2.77828 3.48349 3.15067
# Velocity P-wave (km/s) = 4.18907 5.76296 5.03786
#
# Compressibility (1/GPa) = 0.05696663
#
# Stress axis : x y z
#
# Youngs Moduli (GPa) = 69.80650 46.22279 22.74704
#
# Poissons Ratio (x) = 0.47161 0.15182
# Poissons Ratio (y) = 0.71224 -0.12283
# Poissons Ratio (z) = 0.46590 -0.24959
#
# Static dielectric constant tensor:
#      x y z
#    x 4.723350 0.000000 -0.021340 
#    y 0.000000 4.231030 0.000000 
#    z -0.021340 0.000000 3.962830 
# 
# 
# High freq. dielectric constant tensor:
#      x y z
#    x 1.973960 0.000000 0.008180 
#    y 0.000000 1.948160 0.000000 
#    z 0.008180 0.000000 1.934290 
# 
# From -- ./inp_files/48792.got.cif
#   From: 2010.03.12/outbox.cif.g09.slc.cpg/sg14_25_cif.got.tgz:48792.got - 2010.03.31 13:35:05.
