data_PCOD8123862
_publ_section_title
;
Structure prediction by ZEFSAII (Michael W. Deem and Ramdas Pophale) SiO2 
 PCOD8123862
Probable space group: P 21/C
;
_chemical_formula_sum "Si O2"
_cell_formula_units_Z 24
_cell_length_a 12.941748
_cell_length_b 11.797374
_cell_length_c 16.799149
_cell_angle_alpha 90.000000
_cell_angle_beta 25.997212
_cell_angle_gamma 90.000000
_cell_volume 1124.253373
_symmetry_space_group_name_H-M "P 21/C"
_symmetry_group_IT_number 14
_symmetry_cell_setting 'monoclinic'
loop_
_space_group_symop_operation_xyz
x,y,z
-x,1/2+y,1/2-z
-x,-y,-z
x,1/2-y,1/2+z
loop_
_atom_site_type_symbol
_atom_site_label
_atom_site_fract_x
_atom_site_fract_y
_atom_site_fract_z
Si Si1 0.551336 0.117745 0.103168
Si Si2 0.702246 0.622089 0.536292
Si Si3 0.124264 0.689216 0.149474
Si Si4 0.416830 0.064435 0.701657
Si Si5 0.639841 0.183189 0.223254
Si Si6 0.871707 0.755406 0.665502
O O1 0.575195 0.153350 0.177916
O O2 0.283510 0.141388 0.261854
O O3 0.614581 0.986883 0.046912
O O4 0.731609 0.196599 0.927898
O O5 0.678267 0.601961 0.646419
O O6 0.547280 0.727661 0.613224
O O7 0.976679 0.646817 0.327781
O O8 0.936596 0.714607 0.210322
O O9 0.304898 0.590872 0.996615
O O10 0.274533 0.137127 0.734668
O O11 0.371367 0.931736 0.716806
O O12 0.896955 0.239959 0.049308
#
# Coordination Sequence:
#
# PCOD8123862 Si02
#       6
#     4   4   4   4   4   4
#     4   9  21  39  60  86 121 157 196 245 296 345
#     4  11  21  39  61  88 117 160 198 235 303 352
#     4  10  22  39  59  87 123 151 199 251 288 349
#     4  10  21  42  60  85 118 163 195 244 296 344
#     4  10  20  38  62  87 116 158 201 239 294 353
#     4  10  18  41  60  84 123 154 191 256 289 341
#
# _framework density 21.3475
#
# number of rings (size 3 to 8) (size 9 to 14) (size 15 to 20)
#    0.000    2.000    5.000    0.500    2.333    1.333 
#    6.000    0.833    0.000    0.000    0.000    0.000 
#    0.000    0.000    0.000    0.000    0.000    0.000 
#
# Total GULP energy -297611.682169 kJ/mol
# GULP energy per Si atom -12400.486757 kJ/mol
# Density = 2.129891 g / cm^3
# Si number density = 21.347500 Si / 1000 Ang^3
#
#
#
# Elastic Constant Matrix: (Units=GPa)
#
#
# Indices 1 2 3 4 5 6 
#
# 1 31.8269 0.1424 39.7152 0.0000 -14.6651 0.0000
# 2 0.1424 117.7981 58.6264 0.0000 11.5956 0.0000
# 3 39.7152 58.6264 164.9265 0.0000 4.1649 0.0000
# 4 0.0000 0.0000 0.0000 25.9883 0.0000 -0.5748
# 5 -14.6651 11.5956 4.1649 0.0000 28.4645 0.0000
# 6 0.0000 0.0000 0.0000 -0.5748 0.0000 11.9648
#
#
#
# Elastic Compliance Matrix: (Units=1/GPa)
#
#
# Indices 1 2 3 4 5 6 
#
# 1 0.077800 0.006990 -0.022242 0.000000 0.040490 0.000000
# 2 0.006990 0.011340 -0.005710 0.000000 -0.000183 0.000000
# 3 -0.022242 -0.005710 0.013730 0.000000 -0.011142 0.000000
# 4 0.000000 0.000000 0.000000 0.038520 0.000000 0.001851
# 5 0.040490 -0.000183 -0.011142 0.000000 0.057697 0.000000
# 6 0.000000 0.000000 0.000000 0.001851 0.000000 0.083668
#
#
# Mechanical properties :
#
#
# Convention : Reuss Voigt Hill
#
# Bulk Modulus (GPa) = 16.40771 56.83551 36.62161
# Shear Modulus (GPa) = 14.49300 27.68800 21.09050
#
# Velocity S-wave (km/s) = 2.60841 3.60531 3.14659
# Velocity P-wave (km/s) = 4.09566 6.63422 5.51304
#
# Compressibility (1/GPa) = 0.06094696
#
# Stress axis : x y z
#
# Youngs Moduli (GPa) = 12.85348 88.18108 72.83200
#
# Poissons Ratio (x) = -0.61636 1.61991
# Poissons Ratio (y) = -0.08984 0.41585
# Poissons Ratio (z) = 0.28588 0.50348
#
# Static dielectric constant tensor:
#      x y z
#    x 3.439700 0.000000 -0.174220 
#    y 0.000000 4.273820 0.000000 
#    z -0.174220 0.000000 3.944570 
# 
# 
# High freq. dielectric constant tensor:
#      x y z
#    x 1.804970 0.000000 -0.014600 
#    y 0.000000 1.842980 0.000000 
#    z -0.014600 0.000000 1.844960 
# 
# From -- ./inp_files/68502.got.cif
#   From: 2010.03.12/outbox.cif.g09.slc.cpg/sg14_35_cif.got.tgz:68502.got - 2010.03.31 13:35:05.
