data_PCOD8123468
_publ_section_title
;
Structure prediction by ZEFSAII (Michael W. Deem and Ramdas Pophale) SiO2 
 PCOD8123468
Probable space group: P 21/C
;
_chemical_formula_sum "Si O2"
_cell_formula_units_Z 32
_cell_length_a 27.930646
_cell_length_b 7.359462
_cell_length_c 22.258549
_cell_angle_alpha 90.000000
_cell_angle_beta 157.798068
_cell_angle_gamma 90.000000
_cell_volume 1728.894997
_symmetry_space_group_name_H-M "P 21/C"
_symmetry_group_IT_number 14
_symmetry_cell_setting 'monoclinic'
loop_
_space_group_symop_operation_xyz
x,y,z
-x,1/2+y,1/2-z
-x,-y,-z
x,1/2-y,1/2+z
loop_
_atom_site_type_symbol
_atom_site_label
_atom_site_fract_x
_atom_site_fract_y
_atom_site_fract_z
Si Si1 0.322082 0.962367 0.485289
Si Si2 0.407800 0.610316 0.958327
Si Si3 0.141044 0.215295 0.439456
Si Si4 0.102952 0.885807 0.312498
Si Si5 0.510163 0.144043 0.770934
Si Si6 0.590776 0.582233 0.716703
Si Si7 0.394975 0.814374 0.316224
Si Si8 0.265515 0.563227 0.548170
O O1 0.313916 0.912834 0.405809
O O2 0.177189 0.942794 0.338315
O O3 0.424856 0.836522 0.640250
O O4 0.388620 0.154288 0.582570
O O5 0.331037 0.667797 0.808657
O O6 0.511898 0.764884 0.091182
O O7 0.469680 0.413154 0.020826
O O8 0.261463 0.138074 0.614677
O O9 0.180719 0.383865 0.443330
O O10 0.031647 0.288723 0.358066
O O11 0.078808 0.062616 0.324954
O O12 0.191014 0.747535 0.450658
O O13 0.458776 0.054948 0.772930
O O14 0.620366 0.027612 0.865804
O O15 0.577176 0.393034 0.666980
O O16 0.313221 0.920774 0.172128
#
# Coordination Sequence:
#
# PCOD8123468 Si02
#       8
#     4   4   4   4   4   4   4   4
#     4  10  19  33  50  78 109 137 169 220 270 323
#     4  10  22  34  52  82 111 138 178 222 261 320
#     4  12  21  35  53  79 107 143 178 215 267 322
#     4  11  23  34  54  80 108 142 176 219 267 321
#     4  10  18  30  52  81 107 131 165 214 284 325
#     4  11  20  34  55  79 110 144 174 215 272 324
#     4  11  20  34  54  80 107 145 178 213 267 322
#     4  11  20  34  54  82 110 138 175 217 269 328
#
# _framework density 18.508932999999999
#
# number of rings (size 3 to 8) (size 9 to 14) (size 15 to 20)
#    0.000    1.250    6.250    1.875    0.000    0.000 
#    0.000    0.000    0.000    1.500    0.000    0.000 
#    0.000    0.000    0.000    0.000    0.000    0.000 
#
# Total GULP energy -396504.134443 kJ/mol
# GULP energy per Si atom -12390.754201 kJ/mol
# Density = 1.846681 g / cm^3
# Si number density = 18.508933 Si / 1000 Ang^3
#
#
#
# Elastic Constant Matrix: (Units=GPa)
#
#
# Indices 1 2 3 4 5 6 
#
# 1 104.0126 25.0494 49.8582 0.0000 8.8490 0.0000
# 2 25.0494 81.5264 17.9116 0.0000 8.3501 0.0000
# 3 49.8582 17.9116 63.9760 0.0000 16.9142 0.0000
# 4 0.0000 0.0000 0.0000 26.2392 0.0000 -0.2627
# 5 8.8490 8.3501 16.9142 0.0000 34.3833 0.0000
# 6 0.0000 0.0000 0.0000 -0.2627 0.0000 18.9852
#
#
#
# Elastic Compliance Matrix: (Units=1/GPa)
#
#
# Indices 1 2 3 4 5 6 
#
# 1 0.015935 -0.002433 -0.012425 0.000000 0.002602 0.000000
# 2 -0.002433 0.013516 -0.001363 0.000000 -0.001986 0.000000
# 3 -0.012425 -0.001363 0.028465 0.000000 -0.010474 0.000000
# 4 0.000000 0.000000 0.000000 0.038116 0.000000 0.000527
# 5 0.002602 -0.001986 -0.010474 0.000000 0.034049 0.000000
# 6 0.000000 0.000000 0.000000 0.000527 0.000000 0.052680
#
#
# Mechanical properties :
#
#
# Convention : Reuss Voigt Hill
#
# Bulk Modulus (GPa) = 39.25646 48.35037 43.80342
# Shear Modulus (GPa) = 22.35190 26.36793 24.35992
#
# Velocity S-wave (km/s) = 3.47886 3.77849 3.63177
# Velocity P-wave (km/s) = 6.11491 6.72424 6.42680
#
# Compressibility (1/GPa) = 0.02547351
#
# Stress axis : x y z
#
# Youngs Moduli (GPa) = 62.75621 73.98458 35.13091
#
# Poissons Ratio (x) = 0.17998 0.43651
# Poissons Ratio (y) = 0.15266 0.04790
# Poissons Ratio (z) = 0.77976 0.10087
#
# Static dielectric constant tensor:
#      x y z
#    x 3.613220 0.000000 0.099750 
#    y 0.000000 3.636210 0.000000 
#    z 0.099750 0.000000 3.218940 
# 
# 
# High freq. dielectric constant tensor:
#      x y z
#    x 1.712300 0.000000 0.014040 
#    y 0.000000 1.738020 0.000000 
#    z 0.014040 0.000000 1.678340 
# 
# From -- ./inp_files/75285.got.cif
#   From: 2010.03.12/outbox.cif.g09.slc.cpg/sg14_38_cif.got.tgz:75285.got - 2010.03.31 13:35:05.
