data_PCOD8123059
_publ_section_title
;
Structure prediction by ZEFSAII (Michael W. Deem and Ramdas Pophale) SiO2 
 PCOD8123059
Probable space group: P 2/C
;
_chemical_formula_sum "Si O2"
_cell_formula_units_Z 24
_cell_length_a 11.158497
_cell_length_b 4.883035
_cell_length_c 21.481935
_cell_angle_alpha 90.000000
_cell_angle_beta 68.468619
_cell_angle_gamma 90.000000
_cell_volume 1088.812420
_symmetry_space_group_name_H-M "P 2/C"
_symmetry_group_IT_number 13
_symmetry_cell_setting 'monoclinic'
loop_
_space_group_symop_operation_xyz
x,y,z
-x,y,1/2-z
-x,-y,-z
x,-y,1/2+z
loop_
_atom_site_type_symbol
_atom_site_label
_atom_site_fract_x
_atom_site_fract_y
_atom_site_fract_z
Si Si1 0.663533 0.055756 0.546205
Si Si2 0.623291 0.863136 0.764732
Si Si3 0.716501 0.431157 0.957284
Si Si4 0.160398 0.958965 0.873844
Si Si5 0.588517 0.663702 0.353195
Si Si6 0.999577 0.532785 0.073850
O O1 0.626320 0.785359 0.512648
O O2 0.768832 0.936952 0.573279
O O3 0.721135 0.271419 0.487110
O O4 0.549594 0.203990 0.604629
O O5 0.500000 0.973862 0.750000
O O6 0.745762 0.844906 0.697057
O O7 0.579853 0.578425 0.804464
O O8 0.665985 0.085012 0.808251
O O9 0.659978 0.454804 0.899353
O O10 0.866074 0.344917 0.926248
O O11 0.034416 0.767820 0.894335
O O12 0.112751 0.270588 0.877736
O O13 0.000000 0.500000 0.000000
#
# Coordination Sequence:
#
# PCOD8123059 Si02
#       6
#     4   4   4   4   4   4
#     4  12  22  41  70 100 135 169 219 289 338 398
#     4  12  26  45  69  94 134 179 226 276 329 407
#     4  12  25  42  67 101 140 172 218 279 347 402
#     4  12  24  42  68 102 127 174 234 277 326 403
#     4  12  26  44  66 101 135 178 220 277 346 402
#     4  12  23  42  67 100 136 174 223 275 337 404
#
# _framework density 22.042365
#
# number of rings (size 3 to 8) (size 9 to 14) (size 15 to 20)
#    0.000    0.000    5.000    6.000    2.333    0.000 
#    0.000    5.000    0.000    0.000    0.000    0.000 
#    0.000    0.000    0.000    0.000    0.000    0.000 
#
# Total GULP energy -297577.642379 kJ/mol
# GULP energy per Si atom -12399.068432 kJ/mol
# Density = 2.199220 g / cm^3
# Si number density = 22.042365 Si / 1000 Ang^3
#
#
#
# Elastic Constant Matrix: (Units=GPa)
#
#
# Indices 1 2 3 4 5 6 
#
# 1 75.0346 21.2162 33.3790 0.0000 -2.0172 0.0000
# 2 21.2162 118.6143 53.1028 0.0000 3.7535 0.0000
# 3 33.3790 53.1028 102.4007 0.0000 -1.3235 0.0000
# 4 0.0000 0.0000 0.0000 42.6311 0.0000 -9.2202
# 5 -2.0172 3.7535 -1.3235 0.0000 24.9977 0.0000
# 6 0.0000 0.0000 0.0000 -9.2202 0.0000 27.8165
#
#
#
# Elastic Compliance Matrix: (Units=1/GPa)
#
#
# Indices 1 2 3 4 5 6 
#
# 1 0.015659 -0.000726 -0.004713 0.000000 0.001123 0.000000
# 2 -0.000726 0.011109 -0.005550 0.000000 -0.002021 0.000000
# 3 -0.004713 -0.005550 0.014196 0.000000 0.001205 0.000000
# 4 0.000000 0.000000 0.000000 0.025268 0.000000 0.008376
# 5 0.001123 -0.002021 0.001205 0.000000 0.040461 0.000000
# 6 0.000000 0.000000 0.000000 0.008376 0.000000 0.038726
#
#
# Mechanical properties :
#
#
# Convention : Reuss Voigt Hill
#
# Bulk Modulus (GPa) = 52.67442 56.82728 54.75085
# Shear Modulus (GPa) = 28.78044 31.64585 30.21315
#
# Velocity S-wave (km/s) = 3.61735 3.79315 3.70629
# Velocity P-wave (km/s) = 6.43395 6.70976 6.57330
#
# Compressibility (1/GPa) = 0.01898455
#
# Stress axis : x y z
#
# Youngs Moduli (GPa) = 63.85927 90.01345 70.44338
#
# Poissons Ratio (x) = 0.06539 0.33201
# Poissons Ratio (y) = 0.04639 0.39099
# Poissons Ratio (z) = 0.30098 0.49961
#
# Static dielectric constant tensor:
#      x y z
#    x 3.902180 0.000000 -0.097640 
#    y 0.000000 4.133660 0.000000 
#    z -0.097640 0.000000 4.114290 
# 
# 
# High freq. dielectric constant tensor:
#      x y z
#    x 1.851120 0.000000 -0.006600 
#    y 0.000000 1.888540 0.000000 
#    z -0.006600 0.000000 1.869510 
# 
# From -- ./inp_files/77167.got.cif
#   From: 2010.06.25/outbox.cif.g09.slc.cpg/sg13_39_cif.got.tgz:77167.got - 2010.06.28 04:50:58.
