data_PCOD8123527
_publ_section_title
;
Structure prediction by ZEFSAII (Michael W. Deem and Ramdas Pophale) SiO2 
 PCOD8123527
Probable space group: P 21/C
;
_chemical_formula_sum "Si O2"
_cell_formula_units_Z 24
_cell_length_a 9.187995
_cell_length_b 8.040757
_cell_length_c 17.384067
_cell_angle_alpha 90.000000
_cell_angle_beta 89.416756
_cell_angle_gamma 90.000000
_cell_volume 1284.241125
_symmetry_space_group_name_H-M "P 21/C"
_symmetry_group_IT_number 14
_symmetry_cell_setting 'monoclinic'
loop_
_space_group_symop_operation_xyz
x,y,z
-x,1/2+y,1/2-z
-x,-y,-z
x,1/2-y,1/2+z
loop_
_atom_site_type_symbol
_atom_site_label
_atom_site_fract_x
_atom_site_fract_y
_atom_site_fract_z
Si Si1 0.180941 0.445756 0.271556
Si Si2 0.638383 0.113151 0.685001
Si Si3 0.401215 0.845119 0.680173
Si Si4 0.667324 0.454272 0.417876
Si Si5 0.139438 0.426559 0.717205
Si Si6 0.653445 0.421586 0.590167
O O1 0.261243 0.547030 0.203983
O O2 0.160852 0.259840 0.244431
O O3 0.274322 0.450867 0.349856
O O4 0.029151 0.534332 0.288895
O O5 0.552464 0.223264 0.749574
O O6 0.682853 0.229713 0.613431
O O7 0.537027 0.962065 0.658400
O O8 0.787781 0.047915 0.720857
O O9 0.358614 0.737302 0.606215
O O10 0.789249 0.545213 0.366671
O O11 0.720500 0.455391 0.505839
O O12 0.519489 0.556452 0.408769
#
# Coordination Sequence:
#
# PCOD8123527 Si02
#       6
#     4   4   4   4   4   4
#     4  11  21  36  57  79 104 138 179 219 261 312
#     4  10  18  32  54  79 106 137 178 219 257 306
#     4  10  18  32  54  79 106 137 178 219 257 306
#     4  10  21  36  54  79 110 141 173 214 264 311
#     4  11  21  36  57  79 104 138 179 219 261 312
#     4  10  21  36  54  79 110 141 173 214 264 311
#
# _framework density 18.688079999999999
#
# number of rings (size 3 to 8) (size 9 to 14) (size 15 to 20)
#    0.000    1.667    0.000   10.000    0.000    1.333 
#    0.000    1.667    0.000    4.000    0.000    0.000 
#    0.000    0.000    0.000    0.000    0.000    0.000 
#
# Total GULP energy -297669.992860 kJ/mol
# GULP energy per Si atom -12402.916369 kJ/mol
# Density = 1.864554 g / cm^3
# Si number density = 18.688080 Si / 1000 Ang^3
#
#
#
# Elastic Constant Matrix: (Units=GPa)
#
#
# Indices 1 2 3 4 5 6 
#
# 1 42.4627 -9.2722 12.2114 0.0000 0.2998 0.0000
# 2 -9.2722 89.8982 27.4758 0.0000 5.5095 0.0000
# 3 12.2114 27.4758 88.6790 0.0000 1.0938 0.0000
# 4 0.0000 0.0000 0.0000 19.3885 0.0000 0.9095
# 5 0.2998 5.5095 1.0938 0.0000 12.8625 0.0000
# 6 0.0000 0.0000 0.0000 0.9095 0.0000 34.8209
#
#
#
# Elastic Compliance Matrix: (Units=1/GPa)
#
#
# Indices 1 2 3 4 5 6 
#
# 1 0.025900 0.004283 -0.004869 0.000000 -0.002024 0.000000
# 2 0.004283 0.013318 -0.004650 0.000000 -0.005409 0.000000
# 3 -0.004869 -0.004650 0.013376 0.000000 0.000968 0.000000
# 4 0.000000 0.000000 0.000000 0.051640 0.000000 -0.001349
# 5 -0.002024 -0.005409 0.000968 0.000000 0.080027 0.000000
# 6 0.000000 0.000000 0.000000 -0.001349 0.000000 0.028754
#
#
# Mechanical properties :
#
#
# Convention : Reuss Voigt Hill
#
# Bulk Modulus (GPa) = 23.73938 31.31885 27.52912
# Shear Modulus (GPa) = 21.05035 26.12270 23.58653
#
# Velocity S-wave (km/s) = 3.35984 3.74281 3.55648
# Velocity P-wave (km/s) = 5.27085 5.95594 5.62384
#
# Compressibility (1/GPa) = 0.04212410
#
# Stress axis : x y z
#
# Youngs Moduli (GPa) = 38.61025 75.08615 74.76244
#
# Poissons Ratio (x) = -0.32163 0.36399
# Poissons Ratio (y) = -0.16538 0.34761
# Poissons Ratio (z) = 0.18798 0.34911
#
# Static dielectric constant tensor:
#      x y z
#    x 3.439190 0.000000 0.018820 
#    y 0.000000 3.671570 0.000000 
#    z 0.018820 0.000000 3.399210 
# 
# 
# High freq. dielectric constant tensor:
#      x y z
#    x 1.721800 0.000000 0.001430 
#    y 0.000000 1.739570 0.000000 
#    z 0.001430 0.000000 1.707000 
# 
# From -- ./inp_files/54567.got.cif
#   From: 2010.03.12/outbox.cif.g09.slc.cpg/sg14_28_cif.got.tgz:54567.got - 2010.03.31 13:35:05.
