data_PCOD8123464
_publ_section_title
;
Structure prediction by ZEFSAII (Michael W. Deem and Ramdas Pophale) SiO2 
 PCOD8123464
Probable space group: P 21/C
;
_chemical_formula_sum "Si O2"
_cell_formula_units_Z 32
_cell_length_a 9.070902
_cell_length_b 17.093632
_cell_length_c 11.577568
_cell_angle_alpha 90.000000
_cell_angle_beta 67.517352
_cell_angle_gamma 90.000000
_cell_volume 1658.715748
_symmetry_space_group_name_H-M "P 21/C"
_symmetry_group_IT_number 14
_symmetry_cell_setting 'monoclinic'
loop_
_space_group_symop_operation_xyz
x,y,z
-x,1/2+y,1/2-z
-x,-y,-z
x,1/2-y,1/2+z
loop_
_atom_site_type_symbol
_atom_site_label
_atom_site_fract_x
_atom_site_fract_y
_atom_site_fract_z
Si Si1 0.225955 0.955599 0.899332
Si Si2 0.710489 0.305413 0.168069
Si Si3 0.279989 0.842992 0.087175
Si Si4 0.516693 0.791094 0.456098
Si Si5 0.007454 0.746994 0.062738
Si Si6 0.748039 0.679076 0.292572
Si Si7 0.462504 0.646676 0.214986
Si Si8 0.119111 0.109856 0.024305
O O1 0.270846 0.920246 0.011975
O O2 0.058272 0.922927 0.902856
O O3 0.359593 0.932368 0.764855
O O4 0.219118 0.049167 0.915148
O O5 0.711226 0.363013 0.278629
O O6 0.656279 0.218167 0.220912
O O7 0.583990 0.337596 0.111615
O O8 0.888148 0.300457 0.062400
O O9 0.433869 0.792640 0.006390
O O10 0.122083 0.791890 0.116470
O O11 0.691457 0.764742 0.358259
O O12 0.526164 0.846569 0.564888
O O13 0.905624 0.687192 0.168303
O O14 0.885838 0.806383 0.036627
O O15 0.612093 0.641644 0.254274
O O16 0.790030 0.619157 0.382013
#
# Coordination Sequence:
#
# PCOD8123464 Si02
#       8
#     4   4   4   4   4   4   4   4
#     4  10  19  36  53  75 108 141 175 212 262 325
#     4   9  16  29  52  77  99 134 174 213 263 307
#     4   9  16  31  51  74 104 134 176 215 258 315
#     4   9  18  31  50  77 106 136 172 218 266 310
#     4  10  18  30  50  80 105 134 169 225 265 303
#     4  11  20  31  51  82 108 133 173 225 264 304
#     4  10  18  33  50  74 107 135 172 216 265 310
#     4  10  21  33  52  81 104 137 178 214 266 308
#
# _framework density 19.292034000000001
#
# number of rings (size 3 to 8) (size 9 to 14) (size 15 to 20)
#    0.000    2.250    5.000    1.500    3.500    0.500 
#    0.000    0.000    0.000    1.500    3.250    0.000 
#    0.000    0.000    0.000    0.000    0.000    0.000 
#
# Total GULP energy -396716.657349 kJ/mol
# GULP energy per Si atom -12397.395542 kJ/mol
# Density = 1.924812 g / cm^3
# Si number density = 19.292034 Si / 1000 Ang^3
#
#
#
# Elastic Constant Matrix: (Units=GPa)
#
#
# Indices 1 2 3 4 5 6 
#
# 1 76.0561 9.0161 31.7522 0.0000 22.0814 0.0000
# 2 9.0161 22.0796 -2.1368 0.0000 6.8378 0.0000
# 3 31.7522 -2.1368 85.9508 0.0000 13.9432 0.0000
# 4 0.0000 0.0000 0.0000 20.4533 0.0000 0.7727
# 5 22.0814 6.8378 13.9432 0.0000 38.3583 0.0000
# 6 0.0000 0.0000 0.0000 0.7727 0.0000 10.8776
#
#
#
# Elastic Compliance Matrix: (Units=1/GPa)
#
#
# Indices 1 2 3 4 5 6 
#
# 1 0.018391 -0.005747 -0.005723 0.000000 -0.007482 0.000000
# 2 -0.005747 0.050347 0.004563 0.000000 -0.007325 0.000000
# 3 -0.005723 0.004563 0.014303 0.000000 -0.002718 0.000000
# 4 0.000000 0.000000 0.000000 0.049023 0.000000 -0.003482
# 5 -0.007482 -0.007325 -0.002718 0.000000 0.032671 0.000000
# 6 0.000000 0.000000 0.000000 -0.003482 0.000000 0.092179
#
#
# Mechanical properties :
#
#
# Convention : Reuss Voigt Hill
#
# Bulk Modulus (GPa) = 14.44501 29.03884 21.74192
# Shear Modulus (GPa) = 17.01809 23.63485 20.32647
#
# Velocity S-wave (km/s) = 2.97329 3.50395 3.24947
# Velocity P-wave (km/s) = 4.39216 5.60849 5.03717
#
# Compressibility (1/GPa) = 0.06922807
#
# Stress axis : x y z
#
# Youngs Moduli (GPa) = 54.37419 19.86199 69.91451
#
# Poissons Ratio (x) = 0.11414 0.40013
# Poissons Ratio (y) = 0.31247 -0.31901
# Poissons Ratio (z) = 0.31119 -0.09063
#
# Static dielectric constant tensor:
#      x y z
#    x 3.715130 0.000000 0.172400 
#    y 0.000000 2.990440 0.000000 
#    z 0.172400 0.000000 3.676670 
# 
# 
# High freq. dielectric constant tensor:
#      x y z
#    x 1.764530 0.000000 0.005620 
#    y 0.000000 1.684980 0.000000 
#    z 0.005620 0.000000 1.751140 
# 
# From -- ./inp_files/26033.got.cif
#   From: 2010.03.12/outbox.cif.g09.slc.cpg/sg14_14_cif.got.tgz:26033.got - 2010.03.31 13:35:05.
