data_PCOD8123194
_publ_section_title
;
Structure prediction by ZEFSAII (Michael W. Deem and Ramdas Pophale) SiO2 
 PCOD8123194
Probable space group: P 2/C
;
_chemical_formula_sum "Si O2"
_cell_formula_units_Z 18
_cell_length_a 5.134832
_cell_length_b 7.602544
_cell_length_c 19.482040
_cell_angle_alpha 90.000000
_cell_angle_beta 69.671083
_cell_angle_gamma 90.000000
_cell_volume 713.164771
_symmetry_space_group_name_H-M "P 2/C"
_symmetry_group_IT_number 13
_symmetry_cell_setting 'monoclinic'
loop_
_space_group_symop_operation_xyz
x,y,z
-x,y,1/2-z
-x,-y,-z
x,-y,1/2+z
loop_
_atom_site_type_symbol
_atom_site_label
_atom_site_fract_x
_atom_site_fract_y
_atom_site_fract_z
Si Si1 0.878706 0.524973 0.114685
Si Si2 0.254548 0.980937 0.177983
Si Si3 0.850149 0.863318 0.463473
Si Si4 0.500000 0.701278 0.250000
Si Si5 0.416797 0.701116 0.593343
O O1 0.764993 0.586434 0.200673
O O2 0.983710 0.681100 0.056716
O O3 0.114933 0.377519 0.103441
O O4 0.620937 0.454426 0.094746
O O5 0.412047 0.167630 0.159672
O O6 0.000000 0.009472 0.250000
O O7 0.150890 0.945464 0.111212
O O8 0.438901 0.821280 0.189087
O O9 0.538967 0.815223 0.518229
O O10 0.000000 0.000000 0.500000
#
# Coordination Sequence:
#
# PCOD8123194 Si02
#       5
#     4   4   4   2   4
#     4  12  28  50  81 118 164 207 267 339 407 474
#     4  12  28  52  79 113 160 214 273 325 402 488
#     4  12  26  55  84 120 159 218 269 331 403 489
#     4  12  28  50  78 114 162 216 272 330 406 490
#     4  12  29  48  83 119 163 206 272 339 408 474
#
# _framework density 25.239609000000002
#
# number of rings (size 3 to 8) (size 9 to 14) (size 15 to 20)
#    0.000    0.000    2.222    6.000    6.222    3.556 
#    0.000    0.000    0.000    0.000    0.000    0.000 
#    0.000    0.000    0.000    0.000    0.000    0.000 
#
# Total GULP energy -223240.160925 kJ/mol
# GULP energy per Si atom -12402.231163 kJ/mol
# Density = 2.518216 g / cm^3
# Si number density = 25.239609 Si / 1000 Ang^3
#
#
#
# Elastic Constant Matrix: (Units=GPa)
#
#
# Indices 1 2 3 4 5 6 
#
# 1 96.4780 35.8334 54.8155 0.0000 -18.2838 0.0000
# 2 35.8334 129.2115 70.5601 0.0000 -17.3752 0.0000
# 3 54.8155 70.5601 174.3922 0.0000 -13.3662 0.0000
# 4 0.0000 0.0000 0.0000 61.5516 0.0000 -13.4158
# 5 -18.2838 -17.3752 -13.3662 0.0000 55.6583 0.0000
# 6 0.0000 0.0000 0.0000 -13.4158 0.0000 57.8421
#
#
#
# Elastic Compliance Matrix: (Units=1/GPa)
#
#
# Indices 1 2 3 4 5 6 
#
# 1 0.013427 -0.001448 -0.003394 0.000000 0.003144 0.000000
# 2 -0.001448 0.010356 -0.003590 0.000000 0.001895 0.000000
# 3 -0.003394 -0.003590 0.008234 0.000000 -0.000258 0.000000
# 4 0.000000 0.000000 0.000000 0.017112 0.000000 0.003969
# 5 0.003144 0.001895 -0.000258 0.000000 0.019529 0.000000
# 6 0.000000 0.000000 0.000000 0.003969 0.000000 0.018209
#
#
# Mechanical properties :
#
#
# Convention : Reuss Voigt Hill
#
# Bulk Modulus (GPa) = 65.98884 80.27772 73.13328
# Shear Modulus (GPa) = 45.96468 50.93523 48.44996
#
# Velocity S-wave (km/s) = 4.27210 4.49716 4.38608
# Velocity P-wave (km/s) = 7.10888 7.67081 7.39518
#
# Compressibility (1/GPa) = 0.01515408
#
# Stress axis : x y z
#
# Youngs Moduli (GPa) = 74.47870 96.56362 121.45409
#
# Poissons Ratio (x) = 0.13978 0.41217
# Poissons Ratio (y) = 0.10781 0.43599
# Poissons Ratio (z) = 0.25276 0.34664
#
# Static dielectric constant tensor:
#      x y z
#    x 4.562990 0.000000 -0.376560 
#    y 0.000000 5.210700 0.000000 
#    z -0.376560 0.000000 4.918580 
# 
# 
# High freq. dielectric constant tensor:
#      x y z
#    x 2.005450 0.000000 -0.023790 
#    y 0.000000 2.033860 0.000000 
#    z -0.023790 0.000000 2.022450 
# 
# From -- ./inp_files/60365.got.cif
#   From: 2010.06.25/outbox.cif.g09.slc.cpg/sg13_31_cif.got.tgz:60365.got - 2010.06.28 04:50:58.
