data_PCOD8123818
_publ_section_title
;
Structure prediction by ZEFSAII (Michael W. Deem and Ramdas Pophale) SiO2 
 PCOD8123818
Probable space group: P 21/C
;
_chemical_formula_sum "Si O2"
_cell_formula_units_Z 28
_cell_length_a 7.709997
_cell_length_b 8.524298
_cell_length_c 21.760771
_cell_angle_alpha 90.000000
_cell_angle_beta 97.292697
_cell_angle_gamma 90.000000
_cell_volume 1418.599022
_symmetry_space_group_name_H-M "P 21/C"
_symmetry_group_IT_number 14
_symmetry_cell_setting 'monoclinic'
loop_
_space_group_symop_operation_xyz
x,y,z
-x,1/2+y,1/2-z
-x,-y,-z
x,1/2-y,1/2+z
loop_
_atom_site_type_symbol
_atom_site_label
_atom_site_fract_x
_atom_site_fract_y
_atom_site_fract_z
Si Si1 0.879082 0.127134 0.815993
Si Si2 0.857705 0.214218 0.014753
Si Si3 0.696215 0.157326 0.393786
Si Si4 0.879376 0.708360 0.259872
Si Si5 0.144452 0.111999 0.934877
Si Si6 0.312260 0.343412 0.859282
Si Si7 0.001425 0.927136 0.371762
O O1 0.715309 0.197470 0.846517
O O2 0.943772 0.265328 0.772599
O O3 0.024815 0.076715 0.871117
O O4 0.839335 0.969749 0.777382
O O5 0.904282 0.327150 0.072229
O O6 0.778581 0.052049 0.037717
O O7 0.706042 0.283800 0.964596
O O8 0.036012 0.191646 0.984667
O O9 0.505844 0.081565 0.372550
O O10 0.855398 0.037860 0.394192
O O11 0.716281 0.751233 0.206731
O O12 0.894164 0.821437 0.318809
O O13 0.295227 0.230234 0.918238
O O14 0.159273 0.473978 0.849268
#
# Coordination Sequence:
#
# PCOD8123818 Si02
#       7
#     4   4   4   4   4   4   4
#     4  10  18  38  61  89 112 156 203 241 298 349
#     4  10  20  38  65  87 118 162 202 245 300 354
#     4  11  24  40  60  91 125 157 198 251 299 357
#     4  11  20  38  67  85 117 160 198 246 299 353
#     4   9  19  38  62  86 115 158 203 244 294 354
#     4  11  24  40  61  90 124 156 200 251 299 356
#     4  12  22  40  63  89 122 162 199 243 305 356
#
# _framework density 19.737783
#
# number of rings (size 3 to 8) (size 9 to 14) (size 15 to 20)
#    0.000    1.429    7.143    0.429    0.000    2.286 
#    0.000    1.429    0.000    0.000    0.000    0.000 
#    0.000    0.000    0.000    0.000    0.000    0.000 
#
# Total GULP energy -346945.960829 kJ/mol
# GULP energy per Si atom -12390.927172 kJ/mol
# Density = 1.969286 g / cm^3
# Si number density = 19.737783 Si / 1000 Ang^3
#
#
#
# Elastic Constant Matrix: (Units=GPa)
#
#
# Indices 1 2 3 4 5 6 
#
# 1 81.5590 22.0345 10.6139 0.0000 16.0136 0.0000
# 2 22.0345 84.1246 35.7911 0.0000 7.8718 0.0000
# 3 10.6139 35.7911 101.9899 0.0000 6.1696 0.0000
# 4 0.0000 0.0000 0.0000 31.7885 0.0000 5.6641
# 5 16.0136 7.8718 6.1696 0.0000 15.7760 0.0000
# 6 0.0000 0.0000 0.0000 5.6641 0.0000 7.3423
#
#
#
# Elastic Compliance Matrix: (Units=1/GPa)
#
#
# Indices 1 2 3 4 5 6 
#
# 1 0.015918 -0.002891 0.000254 0.000000 -0.014814 0.000000
# 2 -0.002891 0.014924 -0.004776 0.000000 -0.002644 0.000000
# 3 0.000254 -0.004776 0.011600 0.000000 -0.002411 0.000000
# 4 0.000000 0.000000 0.000000 0.036471 0.000000 -0.028135
# 5 -0.014814 -0.002644 -0.002411 0.000000 0.080687 0.000000
# 6 0.000000 0.000000 0.000000 -0.028135 0.000000 0.157903
#
#
# Mechanical properties :
#
#
# Convention : Reuss Voigt Hill
#
# Bulk Modulus (GPa) = 36.21163 44.95026 40.58095
# Shear Modulus (GPa) = 14.63978 24.26362 19.45170
#
# Velocity S-wave (km/s) = 2.72640 3.50994 3.14268
# Velocity P-wave (km/s) = 5.31951 6.26493 5.81148
#
# Compressibility (1/GPa) = 0.02761544
#
# Stress axis : x y z
#
# Youngs Moduli (GPa) = 62.82280 67.00636 86.20330
#
# Poissons Ratio (x) = 0.19373 -0.02192
# Poissons Ratio (y) = 0.18163 0.41174
# Poissons Ratio (z) = -0.01597 0.32005
#
# Static dielectric constant tensor:
#      x y z
#    x 3.175290 0.000000 -0.031910 
#    y 0.000000 3.640570 0.000000 
#    z -0.031910 0.000000 4.137740 
# 
# 
# High freq. dielectric constant tensor:
#      x y z
#    x 1.724810 0.000000 0.001820 
#    y 0.000000 1.766010 0.000000 
#    z 0.001820 0.000000 1.796510 
# 
# From -- ./inp_files/64573.got.cif
#   From: 2010.03.12/outbox.cif.g09.slc.cpg/sg14_33_cif.got.tgz:64573.got - 2010.03.31 13:35:05.
