data_PCOD8123183
_publ_section_title
;
Structure prediction by ZEFSAII (Michael W. Deem and Ramdas Pophale) SiO2 
 PCOD8123183
Probable space group: P 2/C
;
_chemical_formula_sum "Si O2"
_cell_formula_units_Z 16
_cell_length_a 8.455121
_cell_length_b 8.989250
_cell_length_c 17.027069
_cell_angle_alpha 90.000000
_cell_angle_beta 27.621462
_cell_angle_gamma 90.000000
_cell_volume 600.002141
_symmetry_space_group_name_H-M "P 2/C"
_symmetry_group_IT_number 13
_symmetry_cell_setting 'monoclinic'
loop_
_space_group_symop_operation_xyz
x,y,z
-x,y,1/2-z
-x,-y,-z
x,-y,1/2+z
loop_
_atom_site_type_symbol
_atom_site_label
_atom_site_fract_x
_atom_site_fract_y
_atom_site_fract_z
Si Si1 0.485467 0.392649 0.173946
Si Si2 0.659248 0.110124 0.853837
Si Si3 0.123914 0.897614 0.016250
Si Si4 0.794886 0.381905 0.417716
O O1 0.500000 0.487303 0.250000
O O2 0.098679 0.331177 0.340704
O O3 0.716572 0.250386 0.088157
O O4 0.595321 0.479985 0.046145
O O5 0.000000 0.059075 0.750000
O O6 0.785004 0.154098 0.711665
O O7 0.471684 0.248465 0.979082
O O8 0.390569 0.975190 0.960985
O O9 0.000000 0.000000 0.000000
O O10 0.000000 0.435174 0.250000
#
# Coordination Sequence:
#
# PCOD8123183 Si02
#       4
#     4   4   4   4
#     4  12  26  47  75 110 147 195 249 311 377 446
#     4  12  26  47  74 109 151 199 248 309 377 447
#     4  12  26  47  76 112 152 196 250 311 374 448
#     4  12  27  49  75 109 149 194 250 311 374 449
#
# _framework density 26.666571000000001
#
# number of rings (size 3 to 8) (size 9 to 14) (size 15 to 20)
#    0.000    0.000    0.000   10.500    0.000    6.000 
#    0.000    0.000    0.000    0.000    0.000    0.000 
#    0.000    0.000    0.000    0.000    0.000    0.000 
#
# Total GULP energy -198246.535098 kJ/mol
# GULP energy per Si atom -12390.408444 kJ/mol
# Density = 2.660588 g / cm^3
# Si number density = 26.666571 Si / 1000 Ang^3
#
#
#
# Elastic Constant Matrix: (Units=GPa)
#
#
# Indices 1 2 3 4 5 6 
#
# 1 114.5719 37.2463 56.3015 0.0000 -4.4896 0.0000
# 2 37.2463 104.0163 54.2053 0.0000 5.6645 0.0000
# 3 56.3015 54.2053 182.8574 0.0000 2.9960 0.0000
# 4 0.0000 0.0000 0.0000 36.0720 0.0000 -20.0643
# 5 -4.4896 5.6645 2.9960 0.0000 36.8676 0.0000
# 6 0.0000 0.0000 0.0000 -20.0643 0.0000 30.9382
#
#
#
# Elastic Compliance Matrix: (Units=1/GPa)
#
#
# Indices 1 2 3 4 5 6 
#
# 1 0.010957 -0.002667 -0.002615 0.000000 0.001957 0.000000
# 2 -0.002667 0.012100 -0.002734 0.000000 -0.001962 0.000000
# 3 -0.002615 -0.002734 0.007092 0.000000 -0.000475 0.000000
# 4 0.000000 0.000000 0.000000 0.043366 0.000000 0.028124
# 5 0.001957 -0.001962 -0.000475 0.000000 0.027702 0.000000
# 6 0.000000 0.000000 0.000000 0.028124 0.000000 0.050562
#
#
# Mechanical properties :
#
#
# Convention : Reuss Voigt Hill
#
# Bulk Modulus (GPa) = 70.83372 77.43910 74.13641
# Shear Modulus (GPa) = 28.98270 37.68839 33.33554
#
# Velocity S-wave (km/s) = 3.30032 3.76349 3.53949
# Velocity P-wave (km/s) = 6.41430 6.92734 6.67575
#
# Compressibility (1/GPa) = 0.01411757
#
# Stress axis : x y z
#
# Youngs Moduli (GPa) = 91.26618 82.64229 141.00393
#
# Poissons Ratio (x) = 0.22043 0.36873
# Poissons Ratio (y) = 0.24343 0.38544
# Poissons Ratio (z) = 0.23866 0.22591
#
# Static dielectric constant tensor:
#      x y z
#    x 5.150010 0.000000 -0.057700 
#    y 0.000000 4.327900 0.000000 
#    z -0.057700 0.000000 5.734420 
# 
# 
# High freq. dielectric constant tensor:
#      x y z
#    x 2.099360 0.000000 0.002700 
#    y 0.000000 2.036750 0.000000 
#    z 0.002700 0.000000 2.112570 
# 
# From -- ./inp_files/63625.got.cif
#   From: 2010.06.25/outbox.cif.g09.slc.cpg/sg13_32_cif.got.tgz:63625.got - 2010.06.28 04:50:58.
