data_PCOD8123503
_publ_section_title
;
Structure prediction by ZEFSAII (Michael W. Deem and Ramdas Pophale) SiO2 
 PCOD8123503
Probable space group: P 21/C
;
_chemical_formula_sum "Si O2"
_cell_formula_units_Z 24
_cell_length_a 24.474700
_cell_length_b 12.633050
_cell_length_c 10.920769
_cell_angle_alpha 90.000000
_cell_angle_beta 158.237332
_cell_angle_gamma 90.000000
_cell_volume 1251.915310
_symmetry_space_group_name_H-M "P 21/C"
_symmetry_group_IT_number 14
_symmetry_cell_setting 'monoclinic'
loop_
_space_group_symop_operation_xyz
x,y,z
-x,1/2+y,1/2-z
-x,-y,-z
x,1/2-y,1/2+z
loop_
_atom_site_type_symbol
_atom_site_label
_atom_site_fract_x
_atom_site_fract_y
_atom_site_fract_z
Si Si1 0.168757 0.029483 0.363669
Si Si2 0.458772 0.990557 0.274691
Si Si3 0.668289 0.326412 0.752759
Si Si4 0.675020 0.819527 0.142199
Si Si5 0.349189 0.393670 0.019086
Si Si6 0.633961 0.258560 0.433599
O O1 0.198420 0.136049 0.503623
O O2 0.239469 0.041703 0.376784
O O3 0.246952 0.934555 0.598487
O O4 0.000000 0.000000 0.000000
O O5 0.603643 0.976134 0.489744
O O6 0.362220 0.885430 0.060742
O O7 0.500000 0.000000 0.500000
O O8 0.365343 0.093750 0.044254
O O9 0.494123 0.352252 0.392130
O O10 0.700748 0.239256 0.711011
O O11 0.721930 0.283705 0.998013
O O12 0.735423 0.711020 0.207362
O O13 0.529445 0.789908 0.916760
#
# Coordination Sequence:
#
# PCOD8123503 Si02
#       6
#     4   4   4   4   4   4
#     4  12  23  40  58  83 122 167 196 232 296 366
#     4  10  18  31  57  93 114 139 188 261 305 334
#     4  10  19  37  59  87 114 152 202 249 299 345
#     4  10  19  35  56  87 115 144 200 239 294 351
#     4  10  21  35  64  84 117 151 200 251 292 348
#     4  10  19  31  59  85 114 146 194 259 295 336
#
# _framework density 19.170627
#
# number of rings (size 3 to 8) (size 9 to 14) (size 15 to 20)
#    0.000    2.000    5.000    3.500    2.333    0.000 
#    3.000    0.000    0.000    1.000    0.000    0.000 
#    0.000    0.000    0.000    0.000    0.000    0.000 
#
# Total GULP energy -297339.035375 kJ/mol
# GULP energy per Si atom -12389.126474 kJ/mol
# Density = 1.912699 g / cm^3
# Si number density = 19.170627 Si / 1000 Ang^3
#
#
#
# Elastic Constant Matrix: (Units=GPa)
#
#
# Indices 1 2 3 4 5 6 
#
# 1 132.2181 20.8083 39.6683 0.0000 -27.6571 0.0000
# 2 20.8083 62.9330 33.7364 0.0000 -4.9097 0.0000
# 3 39.6683 33.7364 62.9559 0.0000 -8.2257 0.0000
# 4 0.0000 0.0000 0.0000 27.2832 0.0000 -12.8698
# 5 -27.6571 -4.9097 -8.2257 0.0000 19.4704 0.0000
# 6 0.0000 0.0000 0.0000 -12.8698 0.0000 33.6087
#
#
#
# Elastic Compliance Matrix: (Units=1/GPa)
#
#
# Indices 1 2 3 4 5 6 
#
# 1 0.012541 0.000297 -0.006058 0.000000 0.015329 0.000000
# 2 0.000297 0.022308 -0.012015 0.000000 0.000971 0.000000
# 3 -0.006058 -0.012015 0.026058 0.000000 -0.000626 0.000000
# 4 0.000000 0.000000 0.000000 0.044733 0.000000 0.017130
# 5 0.015329 0.000971 -0.000626 0.000000 0.073115 0.000000
# 6 0.000000 0.000000 0.000000 0.017130 0.000000 0.036314
#
#
# Mechanical properties :
#
#
# Convention : Reuss Voigt Hill
#
# Bulk Modulus (GPa) = 39.43965 49.61478 44.52721
# Shear Modulus (GPa) = 19.29976 26.99873 23.14925
#
# Velocity S-wave (km/s) = 3.17635 3.75685 3.47873
# Velocity P-wave (km/s) = 5.83694 6.68995 6.27795
#
# Compressibility (1/GPa) = 0.02535519
#
# Stress axis : x y z
#
# Youngs Moduli (GPa) = 79.74124 44.82679 38.37637
#
# Poissons Ratio (x) = -0.01331 0.23249
# Poissons Ratio (y) = -0.02368 0.46107
# Poissons Ratio (z) = 0.48308 0.53857
#
# Static dielectric constant tensor:
#      x y z
#    x 4.554390 0.000000 -0.875760 
#    y 0.000000 3.694190 0.000000 
#    z -0.875760 0.000000 3.342080 
# 
# 
# High freq. dielectric constant tensor:
#      x y z
#    x 1.751860 0.000000 -0.038250 
#    y 0.000000 1.759660 0.000000 
#    z -0.038250 0.000000 1.679000 
# 
# From -- ./inp_files/33974.got.cif
#   From: 2010.03.12/outbox.cif.g09.slc.cpg/sg14_17_cif.got.tgz:33974.got - 2010.03.31 13:35:05.
