data_PCOD8123955
_publ_section_title
;
Structure prediction by ZEFSAII (Michael W. Deem and Ramdas Pophale) SiO2 
 PCOD8123955
Probable space group: P 21/C
;
_chemical_formula_sum "Si O2"
_cell_formula_units_Z 32
_cell_length_a 14.977811
_cell_length_b 12.786636
_cell_length_c 8.845425
_cell_angle_alpha 90.000000
_cell_angle_beta 88.950782
_cell_angle_gamma 90.000000
_cell_volume 1693.754766
_symmetry_space_group_name_H-M "P 21/C"
_symmetry_group_IT_number 14
_symmetry_cell_setting 'monoclinic'
loop_
_space_group_symop_operation_xyz
x,y,z
-x,1/2+y,1/2-z
-x,-y,-z
x,1/2-y,1/2+z
loop_
_atom_site_type_symbol
_atom_site_label
_atom_site_fract_x
_atom_site_fract_y
_atom_site_fract_z
Si Si1 0.002719 0.924345 0.358695
Si Si2 0.127951 0.747827 0.924655
Si Si3 0.527907 0.753745 0.487800
Si Si4 0.577650 0.370123 0.756780
Si Si5 0.622807 0.883041 0.229222
Si Si6 0.182290 0.062384 0.798172
Si Si7 0.771011 0.345714 0.834311
Si Si8 0.907970 0.034325 0.935458
O O1 0.909151 0.898062 0.277313
O O2 0.034727 0.813030 0.419265
O O3 0.079113 0.975406 0.245827
O O4 0.000000 0.000000 0.500000
O O5 0.156612 0.777365 0.756608
O O6 0.208655 0.678076 0.991334
O O7 0.112853 0.846594 0.030110
O O8 0.484325 0.840596 0.599047
O O9 0.457156 0.684830 0.394874
O O10 0.591645 0.820693 0.377635
O O11 0.583063 0.668676 0.580272
O O12 0.589590 0.495664 0.737367
O O13 0.671673 0.315281 0.789776
O O14 0.730369 0.864647 0.215029
O O15 0.210621 0.965217 0.696807
O O16 0.167561 0.036066 0.978079
O O17 0.000000 0.000000 0.000000
#
# Coordination Sequence:
#
# PCOD8123955 Si02
#       8
#     4   4   4   4   4   4   4   4
#     4  11  20  35  57  82 111 149 194 231 283 341
#     4  11  19  33  53  81 112 146 182 239 277 340
#     4  10  21  38  62  90 115 157 200 233 302 375
#     4  10  20  37  62  89 118 152 193 251 303 351
#     4  10  21  40  61  85 124 155 194 250 291 351
#     4   9  20  38  54  77 115 151 184 236 288 333
#     4  10  19  32  55  81 112 141 185 236 290 328
#     4   9  20  36  54  76 109 150 190 229 285 333
#
# _framework density 18.892935999999999
#
# number of rings (size 3 to 8) (size 9 to 14) (size 15 to 20)
#    0.000    2.000    2.500    1.500    0.000    0.000 
#    4.500    2.500    0.000    0.000    0.000    0.000 
#    0.000    0.000    0.000    0.000    0.000    0.000 
#
# Total GULP energy -396441.347578 kJ/mol
# GULP energy per Si atom -12388.792112 kJ/mol
# Density = 1.884994 g / cm^3
# Si number density = 18.892936 Si / 1000 Ang^3
#
#
#
# Elastic Constant Matrix: (Units=GPa)
#
#
# Indices 1 2 3 4 5 6 
#
# 1 120.0092 51.0204 34.7194 0.0000 14.4513 0.0000
# 2 51.0204 68.4279 40.7247 0.0000 -1.5250 0.0000
# 3 34.7194 40.7247 92.0443 0.0000 7.0613 0.0000
# 4 0.0000 0.0000 0.0000 16.5071 0.0000 -3.6524
# 5 14.4513 -1.5250 7.0613 0.0000 29.7262 0.0000
# 6 0.0000 0.0000 0.0000 -3.6524 0.0000 29.0854
#
#
#
# Elastic Compliance Matrix: (Units=1/GPa)
#
#
# Indices 1 2 3 4 5 6 
#
# 1 0.013553 -0.010243 -0.000035 0.000000 -0.007106 0.000000
# 2 -0.010243 0.027874 -0.009127 0.000000 0.008578 0.000000
# 3 -0.000035 -0.009127 0.015228 0.000000 -0.004068 0.000000
# 4 0.000000 0.000000 0.000000 0.062311 0.000000 0.007825
# 5 -0.007106 0.008578 -0.004068 0.000000 0.038501 0.000000
# 6 0.000000 0.000000 0.000000 0.007825 0.000000 0.035364
#
#
# Mechanical properties :
#
#
# Convention : Reuss Voigt Hill
#
# Bulk Modulus (GPa) = 56.03858 59.26782 57.65320
# Shear Modulus (GPa) = 21.04454 25.33152 23.18803
#
# Velocity S-wave (km/s) = 3.34111 3.66566 3.50714
# Velocity P-wave (km/s) = 6.67904 7.02528 6.85434
#
# Compressibility (1/GPa) = 0.01784485
#
# Stress axis : x y z
#
# Youngs Moduli (GPa) = 73.78358 35.87544 65.66807
#
# Poissons Ratio (x) = 0.36746 0.00232
# Poissons Ratio (y) = 0.75574 0.59937
# Poissons Ratio (z) = 0.00261 0.32745
#
# Static dielectric constant tensor:
#      x y z
#    x 3.473190 0.000000 0.004280 
#    y 0.000000 3.607560 0.000000 
#    z 0.004280 0.000000 3.731120 
# 
# 
# High freq. dielectric constant tensor:
#      x y z
#    x 1.733570 0.000000 -0.003270 
#    y 0.000000 1.723930 0.000000 
#    z -0.003270 0.000000 1.746240 
# 
# From -- ./inp_files/15812.got.cif
#   From: 2010.03.12/outbox.cif.g09.slc.cpg/sg14_8_cif.got.tgz:15812.got - 2010.03.31 13:35:05.
