data_PCOD8123186
_publ_section_title
;
Structure prediction by ZEFSAII (Michael W. Deem and Ramdas Pophale) SiO2 
 PCOD8123186
Probable space group: P 2/C
;
_chemical_formula_sum "Si O2"
_cell_formula_units_Z 12
_cell_length_a 6.767886
_cell_length_b 10.386815
_cell_length_c 6.918317
_cell_angle_alpha 90.000000
_cell_angle_beta 90.000000
_cell_angle_gamma 90.000000
_cell_volume 486.335407
_symmetry_space_group_name_H-M "P 2/C"
_symmetry_group_IT_number 13
_symmetry_cell_setting 'monoclinic'
loop_
_space_group_symop_operation_xyz
x,y,z
-x,y,1/2-z
-x,-y,-z
x,-y,1/2+z
loop_
_atom_site_type_symbol
_atom_site_label
_atom_site_fract_x
_atom_site_fract_y
_atom_site_fract_z
Si Si1 0.113181 0.626729 0.932308
Si Si2 0.613181 0.873271 0.067692
Si Si3 0.500000 0.680017 0.750000
Si Si4 0.000000 0.180017 0.750000
O O1 0.338830 0.593618 0.864752
O O2 0.000000 0.687060 0.750000
O O3 0.121857 0.730606 0.101944
O O4 0.000000 0.500000 0.000000
O O5 0.500000 0.812940 0.250000
O O6 0.838830 0.906381 0.135248
O O7 0.621856 0.769394 0.898056
O O8 0.500000 0.000000 0.000000
#
# Coordination Sequence:
#
# PCOD8123186 Si02
#       4
#     4   4   2   2
#     4  12  26  47  76 114 152 201 257 313 389 455
#     4  12  26  47  76 114 152 201 257 313 389 455
#     4  12  26  48  76 110 160 198 252 324 378 458
#     4  12  26  48  76 110 160 198 252 324 378 458
#
# _framework density 24.674327999999999
#
# number of rings (size 3 to 8) (size 9 to 14) (size 15 to 20)
#    0.000    0.000   10.000    0.000    0.000    2.667 
#    6.000    0.000    0.000    0.000    0.000    0.000 
#    0.000    0.000    0.000    0.000    0.000    0.000 
#
# Total GULP energy -148775.534317 kJ/mol
# GULP energy per Si atom -12397.961193 kJ/mol
# Density = 2.461817 g / cm^3
# Si number density = 24.674328 Si / 1000 Ang^3
#
#
#
# Elastic Constant Matrix: (Units=GPa)
#
#
# Indices 1 2 3 4 5 6 
#
# 1 235.7101 63.2719 66.7407 0.0000 0.0000 0.0000
# 2 63.2719 82.7391 26.7663 0.0000 0.0001 0.0000
# 3 66.7407 26.7663 129.3359 0.0000 0.0002 0.0000
# 4 0.0000 0.0000 0.0000 20.3193 0.0000 0.0001
# 5 0.0000 0.0001 0.0002 0.0000 66.7493 0.0000
# 6 0.0000 0.0000 0.0000 0.0001 0.0000 37.0529
#
#
#
# Elastic Compliance Matrix: (Units=1/GPa)
#
#
# Indices 1 2 3 4 5 6 
#
# 1 0.005897 -0.003778 -0.002261 0.000000 0.000000 0.000000
# 2 -0.003778 0.015374 -0.001232 0.000000 0.000000 0.000000
# 3 -0.002261 -0.001232 0.009154 0.000000 0.000000 0.000000
# 4 0.000000 0.000000 0.000000 0.049214 0.000000 0.000000
# 5 0.000000 0.000000 0.000000 0.000000 0.014981 0.000000
# 6 0.000000 0.000000 0.000000 0.000000 0.000000 0.026988
#
#
# Mechanical properties :
#
#
# Convention : Reuss Voigt Hill
#
# Bulk Modulus (GPa) = 62.96451 84.59366 73.77909
# Shear Modulus (GPa) = 35.34954 44.22473 39.78713
#
# Velocity S-wave (km/s) = 3.78914 4.23819 4.01994
# Velocity P-wave (km/s) = 6.68708 7.63598 7.17723
#
# Compressibility (1/GPa) = 0.01588196
#
# Stress axis : x y z
#
# Youngs Moduli (GPa) = 169.58261 65.04560 109.24712
#
# Poissons Ratio (x) = 0.24574 0.24701
# Poissons Ratio (y) = 0.64067 0.13461
# Poissons Ratio (z) = 0.38344 0.08014
#
# Static dielectric constant tensor:
#      x y z
#    x 4.606270 0.000000 -0.000010 
#    y 0.000000 3.736520 0.000000 
#    z -0.000010 0.000000 5.390500 
# 
# 
# High freq. dielectric constant tensor:
#      x y z
#    x 2.004500 0.000000 0.000000 
#    y 0.000000 1.931550 0.000000 
#    z 0.000000 0.000000 2.014980 
# 
# From -- ./inp_files/8483.got.cif
#   From: 2010.06.25/outbox.cif.g09.slc.cpg/sg13_5_cif.got.tgz:8483.got - 2010.06.28 04:50:58.
