data_PCOD8123656
_publ_section_title
;
Structure prediction by ZEFSAII (Michael W. Deem and Ramdas Pophale) SiO2 
 PCOD8123656
Probable space group: P 21/C
;
_chemical_formula_sum "Si O2"
_cell_formula_units_Z 20
_cell_length_a 9.726616
_cell_length_b 13.527545
_cell_length_c 7.397489
_cell_angle_alpha 90.000000
_cell_angle_beta 76.252157
_cell_angle_gamma 90.000000
_cell_volume 945.455919
_symmetry_space_group_name_H-M "P 21/C"
_symmetry_group_IT_number 14
_symmetry_cell_setting 'monoclinic'
loop_
_space_group_symop_operation_xyz
x,y,z
-x,1/2+y,1/2-z
-x,-y,-z
x,1/2-y,1/2+z
loop_
_atom_site_type_symbol
_atom_site_label
_atom_site_fract_x
_atom_site_fract_y
_atom_site_fract_z
Si Si1 0.878406 0.522805 0.804299
Si Si2 0.664871 0.577853 0.600338
Si Si3 0.807763 0.499773 0.225064
Si Si4 0.602193 0.332405 0.181567
Si Si5 0.658489 0.379995 0.774234
O O1 0.796873 0.599022 0.696080
O O2 0.819822 0.411472 0.778969
O O3 0.045675 0.527293 0.718955
O O4 0.839818 0.551341 0.023521
O O5 0.720748 0.576472 0.377114
O O6 0.544158 0.660309 0.660012
O O7 0.593907 0.470412 0.675364
O O8 0.722976 0.397891 0.236159
O O9 0.656944 0.219839 0.158650
O O10 0.569663 0.366597 0.986823
#
# Coordination Sequence:
#
# PCOD8123656 Si02
#       5
#     4   4   4   4   4
#     4   8  20  36  57  84 114 145 190 232 278 346
#     4  10  20  36  61  83 113 154 187 237 281 335
#     4  10  18  34  61  84 109 149 188 229 289 335
#     4  11  20  36  59  83 116 151 191 235 283 338
#     4   9  21  35  56  83 114 149 192 230 283 337
#
# _framework density 21.153814000000001
#
# number of rings (size 3 to 8) (size 9 to 14) (size 15 to 20)
#    1.200    1.200    0.000    3.000    0.000    0.000 
#    0.000    0.000    8.800    0.000    0.000    0.000 
#    0.000    0.000    0.000    0.000    0.000    0.000 
#
# Total GULP energy -247860.300396 kJ/mol
# GULP energy per Si atom -12393.015020 kJ/mol
# Density = 2.110567 g / cm^3
# Si number density = 21.153814 Si / 1000 Ang^3
#
#
#
# Elastic Constant Matrix: (Units=GPa)
#
#
# Indices 1 2 3 4 5 6 
#
# 1 72.3387 18.7325 6.1434 0.0000 -11.0202 0.0000
# 2 18.7325 33.6938 10.2948 0.0000 4.3633 0.0000
# 3 6.1434 10.2948 89.9663 0.0000 -7.7106 0.0000
# 4 0.0000 0.0000 0.0000 17.4359 0.0000 4.2501
# 5 -11.0202 4.3633 -7.7106 0.0000 24.9832 0.0000
# 6 0.0000 0.0000 0.0000 4.2501 0.0000 17.4417
#
#
#
# Elastic Compliance Matrix: (Units=1/GPa)
#
#
# Indices 1 2 3 4 5 6 
#
# 1 0.018426 -0.011914 0.001007 0.000000 0.010519 0.000000
# 2 -0.011914 0.039566 -0.004886 0.000000 -0.013674 0.000000
# 3 0.001007 -0.004886 0.012035 0.000000 0.005012 0.000000
# 4 0.000000 0.000000 0.000000 0.060975 0.000000 -0.014858
# 5 0.010519 -0.013674 0.005012 0.000000 0.048602 0.000000
# 6 0.000000 0.000000 0.000000 -0.014858 0.000000 0.060954
#
#
# Mechanical properties :
#
#
# Convention : Reuss Voigt Hill
#
# Bulk Modulus (GPa) = 26.01387 29.59336 27.80361
# Shear Modulus (GPa) = 17.54637 22.69402 20.12020
#
# Velocity S-wave (km/s) = 2.88317 3.27893 3.08740
# Velocity P-wave (km/s) = 4.83815 5.32496 5.08738
#
# Compressibility (1/GPa) = 0.03844103
#
# Stress axis : x y z
#
# Youngs Moduli (GPa) = 54.27077 25.27401 83.08985
#
# Poissons Ratio (x) = 0.30112 -0.08364
# Poissons Ratio (y) = 0.64658 0.40597
# Poissons Ratio (z) = -0.05463 0.12349
#
# Static dielectric constant tensor:
#      x y z
#    x 3.778500 0.000000 0.123860 
#    y 0.000000 3.274810 0.000000 
#    z 0.123860 0.000000 3.864460 
# 
# 
# High freq. dielectric constant tensor:
#      x y z
#    x 1.827270 0.000000 0.011940 
#    y 0.000000 1.771480 0.000000 
#    z 0.011940 0.000000 1.843620 
# 
# From -- ./inp_files/12591.got.cif
#   From: 2010.03.12/outbox.cif.g09.slc.cpg/sg14_7_cif.got.tgz:12591.got - 2010.03.31 13:35:05.
