data_PCOD8123863
_publ_section_title
;
Structure prediction by ZEFSAII (Michael W. Deem and Ramdas Pophale) SiO2 
 PCOD8123863
Probable space group: P 21/C
;
_chemical_formula_sum "Si O2"
_cell_formula_units_Z 20
_cell_length_a 9.529017
_cell_length_b 17.199881
_cell_length_c 9.188864
_cell_angle_alpha 90.000000
_cell_angle_beta 44.084742
_cell_angle_gamma 90.000000
_cell_volume 1047.781710
_symmetry_space_group_name_H-M "P 21/C"
_symmetry_group_IT_number 14
_symmetry_cell_setting 'monoclinic'
loop_
_space_group_symop_operation_xyz
x,y,z
-x,1/2+y,1/2-z
-x,-y,-z
x,1/2-y,1/2+z
loop_
_atom_site_type_symbol
_atom_site_label
_atom_site_fract_x
_atom_site_fract_y
_atom_site_fract_z
Si Si1 0.728682 0.005500 0.785923
Si Si2 0.797030 0.322820 0.199843
Si Si3 0.052178 0.551774 0.598423
Si Si4 0.353605 0.686907 0.377250
Si Si5 0.792116 0.869655 0.511642
O O1 0.768961 0.087330 0.674357
O O2 0.859556 0.999342 0.836312
O O3 0.786602 0.937563 0.634493
O O4 0.500000 0.000000 0.000000
O O5 0.734461 0.267262 0.116701
O O6 0.650911 0.306225 0.445515
O O7 0.031429 0.309643 0.070817
O O8 0.218753 0.614663 0.423521
O O9 0.000000 0.500000 0.500000
O O10 0.852076 0.595095 0.808832
O O11 0.582426 0.675476 0.152951
#
# Coordination Sequence:
#
# PCOD8123863 Si02
#       5
#     4   4   4   4   4
#     4  10  18  41  64  83 112 161 207 237 291 366
#     4  10  22  37  59  85 118 154 202 244 296 359
#     4  10  22  38  59  94 119 151 205 248 292 356
#     4  10  22  40  54  89 122 152 201 244 299 358
#     4  10  20  41  63  80 120 162 195 247 294 356
#
# _framework density 19.087942999999999
#
# number of rings (size 3 to 8) (size 9 to 14) (size 15 to 20)
#    0.000    2.400    4.000    2.400    0.000    7.200 
#    7.200    0.000    0.000    0.000    0.000    0.000 
#    0.000    0.000    0.000    0.000    0.000    0.000 
#
# Total GULP energy -247929.782793 kJ/mol
# GULP energy per Si atom -12396.489140 kJ/mol
# Density = 1.904450 g / cm^3
# Si number density = 19.087943 Si / 1000 Ang^3
#
#
#
# Elastic Constant Matrix: (Units=GPa)
#
#
# Indices 1 2 3 4 5 6 
#
# 1 65.4253 44.4864 32.8410 0.0000 -7.4581 0.0000
# 2 44.4864 66.2320 14.5611 0.0000 4.9314 0.0000
# 3 32.8410 14.5611 103.5928 0.0000 -29.5358 0.0000
# 4 0.0000 0.0000 0.0000 21.4273 0.0000 0.7811
# 5 -7.4581 4.9314 -29.5358 0.0000 35.7379 0.0000
# 6 0.0000 0.0000 0.0000 0.7811 0.0000 37.8412
#
#
#
# Elastic Compliance Matrix: (Units=1/GPa)
#
#
# Indices 1 2 3 4 5 6 
#
# 1 0.033657 -0.021591 -0.006258 0.000000 0.004831 0.000000
# 2 -0.021591 0.030199 0.000166 0.000000 -0.008535 0.000000
# 3 -0.006258 0.000166 0.014698 0.000000 0.010819 0.000000
# 4 0.000000 0.000000 0.000000 0.046705 0.000000 -0.000964
# 5 0.004831 -0.008535 0.010819 0.000000 0.039109 0.000000
# 6 0.000000 0.000000 0.000000 -0.000964 0.000000 0.026446
#
#
# Mechanical properties :
#
#
# Convention : Reuss Voigt Hill
#
# Bulk Modulus (GPa) = 43.12125 46.55857 44.83991
# Shear Modulus (GPa) = 19.69209 28.55871 24.12540
#
# Velocity S-wave (km/s) = 3.21542 3.87223 3.55900
# Velocity P-wave (km/s) = 6.03532 6.66609 6.35853
#
# Compressibility (1/GPa) = 0.02319042
#
# Stress axis : x y z
#
# Youngs Moduli (GPa) = 29.71115 33.11320 68.03569
#
# Poissons Ratio (x) = 0.71494 0.42575
# Poissons Ratio (y) = 0.64149 -0.01131
# Poissons Ratio (z) = 0.18593 -0.00551
#
# Static dielectric constant tensor:
#      x y z
#    x 3.444450 0.000000 -0.503420 
#    y 0.000000 3.837610 0.000000 
#    z -0.503420 0.000000 4.737770 
# 
# 
# High freq. dielectric constant tensor:
#      x y z
#    x 1.725750 0.000000 -0.017080 
#    y 0.000000 1.730900 0.000000 
#    z -0.017080 0.000000 1.759980 
# 
# From -- ./inp_files/8955.got.cif
#   From: 2010.03.12/outbox.cif.g09.slc.cpg/sg14_5_cif.got.tgz:8955.got - 2010.03.31 13:35:05.
