data_PCOD8123749
_publ_section_title
;
Structure prediction by ZEFSAII (Michael W. Deem and Ramdas Pophale) SiO2 
 PCOD8123749
Probable space group: P 21/C
;
_chemical_formula_sum "Si O2"
_cell_formula_units_Z 32
_cell_length_a 8.637192
_cell_length_b 10.979312
_cell_length_c 18.140983
_cell_angle_alpha 90.000000
_cell_angle_beta 70.569843
_cell_angle_gamma 90.000000
_cell_volume 1622.341120
_symmetry_space_group_name_H-M "P 21/C"
_symmetry_group_IT_number 14
_symmetry_cell_setting 'monoclinic'
loop_
_space_group_symop_operation_xyz
x,y,z
-x,1/2+y,1/2-z
-x,-y,-z
x,1/2-y,1/2+z
loop_
_atom_site_type_symbol
_atom_site_label
_atom_site_fract_x
_atom_site_fract_y
_atom_site_fract_z
Si Si1 0.356330 0.879458 0.189288
Si Si2 0.405526 0.203201 0.424700
Si Si3 0.812457 0.354193 0.726344
Si Si4 0.514545 0.516018 0.811390
Si Si5 0.534109 0.766308 0.420484
Si Si6 0.828794 0.593805 0.358704
Si Si7 0.123128 0.365953 0.481741
Si Si8 0.226601 0.616938 0.431884
O O1 0.504392 0.823858 0.118754
O O2 0.233183 0.769354 0.225172
O O3 0.427061 0.951796 0.248606
O O4 0.256240 0.972134 0.155457
O O5 0.416124 0.091507 0.367454
O O6 0.464279 0.172787 0.498523
O O7 0.213202 0.237700 0.458230
O O8 0.700480 0.468716 0.770008
O O9 0.780249 0.321059 0.646681
O O10 0.002950 0.383510 0.713369
O O11 0.501930 0.631869 0.865412
O O12 0.706303 0.707451 0.369770
O O13 0.393629 0.661881 0.443759
O O14 0.871983 0.577681 0.436982
O O15 0.214543 0.470914 0.419825
O O16 0.931369 0.343239 0.493267
#
# Coordination Sequence:
#
# PCOD8123749 Si02
#       8
#     4   4   4   4   4   4   4   4
#     4  11  22  39  60  87 118 157 201 245 294 355
#     4  10  22  39  58  86 120 153 200 241 294 361
#     4  10  22  38  56  88 121 152 199 242 298 354
#     4  11  23  38  60  84 122 163 194 244 300 359
#     4  11  21  38  62  85 118 159 198 241 303 351
#     4  10  22  36  60  86 115 154 196 251 294 346
#     4   9  19  36  60  85 115 147 199 250 298 339
#     4  10  18  36  61  87 113 153 195 252 292 350
#
# _framework density 19.724582000000002
#
# number of rings (size 3 to 8) (size 9 to 14) (size 15 to 20)
#    0.000    1.750    1.250    3.375    3.500    2.000 
#    0.000    4.375    0.000    0.000    0.000    0.000 
#    0.000    0.000    0.000    0.000    0.000    0.000 
#
# Total GULP energy -396680.953524 kJ/mol
# GULP energy per Si atom -12396.279798 kJ/mol
# Density = 1.967969 g / cm^3
# Si number density = 19.724582 Si / 1000 Ang^3
#
#
#
# Elastic Constant Matrix: (Units=GPa)
#
#
# Indices 1 2 3 4 5 6 
#
# 1 95.9989 33.4106 21.3608 0.0000 -20.1403 0.0000
# 2 33.4106 72.5227 23.5174 0.0000 -12.7346 0.0000
# 3 21.3608 23.5174 62.3079 0.0000 -10.7101 0.0000
# 4 0.0000 0.0000 0.0000 37.4544 0.0000 2.8822
# 5 -20.1403 -12.7346 -10.7101 0.0000 27.0276 0.0000
# 6 0.0000 0.0000 0.0000 2.8822 0.0000 21.0472
#
#
#
# Elastic Compliance Matrix: (Units=1/GPa)
#
#
# Indices 1 2 3 4 5 6 
#
# 1 0.013980 -0.004533 -0.001779 0.000000 0.007577 0.000000
# 2 -0.004533 0.017959 -0.004668 0.000000 0.003234 0.000000
# 3 -0.001779 -0.004668 0.019118 0.000000 0.004050 0.000000
# 4 0.000000 0.000000 0.000000 0.026983 0.000000 -0.003695
# 5 0.007577 0.003234 0.004050 0.000000 0.045774 0.000000
# 6 0.000000 0.000000 0.000000 -0.003695 0.000000 0.048018
#
#
# Mechanical properties :
#
#
# Convention : Reuss Voigt Hill
#
# Bulk Modulus (GPa) = 34.37073 43.04526 38.70800
# Shear Modulus (GPa) = 24.57104 27.27522 25.92313
#
# Velocity S-wave (km/s) = 3.53329 3.72264 3.62920
# Velocity P-wave (km/s) = 5.84026 6.35200 6.10150
#
# Compressibility (1/GPa) = 0.02909452
#
# Stress axis : x y z
#
# Youngs Moduli (GPa) = 71.53130 55.68295 52.30786
#
# Poissons Ratio (x) = 0.25241 0.09308
# Poissons Ratio (y) = 0.32425 0.24420
# Poissons Ratio (z) = 0.12728 0.25995
#
# Static dielectric constant tensor:
#      x y z
#    x 3.710860 0.000000 -0.172130 
#    y 0.000000 3.459420 0.000000 
#    z -0.172130 0.000000 3.694820 
# 
# 
# High freq. dielectric constant tensor:
#      x y z
#    x 1.771680 0.000000 -0.010360 
#    y 0.000000 1.762060 0.000000 
#    z -0.010360 0.000000 1.773320 
# 
# From -- ./inp_files/55382.got.cif
#   From: 2010.03.12/outbox.cif.g09.slc.cpg/sg14_28_cif.got.tgz:55382.got - 2010.03.31 13:35:05.
