data_PCOD8123816
_publ_section_title
;
Structure prediction by ZEFSAII (Michael W. Deem and Ramdas Pophale) SiO2 
 PCOD8123816
Probable space group: P 21/C
;
_chemical_formula_sum "Si O2"
_cell_formula_units_Z 32
_cell_length_a 11.226938
_cell_length_b 12.189272
_cell_length_c 12.457119
_cell_angle_alpha 90.000000
_cell_angle_beta 106.287505
_cell_angle_gamma 90.000000
_cell_volume 1636.317330
_symmetry_space_group_name_H-M "P 21/C"
_symmetry_group_IT_number 14
_symmetry_cell_setting 'monoclinic'
loop_
_space_group_symop_operation_xyz
x,y,z
-x,1/2+y,1/2-z
-x,-y,-z
x,1/2-y,1/2+z
loop_
_atom_site_type_symbol
_atom_site_label
_atom_site_fract_x
_atom_site_fract_y
_atom_site_fract_z
Si Si1 0.428827 0.621201 0.592557
Si Si2 0.109025 0.305462 0.279695
Si Si3 0.681827 0.916189 0.033297
Si Si4 0.727668 0.763958 0.376709
Si Si5 0.378851 0.633818 0.019518
Si Si6 0.938262 0.858931 0.559408
Si Si7 0.905529 0.105698 0.586983
Si Si8 0.516130 0.924983 0.339043
O O1 0.333841 0.545096 0.499574
O O2 0.565462 0.619594 0.575733
O O3 0.384274 0.747377 0.576805
O O4 0.423779 0.570657 0.713052
O O5 0.191992 0.393121 0.367731
O O6 0.190851 0.245364 0.209138
O O7 0.047726 0.209583 0.331106
O O8 0.981114 0.359083 0.210247
O O9 0.686905 0.849511 0.922186
O O10 0.801493 0.838380 0.479318
O O11 0.611559 0.837193 0.315417
O O12 0.241304 0.612204 0.941031
O O13 0.461238 0.626335 0.933692
O O14 0.423940 0.544173 0.119243
O O15 0.046369 0.823849 0.503072
O O16 0.954288 0.983985 0.589108
#
# Coordination Sequence:
#
# PCOD8123816 Si02
#       8
#     4   4   4   4   4   4   4   4
#     4  11  24  37  60  91 127 162 194 262 312 358
#     4  10  21  37  67  88 118 168 206 251 303 369
#     4  10  22  38  58  90 125 157 210 247 308 368
#     4  10  18  38  61  86 117 160 206 248 293 368
#     4  11  25  41  61  92 129 157 209 255 307 375
#     4   9  20  37  59  87 116 157 210 248 293 371
#     4  10  21  39  61  88 119 162 201 256 309 354
#     4  11  23  39  62  91 122 168 198 250 309 374
#
# _framework density 19.556108999999999
#
# number of rings (size 3 to 8) (size 9 to 14) (size 15 to 20)
#    0.000    1.750    3.750    0.000    1.750    3.000 
#    0.000    0.000    0.000    5.250    0.000    0.000 
#    0.000    0.000    0.000    0.000    0.000    0.000 
#
# Total GULP energy -396552.675925 kJ/mol
# GULP energy per Si atom -12392.271123 kJ/mol
# Density = 1.951160 g / cm^3
# Si number density = 19.556109 Si / 1000 Ang^3
#
#
#
# Elastic Constant Matrix: (Units=GPa)
#
#
# Indices 1 2 3 4 5 6 
#
# 1 47.5759 31.1399 23.4221 0.0000 7.6330 0.0000
# 2 31.1399 108.3639 61.5456 0.0000 -0.2033 0.0000
# 3 23.4221 61.5456 107.8811 0.0000 5.8721 0.0000
# 4 0.0000 0.0000 0.0000 20.6195 0.0000 0.9116
# 5 7.6330 -0.2033 5.8721 0.0000 20.0986 0.0000
# 6 0.0000 0.0000 0.0000 0.9116 0.0000 26.2303
#
#
#
# Elastic Compliance Matrix: (Units=1/GPa)
#
#
# Indices 1 2 3 4 5 6 
#
# 1 0.028155 -0.007336 -0.001363 0.000000 -0.010369 0.000000
# 2 -0.007336 0.015683 -0.007636 0.000000 0.005176 0.000000
# 3 -0.001363 -0.007636 0.014122 0.000000 -0.003686 0.000000
# 4 0.000000 0.000000 0.000000 0.048572 0.000000 -0.001688
# 5 -0.010369 0.005176 -0.003686 0.000000 0.054822 0.000000
# 6 0.000000 0.000000 0.000000 -0.001688 0.000000 0.038183
#
#
# Mechanical properties :
#
#
# Convention : Reuss Voigt Hill
#
# Bulk Modulus (GPa) = 39.54127 55.11512 47.32820
# Shear Modulus (GPa) = 20.77812 23.23724 22.00768
#
# Velocity S-wave (km/s) = 3.26312 3.45082 3.35828
# Velocity P-wave (km/s) = 5.87031 6.64242 6.26827
#
# Compressibility (1/GPa) = 0.02529003
#
# Stress axis : x y z
#
# Youngs Moduli (GPa) = 35.51716 63.76382 70.80979
#
# Poissons Ratio (x) = 0.46777 0.09653
# Poissons Ratio (y) = 0.26055 0.54070
# Poissons Ratio (z) = 0.04842 0.48690
#
# Static dielectric constant tensor:
#      x y z
#    x 3.576480 0.000000 -0.120970 
#    y 0.000000 3.555110 0.000000 
#    z -0.120970 0.000000 3.682750 
# 
# 
# High freq. dielectric constant tensor:
#      x y z
#    x 1.756240 0.000000 -0.003660 
#    y 0.000000 1.756300 0.000000 
#    z -0.003660 0.000000 1.770370 
# 
# From -- ./inp_files/29412.got.cif
#   From: 2010.03.12/outbox.cif.g09.slc.cpg/sg14_15_cif.got.tgz:29412.got - 2010.03.31 13:35:05.
