data_PCOD8123058
_publ_section_title
;
Structure prediction by ZEFSAII (Michael W. Deem and Ramdas Pophale) SiO2 
 PCOD8123058
Probable space group: P 2/C
;
_chemical_formula_sum "Si O2"
_cell_formula_units_Z 32
_cell_length_a 22.340850
_cell_length_b 11.310788
_cell_length_c 14.962890
_cell_angle_alpha 90.000000
_cell_angle_beta 25.079304
_cell_angle_gamma 90.000000
_cell_volume 1602.666156
_symmetry_space_group_name_H-M "P 2/C"
_symmetry_group_IT_number 13
_symmetry_cell_setting 'monoclinic'
loop_
_space_group_symop_operation_xyz
x,y,z
-x,y,1/2-z
-x,-y,-z
x,-y,1/2+z
loop_
_atom_site_type_symbol
_atom_site_label
_atom_site_fract_x
_atom_site_fract_y
_atom_site_fract_z
Si Si1 0.650732 0.922203 0.544828
Si Si2 0.955697 0.990948 0.161353
Si Si3 0.902639 0.388085 0.142647
Si Si4 0.052161 0.236200 0.086411
Si Si5 0.662973 0.542016 0.531796
Si Si6 0.092956 0.750371 0.044577
Si Si7 0.333258 0.737847 0.120369
Si Si8 0.643615 0.276145 0.200398
O O1 0.500000 0.994673 0.750000
O O2 0.682306 0.867289 0.404497
O O3 0.622801 0.812656 0.647318
O O4 0.784052 0.998546 0.397698
O O5 0.012739 0.869559 0.125686
O O6 0.020497 0.096513 0.131163
O O7 0.000000 0.000000 0.000000
O O8 0.755283 0.425321 0.388178
O O9 0.971487 0.288898 0.110881
O O10 0.884617 0.336438 0.068152
O O11 0.000000 0.500000 0.000000
O O12 0.000000 0.292687 0.250000
O O13 0.218543 0.264054 0.854566
O O14 0.500000 0.504327 0.750000
O O15 0.703177 0.635836 0.401087
O O16 0.695451 0.599808 0.585696
O O17 0.000000 0.691129 0.250000
O O18 0.249808 0.774031 0.869997
O O19 0.487326 0.713428 0.955407
#
# Coordination Sequence:
#
# PCOD8123058 Si02
#       8
#     4   4   4   4   4   4   4   4
#     4   9  17  34  63  91 115 155 209 254 300 363
#     4  12  22  41  65  88 128 168 206 260 315 366
#     4  12  24  41  64  91 125 160 209 257 312 371
#     4  12  26  42  62  92 129 171 204 259 321 368
#     4   9  19  40  65  90 126 167 207 261 316 369
#     4  12  23  39  64  96 125 159 214 258 304 372
#     4   9  17  39  62  88 122 162 209 252 306 369
#     4   9  19  36  67  93 115 158 214 264 297 360
#
# _framework density 19.966728
#
# number of rings (size 3 to 8) (size 9 to 14) (size 15 to 20)
#    0.000    1.500    5.000    2.625    0.000    1.500 
#    2.250    3.750    0.000    0.000    0.000    0.000 
#    0.000    0.000    0.000    0.000    0.000    0.000 
#
# Total GULP energy -396684.275335 kJ/mol
# GULP energy per Si atom -12396.383604 kJ/mol
# Density = 1.992128 g / cm^3
# Si number density = 19.966728 Si / 1000 Ang^3
#
#
#
# Elastic Constant Matrix: (Units=GPa)
#
#
# Indices 1 2 3 4 5 6 
#
# 1 94.7179 12.7321 56.6355 0.0000 -6.0239 0.0000
# 2 12.7321 56.4720 38.6253 0.0000 -5.4456 0.0000
# 3 56.6355 38.6253 180.6856 0.0000 -7.0711 0.0000
# 4 0.0000 0.0000 0.0000 26.3118 0.0000 1.5106
# 5 -6.0239 -5.4456 -7.0711 0.0000 37.7315 0.0000
# 6 0.0000 0.0000 0.0000 1.5106 0.0000 10.1155
#
#
#
# Elastic Compliance Matrix: (Units=1/GPa)
#
#
# Indices 1 2 3 4 5 6 
#
# 1 0.013059 -0.000062 -0.004028 0.000000 0.001321 0.000000
# 2 -0.000062 0.020920 -0.004367 0.000000 0.002191 0.000000
# 3 -0.004028 -0.004367 0.007738 0.000000 0.000177 0.000000
# 4 0.000000 0.000000 0.000000 0.038334 0.000000 -0.005725
# 5 0.001321 0.002191 0.000177 0.000000 0.027063 0.000000
# 6 0.000000 0.000000 0.000000 -0.005725 0.000000 0.099713
#
#
# Mechanical properties :
#
#
# Convention : Reuss Voigt Hill
#
# Bulk Modulus (GPa) = 40.31866 60.87350 50.59608
# Shear Modulus (GPa) = 21.55098 29.75728 25.65413
#
# Velocity S-wave (km/s) = 3.28890 3.86468 3.58836
# Velocity P-wave (km/s) = 5.88721 7.10409 6.52408
#
# Compressibility (1/GPa) = 0.02480241
#
# Stress axis : x y z
#
# Youngs Moduli (GPa) = 76.57749 47.80115 129.23868
#
# Poissons Ratio (x) = 0.00294 0.52062
# Poissons Ratio (y) = 0.00471 0.56439
# Poissons Ratio (z) = 0.30848 0.20875
#
# Static dielectric constant tensor:
#      x y z
#    x 3.847090 0.000000 -0.228990 
#    y 0.000000 3.463090 0.000000 
#    z -0.228990 0.000000 3.969830 
# 
# 
# High freq. dielectric constant tensor:
#      x y z
#    x 1.766770 0.000000 -0.007610 
#    y 0.000000 1.746260 0.000000 
#    z -0.007610 0.000000 1.797990 
# 
# From -- ./inp_files/71934.got.cif
#   From: 2010.06.25/outbox.cif.g09.slc.cpg/sg13_36_cif.got.tgz:71934.got - 2010.06.28 04:50:58.
