data_PCOD8123052
_publ_section_title
;
Structure prediction by ZEFSAII (Michael W. Deem and Ramdas Pophale) SiO2 
 PCOD8123052
Probable space group: P 2/C
;
_chemical_formula_sum "Si O2"
_cell_formula_units_Z 12
_cell_length_a 10.560285
_cell_length_b 4.765384
_cell_length_c 16.397715
_cell_angle_alpha 90.000000
_cell_angle_beta 36.443598
_cell_angle_gamma 90.000000
_cell_volume 490.191885
_symmetry_space_group_name_H-M "P 2/C"
_symmetry_group_IT_number 13
_symmetry_cell_setting 'monoclinic'
loop_
_space_group_symop_operation_xyz
x,y,z
-x,y,1/2-z
-x,-y,-z
x,-y,1/2+z
loop_
_atom_site_type_symbol
_atom_site_label
_atom_site_fract_x
_atom_site_fract_y
_atom_site_fract_z
Si Si1 0.874668 0.251698 0.243594
Si Si2 0.295202 0.479990 0.520554
Si Si3 0.519701 0.978840 0.334263
O O1 0.700779 0.446889 0.383640
O O2 0.760163 0.055281 0.237536
O O3 0.000000 0.070097 0.250000
O O4 0.057006 0.449414 0.108141
O O5 0.347313 0.155622 0.476297
O O6 0.471592 0.655349 0.377721
O O7 0.500000 0.049284 0.250000
#
# Coordination Sequence:
#
# PCOD8123052 Si02
#       3
#     4   4   4
#     4   8  22  40  61  84 111 156 191 234 277 338
#     4   9  23  39  60  83 116 150 194 228 282 341
#     4  12  22  38  60  87 117 149 186 238 286 333
#
# _framework density 24.48021
#
# number of rings (size 3 to 8) (size 9 to 14) (size 15 to 20)
#    2.000    0.000    0.000    3.000    0.000   10.667 
#    0.000    0.000    0.000    0.000    0.000    0.000 
#    0.000    0.000    0.000    0.000    0.000    0.000 
#
# Total GULP energy -148687.181733 kJ/mol
# GULP energy per Si atom -12390.598478 kJ/mol
# Density = 2.442449 g / cm^3
# Si number density = 24.480210 Si / 1000 Ang^3
#
#
#
# Elastic Constant Matrix: (Units=GPa)
#
#
# Indices 1 2 3 4 5 6 
#
# 1 141.2269 5.6469 16.8643 0.0000 3.8726 0.0000
# 2 5.6469 45.5766 5.3738 0.0000 0.9028 0.0000
# 3 16.8643 5.3738 45.2832 0.0000 -1.2394 0.0000
# 4 0.0000 0.0000 0.0000 21.3520 0.0000 5.7101
# 5 3.8726 0.9028 -1.2394 0.0000 35.3439 0.0000
# 6 0.0000 0.0000 0.0000 5.7101 0.0000 20.7304
#
#
#
# Elastic Compliance Matrix: (Units=1/GPa)
#
#
# Indices 1 2 3 4 5 6 
#
# 1 0.007455 -0.000584 -0.002732 0.000000 -0.000898 0.000000
# 2 -0.000584 0.022314 -0.002447 0.000000 -0.000592 0.000000
# 3 -0.002732 -0.002447 0.023423 0.000000 0.001183 0.000000
# 4 0.000000 0.000000 0.000000 0.050558 0.000000 -0.013926
# 5 -0.000898 -0.000592 0.001183 0.000000 0.028448 0.000000
# 6 0.000000 0.000000 0.000000 -0.013926 0.000000 0.052074
#
#
# Mechanical properties :
#
#
# Convention : Reuss Voigt Hill
#
# Bulk Modulus (GPa) = 23.99955 31.98409 27.99182
# Shear Modulus (GPa) = 23.84512 29.09869 26.47191
#
# Velocity S-wave (km/s) = 3.12437 3.45144 3.29197
# Velocity P-wave (km/s) = 4.77918 5.38302 5.09006
#
# Compressibility (1/GPa) = 0.04166744
#
# Stress axis : x y z
#
# Youngs Moduli (GPa) = 134.13894 44.81564 42.69256
#
# Poissons Ratio (x) = 0.02616 0.11662
# Poissons Ratio (y) = 0.07831 0.10446
# Poissons Ratio (z) = 0.36642 0.10965
#
# Static dielectric constant tensor:
#      x y z
#    x 4.096160 0.000000 -0.297370 
#    y 0.000000 3.823580 0.000000 
#    z -0.297370 0.000000 4.252830 
# 
# 
# High freq. dielectric constant tensor:
#      x y z
#    x 1.955880 0.000000 -0.030800 
#    y 0.000000 1.950790 0.000000 
#    z -0.030800 0.000000 1.972600 
# 
# From -- ./inp_files/27156.got.cif
#   From: 2010.06.25/outbox.cif.g09.slc.cpg/sg13_14_cif.got.tgz:27156.got - 2010.06.28 04:50:58.
