data_PCOD8123097
_publ_section_title
;
Structure prediction by ZEFSAII (Michael W. Deem and Ramdas Pophale) SiO2 
 PCOD8123097
Probable space group: P 2/C
;
_chemical_formula_sum "Si O2"
_cell_formula_units_Z 20
_cell_length_a 4.748418
_cell_length_b 8.830672
_cell_length_c 20.113798
_cell_angle_alpha 90.000000
_cell_angle_beta 78.294399
_cell_angle_gamma 90.000000
_cell_volume 825.865850
_symmetry_space_group_name_H-M "P 2/C"
_symmetry_group_IT_number 13
_symmetry_cell_setting 'monoclinic'
loop_
_space_group_symop_operation_xyz
x,y,z
-x,y,1/2-z
-x,-y,-z
x,-y,1/2+z
loop_
_atom_site_type_symbol
_atom_site_label
_atom_site_fract_x
_atom_site_fract_y
_atom_site_fract_z
Si Si1 0.812857 0.699393 0.131583
Si Si2 0.000000 0.264843 0.250000
Si Si3 0.392248 0.652230 0.035514
Si Si4 0.500000 0.479656 0.250000
Si Si5 0.976004 0.978823 0.857096
Si Si6 0.601804 0.086186 0.058455
O O1 0.596609 0.734389 0.080629
O O2 0.666602 0.583865 0.189488
O O3 0.089629 0.621679 0.085718
O O4 0.916457 0.851166 0.167019
O O5 0.728168 0.373725 0.278259
O O6 0.898054 0.152749 0.195739
O O7 0.500000 0.500000 0.000000
O O8 0.366544 0.743542 0.968054
O O9 0.087620 0.957300 0.927249
O O10 0.632724 0.951561 0.872622
O O11 0.500000 0.000000 0.000000
#
# Coordination Sequence:
#
# PCOD8123097 Si02
#       6
#     4   2   4   2   4   4
#     4  12  26  50  73 105 146 197 239 295 365 445
#     4  12  30  50  74 110 140 200 252 314 358 424
#     4  12  27  43  74 111 147 186 237 297 375 432
#     4  12  30  50  74 104 154 192 250 308 370 432
#     4  12  26  47  78 103 145 191 248 296 362 434
#     4  12  23  45  75 110 143 181 238 304 358 435
#
# _framework density 24.217009000000001
#
# number of rings (size 3 to 8) (size 9 to 14) (size 15 to 20)
#    0.000    0.000    4.000    4.800    8.400    4.800 
#    0.000    0.000    0.000    0.000    0.000    0.000 
#    0.000    0.000    0.000    0.000    0.000    0.000 
#
# Total GULP energy -247865.067050 kJ/mol
# GULP energy per Si atom -12393.253353 kJ/mol
# Density = 2.416189 g / cm^3
# Si number density = 24.217009 Si / 1000 Ang^3
#
#
#
# Elastic Constant Matrix: (Units=GPa)
#
#
# Indices 1 2 3 4 5 6 
#
# 1 114.5167 31.1490 34.7860 0.0000 -18.9979 0.0000
# 2 31.1490 162.8113 53.1773 0.0000 -21.4810 0.0000
# 3 34.7860 53.1773 91.7632 0.0000 -17.4725 0.0000
# 4 0.0000 0.0000 0.0000 40.0836 0.0000 -2.6056
# 5 -18.9979 -21.4810 -17.4725 0.0000 47.7878 0.0000
# 6 0.0000 0.0000 0.0000 -2.6056 0.0000 40.2133
#
#
#
# Elastic Compliance Matrix: (Units=1/GPa)
#
#
# Indices 1 2 3 4 5 6 
#
# 1 0.010266 -0.000623 -0.003017 0.000000 0.002698 0.000000
# 2 -0.000623 0.007784 -0.003929 0.000000 0.001815 0.000000
# 3 -0.003017 -0.003929 0.014783 0.000000 0.002439 0.000000
# 4 0.000000 0.000000 0.000000 0.025053 0.000000 0.001623
# 5 0.002698 0.001815 0.002439 0.000000 0.023706 0.000000
# 6 0.000000 0.000000 0.000000 0.001623 0.000000 0.024973
#
#
# Mechanical properties :
#
#
# Convention : Reuss Voigt Hill
#
# Bulk Modulus (GPa) = 56.51400 67.47954 61.99677
# Shear Modulus (GPa) = 39.18464 42.28219 40.73342
#
# Velocity S-wave (km/s) = 4.02688 4.18301 4.10569
# Velocity P-wave (km/s) = 6.70881 7.15927 6.93770
#
# Compressibility (1/GPa) = 0.01769473
#
# Stress axis : x y z
#
# Youngs Moduli (GPa) = 97.41087 128.46820 67.64590
#
# Poissons Ratio (x) = 0.07999 0.20409
# Poissons Ratio (y) = 0.06065 0.26580
# Poissons Ratio (z) = 0.29389 0.50479
#
# Static dielectric constant tensor:
#      x y z
#    x 4.787980 0.000000 0.248280 
#    y 0.000000 4.289310 0.000000 
#    z 0.248280 0.000000 4.438670 
# 
# 
# High freq. dielectric constant tensor:
#      x y z
#    x 1.979420 0.000000 -0.004900 
#    y 0.000000 1.979060 0.000000 
#    z -0.004900 0.000000 1.949910 
# 
# From -- ./inp_files/72783.got.cif
#   From: 2010.06.25/outbox.cif.g09.slc.cpg/sg13_37_cif.got.tgz:72783.got - 2010.06.28 04:50:58.
