data_PCOD8123167
_publ_section_title
;
Structure prediction by ZEFSAII (Michael W. Deem and Ramdas Pophale) SiO2 
 PCOD8123167
Probable space group: P 2/C
;
_chemical_formula_sum "Si O2"
_cell_formula_units_Z 16
_cell_length_a 18.198421
_cell_length_b 4.761071
_cell_length_c 8.383174
_cell_angle_alpha 90.000000
_cell_angle_beta 62.570690
_cell_angle_gamma 90.000000
_cell_volume 644.694969
_symmetry_space_group_name_H-M "P 2/C"
_symmetry_group_IT_number 13
_symmetry_cell_setting 'monoclinic'
loop_
_space_group_symop_operation_xyz
x,y,z
-x,y,1/2-z
-x,-y,-z
x,-y,1/2+z
loop_
_atom_site_type_symbol
_atom_site_label
_atom_site_fract_x
_atom_site_fract_y
_atom_site_fract_z
Si Si1 0.842920 0.106662 0.620697
Si Si2 0.594178 0.380508 0.689053
Si Si3 0.342920 0.106662 0.193463
Si Si4 0.094178 0.619492 0.122591
O O1 0.855995 0.338499 0.470052
O O2 0.862018 0.237023 0.771878
O O3 0.750000 0.000000 0.705335
O O4 0.902797 0.840129 0.527622
O O5 0.500000 0.463759 0.750000
O O6 0.637982 0.237023 0.495914
O O7 0.644005 0.661501 0.682043
O O8 0.597203 0.159871 0.833215
O O9 0.000000 0.536241 0.250000
#
# Coordination Sequence:
#
# PCOD8123167 Si02
#       4
#     4   4   4   4
#     4  12  26  45  71 106 144 187 237 292 354 424
#     4  12  25  47  74 106 143 187 236 294 357 424
#     4  12  26  45  71 106 144 187 237 292 354 424
#     4  12  25  47  74 106 143 187 236 294 357 424
#
# _framework density 24.817937000000001
#
# number of rings (size 3 to 8) (size 9 to 14) (size 15 to 20)
#    0.000    0.000    0.000   10.500    0.000    4.000 
#    0.000    2.500    0.000    0.000    0.000    0.000 
#    0.000    0.000    0.000    0.000    0.000    0.000 
#
# Total GULP energy -198550.771124 kJ/mol
# GULP energy per Si atom -12409.423195 kJ/mol
# Density = 2.476145 g / cm^3
# Si number density = 24.817937 Si / 1000 Ang^3
#
#
#
# Elastic Constant Matrix: (Units=GPa)
#
#
# Indices 1 2 3 4 5 6 
#
# 1 154.8924 77.0768 61.1873 0.0000 -13.4887 0.0000
# 2 77.0768 148.2813 44.5001 0.0000 -28.2122 0.0000
# 3 61.1873 44.5001 108.8594 0.0000 -26.3770 0.0000
# 4 0.0000 0.0000 0.0000 37.6620 0.0000 -19.6553
# 5 -13.4887 -28.2122 -26.3770 0.0000 27.9033 0.0000
# 6 0.0000 0.0000 0.0000 -19.6553 0.0000 60.3582
#
#
#
# Elastic Compliance Matrix: (Units=1/GPa)
#
#
# Indices 1 2 3 4 5 6 
#
# 1 0.010410 -0.004771 -0.004994 0.000000 -0.004513 0.000000
# 2 -0.004771 0.010810 0.000457 0.000000 0.009055 0.000000
# 3 -0.004994 0.000457 0.014701 0.000000 0.011944 0.000000
# 4 0.000000 0.000000 0.000000 0.031988 0.000000 0.010417
# 5 -0.004513 0.009055 0.011944 0.000000 0.054103 0.000000
# 6 0.000000 0.000000 0.000000 0.010417 0.000000 0.019960
#
#
# Mechanical properties :
#
#
# Convention : Reuss Voigt Hill
#
# Bulk Modulus (GPa) = 57.79195 86.39569 72.09382
# Shear Modulus (GPa) = 30.05597 40.46927 35.26262
#
# Velocity S-wave (km/s) = 3.48380 4.04251 3.77351
# Velocity P-wave (km/s) = 6.28645 7.52838 6.93527
#
# Compressibility (1/GPa) = 0.01730345
#
# Stress axis : x y z
#
# Youngs Moduli (GPa) = 96.05996 92.51085 68.02348
#
# Poissons Ratio (x) = 0.44136 0.33974
# Poissons Ratio (y) = 0.45830 -0.03108
# Poissons Ratio (z) = 0.47977 -0.04226
#
# Static dielectric constant tensor:
#      x y z
#    x 4.524710 0.000000 0.132580 
#    y 0.000000 5.080370 0.000000 
#    z 0.132580 0.000000 4.677800 
# 
# 
# High freq. dielectric constant tensor:
#      x y z
#    x 1.993090 0.000000 0.005250 
#    y 0.000000 2.017800 0.000000 
#    z 0.005250 0.000000 1.999150 
# 
# From -- ./inp_files/20303.got.cif
#   From: 2010.06.25/outbox.cif.g09.slc.cpg/sg13_11_cif.got.tgz:20303.got - 2010.06.28 04:50:58.
