data_PCOD8123466
_publ_section_title
;
Structure prediction by ZEFSAII (Michael W. Deem and Ramdas Pophale) SiO2 
 PCOD8123466
Probable space group: P 21/C
;
_chemical_formula_sum "Si O2"
_cell_formula_units_Z 24
_cell_length_a 25.052899
_cell_length_b 8.154433
_cell_length_c 17.564160
_cell_angle_alpha 90.000000
_cell_angle_beta 18.428422
_cell_angle_gamma 90.000000
_cell_volume 1134.307217
_symmetry_space_group_name_H-M "P 21/C"
_symmetry_group_IT_number 14
_symmetry_cell_setting 'monoclinic'
loop_
_space_group_symop_operation_xyz
x,y,z
-x,1/2+y,1/2-z
-x,-y,-z
x,1/2-y,1/2+z
loop_
_atom_site_type_symbol
_atom_site_label
_atom_site_fract_x
_atom_site_fract_y
_atom_site_fract_z
Si Si1 0.163012 0.792416 0.817347
Si Si2 0.526509 0.611979 0.807610
Si Si3 0.683331 0.594825 0.166511
Si Si4 0.869243 0.997338 0.275104
Si Si5 0.302378 0.469404 0.682028
Si Si6 0.412294 0.209322 0.424719
O O1 0.348494 0.855781 0.589937
O O2 0.167701 0.596843 0.827727
O O3 0.108667 0.831695 0.802419
O O4 0.035950 0.885305 0.046094
O O5 0.675522 0.712835 0.649514
O O6 0.505551 0.669359 0.747711
O O7 0.555838 0.413221 0.767553
O O8 0.494495 0.528746 0.414796
O O9 0.751803 0.575219 0.159000
O O10 0.811619 0.485618 0.941213
O O11 0.715055 0.910897 0.443199
O O12 0.298289 0.301956 0.640682
#
# Coordination Sequence:
#
# PCOD8123466 Si02
#       6
#     4   4   4   4   4   4
#     4   9  17  32  52  72 100 135 174 209 257 311
#     4   9  17  31  51  75 100 134 175 217 259 310
#     4   9  19  34  51  73 104 136 172 216 264 310
#     4   9  18  33  52  73 101 139 176 215 256 310
#     4  10  19  32  52  77 103 133 170 217 265 313
#     4  10  18  30  52  76 100 131 175 219 259 310
#
# _framework density 21.158290000000001
#
# number of rings (size 3 to 8) (size 9 to 14) (size 15 to 20)
#    0.000    2.667    0.000    4.000    0.000    1.333 
#    0.000    5.000    0.000    4.000    0.000    0.000 
#    0.000    0.000    0.000    0.000    0.000    0.000 
#
# Total GULP energy -297321.048869 kJ/mol
# GULP energy per Si atom -12388.377036 kJ/mol
# Density = 2.111013 g / cm^3
# Si number density = 21.158290 Si / 1000 Ang^3
#
#
#
# Elastic Constant Matrix: (Units=GPa)
#
#
# Indices 1 2 3 4 5 6 
#
# 1 80.0923 59.3921 46.4445 0.0000 40.8642 0.0000
# 2 59.3921 132.4834 21.4894 0.0000 23.4794 0.0000
# 3 46.4445 21.4894 82.7614 0.0000 31.4820 0.0000
# 4 0.0000 0.0000 0.0000 26.1923 0.0000 1.0437
# 5 40.8642 23.4794 31.4820 0.0000 36.0987 0.0000
# 6 0.0000 0.0000 0.0000 1.0437 0.0000 20.4438
#
#
#
# Elastic Compliance Matrix: (Units=1/GPa)
#
#
# Indices 1 2 3 4 5 6 
#
# 1 0.044160 -0.012290 -0.008404 0.000000 -0.034667 0.000000
# 2 -0.012290 0.011953 0.002182 0.000000 0.004234 0.000000
# 3 -0.008404 0.002182 0.019683 0.000000 -0.009073 0.000000
# 4 0.000000 0.000000 0.000000 0.038257 0.000000 -0.001953
# 5 -0.034667 0.004234 -0.009073 0.000000 0.072104 0.000000
# 6 0.000000 0.000000 0.000000 -0.001953 0.000000 0.049014
#
#
# Mechanical properties :
#
#
# Convention : Reuss Voigt Hill
#
# Bulk Modulus (GPa) = 25.79009 61.10988 43.44999
# Shear Modulus (GPa) = 17.53662 27.74769 22.64215
#
# Velocity S-wave (km/s) = 2.88206 3.62530 3.27484
# Velocity P-wave (km/s) = 4.82604 6.81679 5.90590
#
# Compressibility (1/GPa) = 0.03877458
#
# Stress axis : x y z
#
# Youngs Moduli (GPa) = 22.64511 83.65973 50.80436
#
# Poissons Ratio (x) = 1.02816 0.42693
# Poissons Ratio (y) = 0.27830 -0.11088
# Poissons Ratio (z) = 0.19030 -0.18258
#
# Static dielectric constant tensor:
#      x y z
#    x 3.704190 0.000000 0.504580 
#    y 0.000000 4.416320 0.000000 
#    z 0.504580 0.000000 4.037100 
# 
# 
# High freq. dielectric constant tensor:
#      x y z
#    x 1.785840 0.000000 0.026480 
#    y 0.000000 1.827870 0.000000 
#    z 0.026480 0.000000 1.823690 
# 
# From -- ./inp_files/56982.got.cif
#   From: 2010.03.12/outbox.cif.g09.slc.cpg/sg14_29_cif.got.tgz:56982.got - 2010.03.31 13:35:05.
