data_PCOD8123147
_publ_section_title
;
Structure prediction by ZEFSAII (Michael W. Deem and Ramdas Pophale) SiO2 
 PCOD8123147
Probable space group: P 2/C
;
_chemical_formula_sum "Si O2"
_cell_formula_units_Z 14
_cell_length_a 22.933738
_cell_length_b 6.087036
_cell_length_c 20.220088
_cell_angle_alpha 90.000000
_cell_angle_beta 11.285486
_cell_angle_gamma 90.000000
_cell_volume 552.394759
_symmetry_space_group_name_H-M "P 2/C"
_symmetry_group_IT_number 13
_symmetry_cell_setting 'monoclinic'
loop_
_space_group_symop_operation_xyz
x,y,z
-x,y,1/2-z
-x,-y,-z
x,-y,1/2+z
loop_
_atom_site_type_symbol
_atom_site_label
_atom_site_fract_x
_atom_site_fract_y
_atom_site_fract_z
Si Si1 0.520324 0.367009 0.320009
Si Si2 0.994047 0.646610 0.660186
Si Si3 0.000000 0.021099 0.750000
Si Si4 0.748349 0.843798 0.253608
O O1 0.270196 0.462708 0.547355
O O2 0.373958 0.308746 0.552573
O O3 0.750339 0.564022 0.074918
O O4 0.697040 0.157190 0.096757
O O5 0.910077 0.881754 0.784686
O O6 0.115311 0.677310 0.451536
O O7 0.500000 0.000000 0.500000
O O8 0.000000 0.000000 0.000000
#
# Coordination Sequence:
#
# PCOD8123147 Si02
#       4
#     4   4   2   4
#     4  12  28  51  80 113 154 205 259 316 389 457
#     4  12  28  51  80 113 154 205 259 316 389 457
#     4  12  30  52  76 116 168 200 262 318 392 478
#     4  12  24  50  82 111 149 202 257 326 379 445
#
# _framework density 25.344194000000002
#
# number of rings (size 3 to 8) (size 9 to 14) (size 15 to 20)
#    0.000    0.000    2.857    6.000    0.000    6.857 
#    0.000    0.000    0.000    0.000    0.000    0.000 
#    0.000    0.000    0.000    0.000    0.000    0.000 
#
# Total GULP energy -173713.359190 kJ/mol
# GULP energy per Si atom -12408.097085 kJ/mol
# Density = 2.528651 g / cm^3
# Si number density = 25.344194 Si / 1000 Ang^3
#
#
#
# Elastic Constant Matrix: (Units=GPa)
#
#
# Indices 1 2 3 4 5 6 
#
# 1 105.4568 48.0587 54.6900 0.0000 -10.1943 0.0000
# 2 48.0587 138.9189 67.3916 0.0000 2.9020 0.0000
# 3 54.6900 67.3916 144.9599 0.0000 -6.0489 0.0000
# 4 0.0000 0.0000 0.0000 47.9718 0.0000 1.1912
# 5 -10.1943 2.9020 -6.0489 0.0000 64.1767 0.0000
# 6 0.0000 0.0000 0.0000 1.1912 0.0000 74.8298
#
#
#
# Elastic Compliance Matrix: (Units=1/GPa)
#
#
# Indices 1 2 3 4 5 6 
#
# 1 0.012697 -0.002768 -0.003428 0.000000 0.001819 0.000000
# 2 -0.002768 0.009942 -0.003629 0.000000 -0.001231 0.000000
# 3 -0.003428 -0.003629 0.009902 0.000000 0.000553 0.000000
# 4 0.000000 0.000000 0.000000 0.020854 0.000000 -0.000332
# 5 0.001819 -0.001231 0.000553 0.000000 0.015979 0.000000
# 6 0.000000 0.000000 0.000000 -0.000332 0.000000 0.013369
#
#
# Mechanical properties :
#
#
# Convention : Reuss Voigt Hill
#
# Bulk Modulus (GPa) = 77.56782 81.06847 79.31815
# Shear Modulus (GPa) = 46.86462 52.00868 49.43665
#
# Velocity S-wave (km/s) = 4.30481 4.53492 4.42136
# Velocity P-wave (km/s) = 7.44182 7.71214 7.57819
#
# Compressibility (1/GPa) = 0.01289194
#
# Stress axis : x y z
#
# Youngs Moduli (GPa) = 78.75646 100.58027 100.98935
#
# Poissons Ratio (x) = 0.27838 0.34617
# Poissons Ratio (y) = 0.21798 0.36652
# Poissons Ratio (z) = 0.26996 0.36504
#
# Static dielectric constant tensor:
#      x y z
#    x 4.780930 0.000000 0.235680 
#    y 0.000000 4.585800 0.000000 
#    z 0.235680 0.000000 4.873300 
# 
# 
# High freq. dielectric constant tensor:
#      x y z
#    x 2.035220 0.000000 0.012400 
#    y 0.000000 2.024410 0.000000 
#    z 0.012400 0.000000 2.032660 
# 
# From -- ./inp_files/60127.got.cif
#   From: 2010.06.25/outbox.cif.g09.slc.cpg/sg13_31_cif.got.tgz:60127.got - 2010.06.28 04:50:58.
