data_PCOD8123846
_publ_section_title
;
Structure prediction by ZEFSAII (Michael W. Deem and Ramdas Pophale) SiO2 
 PCOD8123846
Probable space group: P 21/C
;
_chemical_formula_sum "Si O2"
_cell_formula_units_Z 32
_cell_length_a 11.237226
_cell_length_b 15.633466
_cell_length_c 10.127030
_cell_angle_alpha 90.000000
_cell_angle_beta 62.010389
_cell_angle_gamma 90.000000
_cell_volume 1570.989469
_symmetry_space_group_name_H-M "P 21/C"
_symmetry_group_IT_number 14
_symmetry_cell_setting 'monoclinic'
loop_
_space_group_symop_operation_xyz
x,y,z
-x,1/2+y,1/2-z
-x,-y,-z
x,1/2-y,1/2+z
loop_
_atom_site_type_symbol
_atom_site_label
_atom_site_fract_x
_atom_site_fract_y
_atom_site_fract_z
Si Si1 0.196660 0.385700 0.790469
Si Si2 0.518759 0.290734 0.298835
Si Si3 0.354952 0.272428 0.124520
Si Si4 0.135944 0.658655 0.656233
Si Si5 0.192884 0.732431 0.889266
Si Si6 0.847020 0.897410 0.390255
Si Si7 0.628578 0.455569 0.367338
Si Si8 0.922697 0.436969 0.938154
O O1 0.269916 0.314510 0.666289
O O2 0.284959 0.472211 0.752495
O O3 0.050373 0.395412 0.794383
O O4 0.169419 0.355370 0.955567
O O5 0.409244 0.287982 0.241966
O O6 0.469012 0.239868 0.454531
O O7 0.650723 0.242103 0.177044
O O8 0.561709 0.388255 0.302735
O O9 0.262290 0.354545 0.146643
O O10 0.153691 0.735990 0.754481
O O11 0.115480 0.700897 0.522405
O O12 0.266293 0.595027 0.590753
O O13 0.997843 0.611309 0.757324
O O14 0.168808 0.633461 0.943277
O O15 0.826113 0.001133 0.401659
O O16 0.500000 0.500000 0.500000
O O17 0.000000 0.500000 0.000000
#
# Coordination Sequence:
#
# PCOD8123846 Si02
#       8
#     4   4   4   4   4   4   4   4
#     4  11  20  39  63  92 118 169 208 249 308 380
#     4  11  23  41  58  95 125 167 210 252 313 377
#     4  12  24  39  64  90 131 164 211 255 310 373
#     4  11  22  39  64  97 121 159 214 256 316 367
#     4  11  22  39  64  90 124 163 204 264 309 375
#     4  11  21  37  63  92 121 162 212 262 301 366
#     4  11  22  40  68  91 124 169 208 259 311 386
#     4  10  18  39  63  89 119 160 212 248 306 373
#
# _framework density 20.369329
#
# number of rings (size 3 to 8) (size 9 to 14) (size 15 to 20)
#    0.000    1.000    6.250    4.500    0.000    0.000 
#    0.000    3.750    0.000    2.250    0.000    0.000 
#    0.000    0.000    0.000    0.000    0.000    0.000 
#
# Total GULP energy -396532.007380 kJ/mol
# GULP energy per Si atom -12391.625231 kJ/mol
# Density = 2.032297 g / cm^3
# Si number density = 20.369329 Si / 1000 Ang^3
#
#
#
# Elastic Constant Matrix: (Units=GPa)
#
#
# Indices 1 2 3 4 5 6 
#
# 1 42.6622 8.8304 21.9336 0.0000 -11.2563 0.0000
# 2 8.8304 56.5720 18.9777 0.0000 -6.8051 0.0000
# 3 21.9336 18.9777 99.1818 0.0000 -14.7709 0.0000
# 4 0.0000 0.0000 0.0000 31.9903 0.0000 -6.2573
# 5 -11.2563 -6.8051 -14.7709 0.0000 29.4209 0.0000
# 6 0.0000 0.0000 0.0000 -6.2573 0.0000 34.1445
#
#
#
# Elastic Compliance Matrix: (Units=1/GPa)
#
#
# Indices 1 2 3 4 5 6 
#
# 1 0.028379 -0.001878 -0.004717 0.000000 0.008055 0.000000
# 2 -0.001878 0.019223 -0.002926 0.000000 0.002258 0.000000
# 3 -0.004717 -0.002926 0.012230 0.000000 0.003659 0.000000
# 4 0.000000 0.000000 0.000000 0.032422 0.000000 0.005942
# 5 0.008055 0.002258 0.003659 0.000000 0.039431 0.000000
# 6 0.000000 0.000000 0.000000 0.005942 0.000000 0.030376
#
#
# Mechanical properties :
#
#
# Convention : Reuss Voigt Hill
#
# Bulk Modulus (GPa) = 24.51626 33.09994 28.80810
# Shear Modulus (GPa) = 25.68038 29.02277 27.35157
#
# Velocity S-wave (km/s) = 3.55454 3.77878 3.66837
# Velocity P-wave (km/s) = 5.37665 5.94341 5.66712
#
# Compressibility (1/GPa) = 0.04078925
#
# Stress axis : x y z
#
# Youngs Moduli (GPa) = 35.23709 52.02050 81.76309
#
# Poissons Ratio (x) = 0.09772 0.38567
# Poissons Ratio (y) = 0.06619 0.23928
# Poissons Ratio (z) = 0.16621 0.15224
#
# Static dielectric constant tensor:
#      x y z
#    x 3.696810 0.000000 -0.380210 
#    y 0.000000 3.882880 0.000000 
#    z -0.380210 0.000000 3.918760 
# 
# 
# High freq. dielectric constant tensor:
#      x y z
#    x 1.773830 0.000000 -0.031690 
#    y 0.000000 1.789850 0.000000 
#    z -0.031690 0.000000 1.808300 
# 
# From -- ./inp_files/30027.got.cif
#   From: 2010.03.12/outbox.cif.g09.slc.cpg/sg14_16_cif.got.tgz:30027.got - 2010.03.31 13:35:05.
