data_PCOD8123074
_publ_section_title
;
Structure prediction by ZEFSAII (Michael W. Deem and Ramdas Pophale) SiO2 
 PCOD8123074
Probable space group: P 2/C
;
_chemical_formula_sum "Si O2"
_cell_formula_units_Z 24
_cell_length_a 18.242891
_cell_length_b 8.644569
_cell_length_c 16.388951
_cell_angle_alpha 90.000000
_cell_angle_beta 153.949755
_cell_angle_gamma 90.000000
_cell_volume 1135.037259
_symmetry_space_group_name_H-M "P 2/C"
_symmetry_group_IT_number 13
_symmetry_cell_setting 'monoclinic'
loop_
_space_group_symop_operation_xyz
x,y,z
-x,y,1/2-z
-x,-y,-z
x,-y,1/2+z
loop_
_atom_site_type_symbol
_atom_site_label
_atom_site_fract_x
_atom_site_fract_y
_atom_site_fract_z
Si Si1 0.698992 0.676615 0.804066
Si Si2 0.000000 0.184839 0.250000
Si Si3 0.022013 0.169098 0.558290
Si Si4 0.198973 0.323421 0.593946
Si Si5 0.250030 0.000039 0.394460
Si Si6 0.500000 0.815235 0.750000
Si Si7 0.522024 0.830865 0.485775
O O1 0.750016 0.500019 0.852285
O O2 0.621176 0.710589 0.815262
O O3 0.560865 0.707832 0.595906
O O4 0.861275 0.782129 0.950128
O O5 0.121064 0.289431 0.427048
O O6 0.100496 0.066587 0.296074
O O7 0.060907 0.292223 0.525936
O O8 0.183996 0.149257 0.777673
O O9 0.000000 0.000000 0.500000
O O10 0.361277 0.217913 0.772449
O O11 0.315961 0.149324 0.409589
O O12 0.399727 0.933459 0.595184
O O13 0.500000 0.000000 0.500000
#
# Coordination Sequence:
#
# PCOD8123074 Si02
#       7
#     4   2   4   4   4   2   4
#     4  12  26  44  70 102 145 178 226 284 353 410
#     4  12  26  42  64 106 138 184 222 284 352 408
#     4  12  22  45  72 101 126 183 239 284 326 408
#     4  12  26  44  70 102 145 178 226 284 353 410
#     4  12  24  40  74  96 138 172 244 288 330 396
#     4  12  26  42  64 106 138 184 222 284 352 408
#     4  12  22  45  72 101 126 183 239 284 326 408
#
# _framework density 21.144680999999999
#
# number of rings (size 3 to 8) (size 9 to 14) (size 15 to 20)
#    0.000    0.000    6.667    3.000    0.000    2.667 
#    0.000    1.667    0.000    0.000    0.000    0.000 
#    0.000    0.000    0.000    0.000    0.000    0.000 
#
# Total GULP energy -297638.802587 kJ/mol
# GULP energy per Si atom -12401.616774 kJ/mol
# Density = 2.109655 g / cm^3
# Si number density = 21.144681 Si / 1000 Ang^3
#
#
#
# Elastic Constant Matrix: (Units=GPa)
#
#
# Indices 1 2 3 4 5 6 
#
# 1 143.1090 46.7224 26.1558 0.0000 6.8178 0.0000
# 2 46.7224 137.5265 42.3799 0.0000 -4.5183 0.0000
# 3 26.1558 42.3799 135.6162 0.0000 -14.5847 0.0000
# 4 0.0000 0.0000 0.0000 32.7227 0.0000 14.6848
# 5 6.8178 -4.5183 -14.5847 0.0000 39.7064 0.0000
# 6 0.0000 0.0000 0.0000 14.6848 0.0000 18.5891
#
#
#
# Elastic Compliance Matrix: (Units=1/GPa)
#
#
# Indices 1 2 3 4 5 6 
#
# 1 0.008085 -0.002507 -0.000995 0.000000 -0.002039 0.000000
# 2 -0.002507 0.008824 -0.002207 0.000000 0.000624 0.000000
# 3 -0.000995 -0.002207 0.008586 0.000000 0.003073 0.000000
# 4 0.000000 0.000000 0.000000 0.047344 0.000000 -0.037400
# 5 -0.002039 0.000624 0.003073 0.000000 0.026735 0.000000
# 6 0.000000 0.000000 0.000000 -0.037400 0.000000 0.083340
#
#
# Mechanical properties :
#
#
# Convention : Reuss Voigt Hill
#
# Bulk Modulus (GPa) = 71.04002 71.86309 71.45156
# Shear Modulus (GPa) = 25.12266 38.26986 31.69626
#
# Velocity S-wave (km/s) = 3.45067 4.25891 3.87592
# Velocity P-wave (km/s) = 7.03891 7.63182 7.34135
#
# Compressibility (1/GPa) = 0.01407657
#
# Stress axis : x y z
#
# Youngs Moduli (GPa) = 123.68201 113.33237 116.47124
#
# Poissons Ratio (x) = 0.28414 0.11591
# Poissons Ratio (y) = 0.31009 0.25702
# Poissons Ratio (z) = 0.12309 0.25009
#
# Static dielectric constant tensor:
#      x y z
#    x 4.462790 0.000000 -0.490730 
#    y 0.000000 4.632740 0.000000 
#    z -0.490730 0.000000 3.986050 
# 
# 
# High freq. dielectric constant tensor:
#      x y z
#    x 1.845360 0.000000 0.004380 
#    y 0.000000 1.815590 0.000000 
#    z 0.004380 0.000000 1.849500 
# 
# From -- ./inp_files/55400.got.cif
#   From: 2010.06.25/outbox.cif.g09.slc.cpg/sg13_28_cif.got.tgz:55400.got - 2010.06.28 04:50:58.
