data_PCOD8123148
_publ_section_title
;
Structure prediction by ZEFSAII (Michael W. Deem and Ramdas Pophale) SiO2 
 PCOD8123148
Probable space group: P 2/C
;
_chemical_formula_sum "Si O2"
_cell_formula_units_Z 24
_cell_length_a 14.052778
_cell_length_b 5.084902
_cell_length_c 28.213929
_cell_angle_alpha 90.000000
_cell_angle_beta 29.247256
_cell_angle_gamma 90.000000
_cell_volume 985.016585
_symmetry_space_group_name_H-M "P 2/C"
_symmetry_group_IT_number 13
_symmetry_cell_setting 'monoclinic'
loop_
_space_group_symop_operation_xyz
x,y,z
-x,y,1/2-z
-x,-y,-z
x,-y,1/2+z
loop_
_atom_site_type_symbol
_atom_site_label
_atom_site_fract_x
_atom_site_fract_y
_atom_site_fract_z
Si Si1 0.000000 0.920832 0.250000
Si Si2 0.667064 0.483681 0.273737
Si Si3 0.124107 0.246260 0.957745
Si Si4 0.360175 0.994499 0.651067
Si Si5 0.754639 0.156317 0.941452
Si Si6 0.500000 0.362656 0.750000
Si Si7 0.894563 0.653786 0.929059
O O1 0.149907 0.756869 0.150931
O O2 0.154695 0.081403 0.214983
O O3 0.597595 0.215970 0.327213
O O4 0.538370 0.478736 0.281878
O O5 0.891966 0.470613 0.160737
O O6 0.639230 0.722255 0.323286
O O7 0.308168 0.194861 0.843696
O O8 0.190094 0.259146 0.983466
O O9 0.000000 0.500000 0.000000
O O10 0.000000 0.000000 0.000000
O O11 0.536070 0.966370 0.536081
O O12 0.752405 0.423013 0.972780
O O13 0.894672 0.919847 0.898208
#
# Coordination Sequence:
#
# PCOD8123148 Si02
#       7
#     2   4   4   4   4   2   4
#     4  12  26  48  78 112 144 196 246 312 378 438
#     4  12  26  49  76 106 152 197 245 307 370 441
#     4  12  27  45  72 106 146 192 251 302 360 439
#     4  12  27  49  75 110 148 195 245 307 372 446
#     4  12  26  47  77 104 150 191 248 304 374 446
#     4  12  28  48  78 108 148 202 250 302 374 446
#     4  12  24  51  72 105 154 197 237 314 370 438
#
# _framework density 24.365072000000001
#
# number of rings (size 3 to 8) (size 9 to 14) (size 15 to 20)
#    0.000    0.000    5.000    4.500    2.333    5.333 
#    0.000    3.333    0.000    0.000    0.000    0.000 
#    0.000    0.000    0.000    0.000    0.000    0.000 
#
# Total GULP energy -297420.699628 kJ/mol
# GULP energy per Si atom -12392.529151 kJ/mol
# Density = 2.430962 g / cm^3
# Si number density = 24.365072 Si / 1000 Ang^3
#
#
#
# Elastic Constant Matrix: (Units=GPa)
#
#
# Indices 1 2 3 4 5 6 
#
# 1 128.1870 35.4519 46.9325 0.0000 6.2243 0.0000
# 2 35.4519 140.6403 33.0421 0.0000 5.4293 0.0000
# 3 46.9325 33.0421 195.1340 0.0000 10.3146 0.0000
# 4 0.0000 0.0000 0.0000 31.3334 0.0000 -5.3261
# 5 6.2243 5.4293 10.3146 0.0000 35.0857 0.0000
# 6 0.0000 0.0000 0.0000 -5.3261 0.0000 23.1841
#
#
#
# Elastic Compliance Matrix: (Units=1/GPa)
#
#
# Indices 1 2 3 4 5 6 
#
# 1 0.009006 -0.001813 -0.001818 0.000000 -0.000783 0.000000
# 2 -0.001813 0.007791 -0.000850 0.000000 -0.000634 0.000000
# 3 -0.001818 -0.000850 0.005771 0.000000 -0.001243 0.000000
# 4 0.000000 0.000000 0.000000 0.033212 0.000000 0.007630
# 5 -0.000783 -0.000634 -0.001243 0.000000 0.029104 0.000000
# 6 0.000000 0.000000 0.000000 0.007630 0.000000 0.044886
#
#
# Mechanical properties :
#
#
# Convention : Reuss Voigt Hill
#
# Bulk Modulus (GPa) = 73.48555 77.20157 75.34356
# Shear Modulus (GPa) = 34.89982 41.15631 38.02807
#
# Velocity S-wave (km/s) = 3.78877 4.11439 3.95493
# Velocity P-wave (km/s) = 7.02605 7.37055 7.20036
#
# Compressibility (1/GPa) = 0.01360812
#
# Stress axis : x y z
#
# Youngs Moduli (GPa) = 111.03701 128.34563 173.26658
#
# Poissons Ratio (x) = 0.23268 0.31495
# Poissons Ratio (y) = 0.20130 0.14724
# Poissons Ratio (z) = 0.20183 0.10906
#
# Static dielectric constant tensor:
#      x y z
#    x 4.657540 0.000000 0.210960 
#    y 0.000000 13.655690 0.000000 
#    z 0.210960 0.000000 4.897650 
# 
# 
# High freq. dielectric constant tensor:
#      x y z
#    x 1.971110 0.000000 0.003080 
#    y 0.000000 1.946820 0.000000 
#    z 0.003080 0.000000 2.005400 
# 
# From -- ./inp_files/96837.got.cif
#   From: 2010.06.25/outbox.cif.g09.slc.cpg/sg13_49_cif.got.tgz:96837.got - 2010.06.28 04:50:58.
