data_PCOD8123852
_publ_section_title
;
Structure prediction by ZEFSAII (Michael W. Deem and Ramdas Pophale) SiO2 
 PCOD8123852
Probable space group: P 21/C
;
_chemical_formula_sum "Si O2"
_cell_formula_units_Z 32
_cell_length_a 15.864721
_cell_length_b 8.743309
_cell_length_c 23.232262
_cell_angle_alpha 90.000000
_cell_angle_beta 27.605165
_cell_angle_gamma 90.000000
_cell_volume 1493.252413
_symmetry_space_group_name_H-M "P 21/C"
_symmetry_group_IT_number 14
_symmetry_cell_setting 'monoclinic'
loop_
_space_group_symop_operation_xyz
x,y,z
-x,1/2+y,1/2-z
-x,-y,-z
x,1/2-y,1/2+z
loop_
_atom_site_type_symbol
_atom_site_label
_atom_site_fract_x
_atom_site_fract_y
_atom_site_fract_z
Si Si1 0.941821 0.094330 0.715069
Si Si2 0.694318 0.882391 0.262867
Si Si3 0.967468 0.089903 0.150060
Si Si4 0.765273 0.056027 0.612393
Si Si5 0.760648 0.423688 0.442870
Si Si6 0.302168 0.592592 0.971099
Si Si7 0.359086 0.474515 0.689976
Si Si8 0.922888 0.744435 0.529966
O O1 0.893453 0.046295 0.808883
O O2 0.940469 0.278003 0.713465
O O3 0.785933 0.043187 0.765562
O O4 0.140126 0.028102 0.579306
O O5 0.498160 0.965171 0.375606
O O6 0.676617 0.704861 0.287880
O O7 0.809523 0.883722 0.133575
O O8 0.799285 0.970322 0.250755
O O9 0.153365 0.003429 0.053141
O O10 0.971800 0.158368 0.083699
O O11 0.662096 0.122147 0.618849
O O12 0.943873 0.162142 0.507994
O O13 0.656489 0.058031 0.738414
O O14 0.802031 0.878074 0.574458
O O15 0.745842 0.246127 0.466274
O O16 0.566779 0.500445 0.544659
#
# Coordination Sequence:
#
# PCOD8123852 Si02
#       8
#     4   4   4   4   4   4   4   4
#     4  12  23  45  66  91 132 175 222 269 330 387
#     4  10  24  39  64  97 132 165 214 269 326 393
#     4  12  23  40  63  99 128 166 222 271 321 380
#     4  10  18  39  68  92 126 171 207 261 336 393
#     4  11  26  42  66  95 128 177 226 271 313 396
#     4  11  23  44  65  94 134 177 213 263 342 394
#     4  10  22  44  67  93 128 174 217 267 336 391
#     4  10  19  38  62  92 128 167 204 262 324 386
#
# _framework density 21.429732999999999
#
# number of rings (size 3 to 8) (size 9 to 14) (size 15 to 20)
#    0.000    1.250    2.500    4.500    1.750    1.000 
#    4.500    6.875    0.000    0.000    0.000    0.000 
#    0.000    0.000    0.000    0.000    0.000    0.000 
#
# Total GULP energy -396671.538172 kJ/mol
# GULP energy per Si atom -12395.985568 kJ/mol
# Density = 2.138096 g / cm^3
# Si number density = 21.429733 Si / 1000 Ang^3
#
#
#
# Elastic Constant Matrix: (Units=GPa)
#
#
# Indices 1 2 3 4 5 6 
#
# 1 75.3756 38.2843 44.5035 0.0000 -13.9541 0.0000
# 2 38.2843 49.7954 47.5256 0.0000 -6.8640 0.0000
# 3 44.5035 47.5256 103.8334 0.0000 -15.6239 0.0000
# 4 0.0000 0.0000 0.0000 10.2063 0.0000 2.0201
# 5 -13.9541 -6.8640 -15.6239 0.0000 41.4527 0.0000
# 6 0.0000 0.0000 0.0000 2.0201 0.0000 30.7761
#
#
#
# Elastic Compliance Matrix: (Units=1/GPa)
#
#
# Indices 1 2 3 4 5 6 
#
# 1 0.023020 -0.014751 -0.002456 0.000000 0.004381 0.000000
# 2 -0.014751 0.045115 -0.014789 0.000000 -0.003069 0.000000
# 3 -0.002456 -0.014789 0.017979 0.000000 0.003501 0.000000
# 4 0.000000 0.000000 0.000000 0.099269 0.000000 -0.006516
# 5 0.004381 -0.003069 0.003501 0.000000 0.026410 0.000000
# 6 0.000000 0.000000 0.000000 -0.006516 0.000000 0.032920
#
#
# Mechanical properties :
#
#
# Convention : Reuss Voigt Hill
#
# Bulk Modulus (GPa) = 45.20195 54.40347 49.80271
# Shear Modulus (GPa) = 15.81882 23.06642 19.44262
#
# Velocity S-wave (km/s) = 2.71988 3.28437 3.01537
# Velocity P-wave (km/s) = 5.56799 6.31069 5.95094
#
# Compressibility (1/GPa) = 0.02212294
#
# Stress axis : x y z
#
# Youngs Moduli (GPa) = 43.44047 22.16554 55.61966
#
# Poissons Ratio (x) = 0.32696 0.13658
# Poissons Ratio (y) = 0.64079 0.82257
# Poissons Ratio (z) = 0.10667 0.32781
#
# Static dielectric constant tensor:
#      x y z
#    x 3.859020 0.000000 -0.102840 
#    y 0.000000 3.915820 0.000000 
#    z -0.102840 0.000000 3.976750 
# 
# 
# High freq. dielectric constant tensor:
#      x y z
#    x 1.839490 0.000000 -0.004500 
#    y 0.000000 1.838530 0.000000 
#    z -0.004500 0.000000 1.836390 
# 
# From -- ./inp_files/73828.got.cif
#   From: 2010.03.12/outbox.cif.g09.slc.cpg/sg14_37_cif.got.tgz:73828.got - 2010.03.31 13:35:05.
