data_PCOD8123960
_publ_section_title
;
Structure prediction by ZEFSAII (Michael W. Deem and Ramdas Pophale) SiO2 
 PCOD8123960
Probable space group: P 21/C
;
_chemical_formula_sum "Si O2"
_cell_formula_units_Z 24
_cell_length_a 26.354291
_cell_length_b 5.066572
_cell_length_c 26.520737
_cell_angle_alpha 90.000000
_cell_angle_beta 18.340708
_cell_angle_gamma 90.000000
_cell_volume 1114.300310
_symmetry_space_group_name_H-M "P 21/C"
_symmetry_group_IT_number 14
_symmetry_cell_setting 'monoclinic'
loop_
_space_group_symop_operation_xyz
x,y,z
-x,1/2+y,1/2-z
-x,-y,-z
x,1/2-y,1/2+z
loop_
_atom_site_type_symbol
_atom_site_label
_atom_site_fract_x
_atom_site_fract_y
_atom_site_fract_z
Si Si1 0.390425 0.003502 0.730464
Si Si2 0.909949 0.856859 0.318855
Si Si3 0.401383 0.352260 0.331991
Si Si4 0.765270 0.999112 0.352390
Si Si5 0.349752 0.501917 0.708900
Si Si6 0.275782 0.499966 0.668894
O O1 0.583735 0.000811 0.544758
O O2 0.315027 0.730575 0.782091
O O3 0.340520 0.048921 0.835207
O O4 0.307207 0.225917 0.774868
O O5 0.745659 0.742082 0.495646
O O6 0.887956 0.948736 0.282135
O O7 0.038766 0.618143 0.198567
O O8 0.479292 0.602686 0.287367
O O9 0.794336 0.778365 0.282660
O O10 0.809016 0.273752 0.284229
O O11 0.241443 0.540046 0.760856
O O12 0.534614 0.498475 0.518773
#
# Coordination Sequence:
#
# PCOD8123960 Si02
#       6
#     4   4   4   4   4   4
#     4  10  19  32  55  84 115 151 191 244 294 354
#     4  12  26  42  60  89 124 161 206 253 296 357
#     4  12  24  40  64  89 118 164 207 245 305 360
#     4  10  19  34  54  81 113 158 193 239 295 353
#     4   9  17  29  48  84 119 144 183 244 300 347
#     4   9  17  29  51  79 117 151 185 235 303 356
#
# _framework density 21.538180000000001
#
# number of rings (size 3 to 8) (size 9 to 14) (size 15 to 20)
#    0.000    1.667    1.667    4.000    4.667    4.000 
#    0.000    0.000    0.000    0.000    0.000   23.333 
#    0.000    0.000    0.000    0.000    0.000    0.000 
#
# Total GULP energy -297637.929461 kJ/mol
# GULP energy per Si atom -12401.580394 kJ/mol
# Density = 2.148916 g / cm^3
# Si number density = 21.538180 Si / 1000 Ang^3
#
#
#
# Elastic Constant Matrix: (Units=GPa)
#
#
# Indices 1 2 3 4 5 6 
#
# 1 160.9627 61.3579 24.7700 0.0000 10.0655 0.0000
# 2 61.3579 156.7161 14.1678 0.0000 -1.3759 0.0000
# 3 24.7700 14.1678 21.1459 0.0000 -1.3916 0.0000
# 4 0.0000 0.0000 0.0000 20.2694 0.0000 0.6964
# 5 10.0655 -1.3759 -1.3916 0.0000 15.0300 0.0000
# 6 0.0000 0.0000 0.0000 0.6964 0.0000 34.1887
#
#
#
# Elastic Compliance Matrix: (Units=1/GPa)
#
#
# Indices 1 2 3 4 5 6 
#
# 1 0.009177 -0.002812 -0.009344 0.000000 -0.007268 0.000000
# 2 -0.002812 0.007655 -0.001675 0.000000 0.002429 0.000000
# 3 -0.009344 -0.001675 0.060126 0.000000 0.011671 0.000000
# 4 0.000000 0.000000 0.000000 0.049370 0.000000 -0.001006
# 5 -0.007268 0.002429 0.011671 0.000000 0.072704 0.000000
# 6 0.000000 0.000000 0.000000 -0.001006 0.000000 0.029270
#
#
# Mechanical properties :
#
#
# Convention : Reuss Voigt Hill
#
# Bulk Modulus (GPa) = 20.28559 59.93513 40.11036
# Shear Modulus (GPa) = 18.35566 29.79956 24.07761
#
# Velocity S-wave (km/s) = 2.92248 3.72367 3.34713
# Velocity P-wave (km/s) = 4.56363 6.80995 5.79664
#
# Compressibility (1/GPa) = 0.04929607
#
# Stress axis : x y z
#
# Youngs Moduli (GPa) = 108.96798 130.63890 16.63168
#
# Poissons Ratio (x) = 0.36737 0.15541
# Poissons Ratio (y) = 0.30643 0.02785
# Poissons Ratio (z) = 1.01820 0.21879
#
# Static dielectric constant tensor:
#      x y z
#    x 4.132960 0.000000 -0.023290 
#    y 0.000000 4.309340 0.000000 
#    z -0.023290 0.000000 3.291420 
# 
# 
# High freq. dielectric constant tensor:
#      x y z
#    x 1.860900 0.000000 0.007200 
#    y 0.000000 1.868930 0.000000 
#    z 0.007200 0.000000 1.782360 
# 
# From -- ./inp_files/71596.got.cif
#   From: 2010.03.12/outbox.cif.g09.slc.cpg/sg14_36_cif.got.tgz:71596.got - 2010.03.31 13:35:05.
