data_PCOD8123583
_publ_section_title
;
Structure prediction by ZEFSAII (Michael W. Deem and Ramdas Pophale) SiO2 
 PCOD8123583
Probable space group: P 21/C
;
_chemical_formula_sum "Si O2"
_cell_formula_units_Z 32
_cell_length_a 22.649979
_cell_length_b 9.479954
_cell_length_c 8.399331
_cell_angle_alpha 90.000000
_cell_angle_beta 116.939046
_cell_angle_gamma 90.000000
_cell_volume 1607.809969
_symmetry_space_group_name_H-M "P 21/C"
_symmetry_group_IT_number 14
_symmetry_cell_setting 'monoclinic'
loop_
_space_group_symop_operation_xyz
x,y,z
-x,1/2+y,1/2-z
-x,-y,-z
x,1/2-y,1/2+z
loop_
_atom_site_type_symbol
_atom_site_label
_atom_site_fract_x
_atom_site_fract_y
_atom_site_fract_z
Si Si1 0.777426 0.907488 0.121755
Si Si2 0.915430 0.406409 0.088624
Si Si3 0.856203 0.697536 0.998836
Si Si4 0.126866 0.864031 0.816506
Si Si5 0.478584 0.607228 0.839292
Si Si6 0.622338 0.920642 0.909233
Si Si7 0.448942 0.180904 0.877574
Si Si8 0.956781 0.930413 0.083180
O O1 0.796972 0.871832 0.325146
O O2 0.800408 0.065771 0.104811
O O3 0.818641 0.788176 0.082534
O O4 0.700279 0.903669 0.994781
O O5 0.867282 0.299262 0.126590
O O6 0.991781 0.372199 0.222347
O O7 0.896184 0.564601 0.121025
O O8 0.910608 0.384345 0.895088
O O9 0.909418 0.799118 0.972980
O O10 0.086858 0.943256 0.903869
O O11 0.402922 0.572079 0.692850
O O12 0.521369 0.585408 0.728163
O O13 0.500000 0.500000 0.000000
O O14 0.491011 0.759968 0.934695
O O15 0.592596 0.803425 0.756608
O O16 0.599288 0.906571 0.065081
O O17 0.000000 0.000000 0.000000
#
# Coordination Sequence:
#
# PCOD8123583 Si02
#       8
#     4   4   4   4   4   4   4   4
#     4  10  21  38  55  80 111 147 189 226 276 340
#     4  11  21  37  56  78 107 146 184 231 290 338
#     4  10  22  37  56  81 111 142 185 240 280 338
#     4  10  23  37  53  78 112 142 181 234 276 333
#     4   9  18  32  53  84 114 143 180 229 279 325
#     4  10  18  33  57  79 109 150 183 222 277 340
#     4   9  18  32  54  85 114 139 182 235 279 322
#     4  11  21  36  59  85 107 137 180 233 297 346
#
# _framework density 19.902849
#
# number of rings (size 3 to 8) (size 9 to 14) (size 15 to 20)
#    0.000    2.000    0.000    3.750    0.000    5.000 
#    0.000    2.500    0.000    6.000    0.000    0.000 
#    0.000    0.000    0.000    0.000    0.000    0.000 
#
# Total GULP energy -396483.964383 kJ/mol
# GULP energy per Si atom -12390.123887 kJ/mol
# Density = 1.985755 g / cm^3
# Si number density = 19.902849 Si / 1000 Ang^3
#
#
#
# Elastic Constant Matrix: (Units=GPa)
#
#
# Indices 1 2 3 4 5 6 
#
# 1 71.6067 38.0214 44.1693 0.0000 10.4639 0.0000
# 2 38.0214 96.6034 25.2984 0.0000 4.2290 0.0000
# 3 44.1693 25.2984 79.8571 0.0000 8.5373 0.0000
# 4 0.0000 0.0000 0.0000 27.6997 0.0000 0.6974
# 5 10.4639 4.2290 8.5373 0.0000 40.1229 0.0000
# 6 0.0000 0.0000 0.0000 0.6974 0.0000 19.9543
#
#
#
# Elastic Compliance Matrix: (Units=1/GPa)
#
#
# Indices 1 2 3 4 5 6 
#
# 1 0.025041 -0.006734 -0.011353 0.000000 -0.003405 0.000000
# 2 -0.006734 0.013106 -0.000479 0.000000 0.000477 0.000000
# 3 -0.011353 -0.000479 0.019065 0.000000 -0.001045 0.000000
# 4 0.000000 0.000000 0.000000 0.036133 0.000000 -0.001263
# 5 -0.003405 0.000477 -0.001045 0.000000 0.025984 0.000000
# 6 0.000000 0.000000 0.000000 -0.001263 0.000000 0.050159
#
#
# Mechanical properties :
#
#
# Convention : Reuss Voigt Hill
#
# Bulk Modulus (GPa) = 49.79574 51.44949 50.62261
# Shear Modulus (GPa) = 23.43976 26.92726 25.18351
#
# Velocity S-wave (km/s) = 3.43550 3.68222 3.56100
# Velocity P-wave (km/s) = 6.38832 6.63210 6.51135
#
# Compressibility (1/GPa) = 0.02008204
#
# Stress axis : x y z
#
# Youngs Moduli (GPa) = 39.93435 76.29927 52.45156
#
# Poissons Ratio (x) = 0.51376 0.59549
# Poissons Ratio (y) = 0.26890 0.02510
# Poissons Ratio (z) = 0.45338 0.03652
#
# Static dielectric constant tensor:
#      x y z
#    x 3.468150 0.000000 -0.006730 
#    y 0.000000 3.854300 0.000000 
#    z -0.006730 0.000000 3.886200 
# 
# 
# High freq. dielectric constant tensor:
#      x y z
#    x 1.752870 0.000000 -0.013270 
#    y 0.000000 1.775810 0.000000 
#    z -0.013270 0.000000 1.788660 
# 
# From -- ./inp_files/19370.got.cif
#   From: 2010.03.12/outbox.cif.g09.slc.cpg/sg14_10_cif.got.tgz:19370.got - 2010.03.31 13:35:05.
