data_PCOD8123488
_publ_section_title
;
Structure prediction by ZEFSAII (Michael W. Deem and Ramdas Pophale) SiO2 
 PCOD8123488
Probable space group: P 21/C
;
_chemical_formula_sum "Si O2"
_cell_formula_units_Z 32
_cell_length_a 11.195866
_cell_length_b 19.208815
_cell_length_c 9.137785
_cell_angle_alpha 90.000000
_cell_angle_beta 63.860247
_cell_angle_gamma 90.000000
_cell_volume 1764.172825
_symmetry_space_group_name_H-M "P 21/C"
_symmetry_group_IT_number 14
_symmetry_cell_setting 'monoclinic'
loop_
_space_group_symop_operation_xyz
x,y,z
-x,1/2+y,1/2-z
-x,-y,-z
x,1/2-y,1/2+z
loop_
_atom_site_type_symbol
_atom_site_label
_atom_site_fract_x
_atom_site_fract_y
_atom_site_fract_z
Si Si1 0.089166 0.045101 0.554845
Si Si2 0.961772 0.809777 0.514628
Si Si3 0.109795 0.966836 0.843074
Si Si4 0.620182 0.966428 0.252544
Si Si5 0.675641 0.665877 0.543562
Si Si6 0.009896 0.324172 0.667988
Si Si7 0.348354 0.297544 0.771454
Si Si8 0.615793 0.568433 0.088110
O O1 0.021300 0.121426 0.594218
O O2 0.241629 0.049469 0.416418
O O3 0.089163 0.009161 0.708233
O O4 0.000000 0.000000 0.500000
O O5 0.023837 0.817947 0.642123
O O6 0.032729 0.746724 0.390769
O O7 0.807262 0.796459 0.615464
O O8 0.084879 0.884796 0.841339
O O9 0.257139 0.979670 0.826571
O O10 0.000000 0.000000 0.000000
O O11 0.624784 0.909918 0.120477
O O12 0.622866 0.927789 0.408191
O O13 0.486422 0.010171 0.302990
O O14 0.835605 0.660669 0.449181
O O15 0.612514 0.720268 0.694685
O O16 0.618039 0.688022 0.416264
O O17 0.423488 0.355408 0.829679
#
# Coordination Sequence:
#
# PCOD8123488 Si02
#       8
#     4   4   4   4   4   4   4   4
#     4  10  19  35  56  79 105 139 180 227 269 316
#     4   9  19  31  51  76 107 137 175 220 266 319
#     4  11  21  32  54  80 112 141 178 222 269 320
#     4  10  20  35  54  77 109 145 178 219 265 319
#     4  10  18  31  53  80 105 135 176 223 266 311
#     4  10  19  32  49  79 107 139 175 218 271 316
#     4   9  18  31  52  77 105 134 178 222 260 316
#     4   9  20  35  54  78 104 144 179 215 265 318
#
# _framework density 18.138812000000001
#
# number of rings (size 3 to 8) (size 9 to 14) (size 15 to 20)
#    0.000    2.250    2.500    0.750    1.750    3.500 
#    0.000    0.000    2.750    1.500    0.000    0.000 
#    0.000    0.000    0.000    0.000    0.000    0.000 
#
# Total GULP energy -396636.049280 kJ/mol
# GULP energy per Si atom -12394.876540 kJ/mol
# Density = 1.809753 g / cm^3
# Si number density = 18.138812 Si / 1000 Ang^3
#
#
#
# Elastic Constant Matrix: (Units=GPa)
#
#
# Indices 1 2 3 4 5 6 
#
# 1 60.1236 50.9022 30.5992 0.0000 2.7720 0.0000
# 2 50.9022 158.1240 46.4549 0.0000 3.8997 0.0000
# 3 30.5992 46.4549 52.3580 0.0000 -1.8132 0.0000
# 4 0.0000 0.0000 0.0000 38.3468 0.0000 3.6472
# 5 2.7720 3.8997 -1.8132 0.0000 14.3419 0.0000
# 6 0.0000 0.0000 0.0000 3.6472 0.0000 26.2793
#
#
#
# Elastic Compliance Matrix: (Units=1/GPa)
#
#
# Indices 1 2 3 4 5 6 
#
# 1 0.027108 -0.005261 -0.011356 0.000000 -0.005245 0.000000
# 2 -0.005261 0.009733 -0.005642 0.000000 -0.002343 0.000000
# 3 -0.011356 -0.005642 0.031007 0.000000 0.007649 0.000000
# 4 0.000000 0.000000 0.000000 0.026427 0.000000 -0.003668
# 5 -0.005245 -0.002343 0.007649 0.000000 0.072344 0.000000
# 6 0.000000 0.000000 0.000000 -0.003668 0.000000 0.038562
#
#
# Mechanical properties :
#
#
# Convention : Reuss Voigt Hill
#
# Bulk Modulus (GPa) = 42.86478 58.50201 50.68340
# Shear Modulus (GPa) = 19.41930 25.30355 22.36142
#
# Velocity S-wave (km/s) = 3.27554 3.73901 3.51493
# Velocity P-wave (km/s) = 6.16347 7.13882 6.66900
#
# Compressibility (1/GPa) = 0.02332918
#
# Stress axis : x y z
#
# Youngs Moduli (GPa) = 36.88988 102.74248 32.25035
#
# Poissons Ratio (x) = 0.54049 0.36625
# Poissons Ratio (y) = 0.19406 0.18197
# Poissons Ratio (z) = 0.41894 0.57972
#
# Static dielectric constant tensor:
#      x y z
#    x 2.339210 0.000000 -0.421460 
#    y 0.000000 3.652410 0.000000 
#    z -0.421460 0.000000 2.950910 
# 
# 
# High freq. dielectric constant tensor:
#      x y z
#    x 1.666250 0.000000 0.017650 
#    y 0.000000 1.717240 0.000000 
#    z 0.017650 0.000000 1.697830 
# 
# From -- ./inp_files/13706.got.cif
#   From: 2010.03.12/outbox.cif.g09.slc.cpg/sg14_7_cif.got.tgz:13706.got - 2010.03.31 13:35:05.
