data_PCOD8123879
_publ_section_title
;
Structure prediction by ZEFSAII (Michael W. Deem and Ramdas Pophale) SiO2 
 PCOD8123879
Probable space group: P 21/C
;
_chemical_formula_sum "Si O2"
_cell_formula_units_Z 28
_cell_length_a 25.853689
_cell_length_b 5.064739
_cell_length_c 25.366985
_cell_angle_alpha 90.000000
_cell_angle_beta 29.671215
_cell_angle_gamma 90.000000
_cell_volume 1644.269982
_symmetry_space_group_name_H-M "P 21/C"
_symmetry_group_IT_number 14
_symmetry_cell_setting 'monoclinic'
loop_
_space_group_symop_operation_xyz
x,y,z
-x,1/2+y,1/2-z
-x,-y,-z
x,1/2-y,1/2+z
loop_
_atom_site_type_symbol
_atom_site_label
_atom_site_fract_x
_atom_site_fract_y
_atom_site_fract_z
Si Si1 0.486664 0.104655 0.794336
Si Si2 0.060252 0.157811 0.211805
Si Si3 0.067691 0.290055 0.324942
Si Si4 0.882591 0.090811 0.545571
Si Si5 0.916141 0.200973 0.629686
Si Si6 0.704393 0.499287 0.126406
Si Si7 0.266937 0.498327 0.468802
O O1 0.489245 0.413929 0.777291
O O2 0.581813 0.046214 0.750826
O O3 0.369113 0.028077 0.917008
O O4 0.081811 0.274356 0.250208
O O5 0.015469 0.402411 0.217214
O O6 0.165791 0.054394 0.092709
O O7 0.115154 0.559374 0.304958
O O8 0.943919 0.278989 0.449595
O O9 0.129630 0.055221 0.299650
O O10 0.865180 0.235944 0.617131
O O11 0.770363 0.019600 0.621515
O O12 0.956896 0.832250 0.489562
O O13 0.722177 0.790895 0.088262
O O14 0.739775 0.289040 0.050528
#
# Coordination Sequence:
#
# PCOD8123879 Si02
#       7
#     4   4   4   4   4   4   4
#     4   8  16  31  46  66  91 118 153 187 236 273
#     4  12  23  32  46  70  95 129 163 185 217 280
#     4  10  19  32  43  62  93 124 151 183 228 275
#     4   9  19  29  48  67  91 115 157 190 239 268
#     4   9  20  30  46  63  93 121 150 193 234 275
#     4  10  19  29  52  70  92 122 153 195 235 273
#     4  10  20  33  45  69  98 126 150 192 225 277
#
# _framework density 17.028832999999999
#
# number of rings (size 3 to 8) (size 9 to 14) (size 15 to 20)
#    0.857    1.429    0.000    3.857    4.000    0.000 
#    0.000    0.000    0.000    0.000    0.000    2.000 
#    0.000    0.000    0.000    0.000    0.000    0.000 
#
# Total GULP energy -346883.216238 kJ/mol
# GULP energy per Si atom -12388.686294 kJ/mol
# Density = 1.699008 g / cm^3
# Si number density = 17.028833 Si / 1000 Ang^3
#
#
#
# Elastic Constant Matrix: (Units=GPa)
#
#
# Indices 1 2 3 4 5 6 
#
# 1 96.8896 4.8589 32.3926 0.0000 -14.3577 0.0000
# 2 4.8589 80.4141 6.2389 0.0000 -1.0411 0.0000
# 3 32.3926 6.2389 52.9346 0.0000 -10.1941 0.0000
# 4 0.0000 0.0000 0.0000 16.0742 0.0000 3.0895
# 5 -14.3577 -1.0411 -10.1941 0.0000 25.7255 0.0000
# 6 0.0000 0.0000 0.0000 3.0895 0.0000 18.3395
#
#
#
# Elastic Compliance Matrix: (Units=1/GPa)
#
#
# Indices 1 2 3 4 5 6 
#
# 1 0.013463 -0.000185 -0.007330 0.000000 0.004602 0.000000
# 2 -0.000185 0.012553 -0.001395 0.000000 -0.000148 0.000000
# 3 -0.007330 -0.001395 0.024622 0.000000 0.005609 0.000000
# 4 0.000000 0.000000 0.000000 0.064293 0.000000 -0.010831
# 5 0.004602 -0.000148 0.005609 0.000000 0.043657 0.000000
# 6 0.000000 0.000000 0.000000 -0.010831 0.000000 0.056352
#
#
# Mechanical properties :
#
#
# Convention : Reuss Voigt Hill
#
# Bulk Modulus (GPa) = 30.47208 35.24656 32.85932
# Shear Modulus (GPa) = 20.51708 24.47768 22.49738
#
# Velocity S-wave (km/s) = 3.47485 3.79545 3.63868
# Velocity P-wave (km/s) = 5.83376 6.32063 6.08207
#
# Compressibility (1/GPa) = 0.03281693
#
# Stress axis : x y z
#
# Youngs Moduli (GPa) = 74.27789 79.66151 40.61478
#
# Poissons Ratio (x) = 0.01475 0.29773
# Poissons Ratio (y) = 0.01375 0.05665
# Poissons Ratio (z) = 0.54449 0.11110
#
# Static dielectric constant tensor:
#      x y z
#    x 3.064220 0.000000 -0.263460 
#    y 0.000000 3.299380 0.000000 
#    z -0.263460 0.000000 2.946790 
# 
# 
# High freq. dielectric constant tensor:
#      x y z
#    x 1.638410 0.000000 -0.015240 
#    y 0.000000 1.676210 0.000000 
#    z -0.015240 0.000000 1.609370 
# 
# From -- ./inp_files/74759.got.cif
#   From: 2010.03.12/outbox.cif.g09.slc.cpg/sg14_38_cif.got.tgz:74759.got - 2010.03.31 13:35:05.
