data_PCOD8123556
_publ_section_title
;
Structure prediction by ZEFSAII (Michael W. Deem and Ramdas Pophale) SiO2 
 PCOD8123556
Probable space group: P 21/C
;
_chemical_formula_sum "Si O2"
_cell_formula_units_Z 28
_cell_length_a 19.288991
_cell_length_b 13.713198
_cell_length_c 11.839314
_cell_angle_alpha 90.000000
_cell_angle_beta 27.776370
_cell_angle_gamma 90.000000
_cell_volume 1459.422411
_symmetry_space_group_name_H-M "P 21/C"
_symmetry_group_IT_number 14
_symmetry_cell_setting 'monoclinic'
loop_
_space_group_symop_operation_xyz
x,y,z
-x,1/2+y,1/2-z
-x,-y,-z
x,1/2-y,1/2+z
loop_
_atom_site_type_symbol
_atom_site_label
_atom_site_fract_x
_atom_site_fract_y
_atom_site_fract_z
Si Si1 0.997756 0.735353 0.475283
Si Si2 0.065624 0.388314 0.651860
Si Si3 0.406421 0.454370 0.479268
Si Si4 0.707999 0.702085 0.511796
Si Si5 0.993795 0.559752 0.622405
Si Si6 0.882257 0.422159 0.127459
Si Si7 0.341005 0.406714 0.826002
O O1 0.992041 0.679292 0.366132
O O2 0.833024 0.775838 0.738025
O O3 0.048786 0.667892 0.509092
O O4 0.111319 0.826146 0.301419
O O5 0.218236 0.349155 0.484933
O O6 0.094079 0.500276 0.568294
O O7 0.929197 0.386798 0.935601
O O8 0.408553 0.371756 0.378912
O O9 0.280998 0.534580 0.634775
O O10 0.381046 0.403520 0.636398
O O11 0.562461 0.511066 0.249576
O O12 0.624231 0.800247 0.671378
O O13 0.000000 0.500000 0.500000
O O14 0.829620 0.565554 0.911358
O O15 0.000000 0.500000 0.000000
#
# Coordination Sequence:
#
# PCOD8123556 Si02
#       7
#     4   4   4   4   4   4   4
#     4   9  19  32  54  85 116 146 187 238 292 341
#     4  10  18  32  59  83 111 148 187 244 287 333
#     4  11  21  39  59  87 117 154 197 236 288 355
#     4  10  20  36  59  84 110 158 195 232 289 353
#     4   9  18  35  57  84 113 152 191 238 290 345
#     4  11  20  33  54  88 112 144 196 244 278 338
#     4  10  22  38  61  80 121 160 189 235 298 353
#
# _framework density 19.185672
#
# number of rings (size 3 to 8) (size 9 to 14) (size 15 to 20)
#    0.000    2.000    4.286    0.857    0.000    1.143 
#    5.143    0.000    0.000    8.571    0.000    0.000 
#    0.000    0.000    0.000    0.000    0.000    0.000 
#
# Total GULP energy -347052.935560 kJ/mol
# GULP energy per Si atom -12394.747699 kJ/mol
# Density = 1.914200 g / cm^3
# Si number density = 19.185672 Si / 1000 Ang^3
#
#
#
# Elastic Constant Matrix: (Units=GPa)
#
#
# Indices 1 2 3 4 5 6 
#
# 1 95.9107 63.7449 17.8707 0.0000 8.0073 0.0000
# 2 63.7449 148.2559 29.8901 0.0000 0.9669 0.0000
# 3 17.8707 29.8901 34.2251 0.0000 5.9856 0.0000
# 4 0.0000 0.0000 0.0000 30.2435 0.0000 -1.6927
# 5 8.0073 0.9669 5.9856 0.0000 15.3986 0.0000
# 6 0.0000 0.0000 0.0000 -1.6927 0.0000 47.2572
#
#
#
# Elastic Compliance Matrix: (Units=1/GPa)
#
#
# Indices 1 2 3 4 5 6 
#
# 1 0.015485 -0.006352 -0.001287 0.000000 -0.007153 0.000000
# 2 -0.006352 0.010878 -0.007126 0.000000 0.005390 0.000000
# 3 -0.001287 -0.007126 0.038538 0.000000 -0.013863 0.000000
# 4 0.000000 0.000000 0.000000 0.033131 0.000000 0.001187
# 5 -0.007153 0.005390 -0.013863 0.000000 0.073711 0.000000
# 6 0.000000 0.000000 0.000000 0.001187 0.000000 0.021203
#
#
# Mechanical properties :
#
#
# Convention : Reuss Voigt Hill
#
# Bulk Modulus (GPa) = 28.27169 55.71146 41.99158
# Shear Modulus (GPa) = 21.34318 29.70559 25.52438
#
# Velocity S-wave (km/s) = 3.33897 3.93914 3.65141
# Velocity P-wave (km/s) = 5.44360 7.05622 6.30170
#
# Compressibility (1/GPa) = 0.03537108
#
# Stress axis : x y z
#
# Youngs Moduli (GPa) = 64.57866 91.93139 25.94821
#
# Poissons Ratio (x) = 0.58393 0.03340
# Poissons Ratio (y) = 0.41019 0.18490
# Poissons Ratio (z) = 0.08313 0.65509
#
# Static dielectric constant tensor:
#      x y z
#    x 3.738300 0.000000 -0.221250 
#    y 0.000000 4.252390 0.000000 
#    z -0.221250 0.000000 4.583340 
# 
# 
# High freq. dielectric constant tensor:
#      x y z
#    x 1.747060 0.000000 0.018430 
#    y 0.000000 1.770800 0.000000 
#    z 0.018430 0.000000 1.700780 
# 
# From -- ./inp_files/34077.got.cif
#   From: 2010.03.12/outbox.cif.g09.slc.cpg/sg14_18_cif.got.tgz:34077.got - 2010.03.31 13:35:05.
