data_PCOD8123051
_publ_section_title
;
Structure prediction by ZEFSAII (Michael W. Deem and Ramdas Pophale) SiO2 
 PCOD8123051
Probable space group: P 2/C
;
_chemical_formula_sum "Si O2"
_cell_formula_units_Z 20
_cell_length_a 4.930686
_cell_length_b 9.024703
_cell_length_c 20.077337
_cell_angle_alpha 90.000000
_cell_angle_beta 93.304648
_cell_angle_gamma 90.000000
_cell_volume 891.915277
_symmetry_space_group_name_H-M "P 2/C"
_symmetry_group_IT_number 13
_symmetry_cell_setting 'monoclinic'
loop_
_space_group_symop_operation_xyz
x,y,z
-x,y,1/2-z
-x,-y,-z
x,-y,1/2+z
loop_
_atom_site_type_symbol
_atom_site_label
_atom_site_fract_x
_atom_site_fract_y
_atom_site_fract_z
Si Si1 0.050276 0.990778 0.580250
Si Si2 0.381173 0.353946 0.528121
Si Si3 0.912403 0.691479 0.108507
Si Si4 0.586802 0.805145 0.603820
Si Si5 0.253145 0.450832 0.293203
O O1 0.290393 0.876625 0.600943
O O2 0.800148 0.933792 0.621690
O O3 0.000000 0.000000 0.500000
O O4 0.087350 0.154836 0.612665
O O5 0.500000 0.500000 0.500000
O O6 0.612351 0.277204 0.576565
O O7 0.316968 0.240699 0.468617
O O8 0.108198 0.404532 0.562899
O O9 0.874981 0.599005 0.175613
O O10 0.615409 0.665904 0.653583
O O11 0.500000 0.502107 0.250000
O O12 0.000000 0.376763 0.250000
#
# Coordination Sequence:
#
# PCOD8123051 Si02
#       5
#     4   4   4   4   4
#     4  12  23  41  67 113 147 173 206 285 374 443
#     4  12  22  37  68 109 138 171 219 293 359 417
#     4  12  25  41  70 103 143 174 225 287 355 418
#     4  12  24  42  70 102 145 177 225 284 355 424
#     4  12  28  49  69  96 134 196 256 291 324 399
#
# _framework density 22.423653999999999
#
# number of rings (size 3 to 8) (size 9 to 14) (size 15 to 20)
#    0.000    0.000    6.000    4.800    2.800    0.000 
#    0.000    4.000    0.000    0.000    0.000    0.000 
#    0.000    0.000    0.000    0.000    0.000    0.000 
#
# Total GULP energy -247847.156778 kJ/mol
# GULP energy per Si atom -12392.357839 kJ/mol
# Density = 2.237262 g / cm^3
# Si number density = 22.423654 Si / 1000 Ang^3
#
#
#
# Elastic Constant Matrix: (Units=GPa)
#
#
# Indices 1 2 3 4 5 6 
#
# 1 142.5014 33.0006 60.3647 0.0000 -8.9284 0.0000
# 2 33.0006 117.9952 46.0338 0.0000 -7.2744 0.0000
# 3 60.3647 46.0338 103.1668 0.0000 -12.5412 0.0000
# 4 0.0000 0.0000 0.0000 14.5902 0.0000 -6.3278
# 5 -8.9284 -7.2744 -12.5412 0.0000 43.1353 0.0000
# 6 0.0000 0.0000 0.0000 -6.3278 0.0000 42.4730
#
#
#
# Elastic Compliance Matrix: (Units=1/GPa)
#
#
# Indices 1 2 3 4 5 6 
#
# 1 0.009368 -0.000577 -0.005183 0.000000 0.000335 0.000000
# 2 -0.000577 0.010304 -0.004212 0.000000 0.000394 0.000000
# 3 -0.005183 -0.004212 0.014916 0.000000 0.002553 0.000000
# 4 0.000000 0.000000 0.000000 0.073274 0.000000 0.010917
# 5 0.000335 0.000394 0.002553 0.000000 0.024061 0.000000
# 6 0.000000 0.000000 0.000000 0.010917 0.000000 0.025171
#
#
# Mechanical properties :
#
#
# Convention : Reuss Voigt Hill
#
# Bulk Modulus (GPa) = 68.29399 71.38464 69.83931
# Shear Modulus (GPa) = 27.48497 34.99065 31.23781
#
# Velocity S-wave (km/s) = 3.50482 3.95452 3.73644
# Velocity P-wave (km/s) = 6.84841 7.26324 7.05887
#
# Compressibility (1/GPa) = 0.01464258
#
# Stress axis : x y z
#
# Youngs Moduli (GPa) = 106.75033 97.05070 67.04434
#
# Poissons Ratio (x) = 0.05602 0.34748
# Poissons Ratio (y) = 0.06162 0.28239
# Poissons Ratio (z) = 0.55328 0.40878
#
# Static dielectric constant tensor:
#      x y z
#    x 4.318310 0.000000 -0.147900 
#    y 0.000000 3.942570 0.000000 
#    z -0.147900 0.000000 3.902010 
# 
# 
# High freq. dielectric constant tensor:
#      x y z
#    x 1.909680 0.000000 -0.016290 
#    y 0.000000 1.892050 0.000000 
#    z -0.016290 0.000000 1.852200 
# 
# From -- ./inp_files/73036.got.cif
#   From: 2010.06.25/outbox.cif.g09.slc.cpg/sg13_37_cif.got.tgz:73036.got - 2010.06.28 04:50:58.
