data_PCOD8123599
_publ_section_title
;
Structure prediction by ZEFSAII (Michael W. Deem and Ramdas Pophale) SiO2 
 PCOD8123599
Probable space group: P 21/C
;
_chemical_formula_sum "Si O2"
_cell_formula_units_Z 32
_cell_length_a 17.974224
_cell_length_b 14.258704
_cell_length_c 20.536795
_cell_angle_alpha 90.000000
_cell_angle_beta 160.466843
_cell_angle_gamma 90.000000
_cell_volume 1759.815740
_symmetry_space_group_name_H-M "P 21/C"
_symmetry_group_IT_number 14
_symmetry_cell_setting 'monoclinic'
loop_
_space_group_symop_operation_xyz
x,y,z
-x,1/2+y,1/2-z
-x,-y,-z
x,1/2-y,1/2+z
loop_
_atom_site_type_symbol
_atom_site_label
_atom_site_fract_x
_atom_site_fract_y
_atom_site_fract_z
Si Si1 0.123118 0.232044 0.903955
Si Si2 0.720997 0.841242 0.354688
Si Si3 0.457771 0.904811 0.890861
Si Si4 0.225732 0.671459 0.479194
Si Si5 0.612450 0.286391 0.779965
Si Si6 0.219852 0.413257 0.232217
Si Si7 0.820847 0.039233 0.493935
Si Si8 0.145397 0.032658 0.875198
O O1 0.099306 0.119437 0.885547
O O2 0.948516 0.277255 0.710927
O O3 0.105652 0.274831 0.962575
O O4 0.368639 0.259411 0.081408
O O5 0.802546 0.843397 0.347350
O O6 0.719124 0.944434 0.383421
O O7 0.468315 0.804111 0.149844
O O8 0.346608 0.815119 0.762383
O O9 0.264395 0.980266 0.744758
O O10 0.571683 0.875926 0.052743
O O11 0.643413 0.951336 0.997219
O O12 0.214266 0.712694 0.544063
O O13 0.177898 0.561005 0.444005
O O14 0.624781 0.382866 0.833759
O O15 0.997559 0.412980 0.090576
O O16 0.925385 0.019718 0.650121
#
# Coordination Sequence:
#
# PCOD8123599 Si02
#       8
#     4   4   4   4   4   4   4   4
#     4  10  21  33  51  72 104 142 179 219 258 305
#     4  11  20  32  49  79 108 142 174 203 257 324
#     4   9  18  31  48  76 114 140 171 206 250 328
#     4  11  20  34  53  71 105 145 176 220 256 307
#     4  10  20  33  49  74 104 142 180 206 256 310
#     4  10  19  30  51  80 113 149 162 200 273 320
#     4  11  19  31  53  78 117 139 165 210 261 328
#     4  10  18  34  50  74 109 139 174 222 260 297
#
# _framework density 18.183723000000001
#
# number of rings (size 3 to 8) (size 9 to 14) (size 15 to 20)
#    0.000    1.750    5.000    1.125    0.000    0.000 
#    0.000    0.000    0.000    0.000    0.000    1.750 
#    0.000    0.125    0.000    0.000    0.000    0.000 
#
# Total GULP energy -396582.475358 kJ/mol
# GULP energy per Si atom -12393.202355 kJ/mol
# Density = 1.814234 g / cm^3
# Si number density = 18.183723 Si / 1000 Ang^3
#
#
#
# Elastic Constant Matrix: (Units=GPa)
#
#
# Indices 1 2 3 4 5 6 
#
# 1 74.9607 40.7109 30.1492 0.0000 -32.1946 0.0000
# 2 40.7109 104.2162 31.5154 0.0000 -24.2597 0.0000
# 3 30.1492 31.5154 92.4188 0.0000 -26.5129 0.0000
# 4 0.0000 0.0000 0.0000 30.6534 0.0000 -9.7179
# 5 -32.1946 -24.2597 -26.5129 0.0000 35.1232 0.0000
# 6 0.0000 0.0000 0.0000 -9.7179 0.0000 33.7765
#
#
#
# Elastic Compliance Matrix: (Units=1/GPa)
#
#
# Indices 1 2 3 4 5 6 
#
# 1 0.024146 -0.004942 -0.001049 0.000000 0.017927 0.000000
# 2 -0.004942 0.012769 -0.001929 0.000000 0.002833 0.000000
# 3 -0.001049 -0.001929 0.014248 0.000000 0.008461 0.000000
# 4 0.000000 0.000000 0.000000 0.035897 0.000000 0.010328
# 5 0.017927 0.002833 0.008461 0.000000 0.053248 0.000000
# 6 0.000000 0.000000 0.000000 0.010328 0.000000 0.032578
#
#
# Mechanical properties :
#
#
# Convention : Reuss Voigt Hill
#
# Bulk Modulus (GPa) = 28.31070 52.92742 40.61906
# Shear Modulus (GPa) = 24.93784 31.19197 28.06491
#
# Velocity S-wave (km/s) = 3.70731 4.14621 3.93289
# Velocity P-wave (km/s) = 5.82482 7.21745 6.55821
#
# Compressibility (1/GPa) = 0.03532234
#
# Stress axis : x y z
#
# Youngs Moduli (GPa) = 41.41537 78.31517 70.18733
#
# Poissons Ratio (x) = 0.38703 0.07361
# Poissons Ratio (y) = 0.20467 0.13541
# Poissons Ratio (z) = 0.04343 0.15109
#
# Static dielectric constant tensor:
#      x y z
#    x 3.287770 0.000000 -0.396430 
#    y 0.000000 3.387840 0.000000 
#    z -0.396430 0.000000 3.705440 
# 
# 
# High freq. dielectric constant tensor:
#      x y z
#    x 1.661880 0.000000 -0.033800 
#    y 0.000000 1.681210 0.000000 
#    z -0.033800 0.000000 1.734380 
# 
# From -- ./inp_files/69431.got.cif
#   From: 2010.03.12/outbox.cif.g09.slc.cpg/sg14_35_cif.got.tgz:69431.got - 2010.03.31 13:35:05.
