data_PCOD8123688
_publ_section_title
;
Structure prediction by ZEFSAII (Michael W. Deem and Ramdas Pophale) SiO2 
 PCOD8123688
Probable space group: P 21/C
;
_chemical_formula_sum "Si O2"
_cell_formula_units_Z 28
_cell_length_a 10.986464
_cell_length_b 13.434703
_cell_length_c 13.369701
_cell_angle_alpha 90.000000
_cell_angle_beta 39.997898
_cell_angle_gamma 90.000000
_cell_volume 1268.399931
_symmetry_space_group_name_H-M "P 21/C"
_symmetry_group_IT_number 14
_symmetry_cell_setting 'monoclinic'
loop_
_space_group_symop_operation_xyz
x,y,z
-x,1/2+y,1/2-z
-x,-y,-z
x,1/2-y,1/2+z
loop_
_atom_site_type_symbol
_atom_site_label
_atom_site_fract_x
_atom_site_fract_y
_atom_site_fract_z
Si Si1 0.999565 0.470566 0.748861
Si Si2 0.308392 0.844563 0.644900
Si Si3 0.683372 0.659904 0.508667
Si Si4 0.999914 0.673325 0.065758
Si Si5 0.995300 0.821480 0.342070
Si Si6 0.389628 0.729233 0.303143
Si Si7 0.400170 0.271574 0.641582
O O1 0.176742 0.434669 0.567043
O O2 0.010622 0.417269 0.849943
O O3 0.803480 0.444244 0.815169
O O4 0.010119 0.588033 0.755078
O O5 0.373544 0.847190 0.720181
O O6 0.491173 0.830977 0.457524
O O7 0.173413 0.749580 0.712736
O O8 0.804346 0.762026 0.438349
O O9 0.514728 0.671182 0.695622
O O10 0.583958 0.653217 0.462322
O O11 0.820833 0.747452 0.194155
O O12 0.996860 0.634622 0.953750
O O13 0.185690 0.737402 0.970660
O O14 0.497433 0.676665 0.327554
#
# Coordination Sequence:
#
# PCOD8123688 Si02
#       7
#     4   4   4   4   4   4   4
#     4  10  19  35  56  83 114 144 185 228 269 329
#     4   9  20  35  56  83 108 151 181 219 287 318
#     4   9  20  35  56  83 108 151 181 219 287 318
#     4  10  19  32  58  84 107 146 189 224 274 320
#     4  10  19  35  56  83 114 144 185 228 269 329
#     4  10  18  35  59  81 110 143 185 228 269 330
#     4  10  18  35  59  81 110 143 185 228 269 330
#
# _framework density 22.075054999999999
#
# number of rings (size 3 to 8) (size 9 to 14) (size 15 to 20)
#    0.000    2.286    2.857    0.429    0.000    0.000 
#    0.000   15.714    0.000    1.714    0.000    0.000 
#    0.000    0.000    0.000    0.000    0.000    0.000 
#
# Total GULP energy -346991.210801 kJ/mol
# GULP energy per Si atom -12392.543243 kJ/mol
# Density = 2.202481 g / cm^3
# Si number density = 22.075055 Si / 1000 Ang^3
#
#
#
# Elastic Constant Matrix: (Units=GPa)
#
#
# Indices 1 2 3 4 5 6 
#
# 1 118.1840 14.3260 28.8701 0.0000 -4.4917 0.0000
# 2 14.3260 40.8035 3.1769 0.0000 -2.0590 0.0000
# 3 28.8701 3.1769 92.5583 0.0000 -23.3546 0.0000
# 4 0.0000 0.0000 0.0000 11.5015 0.0000 1.6423
# 5 -4.4917 -2.0590 -23.3546 0.0000 37.9823 0.0000
# 6 0.0000 0.0000 0.0000 1.6423 0.0000 15.5386
#
#
#
# Elastic Compliance Matrix: (Units=1/GPa)
#
#
# Indices 1 2 3 4 5 6 
#
# 1 0.009570 -0.003166 -0.003118 0.000000 -0.000957 0.000000
# 2 -0.003166 0.025650 0.000430 0.000000 0.001281 0.000000
# 3 -0.003118 0.000430 0.013819 0.000000 0.008151 0.000000
# 4 0.000000 0.000000 0.000000 0.088277 0.000000 -0.009330
# 5 -0.000957 0.001281 0.008151 0.000000 0.031296 0.000000
# 6 0.000000 0.000000 0.000000 -0.009330 0.000000 0.065342
#
#
# Mechanical properties :
#
#
# Convention : Reuss Voigt Hill
#
# Bulk Modulus (GPa) = 26.78650 38.25467 32.52058
# Shear Modulus (GPa) = 19.37187 26.68267 23.02727
#
# Velocity S-wave (km/s) = 2.96555 3.48044 3.23326
# Velocity P-wave (km/s) = 4.88740 5.78950 5.35747
#
# Compressibility (1/GPa) = 0.03733224
#
# Stress axis : x y z
#
# Youngs Moduli (GPa) = 104.48885 38.98592 72.36659
#
# Poissons Ratio (x) = 0.12342 0.22563
# Poissons Ratio (y) = 0.33078 -0.03113
# Poissons Ratio (z) = 0.32579 -0.01677
#
# Static dielectric constant tensor:
#      x y z
#    x 4.455820 0.000000 -0.078920 
#    y 0.000000 3.177780 0.000000 
#    z -0.078920 0.000000 4.303280 
# 
# 
# High freq. dielectric constant tensor:
#      x y z
#    x 1.894990 0.000000 -0.005680 
#    y 0.000000 1.786810 0.000000 
#    z -0.005680 0.000000 1.883400 
# 
# From -- ./inp_files/44901.got.cif
#   From: 2010.03.12/outbox.cif.g09.slc.cpg/sg14_23_cif.got.tgz:44901.got - 2010.03.31 13:35:05.
