data_PCOD8123115
_publ_section_title
;
Structure prediction by ZEFSAII (Michael W. Deem and Ramdas Pophale) SiO2 
 PCOD8123115
Probable space group: P 2/C
;
_chemical_formula_sum "Si O2"
_cell_formula_units_Z 12
_cell_length_a 12.568624
_cell_length_b 4.932001
_cell_length_c 23.995978
_cell_angle_alpha 90.000000
_cell_angle_beta 20.430934
_cell_angle_gamma 90.000000
_cell_volume 519.244456
_symmetry_space_group_name_H-M "P 2/C"
_symmetry_group_IT_number 13
_symmetry_cell_setting 'monoclinic'
loop_
_space_group_symop_operation_xyz
x,y,z
-x,y,1/2-z
-x,-y,-z
x,-y,1/2+z
loop_
_atom_site_type_symbol
_atom_site_label
_atom_site_fract_x
_atom_site_fract_y
_atom_site_fract_z
Si Si1 0.264169 0.308624 0.769869
Si Si2 0.335882 0.254860 0.606176
Si Si3 0.922752 0.156583 0.480762
O O1 0.364975 0.327607 0.656903
O O2 0.124988 0.575652 0.868110
O O3 0.566607 0.228335 0.655959
O O4 0.011246 0.069644 0.891875
O O5 0.500000 0.500000 0.500000
O O6 0.000000 0.236074 0.750000
O O7 0.500000 0.000000 0.500000
O O8 0.000000 0.000000 0.500000
#
# Coordination Sequence:
#
# PCOD8123115 Si02
#       3
#     4   4   4
#     4  12  25  46  69 101 138 178 226 283 337 405
#     4  12  24  43  70 103 137 178 223 277 342 409
#     4  12  26  45  69  98 135 182 228 280 340 400
#
# _framework density 23.110502
#
# number of rings (size 3 to 8) (size 9 to 14) (size 15 to 20)
#    0.000    0.000    0.000   11.000    0.000    2.667 
#    0.000    0.000    0.000    0.000    0.000    0.000 
#    0.000    0.000    0.000    0.000    0.000    0.000 
#
# Total GULP energy -148670.893904 kJ/mol
# GULP energy per Si atom -12389.241159 kJ/mol
# Density = 2.305790 g / cm^3
# Si number density = 23.110502 Si / 1000 Ang^3
#
#
#
# Elastic Constant Matrix: (Units=GPa)
#
#
# Indices 1 2 3 4 5 6 
#
# 1 124.6467 41.4738 48.8787 0.0001 2.2590 0.0000
# 2 41.4738 219.2435 91.0722 0.0000 -4.3386 0.0000
# 3 48.8787 91.0722 132.6357 0.0001 -0.7420 0.0000
# 4 0.0001 0.0000 0.0001 98.7692 -0.0001 8.0493
# 5 2.2590 -4.3386 -0.7420 -0.0001 39.4660 0.0000
# 6 0.0000 0.0000 0.0000 8.0493 0.0000 34.6832
#
#
#
# Elastic Compliance Matrix: (Units=1/GPa)
#
#
# Indices 1 2 3 4 5 6 
#
# 1 0.009430 -0.000492 -0.003141 0.000000 -0.000653 0.000000
# 2 -0.000492 0.006422 -0.004225 0.000000 0.000655 0.000000
# 3 -0.003141 -0.004225 0.011597 0.000000 -0.000067 0.000000
# 4 0.000000 0.000000 0.000000 0.010320 0.000000 -0.002395
# 5 -0.000653 0.000655 -0.000067 0.000000 0.025446 0.000000
# 6 0.000000 0.000000 0.000000 -0.002395 0.000000 0.029388
#
#
# Mechanical properties :
#
#
# Convention : Reuss Voigt Hill
#
# Bulk Modulus (GPa) = 85.22120 93.26391 89.24255
# Shear Modulus (GPa) = 44.55133 54.25709 49.40421
#
# Velocity S-wave (km/s) = 4.39538 4.85059 4.62858
# Velocity P-wave (km/s) = 7.91926 8.47433 8.20149
#
# Compressibility (1/GPa) = 0.01173417
#
# Stress axis : x y z
#
# Youngs Moduli (GPa) = 106.04588 155.71369 86.22698
#
# Poissons Ratio (x) = 0.07662 0.27083
# Poissons Ratio (y) = 0.05218 0.36427
# Poissons Ratio (z) = 0.33308 0.65783
#
# Static dielectric constant tensor:
#      x y z
#    x 3.670030 0.000000 -0.052450 
#    y 0.000000 4.748640 0.000000 
#    z -0.052450 0.000000 4.947710 
# 
# 
# High freq. dielectric constant tensor:
#      x y z
#    x 1.919380 0.000000 0.010830 
#    y 0.000000 1.940180 0.000000 
#    z 0.010830 0.000000 1.950400 
# 
# From -- ./inp_files/14007.got.cif
#   From: 2010.06.25/outbox.cif.g09.slc.cpg/sg13_8_cif.got.tgz:14007.got - 2010.06.28 04:50:58.
