data_PCOD8123351
_publ_section_title
;
Structure prediction by ZEFSAII (Michael W. Deem and Ramdas Pophale) SiO2 
 PCOD8123351
Probable space group: P 21/C
;
_chemical_formula_sum "Si O2"
_cell_formula_units_Z 28
_cell_length_a 17.771081
_cell_length_b 7.631761
_cell_length_c 25.895799
_cell_angle_alpha 90.000000
_cell_angle_beta 152.181432
_cell_angle_gamma 90.000000
_cell_volume 1639.007205
_symmetry_space_group_name_H-M "P 21/C"
_symmetry_group_IT_number 14
_symmetry_cell_setting 'monoclinic'
loop_
_space_group_symop_operation_xyz
x,y,z
-x,1/2+y,1/2-z
-x,-y,-z
x,1/2-y,1/2+z
loop_
_atom_site_type_symbol
_atom_site_label
_atom_site_fract_x
_atom_site_fract_y
_atom_site_fract_z
Si Si1 0.484061 0.690759 0.150213
Si Si2 0.167534 0.999999 0.719784
Si Si3 0.396724 0.297767 0.887884
Si Si4 0.515940 0.690759 0.849788
Si Si5 0.603278 0.202230 0.612118
Si Si6 0.800383 0.000001 0.484571
Si Si7 0.693634 0.500000 0.808095
O O1 0.491726 0.740332 0.094304
O O2 0.568898 0.500000 0.210105
O O3 0.296447 0.673325 0.053897
O O4 0.577448 0.831648 0.241066
O O5 0.239761 0.825213 0.789538
O O6 0.977869 0.000002 0.615806
O O7 0.239765 0.174782 0.789541
O O8 0.197055 0.000001 0.676299
O O9 0.340481 0.499998 0.857277
O O10 0.500003 0.242794 0.000001
O O11 0.508274 0.740331 0.905696
O O12 0.703553 0.673323 0.946104
O O13 0.422554 0.831649 0.758936
O O14 0.809081 0.000001 0.427670
#
# Coordination Sequence:
#
# PCOD8123351 Si02
#       7
#     4   4   4   4   4   4   4
#     4   8  18  31  50  72  93 123 165 194 222 286
#     4  10  20  32  48  77  97 120 157 203 239 273
#     4   9  17  34  56  68  90 129 165 189 230 292
#     4   8  18  31  50  72  93 123 165 194 222 286
#     4   9  17  34  56  68  90 129 165 189 230 292
#     4  10  19  33  46  73 107 116 153 211 234 263
#     4  10  17  33  53  66  92 140 161 178 234 292
#
# _framework density 17.083511999999999
#
# number of rings (size 3 to 8) (size 9 to 14) (size 15 to 20)
#    0.857    2.000    0.000    1.714    0.000    0.000 
#    2.571    1.429    0.000    6.857    0.000    0.000 
#    0.000    0.000    0.000    0.000    0.000    0.000 
#
# Total GULP energy -346995.982980 kJ/mol
# GULP energy per Si atom -12392.713678 kJ/mol
# Density = 1.704463 g / cm^3
# Si number density = 17.083512 Si / 1000 Ang^3
#
#
#
# Elastic Constant Matrix: (Units=GPa)
#
#
# Indices 1 2 3 4 5 6 
#
# 1 42.9711 22.5234 40.4192 0.0000 0.7211 0.0000
# 2 22.5234 85.7484 50.2704 0.0000 0.3767 0.0000
# 3 40.4192 50.2704 115.6388 0.0000 1.9803 0.0000
# 4 0.0000 0.0000 0.0000 10.5208 0.0000 -3.5540
# 5 0.7211 0.3767 1.9803 0.0000 30.1719 0.0000
# 6 0.0000 0.0000 0.0000 -3.5540 0.0000 18.4909
#
#
#
# Elastic Compliance Matrix: (Units=1/GPa)
#
#
# Indices 1 2 3 4 5 6 
#
# 1 0.035138 -0.002724 -0.011096 0.000000 -0.000078 0.000000
# 2 -0.002724 0.015864 -0.005949 0.000000 0.000257 0.000000
# 3 -0.011096 -0.005949 0.015123 0.000000 -0.000653 0.000000
# 4 0.000000 0.000000 0.000000 0.101650 0.000000 0.019537
# 5 -0.000078 0.000257 -0.000653 0.000000 0.033185 0.000000
# 6 0.000000 0.000000 0.000000 0.019537 0.000000 0.057836
#
#
# Mechanical properties :
#
#
# Convention : Reuss Voigt Hill
#
# Bulk Modulus (GPa) = 37.61210 52.30936 44.96073
# Shear Modulus (GPa) = 16.27629 20.57974 18.42802
#
# Velocity S-wave (km/s) = 3.09001 3.47458 3.28792
# Velocity P-wave (km/s) = 5.89875 6.83982 6.38665
#
# Compressibility (1/GPa) = 0.02658719
#
# Stress axis : x y z
#
# Youngs Moduli (GPa) = 28.45941 63.03661 66.12358
#
# Poissons Ratio (x) = 0.17172 0.73372
# Poissons Ratio (y) = 0.07753 0.39334
# Poissons Ratio (z) = 0.31579 0.37498
#
# Static dielectric constant tensor:
#      x y z
#    x 3.143280 0.000000 -0.154320 
#    y 0.000000 3.232310 0.000000 
#    z -0.154320 0.000000 2.866620 
# 
# 
# High freq. dielectric constant tensor:
#      x y z
#    x 1.656730 0.000000 -0.019220 
#    y 0.000000 1.660680 0.000000 
#    z -0.019220 0.000000 1.632080 
# 
# From -- ./inp_files/77938.got.cif
#   From: 2010.03.12/outbox.cif.g09.slc.cpg/sg14_39_cif.got.tgz:77938.got - 2010.03.31 13:35:05.
