data_PCOD8123902
_publ_section_title
;
Structure prediction by ZEFSAII (Michael W. Deem and Ramdas Pophale) SiO2 
 PCOD8123902
Probable space group: P 21/C
;
_chemical_formula_sum "Si O2"
_cell_formula_units_Z 32
_cell_length_a 19.474816
_cell_length_b 17.021804
_cell_length_c 13.187703
_cell_angle_alpha 90.000000
_cell_angle_beta 158.519436
_cell_angle_gamma 90.000000
_cell_volume 1600.845256
_symmetry_space_group_name_H-M "P 21/C"
_symmetry_group_IT_number 14
_symmetry_cell_setting 'monoclinic'
loop_
_space_group_symop_operation_xyz
x,y,z
-x,1/2+y,1/2-z
-x,-y,-z
x,1/2-y,1/2+z
loop_
_atom_site_type_symbol
_atom_site_label
_atom_site_fract_x
_atom_site_fract_y
_atom_site_fract_z
Si Si1 0.816958 0.967379 0.625635
Si Si2 0.755057 0.016658 0.756185
Si Si3 0.401142 0.835466 0.370366
Si Si4 0.749775 0.799724 0.579224
Si Si5 0.653072 0.236316 0.911603
Si Si6 0.207417 0.347330 0.634821
Si Si7 0.871416 0.281782 0.904527
Si Si8 0.814162 0.373887 0.012476
O O1 0.739545 0.879287 0.494534
O O2 0.708531 0.003545 0.573441
O O3 0.791462 0.032579 0.500912
O O4 0.033420 0.951406 0.946590
O O5 0.609178 0.075153 0.607448
O O6 0.734521 0.937906 0.791597
O O7 0.348400 0.829161 0.178772
O O8 0.616774 0.802844 0.677842
O O9 0.256792 0.791275 0.242275
O O10 0.543496 0.761142 0.296643
O O11 0.818108 0.824345 0.784193
O O12 0.910484 0.736810 0.768540
O O13 0.824503 0.208653 0.220531
O O14 0.671639 0.322672 0.885312
O O15 0.013542 0.334464 0.312747
O O16 0.798335 0.357052 0.869854
#
# Coordination Sequence:
#
# PCOD8123902 Si02
#       8
#     4   4   4   4   4   4   4   4
#     4   9  17  32  55  83 109 140 184 232 277 320
#     4   9  15  28  54  82 108 137 169 229 280 316
#     4  10  19  31  51  82 110 140 177 221 277 325
#     4  10  19  36  59  79 108 149 181 228 284 322
#     4  10  22  36  53  80 112 145 183 223 276 339
#     4   9  18  31  53  83 109 132 179 228 275 321
#     4  11  21  35  54  79 113 145 182 225 274 332
#     4  10  20  35  54  81 112 143 179 236 272 325
#
# _framework density 19.989439000000001
#
# number of rings (size 3 to 8) (size 9 to 14) (size 15 to 20)
#    0.000    2.250    2.500    1.875    1.750    0.000 
#    0.000    0.625    0.000    3.000    0.000    0.000 
#    0.000    0.000    0.000    0.000    0.000    0.000 
#
# Total GULP energy -396443.717295 kJ/mol
# GULP energy per Si atom -12388.866165 kJ/mol
# Density = 1.994394 g / cm^3
# Si number density = 19.989439 Si / 1000 Ang^3
#
#
#
# Elastic Constant Matrix: (Units=GPa)
#
#
# Indices 1 2 3 4 5 6 
#
# 1 60.0461 16.2422 16.5079 0.0000 10.2635 0.0000
# 2 16.2422 42.4565 17.2188 0.0000 15.7167 0.0000
# 3 16.5079 17.2188 69.6947 0.0000 16.9148 0.0000
# 4 0.0000 0.0000 0.0000 22.3873 0.0000 5.0465
# 5 10.2635 15.7167 16.9148 0.0000 27.7631 0.0000
# 6 0.0000 0.0000 0.0000 5.0465 0.0000 30.9115
#
#
#
# Elastic Compliance Matrix: (Units=1/GPa)
#
#
# Indices 1 2 3 4 5 6 
#
# 1 0.019256 -0.005386 -0.002632 0.000000 -0.002466 0.000000
# 2 -0.005386 0.032205 -0.003215 0.000000 -0.014281 0.000000
# 3 -0.002632 -0.003215 0.017706 0.000000 -0.007995 0.000000
# 4 0.000000 0.000000 0.000000 0.046375 0.000000 -0.007571
# 5 -0.002466 -0.014281 -0.007995 0.000000 0.049886 0.000000
# 6 0.000000 0.000000 0.000000 -0.007571 0.000000 0.033586
#
#
# Mechanical properties :
#
#
# Convention : Reuss Voigt Hill
#
# Bulk Modulus (GPa) = 21.41266 30.23722 25.82494
# Shear Modulus (GPa) = 21.09289 24.36093 22.72691
#
# Velocity S-wave (km/s) = 3.25191 3.49476 3.37552
# Velocity P-wave (km/s) = 4.98349 5.60749 5.30467
#
# Compressibility (1/GPa) = 0.04670135
#
# Stress axis : x y z
#
# Youngs Moduli (GPa) = 51.93219 31.05147 56.47742
#
# Poissons Ratio (x) = 0.16725 0.14863
# Poissons Ratio (y) = 0.27973 0.18155
# Poissons Ratio (z) = 0.13667 0.09982
#
# Static dielectric constant tensor:
#      x y z
#    x 3.640830 0.000000 0.235020 
#    y 0.000000 3.506540 0.000000 
#    z 0.235020 0.000000 3.622500 
# 
# 
# High freq. dielectric constant tensor:
#      x y z
#    x 1.777430 0.000000 0.024100 
#    y 0.000000 1.757800 0.000000 
#    z 0.024100 0.000000 1.764120 
# 
# From -- ./inp_files/50784.got.cif
#   From: 2010.03.12/outbox.cif.g09.slc.cpg/sg14_26_cif.got.tgz:50784.got - 2010.03.31 13:35:05.
