data_PCOD8123260
_publ_section_title
;
Structure prediction by ZEFSAII (Michael W. Deem and Ramdas Pophale) SiO2 
 PCOD8123260
Probable space group: P 21/C
;
_chemical_formula_sum "Si O2"
_cell_formula_units_Z 24
_cell_length_a 18.126535
_cell_length_b 5.202844
_cell_length_c 18.261366
_cell_angle_alpha 90.000000
_cell_angle_beta 47.574860
_cell_angle_gamma 90.000000
_cell_volume 1271.273561
_symmetry_space_group_name_H-M "P 21/C"
_symmetry_group_IT_number 14
_symmetry_cell_setting 'monoclinic'
loop_
_space_group_symop_operation_xyz
x,y,z
-x,1/2+y,1/2-z
-x,-y,-z
x,1/2-y,1/2+z
loop_
_atom_site_type_symbol
_atom_site_label
_atom_site_fract_x
_atom_site_fract_y
_atom_site_fract_z
Si Si1 0.967446 0.843643 0.813482
Si Si2 0.244654 0.090212 0.240812
Si Si3 0.432394 0.118783 0.378129
Si Si4 0.443487 0.118919 0.200392
Si Si5 0.141572 0.582891 0.287633
Si Si6 0.235605 0.184069 0.597725
O O1 0.848014 0.803195 0.901104
O O2 0.017668 0.583282 0.750174
O O3 0.021084 0.897730 0.856428
O O4 0.346304 0.094879 0.216755
O O5 0.172840 0.329168 0.312850
O O6 0.269047 0.108197 0.137386
O O7 0.185807 0.829730 0.298974
O O8 0.410763 0.108906 0.306522
O O9 0.483086 0.384904 0.367757
O O10 0.327752 0.087472 0.488702
O O11 0.502899 0.885179 0.355441
O O12 0.187634 0.557329 0.174039
#
# Coordination Sequence:
#
# PCOD8123260 Si02
#       6
#     4   4   4   4   4   4
#     4  10  16  30  49  75 105 129 155 199 252 299
#     4  10  19  32  52  75 101 132 161 206 253 289
#     4  10  22  37  53  70 100 134 176 200 245 301
#     4  10  22  38  51  70 100 141 164 206 251 294
#     4   9  18  31  49  79 102 127 159 202 254 292
#     4   9  21  30  55  78 100 127 170 208 241 291
#
# _framework density 18.878708
#
# number of rings (size 3 to 8) (size 9 to 14) (size 15 to 20)
#    1.000    1.333    1.667    1.000    2.333    1.333 
#    0.000    0.000    0.000    2.000    0.000    0.000 
#    0.000    0.000    0.000    0.000    0.000    0.000 
#
# Total GULP energy -297388.905913 kJ/mol
# GULP energy per Si atom -12391.204413 kJ/mol
# Density = 1.883574 g / cm^3
# Si number density = 18.878708 Si / 1000 Ang^3
#
#
#
# Elastic Constant Matrix: (Units=GPa)
#
#
# Indices 1 2 3 4 5 6 
#
# 1 129.2996 26.8742 44.3579 0.0000 -36.3967 0.0000
# 2 26.8742 105.5529 11.3246 0.0000 -3.1350 0.0000
# 3 44.3579 11.3246 -4.6481 0.0000 -5.5886 0.0000
# 4 0.0000 0.0000 0.0000 12.0817 0.0000 -6.8766
# 5 -36.3967 -3.1350 -5.5886 0.0000 14.9031 0.0000
# 6 0.0000 0.0000 0.0000 -6.8766 0.0000 22.1153
#
#
#
# Elastic Compliance Matrix: (Units=1/GPa)
#
#
# Indices 1 2 3 4 5 6 
#
# 1 0.006914 -0.003765 0.025821 0.000000 0.025777 0.000000
# 2 -0.003765 0.010372 -0.001536 0.000000 -0.007589 0.000000
# 3 0.025821 -0.001536 -0.033016 0.000000 0.050356 0.000000
# 4 0.000000 0.000000 0.000000 0.100569 0.000000 0.031271
# 5 0.025777 -0.007589 0.050356 0.000000 0.147340 0.000000
# 6 0.000000 0.000000 0.000000 0.031271 0.000000 0.054941
#
#
# Mechanical properties :
#
#
# Convention : Reuss Voigt Hill
#
# Bulk Modulus (GPa) = 39.51185 43.92420 41.71802
# Shear Modulus (GPa) = 19.64497 19.66320 19.65409
#
# Velocity S-wave (km/s) = 3.22932 3.23081 3.23006
# Velocity P-wave (km/s) = 5.90588 6.10201 6.00475
#
# Compressibility (1/GPa) = 0.02530886
#
# Stress axis : x y z
#
# Youngs Moduli (GPa) = 144.62377 96.41410 -30.28805
#
# Poissons Ratio (x) = 0.36301 0.78206
# Poissons Ratio (y) = 0.54452 -0.04653
# Poissons Ratio (z) = -3.73428 0.14811
#
# Static dielectric constant tensor:
#      x y z
#    x 3.456450 0.000000 -0.238070 
#    y 0.000000 3.668730 0.000000 
#    z -0.238070 0.000000 2.941530 
# 
# 
# High freq. dielectric constant tensor:
#      x y z
#    x 1.740850 0.000000 -0.032140 
#    y 0.000000 1.750100 0.000000 
#    z -0.032140 0.000000 1.677710 
# 
# From -- ./inp_files/68868.got.cif
#   From: 2010.03.12/outbox.cif.g09.slc.cpg/sg14_35_cif.got.tgz:68868.got - 2010.03.31 13:35:05.
