data_PCOD8123938
_publ_section_title
;
Structure prediction by ZEFSAII (Michael W. Deem and Ramdas Pophale) SiO2 
 PCOD8123938
Probable space group: P 21/C
;
_chemical_formula_sum "Si O2"
_cell_formula_units_Z 32
_cell_length_a 4.976145
_cell_length_b 12.969708
_cell_length_c 27.658656
_cell_angle_alpha 90.000000
_cell_angle_beta 68.910733
_cell_angle_gamma 90.000000
_cell_volume 1665.504061
_symmetry_space_group_name_H-M "P 21/C"
_symmetry_group_IT_number 14
_symmetry_cell_setting 'monoclinic'
loop_
_space_group_symop_operation_xyz
x,y,z
-x,1/2+y,1/2-z
-x,-y,-z
x,1/2-y,1/2+z
loop_
_atom_site_type_symbol
_atom_site_label
_atom_site_fract_x
_atom_site_fract_y
_atom_site_fract_z
Si Si1 0.381147 0.887135 0.156178
Si Si2 0.505863 0.612863 0.343822
Si Si3 0.719444 0.188983 0.739307
Si Si4 0.070392 0.253688 0.367315
Si Si5 0.960350 0.753690 0.867315
Si Si6 0.784013 0.115725 0.465660
Si Si7 0.823328 0.811019 0.739307
Si Si8 0.853342 0.615726 0.965661
O O1 0.277423 0.898131 0.219240
O O2 0.630039 0.802022 0.134690
O O3 0.121323 0.849003 0.139411
O O4 0.485547 0.999999 0.132226
O O5 0.178970 0.650995 0.360590
O O6 0.654383 0.601867 0.280760
O O7 0.668803 0.697976 0.365310
O O8 0.904922 0.167937 0.678568
O O9 0.389773 0.210948 0.745714
O O10 0.872630 0.289054 0.754286
O O11 0.119196 0.167935 0.321432
O O12 0.927525 0.198188 0.421531
O O13 0.886355 0.698190 0.921531
O O14 0.442713 0.133276 0.486194
O O15 0.887488 0.133273 0.513806
O O16 0.863262 0.999999 0.443365
#
# Coordination Sequence:
#
# PCOD8123938 Si02
#       8
#     4   4   4   4   4   4   4   4
#     4  10  19  32  52  78 109 141 171 203 247 307
#     4  10  19  32  52  78 109 141 171 203 247 307
#     4   8  16  29  46  71 100 131 166 201 238 288
#     4  10  19  34  54  76 105 138 172 211 257 305
#     4  10  19  34  54  76 105 138 172 211 257 305
#     4  10  21  37  57  79 100 128 170 219 269 310
#     4   8  16  29  46  71 100 131 166 201 238 288
#     4  10  21  37  57  79 100 128 170 219 269 310
#
# _framework density 19.213401999999999
#
# number of rings (size 3 to 8) (size 9 to 14) (size 15 to 20)
#    0.000    2.500    0.000    2.250    0.000    1.000 
#    0.000    0.000    0.000   30.000    0.000    0.000 
#    0.000    0.000    0.000    0.000    0.000    0.000 
#
# Total GULP energy -396528.718540 kJ/mol
# GULP energy per Si atom -12391.522454 kJ/mol
# Density = 1.916967 g / cm^3
# Si number density = 19.213402 Si / 1000 Ang^3
#
#
#
# Elastic Constant Matrix: (Units=GPa)
#
#
# Indices 1 2 3 4 5 6 
#
# 1 70.1455 0.9823 -3.9204 0.0000 3.0633 0.0000
# 2 0.9823 61.6813 33.9810 0.0000 -2.3440 0.0000
# 3 -3.9204 33.9810 70.0305 0.0000 -3.0555 0.0000
# 4 0.0000 0.0000 0.0000 17.1315 0.0000 0.2169
# 5 3.0633 -2.3440 -3.0555 0.0000 15.8938 0.0000
# 6 0.0000 0.0000 0.0000 0.2169 0.0000 20.1891
#
#
#
# Elastic Compliance Matrix: (Units=1/GPa)
#
#
# Indices 1 2 3 4 5 6 
#
# 1 0.014453 -0.000974 0.001164 0.000000 -0.002706 0.000000
# 2 -0.000974 0.022216 -0.010774 0.000000 0.001393 0.000000
# 3 0.001164 -0.010774 0.019658 0.000000 0.001966 0.000000
# 4 0.000000 0.000000 0.000000 0.058380 0.000000 -0.000627
# 5 -0.002706 0.001393 0.001966 0.000000 0.064023 0.000000
# 6 0.000000 0.000000 0.000000 -0.000627 0.000000 0.049538
#
#
# Mechanical properties :
#
#
# Convention : Reuss Voigt Hill
#
# Bulk Modulus (GPa) = 28.44220 29.32701 28.88461
# Shear Modulus (GPa) = 19.14563 22.03051 20.58807
#
# Velocity S-wave (km/s) = 3.16012 3.38985 3.27700
# Velocity P-wave (km/s) = 5.30571 5.53339 5.42075
#
# Compressibility (1/GPa) = 0.03515903
#
# Stress axis : x y z
#
# Youngs Moduli (GPa) = 69.19022 45.01218 50.86938
#
# Poissons Ratio (x) = 0.04385 -0.05920
# Poissons Ratio (y) = 0.06740 0.54805
# Poissons Ratio (z) = -0.08052 0.48495
#
# Static dielectric constant tensor:
#      x y z
#    x 3.659790 0.000000 0.019010 
#    y 0.000000 3.079010 0.000000 
#    z 0.019010 0.000000 3.391960 
# 
# 
# High freq. dielectric constant tensor:
#      x y z
#    x 1.770930 0.000000 0.002680 
#    y 0.000000 1.707250 0.000000 
#    z 0.002680 0.000000 1.733190 
# 
# From -- ./inp_files/71238.got.cif
#   From: 2010.03.12/outbox.cif.g09.slc.cpg/sg14_36_cif.got.tgz:71238.got - 2010.03.31 13:35:05.
