data_PCOD8123889
_publ_section_title
;
Structure prediction by ZEFSAII (Michael W. Deem and Ramdas Pophale) SiO2 
 PCOD8123889
Probable space group: P 21/C
;
_chemical_formula_sum "Si O2"
_cell_formula_units_Z 20
_cell_length_a 26.966375
_cell_length_b 7.583879
_cell_length_c 4.941151
_cell_angle_alpha 90.000000
_cell_angle_beta 80.105107
_cell_angle_gamma 90.000000
_cell_volume 995.481688
_symmetry_space_group_name_H-M "P 21/C"
_symmetry_group_IT_number 14
_symmetry_cell_setting 'monoclinic'
loop_
_space_group_symop_operation_xyz
x,y,z
-x,1/2+y,1/2-z
-x,-y,-z
x,1/2-y,1/2+z
loop_
_atom_site_type_symbol
_atom_site_label
_atom_site_fract_x
_atom_site_fract_y
_atom_site_fract_z
Si Si1 0.636335 0.627194 0.834065
Si Si2 0.151583 0.132399 0.913434
Si Si3 0.745097 0.633822 0.830421
Si Si4 0.545775 0.369662 0.005150
Si Si5 0.044595 0.368612 0.399660
O O1 0.628584 0.709862 0.545910
O O2 0.692053 0.538005 0.814901
O O3 0.597795 0.470430 0.914578
O O4 0.152327 0.309098 0.724683
O O5 0.203435 0.023828 0.792731
O O6 0.098799 0.032623 0.897850
O O7 0.746323 0.811117 0.642840
O O8 0.542568 0.201696 0.812281
O O9 0.500000 0.500000 0.000000
O O10 0.040727 0.197785 0.596302
O O11 0.000000 0.500000 0.500000
#
# Coordination Sequence:
#
# PCOD8123889 Si02
#       5
#     4   4   4   4   4
#     4  10  19  34  55  79 103 129 163 204 247 292
#     4   8  14  25  42  66  91 120 158 199 236 280
#     4   8  14  25  45  70  94 120 157 199 236 280
#     4  12  24  39  57  78 105 136 169 205 244 290
#     4  10  19  31  48  69  96 127 164 205 247 292
#
# _framework density 20.090779000000001
#
# number of rings (size 3 to 8) (size 9 to 14) (size 15 to 20)
#    0.000    2.400    0.000    3.600    0.000    0.000 
#    0.000    0.000    0.000    2.400    0.000    0.000 
#    0.000    0.000    0.000    0.000    0.000    0.000 
#
# Total GULP energy -247771.857391 kJ/mol
# GULP energy per Si atom -12388.592870 kJ/mol
# Density = 2.004505 g / cm^3
# Si number density = 20.090779 Si / 1000 Ang^3
#
#
#
# Elastic Constant Matrix: (Units=GPa)
#
#
# Indices 1 2 3 4 5 6 
#
# 1 199.6653 43.5784 12.7324 0.0000 -30.6099 0.0000
# 2 43.5784 35.6051 2.5211 0.0000 -8.0704 0.0000
# 3 12.7324 2.5211 70.3173 0.0000 -1.4936 0.0000
# 4 0.0000 0.0000 0.0000 24.6067 0.0000 -4.8931
# 5 -30.6099 -8.0704 -1.4936 0.0000 35.8916 0.0000
# 6 0.0000 0.0000 0.0000 -4.8931 0.0000 27.5358
#
#
#
# Elastic Compliance Matrix: (Units=1/GPa)
#
#
# Indices 1 2 3 4 5 6 
#
# 1 0.007545 -0.008131 -0.000978 0.000000 0.004566 0.000000
# 2 -0.008131 0.038416 0.000131 0.000000 0.001709 0.000000
# 3 -0.000978 0.000131 0.014389 0.000000 -0.000206 0.000000
# 4 0.000000 0.000000 0.000000 0.042128 0.000000 0.007486
# 5 0.004566 0.001709 -0.000206 0.000000 0.032132 0.000000
# 6 0.000000 0.000000 0.000000 0.007486 0.000000 0.037647
#
#
# Mechanical properties :
#
#
# Convention : Reuss Voigt Hill
#
# Bulk Modulus (GPa) = 23.58741 47.02796 35.30768
# Shear Modulus (GPa) = 24.46867 34.05719 29.26293
#
# Velocity S-wave (km/s) = 3.49364 4.12171 3.82060
# Velocity P-wave (km/s) = 5.29527 6.79042 6.08891
#
# Compressibility (1/GPa) = 0.04239551
#
# Stress axis : x y z
#
# Youngs Moduli (GPa) = 132.53195 26.03108 69.49649
#
# Poissons Ratio (x) = 0.21165 0.06795
# Poissons Ratio (y) = 1.07760 -0.00912
# Poissons Ratio (z) = 0.12958 -0.00342
#
# Static dielectric constant tensor:
#      x y z
#    x 4.460910 0.000000 -0.137480 
#    y 0.000000 2.770200 0.000000 
#    z -0.137480 0.000000 3.930020 
# 
# 
# High freq. dielectric constant tensor:
#      x y z
#    x 1.828730 0.000000 -0.005200 
#    y 0.000000 1.681090 0.000000 
#    z -0.005200 0.000000 1.813530 
# 
# From -- ./inp_files/4444.got.cif
#   From: 2010.03.12/outbox.cif.g09.slc.cpg/sg14_3_cif.got.tgz:4444.got - 2010.03.31 13:35:05.
