data_PCOD8123290
_publ_section_title
;
Structure prediction by ZEFSAII (Michael W. Deem and Ramdas Pophale) SiO2 
 PCOD8123290
Probable space group: P 21/C
;
_chemical_formula_sum "Si O2"
_cell_formula_units_Z 32
_cell_length_a 16.072613
_cell_length_b 5.002392
_cell_length_c 25.692252
_cell_angle_alpha 90.000000
_cell_angle_beta 111.147658
_cell_angle_gamma 90.000000
_cell_volume 1926.579046
_symmetry_space_group_name_H-M "P 21/C"
_symmetry_group_IT_number 14
_symmetry_cell_setting 'monoclinic'
loop_
_space_group_symop_operation_xyz
x,y,z
-x,1/2+y,1/2-z
-x,-y,-z
x,1/2-y,1/2+z
loop_
_atom_site_type_symbol
_atom_site_label
_atom_site_fract_x
_atom_site_fract_y
_atom_site_fract_z
Si Si1 0.092667 0.478178 0.083387
Si Si2 0.506426 0.578190 0.819466
Si Si3 0.101670 0.478508 0.967135
Si Si4 0.206787 0.504855 0.612656
Si Si5 0.394548 0.573713 0.695902
Si Si6 0.214345 0.507595 0.495763
Si Si7 0.511287 0.761102 0.433978
Si Si8 0.603973 0.245881 0.993128
O O1 0.157245 0.257842 0.124887
O O2 0.992851 0.506619 0.085058
O O3 0.134354 0.766200 0.097707
O O4 0.083380 0.377649 0.021747
O O5 0.421076 0.605714 0.762398
O O6 0.551175 0.285790 0.827185
O O7 0.472624 0.660639 0.868983
O O8 0.583455 0.778892 0.819019
O O9 0.173981 0.264292 0.960686
O O10 0.136981 0.776696 0.974567
O O11 0.288367 0.599716 0.667253
O O12 0.244232 0.458555 0.562416
O O13 0.296854 0.627758 0.481908
O O14 0.430207 0.789936 0.455947
O O15 0.544420 0.457131 0.445408
O O16 0.594915 0.962027 0.464453
#
# Coordination Sequence:
#
# PCOD8123290 Si02
#       8
#     4   4   4   4   4   4   4   4
#     4   9  17  27  39  57  82 112 140 169 211 256
#     4  10  19  32  46  62  90 119 146 184 221 255
#     4   9  17  27  39  57  82 112 140 169 211 256
#     4  10  17  26  41  59  83 111 142 177 206 249
#     4  10  20  30  45  67  86 116 154 180 215 263
#     4  10  17  26  41  59  83 111 142 177 206 249
#     4  10  19  32  46  62  90 119 146 184 221 255
#     4  10  20  30  45  67  86 116 154 180 215 263
#
# _framework density 16.609752
#
# number of rings (size 3 to 8) (size 9 to 14) (size 15 to 20)
#    0.000    2.250    0.000    4.500    0.000    5.000 
#    0.000    0.000    0.000    0.000    0.000    0.000 
#    0.000    4.000    0.000    0.250    0.000    0.000 
#
# Total GULP energy -396657.725305 kJ/mol
# GULP energy per Si atom -12395.553916 kJ/mol
# Density = 1.657195 g / cm^3
# Si number density = 16.609752 Si / 1000 Ang^3
#
#
#
# Elastic Constant Matrix: (Units=GPa)
#
#
# Indices 1 2 3 4 5 6 
#
# 1 71.5382 7.4282 33.6727 0.0000 13.4910 0.0000
# 2 7.4282 70.5256 14.2412 0.0000 -1.5544 0.0000
# 3 33.6727 14.2412 68.2741 0.0000 3.2723 0.0000
# 4 0.0000 0.0000 0.0000 15.9546 0.0000 5.1512
# 5 13.4910 -1.5544 3.2723 0.0000 18.4096 0.0000
# 6 0.0000 0.0000 0.0000 5.1512 0.0000 27.1790
#
#
#
# Elastic Compliance Matrix: (Units=1/GPa)
#
#
# Indices 1 2 3 4 5 6 
#
# 1 0.021208 -0.000586 -0.009673 0.000000 -0.013872 0.000000
# 2 -0.000586 0.014879 -0.002920 0.000000 0.002205 0.000000
# 3 -0.009673 -0.002920 0.019868 0.000000 0.003310 0.000000
# 4 0.000000 0.000000 0.000000 0.066763 0.000000 -0.012653
# 5 -0.013872 0.002205 0.003310 0.000000 0.064083 0.000000
# 6 0.000000 0.000000 0.000000 -0.012653 0.000000 0.039191
#
#
# Mechanical properties :
#
#
# Convention : Reuss Voigt Hill
#
# Bulk Modulus (GPa) = 33.78716 35.66914 34.72815
# Shear Modulus (GPa) = 19.06815 22.64170 20.85492
#
# Velocity S-wave (km/s) = 3.39190 3.69610 3.54726
# Velocity P-wave (km/s) = 5.97712 6.30367 6.14257
#
# Compressibility (1/GPa) = 0.02959704
#
# Stress axis : x y z
#
# Youngs Moduli (GPa) = 47.15110 67.20757 50.33248
#
# Poissons Ratio (x) = 0.03941 0.48685
# Poissons Ratio (y) = 0.02765 0.14698
# Poissons Ratio (z) = 0.45608 0.19626
#
# Static dielectric constant tensor:
#      x y z
#    x 2.993680 0.000000 0.147960 
#    y 0.000000 3.350000 0.000000 
#    z 0.147960 0.000000 2.882480 
# 
# 
# High freq. dielectric constant tensor:
#      x y z
#    x 1.623500 0.000000 0.024790 
#    y 0.000000 1.667760 0.000000 
#    z 0.024790 0.000000 1.585700 
# 
# From -- ./inp_files/73496.got.cif
#   From: 2010.03.12/outbox.cif.g09.slc.cpg/sg14_37_cif.got.tgz:73496.got - 2010.03.31 13:35:05.
