data_PCOD8123655
_publ_section_title
;
Structure prediction by ZEFSAII (Michael W. Deem and Ramdas Pophale) SiO2 
 PCOD8123655
Probable space group: P 21/C
;
_chemical_formula_sum "Si O2"
_cell_formula_units_Z 28
_cell_length_a 9.609877
_cell_length_b 12.940432
_cell_length_c 16.338768
_cell_angle_alpha 90.000000
_cell_angle_beta 46.798790
_cell_angle_gamma 90.000000
_cell_volume 1481.105979
_symmetry_space_group_name_H-M "P 21/C"
_symmetry_group_IT_number 14
_symmetry_cell_setting 'monoclinic'
loop_
_space_group_symop_operation_xyz
x,y,z
-x,1/2+y,1/2-z
-x,-y,-z
x,1/2-y,1/2+z
loop_
_atom_site_type_symbol
_atom_site_label
_atom_site_fract_x
_atom_site_fract_y
_atom_site_fract_z
Si Si1 0.483381 0.341738 0.978350
Si Si2 0.265214 0.017273 0.679743
Si Si3 0.935949 0.906521 0.083124
Si Si4 0.083563 0.116696 0.218083
Si Si5 0.289940 0.339645 0.467893
Si Si6 0.170316 0.707653 0.617622
Si Si7 0.377041 0.533941 0.625837
O O1 0.563044 0.434808 0.890764
O O2 0.381388 0.268547 0.954857
O O3 0.647125 0.282683 0.965208
O O4 0.326897 0.380829 0.105594
O O5 0.216326 0.050463 0.790937
O O6 0.086555 0.965030 0.707253
O O7 0.831338 0.824660 0.065743
O O8 0.114570 0.848958 0.054868
O O9 0.000000 0.000000 0.000000
O O10 0.016515 0.228141 0.277662
O O11 0.257263 0.067706 0.203433
O O12 0.152686 0.120999 0.096150
O O13 0.464823 0.419877 0.375982
O O14 0.221042 0.621136 0.664210
O O15 0.500000 0.500000 0.500000
#
# Coordination Sequence:
#
# PCOD8123655 Si02
#       7
#     4   4   4   4   4   4   4
#     4   9  21  39  60  83 111 152 202 233 269 341
#     4  10  19  38  62  81 112 156 193 232 284 338
#     4  12  21  37  56  86 119 146 182 239 299 334
#     4  10  18  34  61  84 107 154 197 233 268 345
#     4  10  20  34  54  86 117 143 185 240 287 335
#     4  10  20  35  59  86 110 151 200 224 281 345
#     4   9  17  34  53  78 111 146 192 229 270 337
#
# _framework density 18.904790999999999
#
# number of rings (size 3 to 8) (size 9 to 14) (size 15 to 20)
#    0.000    2.000    2.857    1.714    0.000    0.000 
#    5.143    0.000    0.000    2.571    0.000    0.000 
#    0.000    0.000    0.000    0.000    0.000    0.000 
#
# Total GULP energy -346930.366892 kJ/mol
# GULP energy per Si atom -12390.370246 kJ/mol
# Density = 1.886176 g / cm^3
# Si number density = 18.904791 Si / 1000 Ang^3
#
#
#
# Elastic Constant Matrix: (Units=GPa)
#
#
# Indices 1 2 3 4 5 6 
#
# 1 92.5497 29.5391 20.5518 0.0000 4.7949 0.0000
# 2 29.5391 79.3926 36.2880 0.0000 -6.2104 0.0000
# 3 20.5518 36.2880 83.9286 0.0000 -4.1339 0.0000
# 4 0.0000 0.0000 0.0000 44.5380 0.0000 -13.7121
# 5 4.7949 -6.2104 -4.1339 0.0000 25.8337 0.0000
# 6 0.0000 0.0000 0.0000 -13.7121 0.0000 33.3012
#
#
#
# Elastic Compliance Matrix: (Units=1/GPa)
#
#
# Indices 1 2 3 4 5 6 
#
# 1 0.012698 -0.004369 -0.001399 0.000000 -0.003631 0.000000
# 2 -0.004369 0.017391 -0.006253 0.000000 0.003991 0.000000
# 3 -0.001399 -0.006253 0.015018 0.000000 0.001160 0.000000
# 4 0.000000 0.000000 0.000000 0.025712 0.000000 0.010587
# 5 -0.003631 0.003991 0.001160 0.000000 0.040528 0.000000
# 6 0.000000 0.000000 0.000000 0.010587 0.000000 0.034388
#
#
# Mechanical properties :
#
#
# Convention : Reuss Voigt Hill
#
# Bulk Modulus (GPa) = 47.47146 47.62541 47.54843
# Shear Modulus (GPa) = 28.28029 32.03404 30.15717
#
# Velocity S-wave (km/s) = 3.87192 4.12089 3.99834
# Velocity P-wave (km/s) = 6.71970 6.92020 6.82069
#
# Compressibility (1/GPa) = 0.02106529
#
# Stress axis : x y z
#
# Youngs Moduli (GPa) = 78.75049 57.49937 66.58543
#
# Poissons Ratio (x) = 0.25122 0.09317
# Poissons Ratio (y) = 0.34406 0.41636
# Poissons Ratio (z) = 0.11019 0.35955
#
# Static dielectric constant tensor:
#      x y z
#    x 3.613920 0.000000 -0.402550 
#    y 0.000000 2.271770 0.000000 
#    z -0.402550 0.000000 3.441720 
# 
# 
# High freq. dielectric constant tensor:
#      x y z
#    x 1.718500 0.000000 -0.038570 
#    y 0.000000 1.751840 0.000000 
#    z -0.038570 0.000000 1.714560 
# 
# From -- ./inp_files/41134.got.cif
#   From: 2010.03.12/outbox.cif.g09.slc.cpg/sg14_21_cif.got.tgz:41134.got - 2010.03.31 13:35:05.
