data_PCOD8123807
_publ_section_title
;
Structure prediction by ZEFSAII (Michael W. Deem and Ramdas Pophale) SiO2 
 PCOD8123807
Probable space group: P 21/C
;
_chemical_formula_sum "Si O2"
_cell_formula_units_Z 28
_cell_length_a 9.384080
_cell_length_b 26.451281
_cell_length_c 9.528863
_cell_angle_alpha 90.000000
_cell_angle_beta 34.643061
_cell_angle_gamma 90.000000
_cell_volume 1344.562823
_symmetry_space_group_name_H-M "P 21/C"
_symmetry_group_IT_number 14
_symmetry_cell_setting 'monoclinic'
loop_
_space_group_symop_operation_xyz
x,y,z
-x,1/2+y,1/2-z
-x,-y,-z
x,1/2-y,1/2+z
loop_
_atom_site_type_symbol
_atom_site_label
_atom_site_fract_x
_atom_site_fract_y
_atom_site_fract_z
Si Si1 0.237247 0.047119 0.101599
Si Si2 0.353101 0.663629 0.395489
Si Si3 0.094885 0.882310 0.478372
Si Si4 0.299986 0.195496 0.160605
Si Si5 0.407110 0.360301 0.305698
Si Si6 0.661107 0.437212 0.473393
Si Si7 0.767795 0.689873 0.827114
O O1 0.977172 0.072255 0.356683
O O2 0.209376 0.988873 0.075285
O O3 0.354108 0.080552 0.881821
O O4 0.398694 0.049408 0.114114
O O5 0.427801 0.683596 0.491423
O O6 0.375396 0.602287 0.368776
O O7 0.062079 0.679170 0.614403
O O8 0.561851 0.686766 0.119468
O O9 0.301581 0.851291 0.398655
O O10 0.164998 0.908298 0.276894
O O11 0.886853 0.841282 0.602806
O O12 0.236074 0.253759 0.230641
O O13 0.268219 0.178005 0.024783
O O14 0.329705 0.349045 0.210634
#
# Coordination Sequence:
#
# PCOD8123807 Si02
#       7
#     4   4   4   4   4   4   4
#     4   9  19  36  67  96 124 174 223 277 327 386
#     4  12  26  46  66 102 135 171 223 281 326 395
#     4  10  18  37  68  95 128 165 229 278 318 388
#     4  11  24  43  69  92 129 178 229 270 321 395
#     4  10  23  43  62  94 132 174 224 267 331 408
#     4  10  19  37  64 100 129 164 228 280 329 378
#     4  12  30  42  67  98 142 177 215 273 346 388
#
# _framework density 20.824611999999998
#
# number of rings (size 3 to 8) (size 9 to 14) (size 15 to 20)
#    0.000    1.429    4.286    2.143    8.000    0.000 
#    0.000    1.429    0.000    0.000    0.000    0.000 
#    0.000    0.000    0.000    0.000    0.000    0.000 
#
# Total GULP energy -346932.179935 kJ/mol
# GULP energy per Si atom -12390.434998 kJ/mol
# Density = 2.077721 g / cm^3
# Si number density = 20.824612 Si / 1000 Ang^3
#
#
#
# Elastic Constant Matrix: (Units=GPa)
#
#
# Indices 1 2 3 4 5 6 
#
# 1 66.3262 43.6780 24.6344 0.0000 -10.2951 0.0000
# 2 43.6780 156.6104 25.8134 0.0000 -12.1625 0.0000
# 3 24.6344 25.8134 88.7592 0.0000 -15.1492 0.0000
# 4 0.0000 0.0000 0.0000 14.4902 0.0000 4.3204
# 5 -10.2951 -12.1625 -15.1492 0.0000 27.5008 0.0000
# 6 0.0000 0.0000 0.0000 4.3204 0.0000 23.4674
#
#
#
# Elastic Compliance Matrix: (Units=1/GPa)
#
#
# Indices 1 2 3 4 5 6 
#
# 1 0.020068 -0.004736 -0.003607 0.000000 0.003431 0.000000
# 2 -0.004736 0.007935 -0.000769 0.000000 0.001313 0.000000
# 3 -0.003607 -0.000769 0.013469 0.000000 0.005729 0.000000
# 4 0.000000 0.000000 0.000000 0.073020 0.000000 -0.013443
# 5 0.003431 0.001313 0.005729 0.000000 0.041384 0.000000
# 6 0.000000 0.000000 0.000000 -0.013443 0.000000 0.045087
#
#
# Mechanical properties :
#
#
# Convention : Reuss Voigt Hill
#
# Bulk Modulus (GPa) = 43.01434 55.54972 49.28203
# Shear Modulus (GPa) = 22.03264 27.59635 24.81450
#
# Velocity S-wave (km/s) = 3.25623 3.64425 3.45569
# Velocity P-wave (km/s) = 5.90235 6.66636 6.29596
#
# Compressibility (1/GPa) = 0.02324806
#
# Stress axis : x y z
#
# Youngs Moduli (GPa) = 49.83078 126.02674 74.24454
#
# Poissons Ratio (x) = 0.59685 0.26778
# Poissons Ratio (y) = 0.23599 0.05711
# Poissons Ratio (z) = 0.17973 0.09694
#
# Static dielectric constant tensor:
#      x y z
#    x 3.547280 0.000000 -0.194100 
#    y 0.000000 4.030190 0.000000 
#    z -0.194100 0.000000 3.846720 
# 
# 
# High freq. dielectric constant tensor:
#      x y z
#    x 1.787370 0.000000 -0.016810 
#    y 0.000000 1.826350 0.000000 
#    z -0.016810 0.000000 1.815660 
# 
# From -- ./inp_files/11145.got.cif
#   From: 2010.03.12/outbox.cif.g09.slc.cpg/sg14_6_cif.got.tgz:11145.got - 2010.03.31 13:35:05.
