data_PCOD8123314
_publ_section_title
;
Structure prediction by ZEFSAII (Michael W. Deem and Ramdas Pophale) SiO2 
 PCOD8123314
Probable space group: P 21/C
;
_chemical_formula_sum "Si O2"
_cell_formula_units_Z 28
_cell_length_a 15.653498
_cell_length_b 11.642656
_cell_length_c 9.480607
_cell_angle_alpha 90.000000
_cell_angle_beta 125.165162
_cell_angle_gamma 90.000000
_cell_volume 1412.488252
_symmetry_space_group_name_H-M "P 21/C"
_symmetry_group_IT_number 14
_symmetry_cell_setting 'monoclinic'
loop_
_space_group_symop_operation_xyz
x,y,z
-x,1/2+y,1/2-z
-x,-y,-z
x,1/2-y,1/2+z
loop_
_atom_site_type_symbol
_atom_site_label
_atom_site_fract_x
_atom_site_fract_y
_atom_site_fract_z
Si Si1 0.276125 0.069733 0.002667
Si Si2 0.141833 0.220992 0.453315
Si Si3 0.634740 0.475539 0.993613
Si Si4 0.337780 0.095598 0.754141
Si Si5 0.437805 0.163230 0.363948
Si Si6 0.172835 0.945836 0.140722
Si Si7 0.033326 0.158655 0.081189
O O1 0.183696 0.162834 0.920246
O O2 0.303397 0.035736 0.867866
O O3 0.380838 0.121830 0.168916
O O4 0.241365 0.958390 0.061958
O O5 0.238383 0.139041 0.573584
O O6 0.079827 0.234041 0.540455
O O7 0.059509 0.163617 0.270364
O O8 0.610160 0.596713 0.047250
O O9 0.751484 0.437128 0.150999
O O10 0.617836 0.498099 0.809738
O O11 0.559513 0.370342 0.967141
O O12 0.419583 0.199647 0.864415
O O13 0.093029 0.838722 0.057580
O O14 0.093388 0.051438 0.071862
#
# Coordination Sequence:
#
# PCOD8123314 Si02
#       7
#     4   4   4   4   4   4   4
#     4   9  18  31  51  79 102 130 177 227 258 312
#     4  10  17  30  52  81 102 138 180 223 258 310
#     4  10  19  34  54  77 108 146 175 223 277 325
#     4  11  18  31  56  83 106 133 188 234 257 313
#     4   9  19  32  53  79 106 139 180 215 276 327
#     4   9  19  34  52  76 109 141 172 216 278 325
#     4  10  18  32  54  77 105 140 180 220 265 315
#
# _framework density 19.823174999999999
#
# number of rings (size 3 to 8) (size 9 to 14) (size 15 to 20)
#    0.000    2.286    2.857    2.571    0.000    0.571 
#    0.000    2.143   12.571    0.000    0.000    0.000 
#    0.000    0.000    0.000    0.000    0.000    0.000 
#
# Total GULP energy -346989.976396 kJ/mol
# GULP energy per Si atom -12392.499157 kJ/mol
# Density = 1.977806 g / cm^3
# Si number density = 19.823175 Si / 1000 Ang^3
#
#
#
# Elastic Constant Matrix: (Units=GPa)
#
#
# Indices 1 2 3 4 5 6 
#
# 1 82.6039 17.9973 48.6047 0.0000 -1.8357 0.0000
# 2 17.9973 22.2311 13.5700 0.0000 5.3907 0.0000
# 3 48.6047 13.5700 85.2449 0.0000 -7.3879 0.0000
# 4 0.0000 0.0000 0.0000 22.9163 0.0000 3.2819
# 5 -1.8357 5.3907 -7.3879 0.0000 44.5099 0.0000
# 6 0.0000 0.0000 0.0000 3.2819 0.0000 17.4868
#
#
#
# Elastic Compliance Matrix: (Units=1/GPa)
#
#
# Indices 1 2 3 4 5 6 
#
# 1 0.020152 -0.010456 -0.009785 0.000000 0.000473 0.000000
# 2 -0.010456 0.057815 -0.003942 0.000000 -0.008088 0.000000
# 3 -0.009785 -0.003942 0.018206 0.000000 0.003096 0.000000
# 4 0.000000 0.000000 0.000000 0.044842 0.000000 -0.008416
# 5 0.000473 -0.008088 0.003096 0.000000 0.023980 0.000000
# 6 0.000000 0.000000 0.000000 -0.008416 0.000000 0.058765
#
#
# Mechanical properties :
#
#
# Convention : Reuss Voigt Hill
#
# Bulk Modulus (GPa) = 20.91802 38.93599 29.92700
# Shear Modulus (GPa) = 17.35735 24.30977 20.83356
#
# Velocity S-wave (km/s) = 2.96228 3.50570 3.24538
# Velocity P-wave (km/s) = 4.71968 6.00590 5.40121
#
# Compressibility (1/GPa) = 0.04780568
#
# Stress axis : x y z
#
# Youngs Moduli (GPa) = 49.62271 17.29664 54.92751
#
# Poissons Ratio (x) = 0.18086 0.53745
# Poissons Ratio (y) = 0.51887 0.21654
# Poissons Ratio (z) = 0.48554 0.06819
#
# Static dielectric constant tensor:
#      x y z
#    x 3.753040 0.000000 0.031440 
#    y 0.000000 3.218610 0.000000 
#    z 0.031440 0.000000 3.555280 
# 
# 
# High freq. dielectric constant tensor:
#      x y z
#    x 1.772170 0.000000 -0.003870 
#    y 0.000000 1.713590 0.000000 
#    z -0.003870 0.000000 1.778040 
# 
# From -- ./inp_files/12866.got.cif
#   From: 2010.03.12/outbox.cif.g09.slc.cpg/sg14_7_cif.got.tgz:12866.got - 2010.03.31 13:35:05.
