data_PCOD8123461
_publ_section_title
;
Structure prediction by ZEFSAII (Michael W. Deem and Ramdas Pophale) SiO2 
 PCOD8123461
Probable space group: P 21/C
;
_chemical_formula_sum "Si O2"
_cell_formula_units_Z 28
_cell_length_a 10.293233
_cell_length_b 5.306593
_cell_length_c 26.111719
_cell_angle_alpha 90.000000
_cell_angle_beta 76.747809
_cell_angle_gamma 90.000000
_cell_volume 1388.293287
_symmetry_space_group_name_H-M "P 21/C"
_symmetry_group_IT_number 14
_symmetry_cell_setting 'monoclinic'
loop_
_space_group_symop_operation_xyz
x,y,z
-x,1/2+y,1/2-z
-x,-y,-z
x,1/2-y,1/2+z
loop_
_atom_site_type_symbol
_atom_site_label
_atom_site_fract_x
_atom_site_fract_y
_atom_site_fract_z
Si Si1 0.354648 0.249703 0.116637
Si Si2 0.667144 0.744140 0.713031
Si Si3 0.558890 0.256229 0.181390
Si Si4 0.312190 0.749809 0.514071
Si Si5 0.609971 0.749693 0.008399
Si Si6 0.201162 0.749856 0.628480
Si Si7 0.966319 0.723398 0.722514
O O1 0.500208 0.253050 0.129384
O O2 0.373604 0.250367 0.054407
O O3 0.272637 0.496498 0.142316
O O4 0.277727 0.997908 0.142009
O O5 0.564952 0.745023 0.768906
O O6 0.649982 0.491030 0.681030
O O7 0.813122 0.755825 0.723025
O O8 0.646258 0.991484 0.680009
O O9 0.314075 0.500242 0.478040
O O10 0.452504 0.750450 0.535276
O O11 0.194430 0.749429 0.566512
O O12 0.313765 0.999435 0.478077
O O13 0.050965 0.743397 0.662488
O O14 0.989041 0.448207 0.744316
#
# Coordination Sequence:
#
# PCOD8123461 Si02
#       7
#     4   4   4   4   4   4   4
#     4  10  18  30  49  72  94 120 152 188 229 270
#     4  10  21  33  47  65  87 119 153 187 228 263
#     4  10  19  33  48  64  88 117 153 191 223 265
#     4   8  14  25  40  63  93 119 142 176 225 275
#     4   8  14  24  41  65  92 116 143 180 223 270
#     4  10  19  30  47  70  96 123 150 185 232 275
#     4  12  23  35  50  69  94 122 155 191 226 272
#
# _framework density 20.168648999999998
#
# number of rings (size 3 to 8) (size 9 to 14) (size 15 to 20)
#    0.000    2.286    0.000    4.286    0.000    2.286 
#    0.000    0.000    0.000    0.000    0.000    2.000 
#    0.000    0.000    0.000    0.000    0.000    0.000 
#
# Total GULP energy -346985.590845 kJ/mol
# GULP energy per Si atom -12392.342530 kJ/mol
# Density = 2.012274 g / cm^3
# Si number density = 20.168649 Si / 1000 Ang^3
#
#
#
# Elastic Constant Matrix: (Units=GPa)
#
#
# Indices 1 2 3 4 5 6 
#
# 1 76.6685 24.0797 1.5071 0.0000 -1.0617 0.0000
# 2 24.0797 189.1146 2.0008 0.0000 -2.6155 0.0000
# 3 1.5071 2.0008 28.9017 0.0000 -18.1030 0.0000
# 4 0.0000 0.0000 0.0000 14.1880 0.0000 -1.3402
# 5 -1.0617 -2.6155 -18.1030 0.0000 26.1564 0.0000
# 6 0.0000 0.0000 0.0000 -1.3402 0.0000 26.0014
#
#
#
# Elastic Compliance Matrix: (Units=1/GPa)
#
#
# Indices 1 2 3 4 5 6 
#
# 1 0.013597 -0.001725 -0.000621 0.000000 -0.000051 0.000000
# 2 -0.001725 0.005514 0.000017 0.000000 0.000493 0.000000
# 3 -0.000621 0.000017 0.061107 0.000000 0.042269 0.000000
# 4 0.000000 0.000000 0.000000 0.070827 0.000000 0.003651
# 5 -0.000051 0.000493 0.042269 0.000000 0.067533 0.000000
# 6 0.000000 0.000000 0.000000 0.003651 0.000000 0.038648
#
#
# Mechanical properties :
#
#
# Convention : Reuss Voigt Hill
#
# Bulk Modulus (GPa) = 13.23471 38.87333 26.05402
# Shear Modulus (GPa) = 17.41734 31.07566 24.24650
#
# Velocity S-wave (km/s) = 2.94187 3.92955 3.47102
# Velocity P-wave (km/s) = 4.25626 6.31700 5.38610
#
# Compressibility (1/GPa) = 0.07555890
#
# Stress axis : x y z
#
# Youngs Moduli (GPa) = 73.54793 181.35238 16.36475
#
# Poissons Ratio (x) = 0.31290 0.01017
# Poissons Ratio (y) = 0.12690 -0.00028
# Poissons Ratio (z) = 0.04569 -0.00312
#
# Static dielectric constant tensor:
#      x y z
#    x 3.165180 0.000000 -0.280320 
#    y 0.000000 4.934370 0.000000 
#    z -0.280320 0.000000 3.458380 
# 
# 
# High freq. dielectric constant tensor:
#      x y z
#    x 1.721370 0.000000 -0.029390 
#    y 0.000000 1.834150 0.000000 
#    z -0.029390 0.000000 1.770000 
# 
# From -- ./inp_files/48013.got.cif
#   From: 2010.03.12/outbox.cif.g09.slc.cpg/sg14_25_cif.got.tgz:48013.got - 2010.03.31 13:35:05.
