data_PCOD8123788
_publ_section_title
;
Structure prediction by ZEFSAII (Michael W. Deem and Ramdas Pophale) SiO2 
 PCOD8123788
Probable space group: P 21/C
;
_chemical_formula_sum "Si O2"
_cell_formula_units_Z 24
_cell_length_a 7.733013
_cell_length_b 8.224254
_cell_length_c 18.256893
_cell_angle_alpha 90.000000
_cell_angle_beta 107.857520
_cell_angle_gamma 90.000000
_cell_volume 1105.166911
_symmetry_space_group_name_H-M "P 21/C"
_symmetry_group_IT_number 14
_symmetry_cell_setting 'monoclinic'
loop_
_space_group_symop_operation_xyz
x,y,z
-x,1/2+y,1/2-z
-x,-y,-z
x,1/2-y,1/2+z
loop_
_atom_site_type_symbol
_atom_site_label
_atom_site_fract_x
_atom_site_fract_y
_atom_site_fract_z
Si Si1 0.467753 0.626693 0.139864
Si Si2 0.926059 0.892352 0.884576
Si Si3 0.096987 0.762004 0.045757
Si Si4 0.857161 0.634407 0.136577
Si Si5 0.931226 0.555737 0.732486
Si Si6 0.619814 0.667278 0.782160
O O1 0.284470 0.661829 0.071447
O O2 0.639204 0.654304 0.107853
O O3 0.476205 0.439652 0.167855
O O4 0.473538 0.745657 0.210968
O O5 0.742098 0.806656 0.834879
O O6 0.053666 0.925170 0.831102
O O7 0.870802 0.060009 0.916642
O O8 0.036692 0.775822 0.953765
O O9 0.938495 0.658749 0.066125
O O10 0.916363 0.466516 0.183725
O O11 0.955270 0.766096 0.201696
O O12 0.736866 0.542548 0.747277
#
# Coordination Sequence:
#
# PCOD8123788 Si02
#       6
#     4   4   4   4   4   4
#     4  11  22  37  61  93 122 157 209 259 303 368
#     4  10  21  41  62  90 122 169 205 246 318 366
#     4  10  22  41  65  84 129 165 199 259 310 366
#     4  10  21  37  60  87 121 157 206 250 305 363
#     4  10  18  37  60  88 114 160 205 246 297 365
#     4  11  22  37  63  93 124 161 208 260 302 368
#
# _framework density 21.716176000000001
#
# number of rings (size 3 to 8) (size 9 to 14) (size 15 to 20)
#    0.000    1.667    5.000    1.000    2.333    0.667 
#    0.000   15.833    0.000    0.000    0.000    0.000 
#    0.000    0.000    0.000    0.000    0.000    0.000 
#
# Total GULP energy -297548.438530 kJ/mol
# GULP energy per Si atom -12397.851605 kJ/mol
# Density = 2.166675 g / cm^3
# Si number density = 21.716176 Si / 1000 Ang^3
#
#
#
# Elastic Constant Matrix: (Units=GPa)
#
#
# Indices 1 2 3 4 5 6 
#
# 1 97.4899 13.2603 18.7938 0.0000 -2.8267 0.0000
# 2 13.2603 33.4447 -4.7363 0.0000 -5.0212 0.0000
# 3 18.7938 -4.7363 69.6762 0.0000 -8.6530 0.0000
# 4 0.0000 0.0000 0.0000 21.1357 0.0000 3.5562
# 5 -2.8267 -5.0212 -8.6530 0.0000 25.7889 0.0000
# 6 0.0000 0.0000 0.0000 3.5562 0.0000 36.1846
#
#
#
# Elastic Compliance Matrix: (Units=1/GPa)
#
#
# Indices 1 2 3 4 5 6 
#
# 1 0.011645 -0.005274 -0.003619 0.000000 -0.000965 0.000000
# 2 -0.005274 0.033787 0.004659 0.000000 0.007563 0.000000
# 3 -0.003619 0.004659 0.016391 0.000000 0.006010 0.000000
# 4 0.000000 0.000000 0.000000 0.048109 0.000000 -0.004728
# 5 -0.000965 0.007563 0.006010 0.000000 0.042160 0.000000
# 6 0.000000 0.000000 0.000000 -0.004728 0.000000 0.028101
#
#
# Mechanical properties :
#
#
# Convention : Reuss Voigt Hill
#
# Bulk Modulus (GPa) = 18.74324 28.36071 23.55197
# Shear Modulus (GPa) = 24.21938 28.17470 26.19704
#
# Velocity S-wave (km/s) = 3.34319 3.60586 3.47701
# Velocity P-wave (km/s) = 4.85307 5.51583 5.19503
#
# Compressibility (1/GPa) = 0.05335258
#
# Stress axis : x y z
#
# Youngs Moduli (GPa) = 85.87664 29.59758 61.00754
#
# Poissons Ratio (x) = 0.15611 0.22080
# Poissons Ratio (y) = 0.45294 -0.28421
# Poissons Ratio (z) = 0.31081 -0.13788
#
# Static dielectric constant tensor:
#      x y z
#    x 3.716100 0.000000 -0.153780 
#    y 0.000000 4.031920 0.000000 
#    z -0.153780 0.000000 3.912170 
# 
# 
# High freq. dielectric constant tensor:
#      x y z
#    x 1.837510 0.000000 -0.004950 
#    y 0.000000 1.858600 0.000000 
#    z -0.004950 0.000000 1.844740 
# 
# From -- ./inp_files/54623.got.cif
#   From: 2010.03.12/outbox.cif.g09.slc.cpg/sg14_28_cif.got.tgz:54623.got - 2010.03.31 13:35:05.
