data_PCOD8123022
_publ_section_title
;
Structure prediction by ZEFSAII (Michael W. Deem and Ramdas Pophale) SiO2 
 PCOD8123022
Probable space group: P 2/C
;
_chemical_formula_sum "Si O2"
_cell_formula_units_Z 16
_cell_length_a 8.917902
_cell_length_b 7.341024
_cell_length_c 11.813136
_cell_angle_alpha 90.000000
_cell_angle_beta 55.285194
_cell_angle_gamma 90.000000
_cell_volume 635.703679
_symmetry_space_group_name_H-M "P 2/C"
_symmetry_group_IT_number 13
_symmetry_cell_setting 'monoclinic'
loop_
_space_group_symop_operation_xyz
x,y,z
-x,y,1/2-z
-x,-y,-z
x,-y,1/2+z
loop_
_atom_site_type_symbol
_atom_site_label
_atom_site_fract_x
_atom_site_fract_y
_atom_site_fract_z
Si Si1 0.043816 0.807399 0.614318
Si Si2 0.694120 0.260834 0.146097
Si Si3 0.298625 0.328697 0.810590
Si Si4 0.309091 0.113335 0.582102
O O1 0.163979 0.695936 0.474212
O O2 0.000000 0.694222 0.750000
O O3 0.853922 0.863225 0.632283
O O4 0.147042 0.983261 0.614164
O O5 0.500000 0.161642 0.250000
O O6 0.702443 0.454070 0.207506
O O7 0.698395 0.274797 0.008196
O O8 0.500000 0.258452 0.750000
O O9 0.245397 0.213581 0.723576
O O10 0.500000 0.000000 0.500000
#
# Coordination Sequence:
#
# PCOD8123022 Si02
#       4
#     4   4   4   4
#     4  12  28  47  78 115 154 200 264 318 390 463
#     4  11  28  49  77 112 160 204 256 321 392 469
#     4  11  27  50  80 115 156 204 260 318 402 463
#     4  12  27  48  83 114 156 203 263 327 390 465
#
# _framework density 25.168959000000001
#
# number of rings (size 3 to 8) (size 9 to 14) (size 15 to 20)
#    0.000    0.500    2.500    3.000   14.000    2.000 
#    0.000    0.000    0.000    0.000    0.000    0.000 
#    0.000    0.000    0.000    0.000    0.000    0.000 
#
# Total GULP energy -198220.947797 kJ/mol
# GULP energy per Si atom -12388.809237 kJ/mol
# Density = 2.511167 g / cm^3
# Si number density = 25.168959 Si / 1000 Ang^3
#
#
#
# Elastic Constant Matrix: (Units=GPa)
#
#
# Indices 1 2 3 4 5 6 
#
# 1 199.5017 54.6765 85.5604 0.0000 -13.8898 0.0000
# 2 54.6765 99.5743 27.3015 0.0000 8.0694 0.0000
# 3 85.5604 27.3015 187.9207 0.0000 9.0208 0.0000
# 4 0.0000 0.0000 0.0000 82.4556 0.0000 27.8999
# 5 -13.8898 8.0694 9.0208 0.0000 62.2528 0.0000
# 6 0.0000 0.0000 0.0000 27.8999 0.0000 37.1795
#
#
#
# Elastic Compliance Matrix: (Units=1/GPa)
#
#
# Indices 1 2 3 4 5 6 
#
# 1 0.007424 -0.003460 -0.002999 0.000000 0.002540 0.000000
# 2 -0.003460 0.012153 -0.000078 0.000000 -0.002336 0.000000
# 3 -0.002999 -0.000078 0.006777 0.000000 -0.001641 0.000000
# 4 0.000000 0.000000 0.000000 0.016255 0.000000 -0.012198
# 5 0.002540 -0.002336 -0.001641 0.000000 0.017171 0.000000
# 6 0.000000 0.000000 0.000000 -0.012198 0.000000 0.036050
#
#
# Mechanical properties :
#
#
# Convention : Reuss Voigt Hill
#
# Bulk Modulus (GPa) = 75.30451 91.34149 83.32300
# Shear Modulus (GPa) = 44.11837 57.67483 50.89660
#
# Velocity S-wave (km/s) = 4.19129 4.79216 4.50176
# Velocity P-wave (km/s) = 7.30802 8.18473 7.75877
#
# Compressibility (1/GPa) = 0.01327942
#
# Stress axis : x y z
#
# Youngs Moduli (GPa) = 134.70094 82.28188 147.55499
#
# Poissons Ratio (x) = 0.28469 0.44257
# Poissons Ratio (y) = 0.46605 0.01154
# Poissons Ratio (z) = 0.40401 0.00644
#
# Static dielectric constant tensor:
#      x y z
#    x 5.583410 0.000000 0.938690 
#    y 0.000000 4.041030 0.000000 
#    z 0.938690 0.000000 6.871370 
# 
# 
# High freq. dielectric constant tensor:
#      x y z
#    x 2.025830 0.000000 -0.001560 
#    y 0.000000 1.976250 0.000000 
#    z -0.001560 0.000000 2.031570 
# 
# From -- ./inp_files/27968.got.cif
#   From: 2010.06.25/outbox.cif.g09.slc.cpg/sg13_14_cif.got.tgz:27968.got - 2010.06.28 04:50:58.
