data_PCOD8123505
_publ_section_title
;
Structure prediction by ZEFSAII (Michael W. Deem and Ramdas Pophale) SiO2 
 PCOD8123505
Probable space group: P 21/C
;
_chemical_formula_sum "Si O2"
_cell_formula_units_Z 32
_cell_length_a 20.421658
_cell_length_b 11.008773
_cell_length_c 16.070984
_cell_angle_alpha 90.000000
_cell_angle_beta 28.041487
_cell_angle_gamma 90.000000
_cell_volume 1698.527504
_symmetry_space_group_name_H-M "P 21/C"
_symmetry_group_IT_number 14
_symmetry_cell_setting 'monoclinic'
loop_
_space_group_symop_operation_xyz
x,y,z
-x,1/2+y,1/2-z
-x,-y,-z
x,1/2-y,1/2+z
loop_
_atom_site_type_symbol
_atom_site_label
_atom_site_fract_x
_atom_site_fract_y
_atom_site_fract_z
Si Si1 0.257821 0.682010 0.956000
Si Si2 0.076477 0.018410 0.714590
Si Si3 0.982487 0.263030 0.397756
Si Si4 0.823109 0.603723 0.421667
Si Si5 0.330826 0.901650 0.985540
Si Si6 0.426824 0.021774 0.169049
Si Si7 0.945471 0.374927 0.099974
Si Si8 0.815587 0.814814 0.543549
O O1 0.359871 0.601331 0.783204
O O2 0.175644 0.598771 0.117216
O O3 0.140248 0.745124 0.031709
O O4 0.342540 0.784563 0.911527
O O5 0.165758 0.113984 0.562778
O O6 0.025594 0.093046 0.853312
O O7 0.945133 0.990178 0.804491
O O8 0.926869 0.224986 0.549440
O O9 0.119475 0.185701 0.218801
O O10 0.688764 0.525947 0.545100
O O11 0.785898 0.676714 0.548057
O O12 0.203821 0.892215 0.191882
O O13 0.473514 0.914613 0.875496
O O14 0.314116 0.121866 0.266587
O O15 0.500000 0.000000 0.000000
O O16 0.000000 0.500000 0.000000
O O17 0.050871 0.318399 0.047797
#
# Coordination Sequence:
#
# PCOD8123505 Si02
#       8
#     4   4   4   4   4   4   4   4
#     4  10  21  39  58  86 120 154 204 243 291 363
#     4   9  16  35  56  87 115 148 182 246 285 343
#     4  10  18  31  61  88 119 147 188 245 291 341
#     4  10  18  34  57  82 112 147 194 227 284 345
#     4  12  22  37  62  84 113 162 196 242 296 355
#     4  11  25  41  60  84 118 150 201 252 296 338
#     4  12  19  34  60  93 117 149 195 239 299 353
#     4  10  21  36  56  86 114 146 191 245 284 347
#
# _framework density 18.839849000000001
#
# number of rings (size 3 to 8) (size 9 to 14) (size 15 to 20)
#    0.000    1.500    3.750    4.500    1.750    0.000 
#    0.000    2.500    0.000    0.750    0.000    0.000 
#    0.000    0.000    0.000    0.000    0.000    0.000 
#
# Total GULP energy -396581.319689 kJ/mol
# GULP energy per Si atom -12393.166240 kJ/mol
# Density = 1.879697 g / cm^3
# Si number density = 18.839849 Si / 1000 Ang^3
#
#
#
# Elastic Constant Matrix: (Units=GPa)
#
#
# Indices 1 2 3 4 5 6 
#
# 1 54.5044 31.3010 7.9571 0.0000 -0.6714 0.0000
# 2 31.3010 86.4402 28.1190 0.0000 4.9010 0.0000
# 3 7.9571 28.1190 69.8926 0.0000 5.4798 0.0000
# 4 0.0000 0.0000 0.0000 18.8992 0.0000 4.5675
# 5 -0.6714 4.9010 5.4798 0.0000 30.0360 0.0000
# 6 0.0000 0.0000 0.0000 4.5675 0.0000 32.6300
#
#
#
# Elastic Compliance Matrix: (Units=1/GPa)
#
#
# Indices 1 2 3 4 5 6 
#
# 1 0.023305 -0.008782 0.000737 0.000000 0.001819 0.000000
# 2 -0.008782 0.016664 -0.005555 0.000000 -0.001902 0.000000
# 3 0.000737 -0.005555 0.016624 0.000000 -0.002110 0.000000
# 4 0.000000 0.000000 0.000000 0.054765 0.000000 -0.007666
# 5 0.001819 -0.001902 -0.002110 0.000000 0.034029 0.000000
# 6 0.000000 0.000000 0.000000 -0.007666 0.000000 0.031720
#
#
# Mechanical properties :
#
#
# Convention : Reuss Voigt Hill
#
# Bulk Modulus (GPa) = 34.02153 38.39906 36.21029
# Shear Modulus (GPa) = 23.35303 25.87705 24.61504
#
# Velocity S-wave (km/s) = 3.52455 3.71013 3.61853
# Velocity P-wave (km/s) = 5.88734 6.22732 6.05972
#
# Compressibility (1/GPa) = 0.02939315
#
# Stress axis : x y z
#
# Youngs Moduli (GPa) = 42.90862 60.01058 60.15368
#
# Poissons Ratio (x) = 0.52702 -0.04435
# Poissons Ratio (y) = 0.37683 0.33416
# Poissons Ratio (z) = -0.03164 0.33337
#
# Static dielectric constant tensor:
#      x y z
#    x 3.298790 0.000000 0.005060 
#    y 0.000000 3.876250 0.000000 
#    z 0.005060 0.000000 3.503550 
# 
# 
# High freq. dielectric constant tensor:
#      x y z
#    x 1.714980 0.000000 -0.002920 
#    y 0.000000 1.740520 0.000000 
#    z -0.002920 0.000000 1.716480 
# 
# From -- ./inp_files/47174.got.cif
#   From: 2010.03.12/outbox.cif.g09.slc.cpg/sg14_24_cif.got.tgz:47174.got - 2010.03.31 13:35:05.
