data_PCOD8123198
_publ_section_title
;
Structure prediction by ZEFSAII (Michael W. Deem and Ramdas Pophale) SiO2 
 PCOD8123198
Probable space group: P 2/C
;
_chemical_formula_sum "Si O2"
_cell_formula_units_Z 16
_cell_length_a 8.605915
_cell_length_b 8.350546
_cell_length_c 16.896508
_cell_angle_alpha 90.000000
_cell_angle_beta 148.236769
_cell_angle_gamma 90.000000
_cell_volume 639.194814
_symmetry_space_group_name_H-M "P 2/C"
_symmetry_group_IT_number 13
_symmetry_cell_setting 'monoclinic'
loop_
_space_group_symop_operation_xyz
x,y,z
-x,y,1/2-z
-x,-y,-z
x,-y,1/2+z
loop_
_atom_site_type_symbol
_atom_site_label
_atom_site_fract_x
_atom_site_fract_y
_atom_site_fract_z
Si Si1 0.605418 0.856152 0.214877
Si Si2 0.735193 0.176895 0.196965
Si Si3 0.866376 0.681567 0.107795
Si Si4 0.923392 0.381727 0.041074
O O1 0.500000 0.938630 0.250000
O O2 0.933375 0.780808 0.368659
O O3 0.613640 0.996099 0.153851
O O4 0.384890 0.709610 0.101746
O O5 0.000000 0.173493 0.250000
O O6 0.826359 0.253608 0.322382
O O7 0.473921 0.275152 0.044356
O O8 0.888633 0.493353 0.102639
O O9 0.000000 0.726373 0.250000
O O10 0.000000 0.500000 0.000000
#
# Coordination Sequence:
#
# PCOD8123198 Si02
#       4
#     4   4   4   4
#     4  12  27  49  79 117 156 204 260 321 389 464
#     4  12  29  51  80 115 161 208 260 322 388 463
#     4  12  27  49  80 113 156 207 262 322 387 462
#     4  12  27  50  79 118 156 204 261 325 391 463
#
# _framework density 25.031492
#
# number of rings (size 3 to 8) (size 9 to 14) (size 15 to 20)
#    0.000    0.000    2.500    6.000    3.500    8.000 
#    0.000    2.500    0.000    0.000    0.000    0.000 
#    0.000    0.000    0.000    0.000    0.000    0.000 
#
# Total GULP energy -198371.965149 kJ/mol
# GULP energy per Si atom -12398.247822 kJ/mol
# Density = 2.497452 g / cm^3
# Si number density = 25.031492 Si / 1000 Ang^3
#
#
#
# Elastic Constant Matrix: (Units=GPa)
#
#
# Indices 1 2 3 4 5 6 
#
# 1 129.7217 50.3700 57.9030 0.0000 15.8787 0.0000
# 2 50.3700 132.2724 33.2920 0.0000 6.7735 0.0000
# 3 57.9030 33.2920 144.8415 0.0000 13.7133 0.0000
# 4 0.0000 0.0000 0.0000 31.7452 0.0000 21.7166
# 5 15.8787 6.7735 13.7133 0.0000 38.1214 0.0000
# 6 0.0000 0.0000 0.0000 21.7166 0.0000 32.6789
#
#
#
# Elastic Compliance Matrix: (Units=1/GPa)
#
#
# Indices 1 2 3 4 5 6 
#
# 1 0.010731 -0.003112 -0.003317 0.000000 -0.002724 0.000000
# 2 -0.003112 0.008950 -0.000813 0.000000 -0.000002 0.000000
# 3 -0.003317 -0.000813 0.008564 0.000000 -0.001555 0.000000
# 4 0.000000 0.000000 0.000000 0.057758 0.000000 -0.038383
# 5 -0.002724 -0.000002 -0.001555 0.000000 0.027926 0.000000
# 6 0.000000 0.000000 0.000000 -0.038383 0.000000 0.056108
#
#
# Mechanical properties :
#
#
# Convention : Reuss Voigt Hill
#
# Bulk Modulus (GPa) = 72.66612 76.66284 74.66448
# Shear Modulus (GPa) = 26.43986 38.19380 32.31683
#
# Velocity S-wave (km/s) = 3.25355 3.91043 3.59701
# Velocity P-wave (km/s) = 6.57320 7.14714 6.86617
#
# Compressibility (1/GPa) = 0.01376157
#
# Stress axis : x y z
#
# Youngs Moduli (GPa) = 93.18695 111.73232 116.76694
#
# Poissons Ratio (x) = 0.34773 0.38729
# Poissons Ratio (y) = 0.29001 0.09492
# Poissons Ratio (z) = 0.30908 0.09082
#
# Static dielectric constant tensor:
#      x y z
#    x 4.855040 0.000000 0.051460 
#    y 0.000000 4.707280 0.000000 
#    z 0.051460 0.000000 4.525970 
# 
# 
# High freq. dielectric constant tensor:
#      x y z
#    x 2.005370 0.000000 0.006720 
#    y 0.000000 2.018360 0.000000 
#    z 0.006720 0.000000 1.998070 
# 
# From -- ./inp_files/63613.got.cif
#   From: 2010.06.25/outbox.cif.g09.slc.cpg/sg13_32_cif.got.tgz:63613.got - 2010.06.28 04:50:58.
