data_PCOD8123916
_publ_section_title
;
Structure prediction by ZEFSAII (Michael W. Deem and Ramdas Pophale) SiO2 
 PCOD8123916
Probable space group: P 21/C
;
_chemical_formula_sum "Si O2"
_cell_formula_units_Z 32
_cell_length_a 16.528271
_cell_length_b 11.244801
_cell_length_c 11.595400
_cell_angle_alpha 90.000000
_cell_angle_beta 33.338050
_cell_angle_gamma 90.000000
_cell_volume 1184.388220
_symmetry_space_group_name_H-M "P 21/C"
_symmetry_group_IT_number 14
_symmetry_cell_setting 'monoclinic'
loop_
_space_group_symop_operation_xyz
x,y,z
-x,1/2+y,1/2-z
-x,-y,-z
x,1/2-y,1/2+z
loop_
_atom_site_type_symbol
_atom_site_label
_atom_site_fract_x
_atom_site_fract_y
_atom_site_fract_z
Si Si1 0.884522 0.816237 0.569838
Si Si2 0.235270 0.065185 0.822322
Si Si3 0.660270 0.026291 0.954257
Si Si4 0.709805 0.384779 0.935121
Si Si5 0.865165 0.126208 0.900203
Si Si6 0.385380 0.316450 0.347130
Si Si7 0.682684 0.567684 0.147680
Si Si8 0.851267 0.194449 0.608744
O O1 0.852918 0.677231 0.622928
O O2 0.740712 0.898520 0.709475
O O3 0.980871 0.853311 0.568330
O O4 0.978976 0.851085 0.343885
O O5 0.317320 0.988583 0.626856
O O6 0.359740 0.112695 0.759412
O O7 0.117551 0.982272 0.030260
O O8 0.728160 0.104129 0.978011
O O9 0.489466 0.042261 0.136563
O O10 0.688342 0.886919 0.956125
O O11 0.742523 0.080362 0.742702
O O12 0.825137 0.288049 0.748034
O O13 0.561852 0.312677 0.143161
O O14 0.763831 0.458226 0.985349
O O15 0.824096 0.246592 0.018273
O O16 0.306849 0.188631 0.441396
#
# Coordination Sequence:
#
# PCOD8123916 Si02
#       8
#     4   4   4   4   4   4   4   4
#     4  10  22  34  52  83 117 147 177 236 282 333
#     4   9  19  33  55  83 109 143 189 235 280 327
#     4   9  18  37  57  81 108 150 186 232 281 340
#     4  10  19  31  60  86 109 143 190 236 278 333
#     4   9  20  36  58  79 109 148 185 234 280 337
#     4   9  17  34  55  80 116 146 178 231 291 328
#     4  10  20  34  54  85 120 142 179 237 287 327
#     4  10  20  36  59  83 111 147 197 224 283 340
#
# _framework density 27.018170000000001
#
# number of rings (size 3 to 8) (size 9 to 14) (size 15 to 20)
#    0.000    2.500    1.250    0.375    3.500    2.000 
#    0.000    0.000    2.750    3.750    0.000    0.000 
#    0.000    0.000    0.000    0.000    0.000    0.000 
#
# Total GULP energy -396514.554686 kJ/mol
# GULP energy per Si atom -12391.079834 kJ/mol
# Density = 2.695668 g / cm^3
# Si number density = 27.018170 Si / 1000 Ang^3
#
#
#
# Elastic Constant Matrix: (Units=GPa)
#
#
# Indices 1 2 3 4 5 6 
#
# 1 36.0466 3.2308 -0.3406 0.0000 5.4932 0.0000
# 2 3.2308 138.1626 14.0530 0.0000 -5.8525 0.0000
# 3 -0.3406 14.0530 40.5423 0.0000 -17.3706 0.0000
# 4 0.0000 0.0000 0.0000 34.8653 0.0000 6.9901
# 5 5.4932 -5.8525 -17.3706 0.0000 42.4880 0.0000
# 6 0.0000 0.0000 0.0000 6.9901 0.0000 26.3551
#
#
#
# Elastic Compliance Matrix: (Units=1/GPa)
#
#
# Indices 1 2 3 4 5 6 
#
# 1 0.028454 -0.000709 -0.001374 0.000000 -0.004338 0.000000
# 2 -0.000709 0.007520 -0.002582 0.000000 0.000072 0.000000
# 3 -0.001374 -0.002582 0.030882 0.000000 0.012448 0.000000
# 4 0.000000 0.000000 0.000000 0.030293 0.000000 -0.008034
# 5 -0.004338 0.000072 0.012448 0.000000 0.029196 0.000000
# 6 0.000000 0.000000 0.000000 -0.008034 0.000000 0.040074
#
#
# Mechanical properties :
#
#
# Convention : Reuss Voigt Hill
#
# Bulk Modulus (GPa) = 17.38338 27.62643 22.50490
# Shear Modulus (GPa) = 25.65106 33.92891 29.78999
#
# Velocity S-wave (km/s) = 3.08458 3.54754 3.32413
# Velocity P-wave (km/s) = 4.37425 5.19879 4.80424
#
# Compressibility (1/GPa) = 0.05752622
#
# Stress axis : x y z
#
# Youngs Moduli (GPa) = 35.14501 132.97716 32.38105
#
# Poissons Ratio (x) = 0.09433 0.04448
# Poissons Ratio (y) = 0.02493 0.08360
# Poissons Ratio (z) = 0.04828 0.34331
#
# Static dielectric constant tensor:
#      x y z
#    x 4.961710 0.000000 0.200450 
#    y 0.000000 5.403890 0.000000 
#    z 0.200450 0.000000 4.612660 
# 
# 
# High freq. dielectric constant tensor:
#      x y z
#    x 2.095480 0.000000 0.009260 
#    y 0.000000 2.121110 0.000000 
#    z 0.009260 0.000000 2.069930 
# 
# From -- ./inp_files/48990.got.cif
#   From: 2010.03.12/outbox.cif.g09.slc.cpg/sg14_25_cif.got.tgz:48990.got - 2010.03.31 13:35:05.
