data_PCOD8123524
_publ_section_title
;
Structure prediction by ZEFSAII (Michael W. Deem and Ramdas Pophale) SiO2 
 PCOD8123524
Probable space group: P 21/C
;
_chemical_formula_sum "Si O2"
_cell_formula_units_Z 20
_cell_length_a 8.280739
_cell_length_b 13.138553
_cell_length_c 9.334597
_cell_angle_alpha 90.000000
_cell_angle_beta 131.463939
_cell_angle_gamma 90.000000
_cell_volume 761.044452
_symmetry_space_group_name_H-M "P 21/C"
_symmetry_group_IT_number 14
_symmetry_cell_setting 'monoclinic'
loop_
_space_group_symop_operation_xyz
x,y,z
-x,1/2+y,1/2-z
-x,-y,-z
x,1/2-y,1/2+z
loop_
_atom_site_type_symbol
_atom_site_label
_atom_site_fract_x
_atom_site_fract_y
_atom_site_fract_z
Si Si1 0.547323 0.125035 0.536981
Si Si2 0.963370 0.132326 0.946560
Si Si3 0.117902 0.281024 0.812746
Si Si4 0.487184 0.341874 0.448681
Si Si5 0.412202 0.469950 0.671261
O O1 0.622900 0.235485 0.517658
O O2 0.527548 0.043828 0.394787
O O3 0.733442 0.085348 0.757112
O O4 0.314843 0.143623 0.476805
O O5 0.000239 0.237813 0.882881
O O6 0.955257 0.159284 0.110954
O O7 0.154070 0.051770 0.025420
O O8 0.232359 0.188270 0.790676
O O9 0.528902 0.394622 0.628182
O O10 0.552638 0.414080 0.357602
#
# Coordination Sequence:
#
# PCOD8123524 Si02
#       5
#     4   4   4   4   4
#     4   9  19  31  54  75 107 140 167 218 276 307
#     4  10  18  32  54  78 102 141 176 215 264 319
#     4   8  19  32  50  77 103 133 176 218 257 315
#     4   8  17  34  53  75 109 138 170 235 258 301
#     4   9  17  35  50  80 108 131 185 223 258 313
#
# _framework density 26.279674
#
# number of rings (size 3 to 8) (size 9 to 14) (size 15 to 20)
#    1.200    2.000    0.000    0.000    2.800    0.000 
#    3.600    3.000    0.000   15.600    0.000    0.000 
#    0.000    0.000    0.000    0.000    0.000    0.000 
#
# Total GULP energy -247863.063904 kJ/mol
# GULP energy per Si atom -12393.153195 kJ/mol
# Density = 2.621986 g / cm^3
# Si number density = 26.279674 Si / 1000 Ang^3
#
#
#
# Elastic Constant Matrix: (Units=GPa)
#
#
# Indices 1 2 3 4 5 6 
#
# 1 71.1962 24.6439 52.9157 0.0000 -13.6653 0.0000
# 2 24.6439 127.4609 68.1699 0.0000 -1.0861 0.0000
# 3 52.9157 68.1699 218.0665 0.0000 4.5919 0.0000
# 4 0.0000 0.0000 0.0000 42.6025 0.0000 -12.9643
# 5 -13.6653 -1.0861 4.5919 0.0000 32.6649 0.0000
# 6 0.0000 0.0000 0.0000 -12.9643 0.0000 34.7363
#
#
#
# Elastic Compliance Matrix: (Units=1/GPa)
#
#
# Indices 1 2 3 4 5 6 
#
# 1 0.019534 -0.001283 -0.004524 0.000000 0.008765 0.000000
# 2 -0.001283 0.009522 -0.002669 0.000000 0.000155 0.000000
# 3 -0.004524 -0.002669 0.006579 0.000000 -0.002906 0.000000
# 4 0.000000 0.000000 0.000000 0.026480 0.000000 0.009883
# 5 0.008765 0.000155 -0.002906 0.000000 0.034695 0.000000
# 6 0.000000 0.000000 0.000000 0.009883 0.000000 0.032477
#
#
# Mechanical properties :
#
#
# Convention : Reuss Voigt Hill
#
# Bulk Modulus (GPa) = 53.51875 78.68696 66.10286
# Shear Modulus (GPa) = 32.79417 40.06700 36.43059
#
# Velocity S-wave (km/s) = 3.53638 3.90890 3.72730
# Velocity P-wave (km/s) = 6.08966 7.09787 6.61301
#
# Compressibility (1/GPa) = 0.01868504
#
# Stress axis : x y z
#
# Youngs Moduli (GPa) = 51.19186 105.01784 151.99984
#
# Poissons Ratio (x) = 0.13471 0.68761
# Poissons Ratio (y) = 0.06567 0.40565
# Poissons Ratio (z) = 0.23158 0.28026
#
# Static dielectric constant tensor:
#      x y z
#    x 4.543930 0.000000 0.006720 
#    y 0.000000 5.037860 0.000000 
#    z 0.006720 0.000000 4.564800 
# 
# 
# High freq. dielectric constant tensor:
#      x y z
#    x 2.046310 0.000000 -0.005190 
#    y 0.000000 2.082630 0.000000 
#    z -0.005190 0.000000 2.047910 
# 
# From -- ./inp_files/20982.got.cif
#   From: 2010.03.12/outbox.cif.g09.slc.cpg/sg14_11_cif.got.tgz:20982.got - 2010.03.31 13:35:05.
