data_PCOD8123937
_publ_section_title
;
Structure prediction by ZEFSAII (Michael W. Deem and Ramdas Pophale) SiO2 
 PCOD8123937
Probable space group: P 21/C
;
_chemical_formula_sum "Si O2"
_cell_formula_units_Z 32
_cell_length_a 30.719206
_cell_length_b 9.316758
_cell_length_c 23.912724
_cell_angle_alpha 90.000000
_cell_angle_beta 164.745043
_cell_angle_gamma 90.000000
_cell_volume 1800.731397
_symmetry_space_group_name_H-M "P 21/C"
_symmetry_group_IT_number 14
_symmetry_cell_setting 'monoclinic'
loop_
_space_group_symop_operation_xyz
x,y,z
-x,1/2+y,1/2-z
-x,-y,-z
x,1/2-y,1/2+z
loop_
_atom_site_type_symbol
_atom_site_label
_atom_site_fract_x
_atom_site_fract_y
_atom_site_fract_z
Si Si1 0.922075 0.154715 0.838047
Si Si2 0.442698 0.188674 0.618107
Si Si3 0.034603 0.657299 0.882655
Si Si4 0.547584 0.140310 0.354307
Si Si5 0.955178 0.823387 0.612207
Si Si6 0.763052 0.171320 0.950458
Si Si7 0.246627 0.157241 0.053957
Si Si8 0.930796 0.822772 0.860707
O O1 0.730712 0.197675 0.593216
O O2 0.033155 0.239103 0.931356
O O3 0.951323 0.985900 0.865275
O O4 0.974908 0.204404 0.964853
O O5 0.473900 0.297962 0.706465
O O6 0.575556 0.213017 0.733542
O O7 0.261592 0.215234 0.368208
O O8 0.458884 0.029653 0.662861
O O9 0.868079 0.687997 0.641852
O O10 0.014009 0.718868 0.918928
O O11 0.073462 0.489745 0.935360
O O12 0.187897 0.735780 0.042550
O O13 0.434726 0.183999 0.267640
O O14 0.796210 0.766127 0.449301
O O15 0.120810 0.791126 0.852776
O O16 0.781164 0.003791 0.957924
#
# Coordination Sequence:
#
# PCOD8123937 Si02
#       8
#     4   4   4   4   4   4   4   4
#     4  10  21  36  54  77 107 142 174 208 258 316
#     4  10  19  33  54  79 105 133 173 218 258 303
#     4  10  19  32  52  78 105 136 173 215 261 304
#     4  10  19  33  54  79 105 133 173 218 258 303
#     4  10  19  32  52  78 105 136 173 215 261 304
#     4   9  18  32  51  77 105 133 170 216 261 306
#     4   9  18  32  51  77 105 133 170 216 261 306
#     4  10  21  36  54  77 107 142 174 208 258 316
#
# _framework density 17.770558000000001
#
# number of rings (size 3 to 8) (size 9 to 14) (size 15 to 20)
#    0.000    2.250    2.500    0.750    0.000    2.500 
#    0.000    1.250    0.000    7.500    0.000    0.000 
#    0.000    0.000    0.000    0.000    0.000    0.000 
#
# Total GULP energy -396907.624772 kJ/mol
# GULP energy per Si atom -12403.363274 kJ/mol
# Density = 1.773011 g / cm^3
# Si number density = 17.770558 Si / 1000 Ang^3
#
#
#
# Elastic Constant Matrix: (Units=GPa)
#
#
# Indices 1 2 3 4 5 6 
#
# 1 83.1547 38.3910 9.2610 0.0000 10.0998 0.0000
# 2 38.3910 59.0366 9.4159 0.0000 2.3435 0.0000
# 3 9.2610 9.4159 39.5849 0.0000 6.7004 0.0000
# 4 0.0000 0.0000 0.0000 16.9682 0.0000 1.6768
# 5 10.0998 2.3435 6.7004 0.0000 22.7324 0.0000
# 6 0.0000 0.0000 0.0000 1.6768 0.0000 35.9438
#
#
#
# Elastic Compliance Matrix: (Units=1/GPa)
#
#
# Indices 1 2 3 4 5 6 
#
# 1 0.018206 -0.011511 -0.000372 0.000000 -0.006793 0.000000
# 2 -0.011511 0.024892 -0.003851 0.000000 0.003683 0.000000
# 3 -0.000372 -0.003851 0.027544 0.000000 -0.007557 0.000000
# 4 0.000000 0.000000 0.000000 0.059207 0.000000 -0.002762
# 5 -0.006793 0.003683 -0.007557 0.000000 0.048856 0.000000
# 6 0.000000 0.000000 0.000000 -0.002762 0.000000 0.027950
#
#
# Mechanical properties :
#
#
# Convention : Reuss Voigt Hill
#
# Bulk Modulus (GPa) = 25.52631 32.87913 29.20272
# Shear Modulus (GPa) = 19.90595 23.44276 21.67436
#
# Velocity S-wave (km/s) = 3.35052 3.63601 3.49618
# Velocity P-wave (km/s) = 5.41881 6.01412 5.72421
#
# Compressibility (1/GPa) = 0.03917527
#
# Stress axis : x y z
#
# Youngs Moduli (GPa) = 54.92560 40.17358 36.30513
#
# Poissons Ratio (x) = 0.46242 0.01349
# Poissons Ratio (y) = 0.63223 0.13983
# Poissons Ratio (z) = 0.02041 0.15473
#
# Static dielectric constant tensor:
#      x y z
#    x 3.216240 0.000000 0.215950 
#    y 0.000000 3.281150 0.000000 
#    z 0.215950 0.000000 3.226720 
# 
# 
# High freq. dielectric constant tensor:
#      x y z
#    x 1.687210 0.000000 0.019990 
#    y 0.000000 1.688800 0.000000 
#    z 0.019990 0.000000 1.668570 
# 
# From -- ./inp_files/69788.got.cif
#   From: 2010.03.12/outbox.cif.g09.slc.cpg/sg14_35_cif.got.tgz:69788.got - 2010.03.31 13:35:05.
