data_PCOD8123199
_publ_section_title
;
Structure prediction by ZEFSAII (Michael W. Deem and Ramdas Pophale) SiO2 
 PCOD8123199
Probable space group: P 2/C
;
_chemical_formula_sum "Si O2"
_cell_formula_units_Z 14
_cell_length_a 7.952081
_cell_length_b 4.922792
_cell_length_c 20.093044
_cell_angle_alpha 90.000000
_cell_angle_beta 43.694144
_cell_angle_gamma 90.000000
_cell_volume 543.370053
_symmetry_space_group_name_H-M "P 2/C"
_symmetry_group_IT_number 13
_symmetry_cell_setting 'monoclinic'
loop_
_space_group_symop_operation_xyz
x,y,z
-x,y,1/2-z
-x,-y,-z
x,-y,1/2+z
loop_
_atom_site_type_symbol
_atom_site_label
_atom_site_fract_x
_atom_site_fract_y
_atom_site_fract_z
Si Si1 0.000000 0.165594 0.750000
Si Si2 0.360148 0.455075 0.227458
Si Si3 0.078995 0.136238 0.106830
Si Si4 0.797341 0.619827 0.509549
O O1 0.170546 0.337573 0.749437
O O2 0.167758 0.975945 0.653644
O O3 0.500000 0.594112 0.250000
O O4 0.542199 0.345923 0.119413
O O5 0.208694 0.203382 0.302002
O O6 0.115045 0.913487 0.039403
O O7 0.228809 0.408537 0.044862
O O8 0.000000 0.500000 0.500000
#
# Coordination Sequence:
#
# PCOD8123199 Si02
#       4
#     2   4   4   4
#     4  12  28  54  78 124 168 212 272 332 408 474
#     4  12  28  53  85 115 167 215 266 343 398 483
#     4  12  27  50  78 119 161 208 270 330 402 477
#     4  12  27  49  83 121 158 213 274 327 408 481
#
# _framework density 25.765128000000001
#
# number of rings (size 3 to 8) (size 9 to 14) (size 15 to 20)
#    0.000    0.000    5.714    1.714    4.000    3.429 
#    0.000    0.000    0.000    0.000    0.000    0.000 
#    0.000    0.000    0.000    0.000    0.000    0.000 
#
# Total GULP energy -173589.170642 kJ/mol
# GULP energy per Si atom -12399.226474 kJ/mol
# Density = 2.570649 g / cm^3
# Si number density = 25.765128 Si / 1000 Ang^3
#
#
#
# Elastic Constant Matrix: (Units=GPa)
#
#
# Indices 1 2 3 4 5 6 
#
# 1 135.5484 46.8005 37.4450 0.0000 13.7228 0.0000
# 2 46.8005 140.7065 76.6218 0.0000 -0.1100 0.0000
# 3 37.4450 76.6218 234.0166 0.0000 -0.0721 0.0000
# 4 0.0000 0.0000 0.0000 34.9658 0.0000 7.2800
# 5 13.7228 -0.1100 -0.0721 0.0000 34.6376 0.0000
# 6 0.0000 0.0000 0.0000 7.2800 0.0000 21.3663
#
#
#
# Elastic Compliance Matrix: (Units=1/GPa)
#
#
# Indices 1 2 3 4 5 6 
#
# 1 0.008790 -0.002628 -0.000547 0.000000 -0.003492 0.000000
# 2 -0.002628 0.009435 -0.002668 0.000000 0.001066 0.000000
# 3 -0.000547 -0.002668 0.005234 0.000000 0.000219 0.000000
# 4 0.000000 0.000000 0.000000 0.030783 0.000000 -0.010489
# 5 -0.003492 0.001066 0.000219 0.000000 0.030258 0.000000
# 6 0.000000 0.000000 0.000000 -0.010489 0.000000 0.050376
#
#
# Mechanical properties :
#
#
# Convention : Reuss Voigt Hill
#
# Bulk Modulus (GPa) = 84.94890 92.44513 88.69702
# Shear Modulus (GPa) = 33.22537 41.48755 37.35646
#
# Velocity S-wave (km/s) = 3.59492 4.01711 3.81187
# Velocity P-wave (km/s) = 7.09037 7.58116 7.33987
#
# Compressibility (1/GPa) = 0.01177178
#
# Stress axis : x y z
#
# Youngs Moduli (GPa) = 113.77181 105.98707 191.04215
#
# Poissons Ratio (x) = 0.27858 0.10448
# Poissons Ratio (y) = 0.29904 0.50977
# Poissons Ratio (z) = 0.06222 0.28281
#
# Static dielectric constant tensor:
#      x y z
#    x 4.633320 0.000000 0.402690 
#    y 0.000000 4.882360 0.000000 
#    z 0.402690 0.000000 5.393240 
# 
# 
# High freq. dielectric constant tensor:
#      x y z
#    x 2.014630 0.000000 0.024740 
#    y 0.000000 2.035470 0.000000 
#    z 0.024740 0.000000 2.058210 
# 
# From -- ./inp_files/74336.got.cif
#   From: 2010.06.25/outbox.cif.g09.slc.cpg/sg13_38_cif.got.tgz:74336.got - 2010.06.28 04:50:58.
