data_PCOD8123831
_publ_section_title
;
Structure prediction by ZEFSAII (Michael W. Deem and Ramdas Pophale) SiO2 
 PCOD8123831
Probable space group: P 21/C
;
_chemical_formula_sum "Si O2"
_cell_formula_units_Z 24
_cell_length_a 12.235314
_cell_length_b 11.416756
_cell_length_c 13.743568
_cell_angle_alpha 90.000000
_cell_angle_beta 139.174689
_cell_angle_gamma 90.000000
_cell_volume 1255.082647
_symmetry_space_group_name_H-M "P 21/C"
_symmetry_group_IT_number 14
_symmetry_cell_setting 'monoclinic'
loop_
_space_group_symop_operation_xyz
x,y,z
-x,1/2+y,1/2-z
-x,-y,-z
x,1/2-y,1/2+z
loop_
_atom_site_type_symbol
_atom_site_label
_atom_site_fract_x
_atom_site_fract_y
_atom_site_fract_z
Si Si1 0.900152 0.956694 0.340584
Si Si2 0.685663 0.326068 0.629977
Si Si3 0.383523 0.805101 0.223067
Si Si4 0.800310 0.336394 0.051119
Si Si5 0.469008 0.039713 0.370782
Si Si6 0.385517 0.208896 0.792198
O O1 0.786327 0.854800 0.306197
O O2 0.025654 0.903186 0.345239
O O3 0.793616 0.057719 0.217908
O O4 0.000000 0.000000 0.500000
O O5 0.610436 0.279369 0.679911
O O6 0.801481 0.226074 0.657675
O O7 0.530722 0.353027 0.454268
O O8 0.558924 0.794319 0.283364
O O9 0.367461 0.941007 0.243147
O O10 0.228164 0.763758 0.050943
O O11 0.646519 0.428575 0.939391
O O12 0.356298 0.156000 0.301434
O O13 0.500000 0.000000 0.500000
#
# Coordination Sequence:
#
# PCOD8123831 Si02
#       6
#     4   4   4   4   4   4
#     4  12  23  42  62  88 131 159 199 255 315 353
#     4  10  21  42  62  88 123 161 203 254 292 365
#     4  10  18  39  63  84 122 152 204 252 292 355
#     4  10  23  38  59  96 120 161 200 251 313 357
#     4  10  18  38  64  86 117 158 207 250 291 362
#     4  10  24  37  63  94 112 166 209 237 310 366
#
# _framework density 19.122247000000002
#
# number of rings (size 3 to 8) (size 9 to 14) (size 15 to 20)
#    0.000    2.000    5.000    1.500    2.333    1.333 
#    3.000    0.833    0.000    0.000    0.000    0.000 
#    0.000    0.000    0.000    0.000    0.000    0.000 
#
# Total GULP energy -297526.297316 kJ/mol
# GULP energy per Si atom -12396.929055 kJ/mol
# Density = 1.907872 g / cm^3
# Si number density = 19.122247 Si / 1000 Ang^3
#
#
#
# Elastic Constant Matrix: (Units=GPa)
#
#
# Indices 1 2 3 4 5 6 
#
# 1 128.3049 51.5809 47.3626 0.0000 2.0195 0.0000
# 2 51.5809 138.7863 58.2580 0.0000 8.0706 0.0000
# 3 47.3626 58.2580 72.3817 0.0000 0.5898 0.0000
# 4 0.0000 0.0000 0.0000 36.7218 0.0000 1.1615
# 5 2.0195 8.0706 0.5898 0.0000 36.6268 0.0000
# 6 0.0000 0.0000 0.0000 1.1615 0.0000 36.1551
#
#
#
# Elastic Compliance Matrix: (Units=1/GPa)
#
#
# Indices 1 2 3 4 5 6 
#
# 1 0.010489 -0.001524 -0.005636 0.000000 -0.000152 0.000000
# 2 -0.001524 0.011293 -0.008074 0.000000 -0.002274 0.000000
# 3 -0.005636 -0.008074 0.023988 0.000000 0.001703 0.000000
# 4 0.000000 0.000000 0.000000 0.027260 0.000000 -0.000876
# 5 -0.000152 -0.002274 0.001703 0.000000 0.027784 0.000000
# 6 0.000000 0.000000 0.000000 -0.000876 0.000000 0.027687
#
#
# Mechanical properties :
#
#
# Convention : Reuss Voigt Hill
#
# Bulk Modulus (GPa) = 65.34559 72.65288 68.99924
# Shear Modulus (GPa) = 30.47489 34.05217 32.26353
#
# Velocity S-wave (km/s) = 3.99643 4.22449 4.11204
# Velocity P-wave (km/s) = 7.45265 7.86584 7.66203
#
# Compressibility (1/GPa) = 0.01530325
#
# Stress axis : x y z
#
# Youngs Moduli (GPa) = 95.33428 88.55002 41.68746
#
# Poissons Ratio (x) = 0.13494 0.23495
# Poissons Ratio (y) = 0.14527 0.33658
# Poissons Ratio (z) = 0.53730 0.71494
#
# Static dielectric constant tensor:
#      x y z
#    x 3.768720 0.000000 -0.073860 
#    y 0.000000 3.748780 0.000000 
#    z -0.073860 0.000000 3.343360 
# 
# 
# High freq. dielectric constant tensor:
#      x y z
#    x 1.753720 0.000000 -0.016460 
#    y 0.000000 1.754760 0.000000 
#    z -0.016460 0.000000 1.715720 
# 
# From -- ./inp_files/44490.got.cif
#   From: 2010.03.12/outbox.cif.g09.slc.cpg/sg14_23_cif.got.tgz:44490.got - 2010.03.31 13:35:05.
