data_PCOD8123024
_publ_section_title
;
Structure prediction by ZEFSAII (Michael W. Deem and Ramdas Pophale) SiO2 
 PCOD8123024
Probable space group: P 2/C
;
_chemical_formula_sum "Si O2"
_cell_formula_units_Z 16
_cell_length_a 24.206002
_cell_length_b 4.876654
_cell_length_c 13.226577
_cell_angle_alpha 90.000000
_cell_angle_beta 21.450287
_cell_angle_gamma 90.000000
_cell_volume 570.965778
_symmetry_space_group_name_H-M "P 2/C"
_symmetry_group_IT_number 13
_symmetry_cell_setting 'monoclinic'
loop_
_space_group_symop_operation_xyz
x,y,z
-x,y,1/2-z
-x,-y,-z
x,-y,1/2+z
loop_
_atom_site_type_symbol
_atom_site_label
_atom_site_fract_x
_atom_site_fract_y
_atom_site_fract_z
Si Si1 0.238965 0.498489 0.190304
Si Si2 0.458375 0.309375 0.479376
Si Si3 0.039425 0.003842 0.070820
Si Si4 0.285501 0.918632 0.444374
O O1 0.382211 0.519726 0.020046
O O2 0.160390 0.794316 0.311439
O O3 0.300171 0.372495 0.979511
O O4 0.113030 0.296208 0.451575
O O5 0.500000 0.500000 0.500000
O O6 0.338391 0.099913 0.736665
O O7 0.605814 0.144669 0.185409
O O8 0.889614 0.993237 0.256667
O O9 0.000000 0.109975 0.250000
#
# Coordination Sequence:
#
# PCOD8123024 Si02
#       4
#     4   4   4   4
#     4  12  28  50  83 119 159 219 273 337 408 496
#     4  11  27  52  78 118 168 213 272 339 408 490
#     4  12  25  50  83 119 165 210 274 338 411 483
#     4  11  27  51  82 120 165 218 273 340 414 486
#
# _framework density 28.022697000000001
#
# number of rings (size 3 to 8) (size 9 to 14) (size 15 to 20)
#    0.000    0.500    2.500    3.750   10.500    1.000 
#    0.000    0.000    0.000    0.000    0.000    0.000 
#    0.000    0.000    0.000    0.000    0.000    0.000 
#
# Total GULP energy -198540.159867 kJ/mol
# GULP energy per Si atom -12408.759992 kJ/mol
# Density = 2.795892 g / cm^3
# Si number density = 28.022697 Si / 1000 Ang^3
#
#
#
# Elastic Constant Matrix: (Units=GPa)
#
#
# Indices 1 2 3 4 5 6 
#
# 1 171.9089 47.5023 81.1800 0.0000 -25.8263 0.0000
# 2 47.5023 84.3993 24.7284 0.0000 -28.5089 0.0000
# 3 81.1800 24.7284 199.9147 0.0000 -17.7184 0.0000
# 4 0.0000 0.0000 0.0000 41.3047 0.0000 -11.1088
# 5 -25.8263 -28.5089 -17.7184 0.0000 55.0904 0.0000
# 6 0.0000 0.0000 0.0000 -11.1088 0.0000 54.1618
#
#
#
# Elastic Compliance Matrix: (Units=1/GPa)
#
#
# Indices 1 2 3 4 5 6 
#
# 1 0.008282 -0.003426 -0.002833 0.000000 0.001198 0.000000
# 2 -0.003426 0.016038 0.000001 0.000000 0.006693 0.000000
# 3 -0.002833 0.000001 0.006212 0.000000 0.000670 0.000000
# 4 0.000000 0.000000 0.000000 0.025624 0.000000 0.005256
# 5 0.001198 0.006693 0.000670 0.000000 0.022393 0.000000
# 6 0.000000 0.000000 0.000000 0.005256 0.000000 0.019541
#
#
# Mechanical properties :
#
#
# Convention : Reuss Voigt Hill
#
# Bulk Modulus (GPa) = 55.51236 84.78272 70.14754
# Shear Modulus (GPa) = 42.87781 50.29886 46.58834
#
# Velocity S-wave (km/s) = 3.91591 4.24126 4.08183
# Velocity P-wave (km/s) = 6.34811 7.36920 6.87763
#
# Compressibility (1/GPa) = 0.01801400
#
# Stress axis : x y z
#
# Youngs Moduli (GPa) = 120.74959 62.35365 160.98372
#
# Poissons Ratio (x) = 0.21365 0.45605
# Poissons Ratio (y) = 0.41373 -0.00013
# Poissons Ratio (z) = 0.34207 -0.00005
#
# Static dielectric constant tensor:
#      x y z
#    x 5.418280 0.000000 0.881360 
#    y 0.000000 5.233370 0.000000 
#    z 0.881360 0.000000 6.799500 
# 
# 
# High freq. dielectric constant tensor:
#      x y z
#    x 2.141690 0.000000 0.015780 
#    y 0.000000 2.134490 0.000000 
#    z 0.015780 0.000000 2.181310 
# 
# From -- ./inp_files/59061.got.cif
#   From: 2010.06.25/outbox.cif.g09.slc.cpg/sg13_30_cif.got.tgz:59061.got - 2010.06.28 04:50:58.
