data_PCOD8123101
_publ_section_title
;
Structure prediction by ZEFSAII (Michael W. Deem and Ramdas Pophale) SiO2 
 PCOD8123101
Probable space group: P 2/C
;
_chemical_formula_sum "Si O2"
_cell_formula_units_Z 18
_cell_length_a 10.772430
_cell_length_b 7.039597
_cell_length_c 11.572743
_cell_angle_alpha 90.000000
_cell_angle_beta 127.882173
_cell_angle_gamma 90.000000
_cell_volume 692.669764
_symmetry_space_group_name_H-M "P 2/C"
_symmetry_group_IT_number 13
_symmetry_cell_setting 'monoclinic'
loop_
_space_group_symop_operation_xyz
x,y,z
-x,y,1/2-z
-x,-y,-z
x,-y,1/2+z
loop_
_atom_site_type_symbol
_atom_site_label
_atom_site_fract_x
_atom_site_fract_y
_atom_site_fract_z
Si Si1 0.500000 0.145075 0.250000
Si Si2 0.696230 0.635634 0.040035
Si Si3 0.823700 0.255776 0.190275
Si Si4 0.947178 0.292694 0.503983
Si Si5 0.253497 0.089404 0.746850
O O1 0.551481 0.291045 0.380843
O O2 0.632350 0.999196 0.282907
O O3 0.703746 0.405826 0.063797
O O4 0.679885 0.715717 0.160786
O O5 0.860815 0.701879 0.077670
O O6 0.000000 0.297160 0.250000
O O7 0.822832 0.242268 0.331868
O O8 0.764084 0.039186 0.142818
O O9 0.090026 0.142129 0.588861
O O10 0.000000 0.500000 0.500000
#
# Coordination Sequence:
#
# PCOD8123101 Si02
#       5
#     2   4   4   4   4
#     4  12  30  48  72 110 166 216 246 304 384 468
#     4  12  26  50  71 114 154 196 262 310 383 458
#     4  12  24  43  81 113 141 194 256 326 381 429
#     4  12  23  48  79 114 145 188 259 331 374 437
#     4  12  27  49  77 109 154 199 260 315 381 455
#
# _framework density 25.986407
#
# number of rings (size 3 to 8) (size 9 to 14) (size 15 to 20)
#    0.000    0.000    6.667    3.333    3.111    0.889 
#    0.000    5.556    0.000    0.000    0.000    0.000 
#    0.000    0.000    0.000    0.000    0.000    0.000 
#
# Total GULP energy -223033.013185 kJ/mol
# GULP energy per Si atom -12390.722955 kJ/mol
# Density = 2.592726 g / cm^3
# Si number density = 25.986407 Si / 1000 Ang^3
#
#
#
# Elastic Constant Matrix: (Units=GPa)
#
#
# Indices 1 2 3 4 5 6 
#
# 1 81.6408 53.4860 21.0427 0.0000 -2.9831 0.0000
# 2 53.4860 122.1418 22.2316 0.0000 10.4302 0.0000
# 3 21.0427 22.2316 101.9078 0.0000 2.7764 0.0000
# 4 0.0000 0.0000 0.0000 52.4926 0.0000 -4.1958
# 5 -2.9831 10.4302 2.7764 0.0000 32.8896 0.0000
# 6 0.0000 0.0000 0.0000 -4.1958 0.0000 38.4080
#
#
#
# Elastic Compliance Matrix: (Units=1/GPa)
#
#
# Indices 1 2 3 4 5 6 
#
# 1 0.018155 -0.007932 -0.002137 0.000000 0.004342 0.000000
# 2 -0.007932 0.012211 -0.000903 0.000000 -0.004515 0.000000
# 3 -0.002137 -0.000903 0.010473 0.000000 -0.000792 0.000000
# 4 0.000000 0.000000 0.000000 0.019218 0.000000 0.002099
# 5 0.004342 -0.004515 -0.000792 0.000000 0.032297 0.000000
# 6 0.000000 0.000000 0.000000 0.002099 0.000000 0.026266
#
#
# Mechanical properties :
#
#
# Convention : Reuss Voigt Hill
#
# Bulk Modulus (GPa) = 52.92454 55.46790 54.19622
# Shear Modulus (GPa) = 34.04606 38.68671 36.36638
#
# Velocity S-wave (km/s) = 3.62352 3.86259 3.74497
# Velocity P-wave (km/s) = 6.15768 6.42527 6.29290
#
# Compressibility (1/GPa) = 0.01889483
#
# Stress axis : x y z
#
# Youngs Moduli (GPa) = 55.08243 81.89665 95.48797
#
# Poissons Ratio (x) = 0.64959 0.20402
# Poissons Ratio (y) = 0.43690 0.08622
# Poissons Ratio (z) = 0.11769 0.07395
#
# Static dielectric constant tensor:
#      x y z
#    x 4.750900 0.000000 -0.084250 
#    y 0.000000 6.779740 0.000000 
#    z -0.084250 0.000000 3.011740 
# 
# 
# High freq. dielectric constant tensor:
#      x y z
#    x 2.035330 0.000000 -0.005940 
#    y 0.000000 2.069970 0.000000 
#    z -0.005940 0.000000 2.028950 
# 
# From -- ./inp_files/32348.got.cif
#   From: 2010.06.25/outbox.cif.g09.slc.cpg/sg13_17_cif.got.tgz:32348.got - 2010.06.28 04:50:58.
