data_PCOD8123324
_publ_section_title
;
Structure prediction by ZEFSAII (Michael W. Deem and Ramdas Pophale) SiO2 
 PCOD8123324
Probable space group: P 21/C
;
_chemical_formula_sum "Si O2"
_cell_formula_units_Z 32
_cell_length_a 16.917047
_cell_length_b 14.206367
_cell_length_c 14.160193
_cell_angle_alpha 90.000000
_cell_angle_beta 32.600195
_cell_angle_gamma 90.000000
_cell_volume 1833.509260
_symmetry_space_group_name_H-M "P 21/C"
_symmetry_group_IT_number 14
_symmetry_cell_setting 'monoclinic'
loop_
_space_group_symop_operation_xyz
x,y,z
-x,1/2+y,1/2-z
-x,-y,-z
x,1/2-y,1/2+z
loop_
_atom_site_type_symbol
_atom_site_label
_atom_site_fract_x
_atom_site_fract_y
_atom_site_fract_z
Si Si1 0.332950 0.323492 0.896904
Si Si2 0.102170 0.146619 0.789726
Si Si3 0.751603 0.456769 0.846226
Si Si4 0.583586 0.034207 0.688815
Si Si5 0.305829 0.273330 0.227752
Si Si6 0.419621 0.470098 0.176855
Si Si7 0.775571 0.350272 0.652481
Si Si8 0.524254 0.286768 0.353942
O O1 0.399208 0.424843 0.800579
O O2 0.280649 0.275490 0.853210
O O3 0.455630 0.264086 0.830553
O O4 0.189443 0.332112 0.105904
O O5 0.154207 0.215922 0.821956
O O6 0.129224 0.037845 0.790947
O O7 0.930483 0.162967 0.944292
O O8 0.800044 0.361896 0.742068
O O9 0.727369 0.434869 0.981393
O O10 0.589181 0.495437 0.968430
O O11 0.439964 0.048622 0.768402
O O12 0.565194 0.103848 0.795392
O O13 0.369988 0.375960 0.176357
O O14 0.418234 0.213889 0.050529
O O15 0.298692 0.551381 0.299591
O O16 0.676773 0.262196 0.726531
#
# Coordination Sequence:
#
# PCOD8123324 Si02
#       8
#     4   4   4   4   4   4   4   4
#     4  10  20  38  54  76 107 144 180 218 264 320
#     4  10  22  33  51  81 113 141 174 216 274 324
#     4   9  17  32  53  76 106 134 169 221 269 306
#     4   9  19  33  54  81 105 134 176 223 266 308
#     4  11  20  35  57  78 108 146 178 219 267 321
#     4  10  17  31  56  83 103 130 175 229 270 299
#     4  12  19  32  53  85 111 132 172 230 273 315
#     4  11  20  34  58  81 106 135 182 229 264 310
#
# _framework density 17.452870999999998
#
# number of rings (size 3 to 8) (size 9 to 14) (size 15 to 20)
#    0.750    1.000    5.000    1.500    0.000    0.500 
#    2.250    0.000    0.000    0.750    0.000    0.000 
#    0.000    0.000    0.000    0.000    0.000    0.000 
#
# Total GULP energy -396505.747160 kJ/mol
# GULP energy per Si atom -12390.804599 kJ/mol
# Density = 1.741315 g / cm^3
# Si number density = 17.452871 Si / 1000 Ang^3
#
#
#
# Elastic Constant Matrix: (Units=GPa)
#
#
# Indices 1 2 3 4 5 6 
#
# 1 67.4356 28.0508 39.2643 0.0000 9.3985 0.0000
# 2 28.0508 67.9466 22.7584 0.0000 10.6008 0.0000
# 3 39.2643 22.7584 78.7101 0.0000 -8.9593 0.0000
# 4 0.0000 0.0000 0.0000 21.8528 0.0000 8.6671
# 5 9.3985 10.6008 -8.9593 0.0000 27.4553 0.0000
# 6 0.0000 0.0000 0.0000 8.6671 0.0000 30.2720
#
#
#
# Elastic Compliance Matrix: (Units=1/GPa)
#
#
# Indices 1 2 3 4 5 6 
#
# 1 0.025754 -0.004597 -0.012795 0.000000 -0.011217 0.000000
# 2 -0.004597 0.019074 -0.004031 0.000000 -0.007107 0.000000
# 3 -0.012795 -0.004031 0.021736 0.000000 0.013030 0.000000
# 4 0.000000 0.000000 0.000000 0.051623 0.000000 -0.014780
# 5 -0.011217 -0.007107 0.013030 0.000000 0.047258 0.000000
# 6 0.000000 0.000000 0.000000 -0.014780 0.000000 0.037265
#
#
# Mechanical properties :
#
#
# Convention : Reuss Voigt Hill
#
# Bulk Modulus (GPa) = 42.16020 43.80438 42.98229
# Shear Modulus (GPa) = 19.72676 24.18394 21.95535
#
# Velocity S-wave (km/s) = 3.36562 3.72650 3.55065
# Velocity P-wave (km/s) = 6.26995 6.60824 6.44132
#
# Compressibility (1/GPa) = 0.02371905
#
# Stress axis : x y z
#
# Youngs Moduli (GPa) = 38.82862 52.42744 46.00593
#
# Poissons Ratio (x) = 0.24099 0.58865
# Poissons Ratio (y) = 0.17848 0.18545
# Poissons Ratio (z) = 0.49682 0.21134
#
# Static dielectric constant tensor:
#      x y z
#    x 3.275130 0.000000 0.122380 
#    y 0.000000 3.054890 0.000000 
#    z 0.122380 0.000000 3.093170 
# 
# 
# High freq. dielectric constant tensor:
#      x y z
#    x 1.665670 0.000000 0.008480 
#    y 0.000000 1.659060 0.000000 
#    z 0.008480 0.000000 1.661190 
# 
# From -- ./inp_files/49157.got.cif
#   From: 2010.03.12/outbox.cif.g09.slc.cpg/sg14_25_cif.got.tgz:49157.got - 2010.03.31 13:35:05.
