data_PCOD8123914
_publ_section_title
;
Structure prediction by ZEFSAII (Michael W. Deem and Ramdas Pophale) SiO2 
 PCOD8123914
Probable space group: P 21/C
;
_chemical_formula_sum "Si O2"
_cell_formula_units_Z 28
_cell_length_a 12.918393
_cell_length_b 9.518987
_cell_length_c 18.085512
_cell_angle_alpha 90.000000
_cell_angle_beta 42.751193
_cell_angle_gamma 90.000000
_cell_volume 1509.670355
_symmetry_space_group_name_H-M "P 21/C"
_symmetry_group_IT_number 14
_symmetry_cell_setting 'monoclinic'
loop_
_space_group_symop_operation_xyz
x,y,z
-x,1/2+y,1/2-z
-x,-y,-z
x,1/2-y,1/2+z
loop_
_atom_site_type_symbol
_atom_site_label
_atom_site_fract_x
_atom_site_fract_y
_atom_site_fract_z
Si Si1 0.181999 0.558726 0.083831
Si Si2 0.045083 0.237822 0.873771
Si Si3 0.323958 0.220369 0.328747
Si Si4 0.402082 0.583051 0.834846
Si Si5 0.840510 0.234061 0.113779
Si Si6 0.895020 0.769777 0.429491
Si Si7 0.121161 0.947323 0.775621
O O1 0.144536 0.393504 0.105607
O O2 0.216993 0.594037 0.151522
O O3 0.034169 0.641691 0.132797
O O4 0.326833 0.587863 0.955773
O O5 0.194362 0.302643 0.834835
O O6 0.094897 0.112870 0.793560
O O7 0.921819 0.174806 0.997014
O O8 0.434312 0.344530 0.243631
O O9 0.250719 0.270875 0.444366
O O10 0.414205 0.074272 0.295849
O O11 0.304641 0.672183 0.827414
O O12 0.792164 0.106736 0.195104
O O13 0.969274 0.328055 0.087706
O O14 0.955678 0.630698 0.355720
#
# Coordination Sequence:
#
# PCOD8123914 Si02
#       7
#     4   4   4   4   4   4   4
#     4  10  19  35  53  80 111 139 169 216 276 314
#     4  10  19  33  56  82 105 138 180 218 256 314
#     4  10  21  34  55  78 106 138 183 221 255 306
#     4  10  21  35  56  77 104 145 177 222 258 312
#     4   8  18  33  55  77 103 133 180 216 262 299
#     4   8  18  33  53  77 105 131 176 218 264 301
#     4  10  19  31  57  81 107 134 174 217 265 313
#
# _framework density 18.547094999999999
#
# number of rings (size 3 to 8) (size 9 to 14) (size 15 to 20)
#    0.857    1.714    0.000    2.143    2.000    4.571 
#    0.000    0.714    3.143    0.857    0.000    0.000 
#    0.000    0.000    0.000    0.000    0.000    0.000 
#
# Total GULP energy -346914.750785 kJ/mol
# GULP energy per Si atom -12389.812528 kJ/mol
# Density = 1.850488 g / cm^3
# Si number density = 18.547095 Si / 1000 Ang^3
#
#
#
# Elastic Constant Matrix: (Units=GPa)
#
#
# Indices 1 2 3 4 5 6 
#
# 1 43.9357 11.2471 30.1154 0.0000 12.8303 0.0000
# 2 11.2471 79.0320 40.1165 0.0000 3.2467 0.0000
# 3 30.1154 40.1165 77.0718 0.0000 19.0089 0.0000
# 4 0.0000 0.0000 0.0000 25.3697 0.0000 -1.9884
# 5 12.8303 3.2467 19.0089 0.0000 29.7978 0.0000
# 6 0.0000 0.0000 0.0000 -1.9884 0.0000 22.8243
#
#
#
# Elastic Compliance Matrix: (Units=1/GPa)
#
#
# Indices 1 2 3 4 5 6 
#
# 1 0.032419 0.001723 -0.011957 0.000000 -0.006519 0.000000
# 2 0.001723 0.017825 -0.011024 0.000000 0.004348 0.000000
# 3 -0.011957 -0.011024 0.025893 0.000000 -0.010168 0.000000
# 4 0.000000 0.000000 0.000000 0.039688 0.000000 0.003458
# 5 -0.006519 0.004348 -0.010168 0.000000 0.042380 0.000000
# 6 0.000000 0.000000 0.000000 0.003458 0.000000 0.044114
#
#
# Mechanical properties :
#
#
# Convention : Reuss Voigt Hill
#
# Bulk Modulus (GPa) = 29.74212 40.33303 35.03757
# Shear Modulus (GPa) = 19.52819 23.50239 21.51529
#
# Velocity S-wave (km/s) = 3.24836 3.56360 3.40962
# Velocity P-wave (km/s) = 5.48998 6.22301 5.86795
#
# Compressibility (1/GPa) = 0.03362235
#
# Stress axis : x y z
#
# Youngs Moduli (GPa) = 30.84638 56.10118 38.62062
#
# Poissons Ratio (x) = -0.09669 0.46177
# Poissons Ratio (y) = -0.05316 0.42575
# Poissons Ratio (z) = 0.36882 0.61845
#
# Static dielectric constant tensor:
#      x y z
#    x 3.136150 0.000000 0.110080 
#    y 0.000000 3.280330 0.000000 
#    z 0.110080 0.000000 3.309440 
# 
# 
# High freq. dielectric constant tensor:
#      x y z
#    x 1.694890 0.000000 0.011130 
#    y 0.000000 1.714140 0.000000 
#    z 0.011130 0.000000 1.709810 
# 
# From -- ./inp_files/67994.got.cif
#   From: 2010.03.12/outbox.cif.g09.slc.cpg/sg14_34_cif.got.tgz:67994.got - 2010.03.31 13:35:05.
