data_PCOD8123135
_publ_section_title
;
Structure prediction by ZEFSAII (Michael W. Deem and Ramdas Pophale) SiO2 
 PCOD8123135
Probable space group: P 2/C
;
_chemical_formula_sum "Si O2"
_cell_formula_units_Z 16
_cell_length_a 9.640048
_cell_length_b 10.959103
_cell_length_c 8.466764
_cell_angle_alpha 90.000000
_cell_angle_beta 49.352257
_cell_angle_gamma 90.000000
_cell_volume 678.669314
_symmetry_space_group_name_H-M "P 2/C"
_symmetry_group_IT_number 13
_symmetry_cell_setting 'monoclinic'
loop_
_space_group_symop_operation_xyz
x,y,z
-x,y,1/2-z
-x,-y,-z
x,-y,1/2+z
loop_
_atom_site_type_symbol
_atom_site_label
_atom_site_fract_x
_atom_site_fract_y
_atom_site_fract_z
Si Si1 0.256656 0.817172 0.259381
Si Si2 0.790697 0.046184 0.395792
Si Si3 0.403401 0.762594 0.656713
Si Si4 0.040224 0.632005 0.904094
O O1 0.297827 0.907498 0.375496
O O2 0.083041 0.730197 0.411806
O O3 0.225931 0.901482 0.125336
O O4 0.437655 0.735739 0.091641
O O5 0.699884 0.113121 0.313757
O O6 0.000000 0.086866 0.250000
O O7 0.500000 0.780661 0.750000
O O8 0.255866 0.654142 0.771697
O O9 0.000000 0.640173 0.750000
O O10 0.000000 0.500000 0.000000
#
# Coordination Sequence:
#
# PCOD8123135 Si02
#       4
#     4   4   4   4
#     4  12  26  48  79 111 162 193 257 313 386 455
#     4  12  24  46  78 112 158 207 242 312 395 460
#     4  12  27  48  76 117 151 202 254 315 385 454
#     4  12  30  56  80 109 151 206 261 317 380 451
#
# _framework density 23.575548000000001
#
# number of rings (size 3 to 8) (size 9 to 14) (size 15 to 20)
#    0.000    0.000    5.000    3.750    7.000    1.000 
#    0.000    0.000    0.000    0.000    0.000    0.000 
#    0.000    0.000    0.000    0.000    0.000    0.000 
#
# Total GULP energy -198389.847547 kJ/mol
# GULP energy per Si atom -12399.365472 kJ/mol
# Density = 2.352189 g / cm^3
# Si number density = 23.575548 Si / 1000 Ang^3
#
#
#
# Elastic Constant Matrix: (Units=GPa)
#
#
# Indices 1 2 3 4 5 6 
#
# 1 163.6375 38.7314 78.3824 0.0000 -6.6577 0.0000
# 2 38.7314 121.3908 82.5702 0.0000 3.3549 0.0000
# 3 78.3824 82.5702 183.4246 0.0000 -23.4450 0.0000
# 4 0.0000 0.0000 0.0000 45.3068 0.0000 -0.1364
# 5 -6.6577 3.3549 -23.4450 0.0000 36.6746 0.0000
# 6 0.0000 0.0000 0.0000 -0.1364 0.0000 25.4032
#
#
#
# Elastic Compliance Matrix: (Units=1/GPa)
#
#
# Indices 1 2 3 4 5 6 
#
# 1 0.007707 -0.000202 -0.003290 0.000000 -0.000686 0.000000
# 2 -0.000202 0.012748 -0.006323 0.000000 -0.005245 0.000000
# 3 -0.003290 -0.006323 0.010565 0.000000 0.006735 0.000000
# 4 0.000000 0.000000 0.000000 0.022072 0.000000 0.000119
# 5 -0.000686 -0.005245 0.006735 0.000000 0.031928 0.000000
# 6 0.000000 0.000000 0.000000 0.000119 0.000000 0.039366
#
#
# Mechanical properties :
#
#
# Convention : Reuss Voigt Hill
#
# Bulk Modulus (GPa) = 87.79556 96.42455 92.11006
# Shear Modulus (GPa) = 33.82692 39.39483 36.61088
#
# Velocity S-wave (km/s) = 3.79203 4.09223 3.94498
# Velocity P-wave (km/s) = 7.51622 7.95723 7.73986
#
# Compressibility (1/GPa) = 0.01139010
#
# Stress axis : x y z
#
# Youngs Moduli (GPa) = 129.75309 78.44405 94.65445
#
# Poissons Ratio (x) = 0.01586 0.31141
# Poissons Ratio (y) = 0.02623 0.59846
# Poissons Ratio (z) = 0.42689 0.49597
#
# Static dielectric constant tensor:
#      x y z
#    x 4.523400 0.000000 -0.184980 
#    y 0.000000 3.507870 0.000000 
#    z -0.184980 0.000000 4.820740 
# 
# 
# High freq. dielectric constant tensor:
#      x y z
#    x 1.946370 0.000000 -0.004840 
#    y 0.000000 1.906050 0.000000 
#    z -0.004840 0.000000 1.957750 
# 
# From -- ./inp_files/11503.got.cif
#   From: 2010.06.25/outbox.cif.g09.slc.cpg/sg13_6_cif.got.tgz:11503.got - 2010.06.28 04:50:58.
