data_PCOD8123540
_publ_section_title
;
Structure prediction by ZEFSAII (Michael W. Deem and Ramdas Pophale) SiO2 
 PCOD8123540
Probable space group: P 21/C
;
_chemical_formula_sum "Si O2"
_cell_formula_units_Z 20
_cell_length_a 18.915686
_cell_length_b 8.525171
_cell_length_c 5.388955
_cell_angle_alpha 90.000000
_cell_angle_beta 112.057453
_cell_angle_gamma 90.000000
_cell_volume 805.414438
_symmetry_space_group_name_H-M "P 21/C"
_symmetry_group_IT_number 14
_symmetry_cell_setting 'monoclinic'
loop_
_space_group_symop_operation_xyz
x,y,z
-x,1/2+y,1/2-z
-x,-y,-z
x,1/2-y,1/2+z
loop_
_atom_site_type_symbol
_atom_site_label
_atom_site_fract_x
_atom_site_fract_y
_atom_site_fract_z
Si Si1 0.585016 0.561591 0.613988
Si Si2 0.845620 0.315156 0.380047
Si Si3 0.819965 0.830262 0.917672
Si Si4 0.012747 0.183300 0.564306
Si Si5 0.355483 0.101630 0.307652
O O1 0.500000 0.500000 0.500000
O O2 0.628732 0.500556 0.421839
O O3 0.586550 0.751041 0.618113
O O4 0.627703 0.499588 0.921391
O O5 0.804387 0.255246 0.579786
O O6 0.847916 0.500360 0.370288
O O7 0.932169 0.259892 0.521217
O O8 0.847913 0.793416 0.239070
O O9 0.728795 0.827876 0.798062
O O10 0.054404 0.276582 0.387495
O O11 0.000000 0.000000 0.500000
#
# Coordination Sequence:
#
# PCOD8123540 Si02
#       5
#     4   4   4   4   4
#     4  10  18  32  56  78 114 149 197 251 320 380
#     4  10  23  43  64  95 138 170 215 275 323 389
#     4  12  21  40  70  94 123 175 222 272 327 400
#     4  10  21  42  67  98 135 176 216 268 324 385
#     4  10  19  35  55  83 110 155 203 262 317 382
#
# _framework density 24.831938000000001
#
# number of rings (size 3 to 8) (size 9 to 14) (size 15 to 20)
#    0.000    1.600    4.000    2.400    0.000    0.000 
#    0.000   24.000   26.400    0.000    0.000    0.000 
#    0.000    0.000    0.000    0.000    0.000    0.000 
#
# Total GULP energy -247925.548082 kJ/mol
# GULP energy per Si atom -12396.277404 kJ/mol
# Density = 2.477542 g / cm^3
# Si number density = 24.831938 Si / 1000 Ang^3
#
#
#
# Elastic Constant Matrix: (Units=GPa)
#
#
# Indices 1 2 3 4 5 6 
#
# 1 64.1463 24.9793 45.3865 0.0000 -16.7782 0.0000
# 2 24.9793 122.3237 43.6526 0.0000 -8.9714 0.0000
# 3 45.3865 43.6526 280.7804 0.0000 -39.7840 0.0000
# 4 0.0000 0.0000 0.0000 35.8500 0.0000 -4.3709
# 5 -16.7782 -8.9714 -39.7840 0.0000 37.4000 0.0000
# 6 0.0000 0.0000 0.0000 -4.3709 0.0000 43.3475
#
#
#
# Elastic Compliance Matrix: (Units=1/GPa)
#
#
# Indices 1 2 3 4 5 6 
#
# 1 0.019636 -0.002898 -0.001853 0.000000 0.006142 0.000000
# 2 -0.002898 0.009101 -0.000967 0.000000 -0.000146 0.000000
# 3 -0.001853 -0.000967 0.004546 0.000000 0.003772 0.000000
# 4 0.000000 0.000000 0.000000 0.028241 0.000000 0.002848
# 5 0.006142 -0.000146 0.003772 0.000000 0.033471 0.000000
# 6 0.000000 0.000000 0.000000 0.002848 0.000000 0.023357
#
#
# Mechanical properties :
#
#
# Convention : Reuss Voigt Hill
#
# Bulk Modulus (GPa) = 45.77417 77.25413 61.51415
# Shear Modulus (GPa) = 36.47760 46.86832 41.67296
#
# Velocity S-wave (km/s) = 3.83688 4.34916 4.10103
# Velocity P-wave (km/s) = 6.17272 7.50990 6.87390
#
# Compressibility (1/GPa) = 0.02184638
#
# Stress axis : x y z
#
# Youngs Moduli (GPa) = 50.92785 109.87484 219.97745
#
# Poissons Ratio (x) = 0.31841 0.40765
# Poissons Ratio (y) = 0.14758 0.21276
# Poissons Ratio (z) = 0.09438 0.10627
#
# Static dielectric constant tensor:
#      x y z
#    x 4.605420 0.000000 -0.493650 
#    y 0.000000 2.336710 0.000000 
#    z -0.493650 0.000000 6.692040 
# 
# 
# High freq. dielectric constant tensor:
#      x y z
#    x 1.999950 0.000000 -0.014370 
#    y 0.000000 1.940360 0.000000 
#    z -0.014370 0.000000 2.047420 
# 
# From -- ./inp_files/4327.got.cif
#   From: 2010.03.12/outbox.cif.g09.slc.cpg/sg14_3_cif.got.tgz:4327.got - 2010.03.31 13:35:05.
