data_PCOD8123812
_publ_section_title
;
Structure prediction by ZEFSAII (Michael W. Deem and Ramdas Pophale) SiO2 
 PCOD8123812
Probable space group: P 21/C
;
_chemical_formula_sum "Si O2"
_cell_formula_units_Z 32
_cell_length_a 23.558186
_cell_length_b 12.027410
_cell_length_c 12.008735
_cell_angle_alpha 90.000000
_cell_angle_beta 30.375464
_cell_angle_gamma 90.000000
_cell_volume 1720.574842
_symmetry_space_group_name_H-M "P 21/C"
_symmetry_group_IT_number 14
_symmetry_cell_setting 'monoclinic'
loop_
_space_group_symop_operation_xyz
x,y,z
-x,1/2+y,1/2-z
-x,-y,-z
x,1/2-y,1/2+z
loop_
_atom_site_type_symbol
_atom_site_label
_atom_site_fract_x
_atom_site_fract_y
_atom_site_fract_z
Si Si1 0.798970 0.089144 0.550899
Si Si2 0.913499 0.098402 0.137357
Si Si3 0.966061 0.342988 0.104457
Si Si4 0.433736 0.838039 0.568595
Si Si5 0.572552 0.479059 0.706929
Si Si6 0.827959 0.514495 0.215520
Si Si7 0.458064 0.593991 0.486590
Si Si8 0.172291 0.670420 0.451257
O O1 0.820106 0.066147 0.385909
O O2 0.670496 0.113360 0.777666
O O3 0.860605 0.199485 0.493641
O O4 0.828750 0.984185 0.578805
O O5 0.973218 0.212226 0.071836
O O6 0.855834 0.107421 0.115365
O O7 0.000000 0.000000 0.000000
O O8 0.886196 0.397967 0.147920
O O9 0.908705 0.381839 0.317531
O O10 0.095080 0.383581 0.874413
O O11 0.500961 0.919208 0.373579
O O12 0.499721 0.719510 0.444474
O O13 0.303771 0.844214 0.752872
O O14 0.438408 0.875490 0.689799
O O15 0.701903 0.519703 0.476768
O O16 0.518839 0.440726 0.680264
O O17 0.500000 0.500000 0.500000
#
# Coordination Sequence:
#
# PCOD8123812 Si02
#       8
#     4   4   4   4   4   4   4   4
#     4   9  20  35  58  82 112 150 193 233 279 346
#     4  11  22  36  55  87 119 148 188 239 290 340
#     4  10  20  34  60  82 108 151 193 231 288 333
#     4  10  22  39  64  88 117 157 201 248 292 359
#     4  10  22  40  61  90 119 154 201 244 299 355
#     4  10  18  38  59  81 112 147 194 237 280 349
#     4  10  23  37  63  89 118 157 197 246 300 347
#     4  10  19  35  60  85 112 148 196 235 282 339
#
# _framework density 18.598434999999998
#
# number of rings (size 3 to 8) (size 9 to 14) (size 15 to 20)
#    0.000    2.000    2.500    0.750    3.500    0.000 
#    2.250    0.000    2.750    0.000    0.000    0.000 
#    0.000    0.000    0.000    0.000    0.000    0.000 
#
# Total GULP energy -396485.605064 kJ/mol
# GULP energy per Si atom -12390.175158 kJ/mol
# Density = 1.855610 g / cm^3
# Si number density = 18.598435 Si / 1000 Ang^3
#
#
#
# Elastic Constant Matrix: (Units=GPa)
#
#
# Indices 1 2 3 4 5 6 
#
# 1 113.8216 49.6421 37.6953 0.0000 29.0907 0.0000
# 2 49.6421 103.4472 33.6922 0.0000 12.3586 0.0000
# 3 37.6953 33.6922 70.5602 0.0000 21.4391 0.0000
# 4 0.0000 0.0000 0.0000 21.8594 0.0000 -1.0067
# 5 29.0907 12.3586 21.4391 0.0000 29.4210 0.0000
# 6 0.0000 0.0000 0.0000 -1.0067 0.0000 21.6340
#
#
#
# Elastic Compliance Matrix: (Units=1/GPa)
#
#
# Indices 1 2 3 4 5 6 
#
# 1 0.014332 -0.004935 -0.002086 0.000000 -0.010578 0.000000
# 2 -0.004935 0.013172 -0.004437 0.000000 0.002579 0.000000
# 3 -0.002086 -0.004437 0.020823 0.000000 -0.011247 0.000000
# 4 0.000000 0.000000 0.000000 0.045845 0.000000 0.002133
# 5 -0.010578 0.002579 -0.011247 0.000000 0.051561 0.000000
# 6 0.000000 0.000000 0.000000 0.002133 0.000000 0.046323
#
#
# Mechanical properties :
#
#
# Convention : Reuss Voigt Hill
#
# Bulk Modulus (GPa) = 39.35302 58.87645 49.11474
# Shear Modulus (GPa) = 22.37715 25.70283 24.03999
#
# Velocity S-wave (km/s) = 3.47244 3.72154 3.59915
# Velocity P-wave (km/s) = 6.10593 7.08462 6.61341
#
# Compressibility (1/GPa) = 0.02541101
#
# Stress axis : x y z
#
# Youngs Moduli (GPa) = 69.77176 75.92050 48.02422
#
# Poissons Ratio (x) = 0.37463 0.10020
# Poissons Ratio (y) = 0.34429 0.21308
# Poissons Ratio (z) = 0.14558 0.33686
#
# Static dielectric constant tensor:
#      x y z
#    x 3.420170 0.000000 0.205550 
#    y 0.000000 3.408940 0.000000 
#    z 0.205550 0.000000 3.487910 
# 
# 
# High freq. dielectric constant tensor:
#      x y z
#    x 1.724760 0.000000 0.015920 
#    y 0.000000 1.713120 0.000000 
#    z 0.015920 0.000000 1.724150 
# 
# From -- ./inp_files/29395.got.cif
#   From: 2010.03.12/outbox.cif.g09.slc.cpg/sg14_15_cif.got.tgz:29395.got - 2010.03.31 13:35:05.
