data_PCOD8123420
_publ_section_title
;
Structure prediction by ZEFSAII (Michael W. Deem and Ramdas Pophale) SiO2 
 PCOD8123420
Probable space group: P 21/C
;
_chemical_formula_sum "Si O2"
_cell_formula_units_Z 32
_cell_length_a 18.374241
_cell_length_b 8.889593
_cell_length_c 9.778097
_cell_angle_alpha 90.000000
_cell_angle_beta 115.845364
_cell_angle_gamma 90.000000
_cell_volume 1437.393046
_symmetry_space_group_name_H-M "P 21/C"
_symmetry_group_IT_number 14
_symmetry_cell_setting 'monoclinic'
loop_
_space_group_symop_operation_xyz
x,y,z
-x,1/2+y,1/2-z
-x,-y,-z
x,1/2-y,1/2+z
loop_
_atom_site_type_symbol
_atom_site_label
_atom_site_fract_x
_atom_site_fract_y
_atom_site_fract_z
Si Si1 0.335499 0.595714 0.442435
Si Si2 0.193773 0.194855 0.104661
Si Si3 0.019400 0.243469 0.442083
Si Si4 0.006328 0.930888 0.325017
Si Si5 0.589079 0.789260 0.898488
Si Si6 0.183818 0.425338 0.312304
Si Si7 0.402069 0.725563 0.759238
Si Si8 0.648068 0.589270 0.176946
O O1 0.383829 0.441690 0.505140
O O2 0.238618 0.572996 0.378757
O O3 0.362915 0.718184 0.576823
O O4 0.353055 0.652523 0.305223
O O5 0.211741 0.355501 0.190213
O O6 0.254207 0.071854 0.222922
O O7 0.098433 0.163289 0.057070
O O8 0.205825 0.194868 0.950633
O O9 0.969594 0.355046 0.300356
O O10 0.968735 0.186760 0.532731
O O11 0.048427 0.093241 0.380248
O O12 0.910426 0.965352 0.258988
O O13 0.493163 0.779673 0.820944
O O14 0.619840 0.786925 0.767082
O O15 0.626277 0.646394 0.008293
O O16 0.397548 0.565931 0.832846
#
# Coordination Sequence:
#
# PCOD8123420 Si02
#       8
#     4   4   4   4   4   4   4   4
#     4  11  23  42  57  82 120 156 197 242 305 351
#     4  10  17  37  62  87 115 154 201 238 285 353
#     4   9  19  34  62  88 122 157 196 241 292 349
#     4   9  19  36  61  89 124 156 199 241 293 348
#     4  11  22  38  61  83 114 154 197 245 296 356
#     4  10  19  38  62  85 119 157 197 247 286 355
#     4  11  24  39  57  85 118 149 196 254 300 346
#     4  11  21  38  60  87 114 150 205 241 292 351
#
# _framework density 22.262525
#
# number of rings (size 3 to 8) (size 9 to 14) (size 15 to 20)
#    0.000    1.750    3.750    1.500    0.000    3.500 
#    2.250    3.750    5.500    0.000    0.000    0.000 
#    0.000    0.000    0.000    0.000    0.000    0.000 
#
# Total GULP energy -396549.085089 kJ/mol
# GULP energy per Si atom -12392.158909 kJ/mol
# Density = 2.221185 g / cm^3
# Si number density = 22.262525 Si / 1000 Ang^3
#
#
#
# Elastic Constant Matrix: (Units=GPa)
#
#
# Indices 1 2 3 4 5 6 
#
# 1 42.0624 8.0370 11.3551 0.0000 7.0172 0.0000
# 2 8.0370 29.1205 3.4564 0.0000 1.8318 0.0000
# 3 11.3551 3.4564 76.3794 0.0000 0.8820 0.0000
# 4 0.0000 0.0000 0.0000 34.2766 0.0000 -11.8013
# 5 7.0172 1.8318 0.8820 0.0000 16.4143 0.0000
# 6 0.0000 0.0000 0.0000 -11.8013 0.0000 25.4187
#
#
#
# Elastic Compliance Matrix: (Units=1/GPa)
#
#
# Indices 1 2 3 4 5 6 
#
# 1 0.027863 -0.006558 -0.003719 0.000000 -0.010980 0.000000
# 2 -0.006558 0.036304 -0.000654 0.000000 -0.001213 0.000000
# 3 -0.003719 -0.000654 0.013664 0.000000 0.000929 0.000000
# 4 0.000000 0.000000 0.000000 0.034725 0.000000 0.016122
# 5 -0.010980 -0.001213 0.000929 0.000000 0.065702 0.000000
# 6 0.000000 0.000000 0.000000 0.016122 0.000000 0.046826
#
#
# Mechanical properties :
#
#
# Convention : Reuss Voigt Hill
#
# Bulk Modulus (GPa) = 17.86669 21.47323 19.66996
# Shear Modulus (GPa) = 18.82517 23.53619 21.18068
#
# Velocity S-wave (km/s) = 2.91107 3.25501 3.08783
# Velocity P-wave (km/s) = 4.39795 4.87782 4.64409
#
# Compressibility (1/GPa) = 0.05597007
#
# Stress axis : x y z
#
# Youngs Moduli (GPa) = 35.89000 27.54526 73.18363
#
# Poissons Ratio (x) = 0.18064 0.27215
# Poissons Ratio (y) = 0.23536 0.04786
# Poissons Ratio (z) = 0.13347 0.01801
#
# Static dielectric constant tensor:
#      x y z
#    x 3.857140 0.000000 0.009090 
#    y 0.000000 3.758490 0.000000 
#    z 0.009090 0.000000 4.463440 
# 
# 
# High freq. dielectric constant tensor:
#      x y z
#    x 1.854100 0.000000 -0.000590 
#    y 0.000000 1.844140 0.000000 
#    z -0.000590 0.000000 1.899800 
# 
# From -- ./inp_files/34899.got.cif
#   From: 2010.03.12/outbox.cif.g09.slc.cpg/sg14_18_cif.got.tgz:34899.got - 2010.03.31 13:35:05.
