data_PCOD8123347
_publ_section_title
;
Structure prediction by ZEFSAII (Michael W. Deem and Ramdas Pophale) SiO2 
 PCOD8123347
Probable space group: P 21/C
;
_chemical_formula_sum "Si O2"
_cell_formula_units_Z 32
_cell_length_a 17.666184
_cell_length_b 16.900485
_cell_length_c 12.109912
_cell_angle_alpha 90.000000
_cell_angle_beta 151.852525
_cell_angle_gamma 90.000000
_cell_volume 1705.642633
_symmetry_space_group_name_H-M "P 21/C"
_symmetry_group_IT_number 14
_symmetry_cell_setting 'monoclinic'
loop_
_space_group_symop_operation_xyz
x,y,z
-x,1/2+y,1/2-z
-x,-y,-z
x,1/2-y,1/2+z
loop_
_atom_site_type_symbol
_atom_site_label
_atom_site_fract_x
_atom_site_fract_y
_atom_site_fract_z
Si Si1 0.297276 0.754358 0.115794
Si Si2 0.337788 0.637290 0.979228
Si Si3 0.089628 0.650226 0.197886
Si Si4 0.823732 0.854618 0.528359
Si Si5 0.474725 0.241929 0.910761
Si Si6 0.930197 0.212892 0.990350
Si Si7 0.621305 0.491748 0.806211
Si Si8 0.330460 0.584159 0.357313
O O1 0.474859 0.766121 0.398638
O O2 0.293102 0.678425 0.035430
O O3 0.238917 0.830817 0.972212
O O4 0.170563 0.736263 0.050734
O O5 0.185296 0.641243 0.700617
O O6 0.491828 0.681875 0.124107
O O7 0.374233 0.547778 0.065517
O O8 0.157675 0.585589 0.198191
O O9 0.942858 0.618296 0.083053
O O10 0.025368 0.728899 0.052944
O O11 0.709666 0.784646 0.334585
O O12 0.726873 0.929828 0.444218
O O13 0.912202 0.822568 0.750954
O O14 0.587327 0.169387 0.016149
O O15 0.436337 0.513238 0.544693
O O16 0.687706 0.432861 0.796365
#
# Coordination Sequence:
#
# PCOD8123347 Si02
#       8
#     4   4   4   4   4   4   4   4
#     4   9  15  30  57  80  97 132 191 229 254 321
#     4  10  17  32  61  77 102 155 182 218 279 325
#     4  10  18  35  58  78 108 150 180 225 278 327
#     4  10  23  34  49  87 118 135 178 241 276 321
#     4  10  18  33  55  83 100 135 197 232 257 315
#     4   9  18  33  53  81 107 144 186 221 272 337
#     4  10  21  34  54  84 117 139 182 232 270 334
#     4  10  18  35  56  79 107 145 187 218 269 331
#
# _framework density 18.761255999999999
#
# number of rings (size 3 to 8) (size 9 to 14) (size 15 to 20)
#    0.000    2.250    5.000    0.000    0.000    2.000 
#    0.000    0.000    5.500    6.750    0.000    0.000 
#    0.000    0.000    0.000    0.000    0.000    0.000 
#
# Total GULP energy -396533.863389 kJ/mol
# GULP energy per Si atom -12391.683231 kJ/mol
# Density = 1.871855 g / cm^3
# Si number density = 18.761256 Si / 1000 Ang^3
#
#
#
# Elastic Constant Matrix: (Units=GPa)
#
#
# Indices 1 2 3 4 5 6 
#
# 1 73.8681 29.9078 39.4576 0.0000 -1.2987 0.0000
# 2 29.9078 47.4991 29.6313 0.0000 6.4589 0.0000
# 3 39.4576 29.6313 114.7823 0.0000 -2.2742 0.0000
# 4 0.0000 0.0000 0.0000 19.1958 0.0000 1.4834
# 5 -1.2987 6.4589 -2.2742 0.0000 23.6550 0.0000
# 6 0.0000 0.0000 0.0000 1.4834 0.0000 27.1017
#
#
#
# Elastic Compliance Matrix: (Units=1/GPa)
#
#
# Indices 1 2 3 4 5 6 
#
# 1 0.020069 -0.010568 -0.004100 0.000000 0.003593 0.000000
# 2 -0.010568 0.032057 -0.004837 0.000000 -0.009798 0.000000
# 3 -0.004100 -0.004837 0.011414 0.000000 0.002193 0.000000
# 4 0.000000 0.000000 0.000000 0.052316 0.000000 -0.002863
# 5 0.003593 -0.009798 0.002193 0.000000 0.045358 0.000000
# 6 0.000000 0.000000 0.000000 -0.002863 0.000000 0.037055
#
#
# Mechanical properties :
#
#
# Convention : Reuss Voigt Hill
#
# Bulk Modulus (GPa) = 40.76485 48.23811 44.50148
# Shear Modulus (GPa) = 20.37036 23.13399 21.75218
#
# Velocity S-wave (km/s) = 3.29867 3.51532 3.40872
# Velocity P-wave (km/s) = 6.02360 6.49954 6.26609
#
# Compressibility (1/GPa) = 0.02453094
#
# Stress axis : x y z
#
# Youngs Moduli (GPa) = 49.82687 31.19462 87.61472
#
# Poissons Ratio (x) = 0.32966 0.35920
# Poissons Ratio (y) = 0.52656 0.42378
# Poissons Ratio (z) = 0.20428 0.15089
#
# Static dielectric constant tensor:
#      x y z
#    x 3.405090 0.000000 -0.222800 
#    y 0.000000 3.265160 0.000000 
#    z -0.222800 0.000000 3.650520 
# 
# 
# High freq. dielectric constant tensor:
#      x y z
#    x 1.722880 0.000000 -0.017280 
#    y 0.000000 1.700000 0.000000 
#    z -0.017280 0.000000 1.725780 
# 
# From -- ./inp_files/34343.got.cif
#   From: 2010.03.12/outbox.cif.g09.slc.cpg/sg14_18_cif.got.tgz:34343.got - 2010.03.31 13:35:05.
