data_PCOD8123995
_publ_section_title
;
Structure prediction by ZEFSAII (Michael W. Deem and Ramdas Pophale) SiO2 
 PCOD8123995
Probable space group: P 21/C
;
_chemical_formula_sum "Si O2"
_cell_formula_units_Z 32
_cell_length_a 14.711110
_cell_length_b 20.867599
_cell_length_c 5.397422
_cell_angle_alpha 90.000000
_cell_angle_beta 111.417284
_cell_angle_gamma 90.000000
_cell_volume 1542.512359
_symmetry_space_group_name_H-M "P 21/C"
_symmetry_group_IT_number 14
_symmetry_cell_setting 'monoclinic'
loop_
_space_group_symop_operation_xyz
x,y,z
-x,1/2+y,1/2-z
-x,-y,-z
x,1/2-y,1/2+z
loop_
_atom_site_type_symbol
_atom_site_label
_atom_site_fract_x
_atom_site_fract_y
_atom_site_fract_z
Si Si1 0.496522 0.923876 0.967018
Si Si2 0.719245 0.089696 0.181113
Si Si3 0.571223 0.939132 0.542067
Si Si4 0.965182 0.713289 0.132236
Si Si5 0.805023 0.214068 0.111688
Si Si6 0.913890 0.585283 0.846191
Si Si7 0.769342 0.976560 0.901287
Si Si8 0.108585 0.958398 0.357538
O O1 0.540991 0.896946 0.271419
O O2 0.387377 0.898017 0.811318
O O3 0.559343 0.900419 0.790485
O O4 0.500000 0.000000 0.000000
O O5 0.748884 0.146920 0.026798
O O6 0.801045 0.086647 0.475296
O O7 0.712874 0.021975 0.035715
O O8 0.500000 0.000000 0.500000
O O9 0.686288 0.956823 0.619797
O O10 0.932635 0.757789 0.865600
O O11 0.914022 0.644497 0.036591
O O12 0.080014 0.701926 0.260589
O O13 0.772396 0.246653 0.337264
O O14 0.816854 0.586518 0.577271
O O15 0.011411 0.585719 0.768361
O O16 0.907166 0.518593 0.981851
O O17 0.862913 0.015460 0.884681
#
# Coordination Sequence:
#
# PCOD8123995 Si02
#       8
#     4   4   4   4   4   4   4   4
#     4  10  19  33  54  83 116 143 185 227 281 349
#     4  11  21  34  59  84 117 159 188 240 302 357
#     4  10  19  34  51  81 122 141 189 224 280 348
#     4  10  22  40  62  78 110 158 203 246 279 334
#     4  10  23  39  55  83 113 153 201 242 280 346
#     4  10  22  37  51  88 116 155 197 238 293 355
#     4  11  22  32  58  84 121 160 186 242 298 363
#     4  10  21  35  53  83 126 152 187 231 305 363
#
# _framework density 20.745377000000001
#
# number of rings (size 3 to 8) (size 9 to 14) (size 15 to 20)
#    0.000    1.750    3.750    1.875    5.250    1.000 
#    0.000    0.000    0.000    0.000    0.000    5.250 
#    0.000    0.000    0.000    0.000    0.000    0.000 
#
# Total GULP energy -396564.939216 kJ/mol
# GULP energy per Si atom -12392.654351 kJ/mol
# Density = 2.069816 g / cm^3
# Si number density = 20.745377 Si / 1000 Ang^3
#
#
#
# Elastic Constant Matrix: (Units=GPa)
#
#
# Indices 1 2 3 4 5 6 
#
# 1 61.4850 11.0324 35.6178 0.0000 8.3335 0.0000
# 2 11.0324 30.8661 9.6806 0.0000 13.6355 0.0000
# 3 35.6178 9.6806 113.2121 0.0000 -4.3602 0.0000
# 4 0.0000 0.0000 0.0000 16.6916 0.0000 2.5273
# 5 8.3335 13.6355 -4.3602 0.0000 39.9998 0.0000
# 6 0.0000 0.0000 0.0000 2.5273 0.0000 14.1548
#
#
#
# Elastic Compliance Matrix: (Units=1/GPa)
#
#
# Indices 1 2 3 4 5 6 
#
# 1 0.021240 -0.003868 -0.006498 0.000000 -0.003815 0.000000
# 2 -0.003868 0.040527 -0.002761 0.000000 -0.013310 0.000000
# 3 -0.006498 -0.002761 0.011249 0.000000 0.003521 0.000000
# 4 0.000000 0.000000 0.000000 0.061575 0.000000 -0.010994
# 5 -0.003815 -0.013310 0.003521 0.000000 0.030716 0.000000
# 6 0.000000 0.000000 0.000000 -0.010994 0.000000 0.072610
#
#
# Mechanical properties :
#
#
# Convention : Reuss Voigt Hill
#
# Bulk Modulus (GPa) = 21.38581 35.35830 28.37205
# Shear Modulus (GPa) = 17.87253 24.11807 20.99530
#
# Velocity S-wave (km/s) = 2.93835 3.41336 3.18472
# Velocity P-wave (km/s) = 4.67364 5.71101 5.21817
#
# Compressibility (1/GPa) = 0.04675997
#
# Stress axis : x y z
#
# Youngs Moduli (GPa) = 47.08149 24.67519 88.89559
#
# Poissons Ratio (x) = 0.09545 0.57768
# Poissons Ratio (y) = 0.18213 0.24544
# Poissons Ratio (z) = 0.30595 0.06813
#
# Static dielectric constant tensor:
#      x y z
#    x 3.783140 0.000000 0.213870 
#    y 0.000000 3.299860 0.000000 
#    z 0.213870 0.000000 2.321800 
# 
# 
# High freq. dielectric constant tensor:
#      x y z
#    x 1.803280 0.000000 -0.004040 
#    y 0.000000 1.750410 0.000000 
#    z -0.004040 0.000000 1.825470 
# 
# From -- ./inp_files/3911.got.cif
#   From: 2010.03.12/outbox.cif.g09.slc.cpg/sg14_2_cif.got.tgz:3911.got - 2010.03.31 13:35:05.
