data_PCOD8123223
_publ_section_title
;
Structure prediction by ZEFSAII (Michael W. Deem and Ramdas Pophale) SiO2 
 PCOD8123223
Probable space group: P 2/C
;
_chemical_formula_sum "Si O2"
_cell_formula_units_Z 24
_cell_length_a 20.568421
_cell_length_b 10.064054
_cell_length_c 9.122348
_cell_angle_alpha 90.000000
_cell_angle_beta 131.702953
_cell_angle_gamma 90.000000
_cell_volume 1409.843151
_symmetry_space_group_name_H-M "P 2/C"
_symmetry_group_IT_number 13
_symmetry_cell_setting 'monoclinic'
loop_
_space_group_symop_operation_xyz
x,y,z
-x,y,1/2-z
-x,-y,-z
x,-y,1/2+z
loop_
_atom_site_type_symbol
_atom_site_label
_atom_site_fract_x
_atom_site_fract_y
_atom_site_fract_z
Si Si1 0.599730 0.634106 0.727748
Si Si2 0.727724 0.139149 0.761768
Si Si3 0.727724 0.139149 0.421405
Si Si4 0.079685 0.140945 0.790297
Si Si5 0.079684 0.140945 0.448757
Si Si6 0.599730 0.365894 0.571442
O O1 0.658400 0.755007 0.756109
O O2 0.630728 0.500000 0.696092
O O3 0.500000 0.667444 0.538591
O O4 0.613348 0.613431 0.920022
O O5 0.711736 0.110261 0.567603
O O6 0.658400 0.244993 0.719090
O O7 0.713921 0.000000 0.820881
O O8 0.824311 0.203178 0.931000
O O9 0.824311 0.203178 0.541934
O O10 0.057801 0.125685 0.586702
O O11 0.000000 0.222586 0.750000
O O12 0.083259 0.000001 0.874890
O O13 0.000000 0.222585 0.250000
#
# Coordination Sequence:
#
# PCOD8123223 Si02
#       6
#     4   4   4   4   4   4
#     4   9  18  33  50  67  89 118 151 185 222 266
#     4   9  18  30  45  68  95 119 146 184 225 263
#     4   9  18  30  45  68  95 119 146 184 225 263
#     4   9  15  24  39  60  87 116 145 177 215 258
#     4   9  15  24  39  60  87 116 145 177 215 258
#     4   9  18  33  50  67  89 118 151 185 222 266
#
# _framework density 17.02317
#
# number of rings (size 3 to 8) (size 9 to 14) (size 15 to 20)
#    0.000    3.000    0.000    2.000    0.000    3.333 
#    0.000    0.000    0.000    1.000    0.000    7.000 
#    0.000    0.000    0.000    0.000    0.000    0.000 
#
# Total GULP energy -297362.946240 kJ/mol
# GULP energy per Si atom -12390.122760 kJ/mol
# Density = 1.698442 g / cm^3
# Si number density = 17.023170 Si / 1000 Ang^3
#
#
#
# Elastic Constant Matrix: (Units=GPa)
#
#
# Indices 1 2 3 4 5 6 
#
# 1 104.8662 61.4573 52.0662 0.0000 16.6543 0.0000
# 2 61.4573 92.3419 54.6359 0.0000 19.3537 0.0000
# 3 52.0662 54.6359 93.4468 0.0000 15.7442 0.0000
# 4 0.0000 0.0000 0.0000 14.8610 0.0000 -8.3788
# 5 16.6543 19.3537 15.7442 0.0000 26.0472 0.0000
# 6 0.0000 0.0000 0.0000 -8.3788 0.0000 11.9079
#
#
#
# Elastic Compliance Matrix: (Units=1/GPa)
#
#
# Indices 1 2 3 4 5 6 
#
# 1 0.016778 -0.008269 -0.004166 0.000000 -0.002066 0.000000
# 2 -0.008269 0.021934 -0.007083 0.000000 -0.006729 0.000000
# 3 -0.004166 -0.007083 0.017623 0.000000 -0.002726 0.000000
# 4 0.000000 0.000000 0.000000 0.111540 0.000000 0.078483
# 5 -0.002066 -0.006729 -0.002726 0.000000 0.046360 0.000000
# 6 0.000000 0.000000 0.000000 0.078483 0.000000 0.139201
#
#
# Mechanical properties :
#
#
# Convention : Reuss Voigt Hill
#
# Bulk Modulus (GPa) = 57.80582 69.66374 63.73478
# Shear Modulus (GPa) = 12.55528 18.72959 15.64244
#
# Velocity S-wave (km/s) = 2.71872 3.32059 3.03461
# Velocity P-wave (km/s) = 6.62466 7.46414 7.05690
#
# Compressibility (1/GPa) = 0.01729930
#
# Stress axis : x y z
#
# Youngs Moduli (GPa) = 59.60021 45.59164 56.74427
#
# Poissons Ratio (x) = 0.37700 0.23639
# Poissons Ratio (y) = 0.49283 0.40193
# Poissons Ratio (z) = 0.24828 0.32293
#
# Static dielectric constant tensor:
#      x y z
#    x 3.900900 0.000000 0.518900 
#    y 0.000000 2.830870 0.000000 
#    z 0.518900 0.000000 3.718000 
# 
# 
# High freq. dielectric constant tensor:
#      x y z
#    x 1.671600 0.000000 0.009460 
#    y 0.000000 1.604230 0.000000 
#    z 0.009460 0.000000 1.668270 
# 
# From -- ./inp_files/21625.got.cif
#   From: 2010.06.25/outbox.cif.g09.slc.cpg/sg13_11_cif.got.tgz:21625.got - 2010.06.28 04:50:58.
