data_PCOD8123843
_publ_section_title
;
Structure prediction by ZEFSAII (Michael W. Deem and Ramdas Pophale) SiO2 
 PCOD8123843
Probable space group: P 21/C
;
_chemical_formula_sum "Si O2"
_cell_formula_units_Z 28
_cell_length_a 9.147757
_cell_length_b 14.408556
_cell_length_c 10.198932
_cell_angle_alpha 90.000000
_cell_angle_beta 109.485095
_cell_angle_gamma 90.000000
_cell_volume 1267.290902
_symmetry_space_group_name_H-M "P 21/C"
_symmetry_group_IT_number 14
_symmetry_cell_setting 'monoclinic'
loop_
_space_group_symop_operation_xyz
x,y,z
-x,1/2+y,1/2-z
-x,-y,-z
x,1/2-y,1/2+z
loop_
_atom_site_type_symbol
_atom_site_label
_atom_site_fract_x
_atom_site_fract_y
_atom_site_fract_z
Si Si1 0.182240 0.204765 0.432864
Si Si2 0.350093 0.291982 0.709594
Si Si3 0.419091 0.690219 0.578167
Si Si4 0.362435 0.626115 0.929953
Si Si5 0.346549 0.039489 0.607749
Si Si6 0.828147 0.257361 0.305348
Si Si7 0.390202 0.591521 0.324096
O O1 0.264698 0.284128 0.544422
O O2 0.236287 0.192743 0.298695
O O3 0.211505 0.109587 0.522484
O O4 0.006136 0.236253 0.378507
O O5 0.450812 0.195471 0.766035
O O6 0.466619 0.378312 0.727782
O O7 0.460850 0.782972 0.505409
O O8 0.245534 0.705718 0.580174
O O9 0.433449 0.597367 0.493007
O O10 0.478358 0.569440 0.871653
O O11 0.206871 0.659880 0.808422
O O12 0.305981 0.560163 0.029538
O O13 0.341225 0.012150 0.762358
O O14 0.750222 0.163394 0.231930
#
# Coordination Sequence:
#
# PCOD8123843 Si02
#       7
#     4   4   4   4   4   4   4
#     4  12  25  37  66  95 129 166 215 266 318 382
#     4  11  20  40  61  94 121 170 223 257 305 391
#     4  10  18  39  61  90 120 176 211 256 304 398
#     4  10  19  37  64  92 121 167 212 269 315 367
#     4  11  19  38  68 100 118 159 225 276 310 364
#     4  10  23  38  59  90 133 170 209 246 327 399
#     4  10  20  36  65  90 124 164 215 274 312 364
#
# _framework density 22.094373000000001
#
# number of rings (size 3 to 8) (size 9 to 14) (size 15 to 20)
#    0.000    1.429    5.714    2.571    4.000    0.571 
#    0.000    2.857    0.000    3.429    0.000    0.000 
#    0.000    0.000    0.000    0.000    0.000    0.000 
#
# Total GULP energy -346966.798014 kJ/mol
# GULP energy per Si atom -12391.671358 kJ/mol
# Density = 2.204408 g / cm^3
# Si number density = 22.094373 Si / 1000 Ang^3
#
#
#
# Elastic Constant Matrix: (Units=GPa)
#
#
# Indices 1 2 3 4 5 6 
#
# 1 103.0283 -3.5141 35.2231 0.0000 18.5776 0.0000
# 2 -3.5141 24.8541 -2.5197 0.0000 17.6982 0.0000
# 3 35.2231 -2.5197 88.7821 0.0000 16.5835 0.0000
# 4 0.0000 0.0000 0.0000 33.7983 0.0000 -3.6983
# 5 18.5776 17.6982 16.5835 0.0000 40.1701 0.0000
# 6 0.0000 0.0000 0.0000 -3.6983 0.0000 21.4203
#
#
#
# Elastic Compliance Matrix: (Units=1/GPa)
#
#
# Indices 1 2 3 4 5 6 
#
# 1 0.012387 0.006549 -0.003380 0.000000 -0.007218 0.000000
# 2 0.006549 0.066441 0.005766 0.000000 -0.034682 0.000000
# 3 -0.003380 0.005766 0.014033 0.000000 -0.006770 0.000000
# 4 0.000000 0.000000 0.000000 0.030157 0.000000 0.005207
# 5 -0.007218 -0.034682 -0.006770 0.000000 0.046307 0.000000
# 6 0.000000 0.000000 0.000000 0.005207 0.000000 0.047584
#
#
# Mechanical properties :
#
#
# Convention : Reuss Voigt Hill
#
# Bulk Modulus (GPa) = 9.03103 30.56036 19.79570
# Shear Modulus (GPa) = 21.19092 31.57608 26.38350
#
# Velocity S-wave (km/s) = 3.10031 3.78451 3.45936
# Velocity P-wave (km/s) = 4.11245 5.74094 4.99353
#
# Compressibility (1/GPa) = 0.11072933
#
# Stress axis : x y z
#
# Youngs Moduli (GPa) = 80.73256 15.05085 71.26179
#
# Poissons Ratio (x) = -0.09856 0.24087
# Poissons Ratio (y) = -0.52869 -0.41087
# Poissons Ratio (z) = 0.27288 -0.08678
#
# Static dielectric constant tensor:
#      x y z
#    x 3.619760 0.000000 -0.236920 
#    y 0.000000 3.908750 0.000000 
#    z -0.236920 0.000000 4.454530 
# 
# 
# High freq. dielectric constant tensor:
#      x y z
#    x 1.835940 0.000000 -0.019690 
#    y 0.000000 1.853910 0.000000 
#    z -0.019690 0.000000 1.890590 
# 
# From -- ./inp_files/25604.got.cif
#   From: 2010.03.12/outbox.cif.g09.slc.cpg/sg14_13_cif.got.tgz:25604.got - 2010.03.31 13:35:05.
