data_PCOD8123400
_publ_section_title
;
Structure prediction by ZEFSAII (Michael W. Deem and Ramdas Pophale) SiO2 
 PCOD8123400
Probable space group: P 21/C
;
_chemical_formula_sum "Si O2"
_cell_formula_units_Z 24
_cell_length_a 10.836306
_cell_length_b 9.061563
_cell_length_c 18.524371
_cell_angle_alpha 90.000000
_cell_angle_beta 41.141532
_cell_angle_gamma 90.000000
_cell_volume 1196.745484
_symmetry_space_group_name_H-M "P 21/C"
_symmetry_group_IT_number 14
_symmetry_cell_setting 'monoclinic'
loop_
_space_group_symop_operation_xyz
x,y,z
-x,1/2+y,1/2-z
-x,-y,-z
x,1/2-y,1/2+z
loop_
_atom_site_type_symbol
_atom_site_label
_atom_site_fract_x
_atom_site_fract_y
_atom_site_fract_z
Si Si1 0.558035 0.364370 0.924956
Si Si2 0.925898 0.404174 0.967394
Si Si3 0.741411 0.723582 0.357470
Si Si4 0.293110 0.236709 0.289703
Si Si5 0.543821 0.004342 0.677943
Si Si6 0.070966 0.527398 0.196542
O O1 0.520868 0.396455 0.857711
O O2 0.779527 0.345539 0.843220
O O3 0.500000 0.500000 0.000000
O O4 0.426271 0.228267 0.009290
O O5 0.939663 0.489277 0.885272
O O6 0.065042 0.262061 0.901288
O O7 0.705568 0.378694 0.080636
O O8 0.000000 0.500000 0.000000
O O9 0.650603 0.714241 0.318409
O O10 0.870267 0.580434 0.316318
O O11 0.873258 0.868952 0.297237
O O12 0.385935 0.098871 0.289163
O O13 0.372533 0.394263 0.281528
#
# Coordination Sequence:
#
# PCOD8123400 Si02
#       6
#     4   4   4   4   4   4
#     4  10  17  35  63  79 107 156 191 223 289 340
#     4   9  18  33  57  83 108 148 189 223 281 345
#     4  10  19  36  59  85 111 150 193 237 279 342
#     4  10  21  35  59  87 115 148 193 232 284 340
#     4  11  19  39  61  84 114 153 189 235 283 343
#     4  10  18  34  60  83 113 146 190 235 279 336
#
# _framework density 20.054390000000001
#
# number of rings (size 3 to 8) (size 9 to 14) (size 15 to 20)
#    0.000    2.000    6.667    0.000    0.000    0.000 
#    9.000    1.667    7.333    0.000    0.000    0.000 
#    0.000    0.000    0.000    0.000    0.000    0.000 
#
# Total GULP energy -297318.670802 kJ/mol
# GULP energy per Si atom -12388.277950 kJ/mol
# Density = 2.000875 g / cm^3
# Si number density = 20.054390 Si / 1000 Ang^3
#
#
#
# Elastic Constant Matrix: (Units=GPa)
#
#
# Indices 1 2 3 4 5 6 
#
# 1 126.8279 33.6490 39.3853 0.0000 4.4269 0.0000
# 2 33.6490 44.3405 26.0333 0.0000 14.1342 0.0000
# 3 39.3853 26.0333 64.7443 0.0000 6.6372 0.0000
# 4 0.0000 0.0000 0.0000 34.2804 0.0000 -4.0314
# 5 4.4269 14.1342 6.6372 0.0000 13.4753 0.0000
# 6 0.0000 0.0000 0.0000 -4.0314 0.0000 30.5501
#
#
#
# Elastic Compliance Matrix: (Units=1/GPa)
#
#
# Indices 1 2 3 4 5 6 
#
# 1 0.011119 -0.008229 -0.004177 0.000000 0.007035 0.000000
# 2 -0.008229 0.048465 -0.010055 0.000000 -0.043179 0.000000
# 3 -0.004177 -0.010055 0.021914 0.000000 0.001125 0.000000
# 4 0.000000 0.000000 0.000000 0.029631 0.000000 0.003910
# 5 0.007035 -0.043179 0.001125 0.000000 0.116635 0.000000
# 6 0.000000 0.000000 0.000000 0.003910 0.000000 0.033249
#
#
# Mechanical properties :
#
#
# Convention : Reuss Voigt Hill
#
# Bulk Modulus (GPa) = 27.33963 48.22756 37.78360
# Shear Modulus (GPa) = 15.71702 24.78417 20.25060
#
# Velocity S-wave (km/s) = 2.80254 3.51928 3.18116
# Velocity P-wave (km/s) = 4.91270 6.37294 5.68986
#
# Compressibility (1/GPa) = 0.03657694
#
# Stress axis : x y z
#
# Youngs Moduli (GPa) = 89.93363 20.63351 45.63306
#
# Poissons Ratio (x) = 0.16978 0.19059
# Poissons Ratio (y) = 0.74003 0.45886
# Poissons Ratio (z) = 0.37562 0.20748
#
# Static dielectric constant tensor:
#      x y z
#    x 4.251970 0.000000 -0.538740 
#    y 0.000000 3.303240 0.000000 
#    z -0.538740 0.000000 4.216610 
# 
# 
# High freq. dielectric constant tensor:
#      x y z
#    x 1.813140 0.000000 -0.010880 
#    y 0.000000 1.731170 0.000000 
#    z -0.010880 0.000000 1.771570 
# 
# From -- ./inp_files/66764.got.cif
#   From: 2010.03.12/outbox.cif.g09.slc.cpg/sg14_34_cif.got.tgz:66764.got - 2010.03.31 13:35:05.
