data_PCOD8123696
_publ_section_title
;
Structure prediction by ZEFSAII (Michael W. Deem and Ramdas Pophale) SiO2 
 PCOD8123696
Probable space group: P 21/C
;
_chemical_formula_sum "Si O2"
_cell_formula_units_Z 20
_cell_length_a 10.844974
_cell_length_b 17.110928
_cell_length_c 5.361478
_cell_angle_alpha 90.000000
_cell_angle_beta 119.712944
_cell_angle_gamma 90.000000
_cell_volume 864.104389
_symmetry_space_group_name_H-M "P 21/C"
_symmetry_group_IT_number 14
_symmetry_cell_setting 'monoclinic'
loop_
_space_group_symop_operation_xyz
x,y,z
-x,1/2+y,1/2-z
-x,-y,-z
x,1/2-y,1/2+z
loop_
_atom_site_type_symbol
_atom_site_label
_atom_site_fract_x
_atom_site_fract_y
_atom_site_fract_z
Si Si1 0.082127 0.343603 0.831552
Si Si2 0.971195 0.321375 0.220325
Si Si3 0.660759 0.448807 0.411323
Si Si4 0.328235 0.459345 0.077700
Si Si5 0.678553 0.226468 0.927848
O O1 0.997562 0.372478 0.496686
O O2 0.087630 0.249163 0.837235
O O3 0.997796 0.372529 0.997243
O O4 0.239449 0.379499 0.989032
O O5 0.816985 0.282074 0.065255
O O6 0.491877 0.436057 0.242096
O O7 0.710871 0.492016 0.712845
O O8 0.728138 0.362841 0.478380
O O9 0.710756 0.492320 0.210676
O O10 0.590486 0.249733 0.589285
#
# Coordination Sequence:
#
# PCOD8123696 Si02
#       5
#     4   4   4   4   4
#     4  10  18  35  60  83 112 160 183 240 297 332
#     4  10  19  35  58  82 120 150 190 239 287 336
#     4  10  23  40  62  87 116 161 192 244 294 344
#     4  10  21  42  61  85 124 149 199 242 291 355
#     4  12  21  40  63  83 122 154 196 241 295 343
#
# _framework density 23.145349
#
# number of rings (size 3 to 8) (size 9 to 14) (size 15 to 20)
#    0.000    1.600    4.000    2.400    0.000    0.000 
#    7.200    2.000    0.000    0.000    0.000    0.000 
#    0.000    0.000    0.000    0.000    0.000    0.000 
#
# Total GULP energy -247786.970683 kJ/mol
# GULP energy per Si atom -12389.348534 kJ/mol
# Density = 2.309267 g / cm^3
# Si number density = 23.145349 Si / 1000 Ang^3
#
#
#
# Elastic Constant Matrix: (Units=GPa)
#
#
# Indices 1 2 3 4 5 6 
#
# 1 37.2603 8.5599 61.8297 0.0000 -24.8837 0.0000
# 2 8.5599 53.6843 21.3028 0.0000 -11.2544 0.0000
# 3 61.8297 21.3028 159.4304 0.0000 -82.3453 0.0000
# 4 0.0000 0.0000 0.0000 31.5729 0.0000 2.4874
# 5 -24.8837 -11.2544 -82.3453 0.0000 52.1851 0.0000
# 6 0.0000 0.0000 0.0000 2.4874 0.0000 34.7823
#
#
#
# Elastic Compliance Matrix: (Units=1/GPa)
#
#
# Indices 1 2 3 4 5 6 
#
# 1 0.123045 -0.001167 -0.093996 0.000000 -0.089901 0.000000
# 2 -0.001167 0.019684 -0.001473 0.000000 0.001365 0.000000
# 3 -0.093996 -0.001473 0.105995 0.000000 0.122116 0.000000
# 4 0.000000 0.000000 0.000000 0.031852 0.000000 -0.002278
# 5 -0.089901 0.001365 0.122116 0.000000 0.169281 0.000000
# 6 0.000000 0.000000 0.000000 -0.002278 0.000000 0.028913
#
#
# Mechanical properties :
#
#
# Convention : Reuss Voigt Hill
#
# Bulk Modulus (GPa) = 18.03350 48.19553 33.11452
# Shear Modulus (GPa) = 7.24086 34.28691 20.76388
#
# Velocity S-wave (km/s) = 1.77066 3.85304 2.99843
# Velocity P-wave (km/s) = 3.46246 6.37673 5.13085
#
# Compressibility (1/GPa) = 0.05545235
#
# Stress axis : x y z
#
# Youngs Moduli (GPa) = 8.12709 50.80276 9.43443
#
# Poissons Ratio (x) = 0.05928 0.88680
# Poissons Ratio (y) = 0.00948 0.01389
# Poissons Ratio (z) = 0.76392 0.07481
#
# Static dielectric constant tensor:
#      x y z
#    x 4.226090 0.000000 -0.992440 
#    y 0.000000 3.803370 0.000000 
#    z -0.992440 0.000000 5.371500 
# 
# 
# High freq. dielectric constant tensor:
#      x y z
#    x 1.894430 0.000000 -0.042450 
#    y 0.000000 1.879890 0.000000 
#    z -0.042450 0.000000 1.943190 
# 
# From -- ./inp_files/2633.got.cif
#   From: 2010.03.12/outbox.cif.g09.slc.cpg/sg14_2_cif.got.tgz:2633.got - 2010.03.31 13:35:05.
