data_PCOD8123297
_publ_section_title
;
Structure prediction by ZEFSAII (Michael W. Deem and Ramdas Pophale) SiO2 
 PCOD8123297
Probable space group: P 21/C
;
_chemical_formula_sum "Si O2"
_cell_formula_units_Z 28
_cell_length_a 10.524364
_cell_length_b 5.171930
_cell_length_c 28.664442
_cell_angle_alpha 90.000000
_cell_angle_beta 99.566279
_cell_angle_gamma 90.000000
_cell_volume 1538.545393
_symmetry_space_group_name_H-M "P 21/C"
_symmetry_group_IT_number 14
_symmetry_cell_setting 'monoclinic'
loop_
_space_group_symop_operation_xyz
x,y,z
-x,1/2+y,1/2-z
-x,-y,-z
x,1/2-y,1/2+z
loop_
_atom_site_type_symbol
_atom_site_label
_atom_site_fract_x
_atom_site_fract_y
_atom_site_fract_z
Si Si1 0.587648 0.007052 0.936109
Si Si2 0.303516 0.492811 0.460268
Si Si3 0.889008 0.993836 0.696262
Si Si4 0.560362 0.963171 0.274899
Si Si5 0.831167 0.494349 0.748009
Si Si6 0.753304 0.008341 0.594306
Si Si7 0.530899 0.507689 0.881545
O O1 0.447900 0.001650 0.950396
O O2 0.603623 0.767209 0.901969
O O3 0.608235 0.269815 0.908845
O O4 0.694587 0.989588 0.983345
O O5 0.229381 0.241751 0.437093
O O6 0.228568 0.744649 0.437732
O O7 0.828700 0.727657 0.711035
O O8 0.864893 0.013235 0.639757
O O9 0.041872 0.004142 0.712611
O O10 0.819901 0.228854 0.718725
O O11 0.513037 0.674967 0.260554
O O12 0.712399 0.981785 0.275610
O O13 0.532422 0.023115 0.326602
O O14 0.616666 0.008275 0.611742
#
# Coordination Sequence:
#
# PCOD8123297 Si02
#       7
#     4   4   4   4   4   4   4
#     4   9  17  30  43  66  97 127 158 192 245 300
#     4   9  17  27  45  68  96 123 155 202 245 291
#     4  10  20  35  54  73 100 133 170 212 246 291
#     4  12  23  35  52  76 105 135 168 205 245 299
#     4  10  21  36  52  73 101 136 170 205 250 289
#     4  10  17  28  46  72  95 122 160 201 248 288
#     4  10  19  29  46  68  97 130 158 194 245 297
#
# _framework density 18.199009
#
# number of rings (size 3 to 8) (size 9 to 14) (size 15 to 20)
#    0.000    2.000    0.000    5.143    0.000    5.714 
#    0.000    0.000    0.000    0.000    0.000    6.000 
#    0.000    0.000    0.000    0.000    0.000    0.000 
#
# Total GULP energy -347304.057841 kJ/mol
# GULP energy per Si atom -12403.716351 kJ/mol
# Density = 1.815759 g / cm^3
# Si number density = 18.199009 Si / 1000 Ang^3
#
#
#
# Elastic Constant Matrix: (Units=GPa)
#
#
# Indices 1 2 3 4 5 6 
#
# 1 39.7457 19.3923 18.0663 0.0000 3.1498 0.0000
# 2 19.3923 125.6724 35.7851 0.0000 13.7592 0.0000
# 3 18.0663 35.7851 112.2561 0.0000 26.2716 0.0000
# 4 0.0000 0.0000 0.0000 33.1043 0.0000 3.3388
# 5 3.1498 13.7592 26.2716 0.0000 27.6183 0.0000
# 6 0.0000 0.0000 0.0000 3.3388 0.0000 9.0174
#
#
#
# Elastic Compliance Matrix: (Units=1/GPa)
#
#
# Indices 1 2 3 4 5 6 
#
# 1 0.028513 -0.003511 -0.004011 0.000000 0.002312 0.000000
# 2 -0.003511 0.009289 -0.001810 0.000000 -0.002506 0.000000
# 3 -0.004011 -0.001810 0.012623 0.000000 -0.010648 0.000000
# 4 0.000000 0.000000 0.000000 0.031379 0.000000 -0.011619
# 5 0.002312 -0.002506 -0.010648 0.000000 0.047321 0.000000
# 6 0.000000 0.000000 0.000000 -0.011619 0.000000 0.115199
#
#
# Mechanical properties :
#
#
# Convention : Reuss Voigt Hill
#
# Bulk Modulus (GPa) = 31.48473 47.12908 39.30690
# Shear Modulus (GPa) = 18.27663 27.57671 22.92667
#
# Velocity S-wave (km/s) = 3.17245 3.89689 3.55318
# Velocity P-wave (km/s) = 5.54591 6.79709 6.20312
#
# Compressibility (1/GPa) = 0.03176143
#
# Stress axis : x y z
#
# Youngs Moduli (GPa) = 35.07201 107.65932 79.22334
#
# Poissons Ratio (x) = 0.37798 0.31775
# Poissons Ratio (y) = 0.12313 0.14336
# Poissons Ratio (z) = 0.14067 0.19482
#
# Static dielectric constant tensor:
#      x y z
#    x 2.962320 0.000000 0.206140 
#    y 0.000000 3.688390 0.000000 
#    z 0.206140 0.000000 3.372480 
# 
# 
# High freq. dielectric constant tensor:
#      x y z
#    x 1.653480 0.000000 0.022990 
#    y 0.000000 1.730250 0.000000 
#    z 0.022990 0.000000 1.709740 
# 
# From -- ./inp_files/72622.got.cif
#   From: 2010.03.12/outbox.cif.g09.slc.cpg/sg14_37_cif.got.tgz:72622.got - 2010.03.31 13:35:05.
