data_PCOD8123886
_publ_section_title
;
Structure prediction by ZEFSAII (Michael W. Deem and Ramdas Pophale) SiO2 
 PCOD8123886
Probable space group: P 21/C
;
_chemical_formula_sum "Si O2"
_cell_formula_units_Z 28
_cell_length_a 15.957396
_cell_length_b 17.468145
_cell_length_c 10.003987
_cell_angle_alpha 90.000000
_cell_angle_beta 34.733148
_cell_angle_gamma 90.000000
_cell_volume 1588.803289
_symmetry_space_group_name_H-M "P 21/C"
_symmetry_group_IT_number 14
_symmetry_cell_setting 'monoclinic'
loop_
_space_group_symop_operation_xyz
x,y,z
-x,1/2+y,1/2-z
-x,-y,-z
x,1/2-y,1/2+z
loop_
_atom_site_type_symbol
_atom_site_label
_atom_site_fract_x
_atom_site_fract_y
_atom_site_fract_z
Si Si1 0.763858 0.675649 0.010035
Si Si2 0.160966 0.848965 0.183157
Si Si3 0.921062 0.395627 0.703393
Si Si4 0.323708 0.789090 0.393679
Si Si5 0.896656 0.748499 0.087959
Si Si6 0.563881 0.187628 0.037964
Si Si7 0.988060 0.446700 0.330455
O O1 0.808349 0.737562 0.839774
O O2 0.858934 0.599160 0.871902
O O3 0.785291 0.715475 0.124675
O O4 0.593369 0.650998 0.219860
O O5 0.300265 0.868749 0.096725
O O6 0.026676 0.813383 0.446081
O O7 0.112444 0.923456 0.164333
O O8 0.208791 0.781146 0.016481
O O9 0.978275 0.463309 0.725104
O O10 0.039225 0.328078 0.550955
O O11 0.899326 0.428410 0.582250
O O12 0.763353 0.367436 0.963602
O O13 0.418819 0.767123 0.401195
O O14 0.429381 0.797441 0.128573
#
# Coordination Sequence:
#
# PCOD8123886 Si02
#       7
#     4   4   4   4   4   4   4
#     4  10  19  32  50  76  98 127 157 209 242 293
#     4   8  18  29  52  69  96 125 161 203 234 287
#     4   9  17  30  55  71  96 129 172 201 240 294
#     4   9  18  30  51  74  93 129 162 201 235 301
#     4   9  18  30  52  72  96 120 168 202 241 277
#     4  10  19  30  51  71 103 124 163 195 258 284
#     4   9  17  33  51  74  96 131 166 205 244 284
#
# _framework density 17.623327
#
# number of rings (size 3 to 8) (size 9 to 14) (size 15 to 20)
#    0.857    2.000    0.000    1.714    6.000    0.000 
#    0.000    1.429    3.143    2.571    0.000    0.000 
#    0.000    0.000    0.000    0.000    0.000    0.000 
#
# Total GULP energy -346991.208058 kJ/mol
# GULP energy per Si atom -12392.543145 kJ/mol
# Density = 1.758322 g / cm^3
# Si number density = 17.623327 Si / 1000 Ang^3
#
#
#
# Elastic Constant Matrix: (Units=GPa)
#
#
# Indices 1 2 3 4 5 6 
#
# 1 64.6020 7.6910 38.0825 0.0000 -8.3597 0.0000
# 2 7.6910 32.4638 -1.2144 0.0000 -7.5285 0.0000
# 3 38.0825 -1.2144 97.9729 0.0000 -5.8228 0.0000
# 4 0.0000 0.0000 0.0000 13.4866 0.0000 3.7642
# 5 -8.3597 -7.5285 -5.8228 0.0000 26.6594 0.0000
# 6 0.0000 0.0000 0.0000 3.7642 0.0000 19.2579
#
#
#
# Elastic Compliance Matrix: (Units=1/GPa)
#
#
# Indices 1 2 3 4 5 6 
#
# 1 0.021262 -0.004499 -0.008105 0.000000 0.003626 0.000000
# 2 -0.004499 0.034006 0.002692 0.000000 0.008780 0.000000
# 3 -0.008105 0.002692 0.013460 0.000000 0.001159 0.000000
# 4 0.000000 0.000000 0.000000 0.078426 0.000000 -0.015330
# 5 0.003626 0.008780 0.001159 0.000000 0.041380 0.000000
# 6 0.000000 0.000000 0.000000 -0.015330 0.000000 0.054923
#
#
# Mechanical properties :
#
#
# Convention : Reuss Voigt Hill
#
# Bulk Modulus (GPa) = 20.44824 31.57302 26.01063
# Shear Modulus (GPa) = 17.88377 21.91275 19.89826
#
# Velocity S-wave (km/s) = 3.18901 3.53001 3.36383
# Velocity P-wave (km/s) = 5.01875 5.87954 5.46612
#
# Compressibility (1/GPa) = 0.04890397
#
# Stress axis : x y z
#
# Youngs Moduli (GPa) = 47.03194 29.40623 74.29667
#
# Poissons Ratio (x) = 0.13231 0.60217
# Poissons Ratio (y) = 0.21162 -0.20003
# Poissons Ratio (z) = 0.38119 -0.07917
#
# Static dielectric constant tensor:
#      x y z
#    x 3.092610 0.000000 0.031530 
#    y 0.000000 2.999910 0.000000 
#    z 0.031530 0.000000 3.183100 
# 
# 
# High freq. dielectric constant tensor:
#      x y z
#    x 1.671120 0.000000 0.006480 
#    y 0.000000 1.647230 0.000000 
#    z 0.006480 0.000000 1.679790 
# 
# From -- ./inp_files/34285.got.cif
#   From: 2010.03.12/outbox.cif.g09.slc.cpg/sg14_18_cif.got.tgz:34285.got - 2010.03.31 13:35:05.
