data_PCOD8123986
_publ_section_title
;
Structure prediction by ZEFSAII (Michael W. Deem and Ramdas Pophale) SiO2 
 PCOD8123986
Probable space group: P 21/C
;
_chemical_formula_sum "Si O2"
_cell_formula_units_Z 28
_cell_length_a 11.765079
_cell_length_b 19.144033
_cell_length_c 18.229960
_cell_angle_alpha 90.000000
_cell_angle_beta 158.215452
_cell_angle_gamma 90.000000
_cell_volume 1523.790769
_symmetry_space_group_name_H-M "P 21/C"
_symmetry_group_IT_number 14
_symmetry_cell_setting 'monoclinic'
loop_
_space_group_symop_operation_xyz
x,y,z
-x,1/2+y,1/2-z
-x,-y,-z
x,1/2-y,1/2+z
loop_
_atom_site_type_symbol
_atom_site_label
_atom_site_fract_x
_atom_site_fract_y
_atom_site_fract_z
Si Si1 0.392397 0.800458 0.312437
Si Si2 0.694166 0.234014 0.462436
Si Si3 0.003666 0.562565 0.410696
Si Si4 0.278044 0.655865 0.169435
Si Si5 0.703746 0.817554 0.650872
Si Si6 0.605969 0.640252 0.790318
Si Si7 0.117827 0.409105 0.497115
O O1 0.302819 0.720802 0.240601
O O2 0.621333 0.806602 0.517392
O O3 0.566085 0.836304 0.349810
O O4 0.082464 0.842165 0.145237
O O5 0.693110 0.178435 0.397213
O O6 0.592725 0.197577 0.476980
O O7 0.454181 0.295163 0.300019
O O8 0.034212 0.262951 0.672336
O O9 0.368691 0.578234 0.630102
O O10 0.963351 0.479950 0.373517
O O11 0.829099 0.604035 0.241457
O O12 0.852942 0.586481 0.397199
O O13 0.554425 0.601135 0.346188
O O14 0.956668 0.615875 0.989901
#
# Coordination Sequence:
#
# PCOD8123986 Si02
#       7
#     4   4   4   4   4   4   4
#     4  10  22  33  54  81 114 143 176 228 279 324
#     4  10  19  33  53  81 106 142 179 227 266 322
#     4   9  20  38  57  78 107 147 191 222 266 327
#     4  11  19  34  56  82 110 142 180 230 272 325
#     4  11  21  34  55  83 112 141 180 229 279 319
#     4   9  19  35  52  78 110 142 177 224 272 322
#     4  10  20  37  58  80 106 147 190 223 265 333
#
# _framework density 18.375226000000001
#
# number of rings (size 3 to 8) (size 9 to 14) (size 15 to 20)
#    0.000    2.000    2.857    2.571    4.000    1.143 
#    0.000    0.000    0.000    0.857    0.000    0.000 
#    0.000    0.000    0.000    0.000    0.000    0.000 
#
# Total GULP energy -347203.962486 kJ/mol
# GULP energy per Si atom -12400.141517 kJ/mol
# Density = 1.833340 g / cm^3
# Si number density = 18.375226 Si / 1000 Ang^3
#
#
#
# Elastic Constant Matrix: (Units=GPa)
#
#
# Indices 1 2 3 4 5 6 
#
# 1 54.6999 22.2670 31.7775 0.0000 5.8033 0.0000
# 2 22.2670 64.7932 15.3412 0.0000 2.9645 0.0000
# 3 31.7775 15.3412 59.7440 0.0000 10.0415 0.0000
# 4 0.0000 0.0000 0.0000 18.1365 0.0000 2.9017
# 5 5.8033 2.9645 10.0415 0.0000 44.1899 0.0000
# 6 0.0000 0.0000 0.0000 2.9017 0.0000 10.5618
#
#
#
# Elastic Compliance Matrix: (Units=1/GPa)
#
#
# Indices 1 2 3 4 5 6 
#
# 1 0.028965 -0.006713 -0.013640 0.000000 -0.000254 0.000000
# 2 -0.006713 0.017990 -0.001034 0.000000 -0.000090 0.000000
# 3 -0.013640 -0.001034 0.024897 0.000000 -0.003797 0.000000
# 4 0.000000 0.000000 0.000000 0.057673 0.000000 -0.015845
# 5 -0.000254 -0.000090 -0.003797 0.000000 0.023532 0.000000
# 6 0.000000 0.000000 0.000000 -0.015845 0.000000 0.099034
#
#
# Mechanical properties :
#
#
# Convention : Reuss Voigt Hill
#
# Bulk Modulus (GPa) = 34.38992 35.33428 34.86210
# Shear Modulus (GPa) = 16.41734 21.90106 19.15920
#
# Velocity S-wave (km/s) = 2.99231 3.45611 3.23253
# Velocity P-wave (km/s) = 5.54026 5.93273 5.73985
#
# Compressibility (1/GPa) = 0.02907829
#
# Stress axis : x y z
#
# Youngs Moduli (GPa) = 34.52406 55.58767 40.16603
#
# Poissons Ratio (x) = 0.37317 0.54786
# Poissons Ratio (y) = 0.23176 0.04151
# Poissons Ratio (z) = 0.47091 0.05745
#
# Static dielectric constant tensor:
#      x y z
#    x 3.268450 0.000000 0.099710 
#    y 0.000000 3.210590 0.000000 
#    z 0.099710 0.000000 3.347120 
# 
# 
# High freq. dielectric constant tensor:
#      x y z
#    x 1.703000 0.000000 0.015350 
#    y 0.000000 1.694160 0.000000 
#    z 0.015350 0.000000 1.709710 
# 
# From -- ./inp_files/9373.got.cif
#   From: 2010.03.12/outbox.cif.g09.slc.cpg/sg14_5_cif.got.tgz:9373.got - 2010.03.31 13:35:05.
