data_PCOD8123797
_publ_section_title
;
Structure prediction by ZEFSAII (Michael W. Deem and Ramdas Pophale) SiO2 
 PCOD8123797
Probable space group: P 21/C
;
_chemical_formula_sum "Si O2"
_cell_formula_units_Z 28
_cell_length_a 14.058948
_cell_length_b 6.256045
_cell_length_c 18.708552
_cell_angle_alpha 90.000000
_cell_angle_beta 142.893711
_cell_angle_gamma 90.000000
_cell_volume 992.711314
_symmetry_space_group_name_H-M "P 21/C"
_symmetry_group_IT_number 14
_symmetry_cell_setting 'monoclinic'
loop_
_space_group_symop_operation_xyz
x,y,z
-x,1/2+y,1/2-z
-x,-y,-z
x,1/2-y,1/2+z
loop_
_atom_site_type_symbol
_atom_site_label
_atom_site_fract_x
_atom_site_fract_y
_atom_site_fract_z
Si Si1 0.233804 0.973499 0.728644
Si Si2 0.836302 0.992093 0.773894
Si Si3 0.319608 0.532851 0.683643
Si Si4 0.853249 0.357393 0.139975
Si Si5 0.438086 0.176058 0.122001
Si Si6 0.928877 0.315051 0.032347
Si Si7 0.208639 0.110950 0.867639
O O1 0.081792 0.057487 0.590647
O O2 0.234760 0.142239 0.796868
O O3 0.188046 0.745255 0.734215
O O4 0.408426 0.975895 0.799000
O O5 0.732029 0.892385 0.778219
O O6 0.787580 0.959859 0.658737
O O7 0.013031 0.910933 0.896962
O O8 0.497777 0.604026 0.805995
O O9 0.314602 0.415506 0.605638
O O10 0.201460 0.746267 0.605784
O O11 0.852528 0.438518 0.056248
O O12 0.029763 0.317431 0.277653
O O13 0.757797 0.137403 0.090763
O O14 0.341850 0.234234 0.993450
#
# Coordination Sequence:
#
# PCOD8123797 Si02
#       7
#     4   4   4   4   4   4   4
#     4   9  23  39  69  96 123 168 220 270 328 380
#     4  10  21  39  63  96 128 162 217 270 315 375
#     4  11  25  42  61  94 132 177 214 261 328 389
#     4  10  18  37  63  97 116 159 220 263 315 374
#     4  11  23  44  59  91 136 171 210 269 335 383
#     4  11  21  42  69  95 124 172 223 264 318 392
#     4  10  19  38  65  89 124 164 210 274 324 374
#
# _framework density 28.205583000000001
#
# number of rings (size 3 to 8) (size 9 to 14) (size 15 to 20)
#    0.000    1.714    2.857    0.857    2.000    2.286 
#   10.286    0.000    0.000    6.000    0.000    0.000 
#    0.000    0.000    0.000    0.000    0.000    0.000 
#
# Total GULP energy -346921.867833 kJ/mol
# GULP energy per Si atom -12390.066708 kJ/mol
# Density = 2.814139 g / cm^3
# Si number density = 28.205583 Si / 1000 Ang^3
#
#
#
# Elastic Constant Matrix: (Units=GPa)
#
#
# Indices 1 2 3 4 5 6 
#
# 1 160.5219 14.5307 39.4612 0.0000 -6.7979 0.0000
# 2 14.5307 40.7691 7.0513 0.0000 3.4202 0.0000
# 3 39.4612 7.0513 149.2917 0.0000 -25.5945 0.0000
# 4 0.0000 0.0000 0.0000 33.3363 0.0000 2.5380
# 5 -6.7979 3.4202 -25.5945 0.0000 25.4517 0.0000
# 6 0.0000 0.0000 0.0000 2.5380 0.0000 41.7363
#
#
#
# Elastic Compliance Matrix: (Units=1/GPa)
#
#
# Indices 1 2 3 4 5 6 
#
# 1 0.006849 -0.002202 -0.001621 0.000000 0.000495 0.000000
# 2 -0.002202 0.026077 -0.001633 0.000000 -0.005734 0.000000
# 3 -0.001621 -0.001633 0.008660 0.000000 0.008495 0.000000
# 4 0.000000 0.000000 0.000000 0.030137 0.000000 -0.001833
# 5 0.000495 -0.005734 0.008495 0.000000 0.048736 0.000000
# 6 0.000000 0.000000 0.000000 -0.001833 0.000000 0.024071
#
#
# Mechanical properties :
#
#
# Convention : Reuss Voigt Hill
#
# Bulk Modulus (GPa) = 32.60150 52.51883 42.56016
# Shear Modulus (GPa) = 30.18118 39.40751 34.79435
#
# Velocity S-wave (km/s) = 3.27470 3.74191 3.51607
# Velocity P-wave (km/s) = 5.08742 6.10979 5.62190
#
# Compressibility (1/GPa) = 0.03067343
#
# Stress axis : x y z
#
# Youngs Moduli (GPa) = 146.01634 38.34852 115.46768
#
# Poissons Ratio (x) = 0.08444 0.18722
# Poissons Ratio (y) = 0.32152 0.18852
# Poissons Ratio (z) = 0.23676 0.06261
#
# Static dielectric constant tensor:
#      x y z
#    x 5.748740 0.000000 -0.395800 
#    y 0.000000 5.523000 0.000000 
#    z -0.395800 0.000000 4.695600 
# 
# 
# High freq. dielectric constant tensor:
#      x y z
#    x 2.163040 0.000000 -0.032630 
#    y 0.000000 2.170160 0.000000 
#    z -0.032630 0.000000 2.121880 
# 
# From -- ./inp_files/68378.got.cif
#   From: 2010.03.12/outbox.cif.g09.slc.cpg/sg14_35_cif.got.tgz:68378.got - 2010.03.31 13:35:05.
