data_PCOD8123060
_publ_section_title
;
Structure prediction by ZEFSAII (Michael W. Deem and Ramdas Pophale) SiO2 
 PCOD8123060
Probable space group: P 2/C
;
_chemical_formula_sum "Si O2"
_cell_formula_units_Z 20
_cell_length_a 20.854877
_cell_length_b 6.847004
_cell_length_c 9.204507
_cell_angle_alpha 90.000000
_cell_angle_beta 37.354863
_cell_angle_gamma 90.000000
_cell_volume 797.477434
_symmetry_space_group_name_H-M "P 2/C"
_symmetry_group_IT_number 13
_symmetry_cell_setting 'monoclinic'
loop_
_space_group_symop_operation_xyz
x,y,z
-x,y,1/2-z
-x,-y,-z
x,-y,1/2+z
loop_
_atom_site_type_symbol
_atom_site_label
_atom_site_fract_x
_atom_site_fract_y
_atom_site_fract_z
Si Si1 0.619234 0.235354 0.489162
Si Si2 0.901350 0.105833 0.323124
Si Si3 0.057495 0.351886 0.496765
Si Si4 0.295484 0.070565 0.438418
Si Si5 0.756594 0.407425 0.751909
O O1 0.619716 0.100984 0.343049
O O2 0.663386 0.450574 0.361215
O O3 0.680580 0.125739 0.512604
O O4 0.500000 0.266334 0.750000
O O5 0.945684 0.146403 0.081607
O O6 0.833365 0.294859 0.500643
O O7 0.000000 0.055102 0.250000
O O8 0.817108 0.932536 0.448673
O O9 0.175573 0.426796 0.292998
O O10 0.000000 0.500000 0.500000
O O11 0.000000 0.316290 0.750000
O O12 0.294925 0.254449 0.545633
#
# Coordination Sequence:
#
# PCOD8123060 Si02
#       5
#     4   4   4   4   4
#     4  12  29  51  82 113 150 202 259 322 392 450
#     4  12  25  48  72 115 157 207 252 307 384 461
#     4  12  22  41  74 108 154 205 250 309 376 458
#     4  12  28  52  79 113 158 195 259 324 378 466
#     4  12  25  48  76 108 157 197 256 311 383 448
#
# _framework density 25.079079
#
# number of rings (size 3 to 8) (size 9 to 14) (size 15 to 20)
#    0.000    0.000    8.000    1.800    0.000    2.400 
#    3.600    1.000    0.000    0.000    0.000    0.000 
#    0.000    0.000    0.000    0.000    0.000    0.000 
#
# Total GULP energy -247793.161846 kJ/mol
# GULP energy per Si atom -12389.658092 kJ/mol
# Density = 2.502200 g / cm^3
# Si number density = 25.079079 Si / 1000 Ang^3
#
#
#
# Elastic Constant Matrix: (Units=GPa)
#
#
# Indices 1 2 3 4 5 6 
#
# 1 90.8292 32.5420 42.2135 0.0000 6.2477 0.0000
# 2 32.5420 117.9128 28.9267 0.0000 2.5767 0.0000
# 3 42.2135 28.9267 126.5762 0.0000 16.5732 0.0000
# 4 0.0000 0.0000 0.0000 31.2416 0.0000 15.5811
# 5 6.2477 2.5767 16.5732 0.0000 44.2272 0.0000
# 6 0.0000 0.0000 0.0000 15.5811 0.0000 29.0931
#
#
#
# Elastic Compliance Matrix: (Units=1/GPa)
#
#
# Indices 1 2 3 4 5 6 
#
# 1 0.013885 -0.002860 -0.003935 0.000000 -0.000320 0.000000
# 2 -0.002860 0.009576 -0.001277 0.000000 0.000325 0.000000
# 3 -0.003935 -0.001277 0.009908 0.000000 -0.003083 0.000000
# 4 0.000000 0.000000 0.000000 0.043674 0.000000 -0.023390
# 5 -0.000320 0.000325 -0.003083 0.000000 0.023792 0.000000
# 6 0.000000 0.000000 0.000000 -0.023390 0.000000 0.046899
#
#
# Mechanical properties :
#
#
# Convention : Reuss Voigt Hill
#
# Bulk Modulus (GPa) = 58.05408 60.29807 59.17608
# Shear Modulus (GPa) = 29.47747 36.35478 32.91613
#
# Velocity S-wave (km/s) = 3.43210 3.81150 3.62677
# Velocity P-wave (km/s) = 6.23734 6.59283 6.41755
#
# Compressibility (1/GPa) = 0.01722532
#
# Stress axis : x y z
#
# Youngs Moduli (GPa) = 72.01910 104.42419 100.92509
#
# Poissons Ratio (x) = 0.29862 0.39717
# Poissons Ratio (y) = 0.20595 0.12891
# Poissons Ratio (z) = 0.28342 0.13338
#
# Static dielectric constant tensor:
#      x y z
#    x 4.539100 0.000000 0.088220 
#    y 0.000000 4.762750 0.000000 
#    z 0.088220 0.000000 4.514000 
# 
# 
# High freq. dielectric constant tensor:
#      x y z
#    x 1.990900 0.000000 0.015810 
#    y 0.000000 2.014860 0.000000 
#    z 0.015810 0.000000 2.015620 
# 
# From -- ./inp_files/22648.got.cif
#   From: 2010.06.25/outbox.cif.g09.slc.cpg/sg13_12_cif.got.tgz:22648.got - 2010.06.28 04:50:58.
