data_PCOD8123323
_publ_section_title
;
Structure prediction by ZEFSAII (Michael W. Deem and Ramdas Pophale) SiO2 
 PCOD8123323
Probable space group: P 21/C
;
_chemical_formula_sum "Si O2"
_cell_formula_units_Z 32
_cell_length_a 11.477435
_cell_length_b 8.396079
_cell_length_c 16.528358
_cell_angle_alpha 90.000000
_cell_angle_beta 71.247396
_cell_angle_gamma 90.000000
_cell_volume 1508.211694
_symmetry_space_group_name_H-M "P 21/C"
_symmetry_group_IT_number 14
_symmetry_cell_setting 'monoclinic'
loop_
_space_group_symop_operation_xyz
x,y,z
-x,1/2+y,1/2-z
-x,-y,-z
x,1/2-y,1/2+z
loop_
_atom_site_type_symbol
_atom_site_label
_atom_site_fract_x
_atom_site_fract_y
_atom_site_fract_z
Si Si1 0.272841 0.389349 0.644594
Si Si2 0.762850 0.296033 0.423805
Si Si3 0.499331 0.735584 0.966013
Si Si4 0.762016 0.019735 0.669180
Si Si5 0.128491 0.107878 0.731606
Si Si6 0.996178 0.372124 0.860539
Si Si7 0.291616 0.661578 0.240963
Si Si8 0.532844 0.576515 0.120493
O O1 0.208467 0.517434 0.598929
O O2 0.416718 0.377324 0.587939
O O3 0.266964 0.441602 0.738474
O O4 0.205589 0.218761 0.651598
O O5 0.645156 0.279331 0.508436
O O6 0.877207 0.194698 0.437149
O O7 0.735949 0.217546 0.343563
O O8 0.525624 0.580226 0.906675
O O9 0.542138 0.710499 0.049153
O O10 0.750210 0.211200 0.681616
O O11 0.667634 0.953506 0.624880
O O12 0.898432 0.960760 0.609746
O O13 0.045936 0.213229 0.808027
O O14 0.037939 0.997688 0.700909
O O15 0.217376 0.002765 0.769799
O O16 0.439172 0.631721 0.212884
#
# Coordination Sequence:
#
# PCOD8123323 Si02
#       8
#     4   4   4   4   4   4   4   4
#     4  10  19  34  60  89 108 148 195 242 287 329
#     4   9  19  34  55  81 112 145 192 229 274 349
#     4  10  20  37  59  82 112 155 192 232 285 346
#     4  10  22  34  55  88 118 146 188 240 292 332
#     4  10  17  31  55  82 113 142 191 236 283 334
#     4  10  19  32  52  84 115 152 187 234 283 340
#     4   9  18  33  53  82 111 143 184 239 285 330
#     4  10  21  35  56  85 116 149 188 238 290 341
#
# _framework density 21.217179999999999
#
# number of rings (size 3 to 8) (size 9 to 14) (size 15 to 20)
#    0.000    2.250    1.250    3.375    3.500    0.000 
#    0.000    0.625    5.500    0.750    0.000    0.000 
#    0.000    0.000    0.000    0.000    0.000    0.000 
#
# Total GULP energy -396640.082224 kJ/mol
# GULP energy per Si atom -12395.002570 kJ/mol
# Density = 2.116889 g / cm^3
# Si number density = 21.217180 Si / 1000 Ang^3
#
#
#
# Elastic Constant Matrix: (Units=GPa)
#
#
# Indices 1 2 3 4 5 6 
#
# 1 126.3476 37.3499 18.1804 0.0000 -15.6972 0.0000
# 2 37.3499 104.2555 13.2424 0.0000 -12.7593 0.0000
# 3 18.1804 13.2424 25.3296 0.0000 -14.3534 0.0000
# 4 0.0000 0.0000 0.0000 16.3785 0.0000 -12.6279
# 5 -15.6972 -12.7593 -14.3534 0.0000 30.4693 0.0000
# 6 0.0000 0.0000 0.0000 -12.6279 0.0000 36.4115
#
#
#
# Elastic Compliance Matrix: (Units=1/GPa)
#
#
# Indices 1 2 3 4 5 6 
#
# 1 0.009556 -0.002643 -0.004522 0.000000 0.001686 0.000000
# 2 -0.002643 0.011137 -0.002802 0.000000 0.001982 0.000000
# 3 -0.004522 -0.002802 0.057574 0.000000 0.023619 0.000000
# 4 0.000000 0.000000 0.000000 0.083340 0.000000 0.028903
# 5 0.001686 0.001982 0.023619 0.000000 0.045645 0.000000
# 6 0.000000 0.000000 0.000000 0.028903 0.000000 0.037488
#
#
# Mechanical properties :
#
#
# Convention : Reuss Voigt Hill
#
# Bulk Modulus (GPa) = 17.14288 43.71980 30.43134
# Shear Modulus (GPa) = 17.59832 29.12919 23.36375
#
# Velocity S-wave (km/s) = 2.88312 3.70929 3.32199
# Velocity P-wave (km/s) = 4.37955 6.24466 5.39334
#
# Compressibility (1/GPa) = 0.05833324
#
# Stress axis : x y z
#
# Youngs Moduli (GPa) = 104.64574 89.78965 17.36901
#
# Poissons Ratio (x) = 0.23729 0.07854
# Poissons Ratio (y) = 0.27655 0.04868
# Poissons Ratio (z) = 0.47317 0.25163
#
# Static dielectric constant tensor:
#      x y z
#    x 4.043610 0.000000 -0.459510 
#    y 0.000000 4.222890 0.000000 
#    z -0.459510 0.000000 3.436230 
# 
# 
# High freq. dielectric constant tensor:
#      x y z
#    x 1.829210 0.000000 -0.035440 
#    y 0.000000 1.844730 0.000000 
#    z -0.035440 0.000000 1.786070 
# 
# From -- ./inp_files/57052.got.cif
#   From: 2010.03.12/outbox.cif.g09.slc.cpg/sg14_29_cif.got.tgz:57052.got - 2010.03.31 13:35:05.
