data_PCOD8123159
_publ_section_title
;
Structure prediction by ZEFSAII (Michael W. Deem and Ramdas Pophale) SiO2 
 PCOD8123159
Probable space group: P 2/C
;
_chemical_formula_sum "Si O2"
_cell_formula_units_Z 16
_cell_length_a 9.611125
_cell_length_b 11.190459
_cell_length_c 8.080329
_cell_angle_alpha 90.000000
_cell_angle_beta 130.807551
_cell_angle_gamma 90.000000
_cell_volume 657.801413
_symmetry_space_group_name_H-M "P 2/C"
_symmetry_group_IT_number 13
_symmetry_cell_setting 'monoclinic'
loop_
_space_group_symop_operation_xyz
x,y,z
-x,y,1/2-z
-x,-y,-z
x,-y,1/2+z
loop_
_atom_site_type_symbol
_atom_site_label
_atom_site_fract_x
_atom_site_fract_y
_atom_site_fract_z
Si Si1 0.371033 0.272023 0.306255
Si Si2 0.211467 0.470043 0.374802
Si Si3 0.017194 0.865201 0.458293
Si Si4 0.699080 0.686801 0.258394
O O1 0.500000 0.271616 0.250000
O O2 0.263395 0.398334 0.245704
O O3 0.504188 0.247589 0.569994
O O4 0.218944 0.169675 0.178219
O O5 0.260832 0.608484 0.379011
O O6 0.322980 0.406020 0.608235
O O7 0.000000 0.456820 0.250000
O O8 0.000000 0.851069 0.250000
O O9 0.859742 0.782635 0.419263
O O10 0.000000 0.000000 0.500000
#
# Coordination Sequence:
#
# PCOD8123159 Si02
#       4
#     4   4   4   4
#     4  12  26  49  78 113 154 204 251 321 389 455
#     4  12  25  45  80 115 161 208 246 316 397 463
#     4  12  29  53  80 109 155 204 263 322 381 453
#     4  12  26  49  77 117 159 198 261 314 387 467
#
# _framework density 24.323450000000001
#
# number of rings (size 3 to 8) (size 9 to 14) (size 15 to 20)
#    0.000    0.000    5.000    4.500    3.500    1.000 
#    0.000    0.000    0.000    0.000    0.000    0.000 
#    0.000    0.000    0.000    0.000    0.000    0.000 
#
# Total GULP energy -198378.464355 kJ/mol
# GULP energy per Si atom -12398.654022 kJ/mol
# Density = 2.426809 g / cm^3
# Si number density = 24.323450 Si / 1000 Ang^3
#
#
#
# Elastic Constant Matrix: (Units=GPa)
#
#
# Indices 1 2 3 4 5 6 
#
# 1 75.1241 56.0715 33.3543 0.0000 40.5379 0.0000
# 2 56.0715 167.6788 63.1053 0.0000 20.0403 0.0000
# 3 33.3543 63.1053 162.0355 0.0000 32.7181 0.0000
# 4 0.0000 0.0000 0.0000 39.6463 0.0000 -0.3884
# 5 40.5379 20.0403 32.7181 0.0000 45.4118 0.0000
# 6 0.0000 0.0000 0.0000 -0.3884 0.0000 28.3438
#
#
#
# Elastic Compliance Matrix: (Units=1/GPa)
#
#
# Indices 1 2 3 4 5 6 
#
# 1 0.034133 -0.008844 0.002086 0.000000 -0.028070 0.000000
# 2 -0.008844 0.009347 -0.003020 0.000000 0.005946 0.000000
# 3 0.002086 -0.003020 0.008221 0.000000 -0.006453 0.000000
# 4 0.000000 0.000000 0.000000 0.025226 0.000000 0.000346
# 5 -0.028070 0.005946 -0.006453 0.000000 0.049103 0.000000
# 6 0.000000 0.000000 0.000000 0.000346 0.000000 0.035286
#
#
# Mechanical properties :
#
#
# Convention : Reuss Voigt Hill
#
# Bulk Modulus (GPa) = 31.10956 78.87785 54.99371
# Shear Modulus (GPa) = 26.09751 39.50086 32.79919
#
# Velocity S-wave (km/s) = 3.27912 4.03424 3.67612
# Velocity P-wave (km/s) = 5.21101 7.36201 6.37785
#
# Compressibility (1/GPa) = 0.03214446
#
# Stress axis : x y z
#
# Youngs Moduli (GPa) = 29.29693 106.98160 121.63541
#
# Poissons Ratio (x) = 0.94619 -0.25375
# Poissons Ratio (y) = 0.25911 0.36740
# Poissons Ratio (z) = -0.06112 0.32313
#
# Static dielectric constant tensor:
#      x y z
#    x 4.674250 0.000000 -0.046010 
#    y 0.000000 4.244710 0.000000 
#    z -0.046010 0.000000 5.063500 
# 
# 
# High freq. dielectric constant tensor:
#      x y z
#    x 1.989410 0.000000 0.004390 
#    y 0.000000 1.936380 0.000000 
#    z 0.004390 0.000000 1.988390 
# 
# From -- ./inp_files/11390.got.cif
#   From: 2010.06.25/outbox.cif.g09.slc.cpg/sg13_6_cif.got.tgz:11390.got - 2010.06.28 04:50:58.
