data_PCOD8123607
_publ_section_title
;
Structure prediction by ZEFSAII (Michael W. Deem and Ramdas Pophale) SiO2 
 PCOD8123607
Probable space group: P 21/C
;
_chemical_formula_sum "Si O2"
_cell_formula_units_Z 32
_cell_length_a 11.653704
_cell_length_b 15.337459
_cell_length_c 9.751031
_cell_angle_alpha 90.000000
_cell_angle_beta 68.330226
_cell_angle_gamma 90.000000
_cell_volume 1619.707986
_symmetry_space_group_name_H-M "P 21/C"
_symmetry_group_IT_number 14
_symmetry_cell_setting 'monoclinic'
loop_
_space_group_symop_operation_xyz
x,y,z
-x,1/2+y,1/2-z
-x,-y,-z
x,1/2-y,1/2+z
loop_
_atom_site_type_symbol
_atom_site_label
_atom_site_fract_x
_atom_site_fract_y
_atom_site_fract_z
Si Si1 0.230049 0.974938 0.634522
Si Si2 0.937263 0.869986 0.592946
Si Si3 0.312875 0.165089 0.683653
Si Si4 0.720818 0.209066 0.730976
Si Si5 0.942356 0.335223 0.696965
Si Si6 0.598629 0.178515 0.497754
Si Si7 0.802771 0.771271 0.004775
Si Si8 0.850587 0.044964 0.638172
O O1 0.121749 0.931075 0.776647
O O2 0.349434 0.911475 0.588113
O O3 0.190388 0.982177 0.495706
O O4 0.258315 0.070554 0.676040
O O5 0.827017 0.816209 0.578063
O O6 0.022858 0.814652 0.659352
O O7 0.020376 0.903102 0.429334
O O8 0.874921 0.952686 0.703584
O O9 0.456807 0.165309 0.591077
O O10 0.250039 0.242877 0.620742
O O11 0.294469 0.178479 0.855322
O O12 0.847051 0.263928 0.683810
O O13 0.673834 0.210928 0.596416
O O14 0.615775 0.244978 0.877878
O O15 0.751379 0.107639 0.756905
O O16 0.071513 0.328827 0.558023
#
# Coordination Sequence:
#
# PCOD8123607 Si02
#       8
#     4   4   4   4   4   4   4   4
#     4   9  20  38  62  85 115 154 204 250 285 355
#     4  10  18  34  54  88 120 149 192 229 285 375
#     4  12  24  40  60  86 119 163 195 244 300 352
#     4  10  20  38  63  88 115 152 204 256 280 348
#     4  10  21  36  58  93 118 148 193 241 304 345
#     4  10  22  40  62  86 114 156 210 247 289 341
#     4  12  23  36  60  86 125 152 189 243 300 369
#     4   9  17  32  61  85 115 159 195 228 295 358
#
# _framework density 19.756647999999998
#
# number of rings (size 3 to 8) (size 9 to 14) (size 15 to 20)
#    0.000    1.750    3.750    1.875    0.000    0.500 
#    0.000    2.500    0.000    0.750    0.000    0.000 
#    0.000    0.000    0.000    0.000    0.000    0.000 
#
# Total GULP energy -396489.052872 kJ/mol
# GULP energy per Si atom -12390.282902 kJ/mol
# Density = 1.971168 g / cm^3
# Si number density = 19.756648 Si / 1000 Ang^3
#
#
#
# Elastic Constant Matrix: (Units=GPa)
#
#
# Indices 1 2 3 4 5 6 
#
# 1 68.6174 32.2104 21.8688 0.0000 -12.9557 0.0000
# 2 32.2104 92.4638 39.1888 0.0000 -7.4560 0.0000
# 3 21.8688 39.1888 77.6867 0.0000 -15.1441 0.0000
# 4 0.0000 0.0000 0.0000 20.9496 0.0000 -4.1015
# 5 -12.9557 -7.4560 -15.1441 0.0000 38.6405 0.0000
# 6 0.0000 0.0000 0.0000 -4.1015 0.0000 27.7029
#
#
#
# Elastic Compliance Matrix: (Units=1/GPa)
#
#
# Indices 1 2 3 4 5 6 
#
# 1 0.018468 -0.005392 -0.001597 0.000000 0.004526 0.000000
# 2 -0.005392 0.015330 -0.006487 0.000000 -0.001392 0.000000
# 3 -0.001597 -0.006487 0.017589 0.000000 0.005107 0.000000
# 4 0.000000 0.000000 0.000000 0.049159 0.000000 0.007278
# 5 0.004526 -0.001392 0.005107 0.000000 0.029130 0.000000
# 6 0.000000 0.000000 0.000000 0.007278 0.000000 0.037175
#
#
# Mechanical properties :
#
#
# Convention : Reuss Voigt Hill
#
# Bulk Modulus (GPa) = 40.92122 47.25599 44.08861
# Shear Modulus (GPa) = 24.75890 27.15859 25.95874
#
# Velocity S-wave (km/s) = 3.54389 3.71166 3.62874
# Velocity P-wave (km/s) = 6.12398 6.50688 6.31833
#
# Compressibility (1/GPa) = 0.02443720
#
# Stress axis : x y z
#
# Youngs Moduli (GPa) = 54.14775 65.22978 56.85225
#
# Poissons Ratio (x) = 0.35171 0.09077
# Poissons Ratio (y) = 0.29196 0.36880
# Poissons Ratio (z) = 0.08645 0.42314
#
# Static dielectric constant tensor:
#      x y z
#    x 3.622490 0.000000 0.003750 
#    y 0.000000 3.823070 0.000000 
#    z 0.003750 0.000000 3.457050 
# 
# 
# High freq. dielectric constant tensor:
#      x y z
#    x 1.771470 0.000000 -0.000100 
#    y 0.000000 1.772160 0.000000 
#    z -0.000100 0.000000 1.742610 
# 
# From -- ./inp_files/13300.got.cif
#   From: 2010.03.12/outbox.cif.g09.slc.cpg/sg14_7_cif.got.tgz:13300.got - 2010.03.31 13:35:05.
