data_PCOD8123298
_publ_section_title
;
Structure prediction by ZEFSAII (Michael W. Deem and Ramdas Pophale) SiO2 
 PCOD8123298
Probable space group: P 21/C
;
_chemical_formula_sum "Si O2"
_cell_formula_units_Z 28
_cell_length_a 24.079928
_cell_length_b 4.991566
_cell_length_c 21.751887
_cell_angle_alpha 90.000000
_cell_angle_beta 145.255067
_cell_angle_gamma 90.000000
_cell_volume 1490.067562
_symmetry_space_group_name_H-M "P 21/C"
_symmetry_group_IT_number 14
_symmetry_cell_setting 'monoclinic'
loop_
_space_group_symop_operation_xyz
x,y,z
-x,1/2+y,1/2-z
-x,-y,-z
x,1/2-y,1/2+z
loop_
_atom_site_type_symbol
_atom_site_label
_atom_site_fract_x
_atom_site_fract_y
_atom_site_fract_z
Si Si1 0.239792 0.940867 0.751494
Si Si2 0.499268 0.713301 0.167973
Si Si3 0.610141 0.293887 0.810422
Si Si4 0.447513 0.750904 0.981695
Si Si5 0.800969 0.073179 0.421601
Si Si6 0.880664 0.572065 0.339923
Si Si7 0.922752 0.909596 0.013433
O O1 0.334678 0.799514 0.865038
O O2 0.156551 0.724734 0.683632
O O3 0.253717 0.012412 0.691826
O O4 0.203165 0.209959 0.755223
O O5 0.411274 0.678485 0.136511
O O6 0.585978 0.500445 0.261030
O O7 0.540346 0.010402 0.209491
O O8 0.455007 0.695142 0.060512
O O9 0.721118 0.388908 0.902293
O O10 0.500000 0.500000 0.000000
O O11 0.500000 0.000000 0.000000
O O12 0.883742 0.852613 0.515337
O O13 0.845295 0.363388 0.454950
O O14 0.925588 0.683887 0.444658
O O15 0.969323 0.526663 0.371315
#
# Coordination Sequence:
#
# PCOD8123298 Si02
#       7
#     4   4   4   4   4   4   4
#     4  10  19  29  46  68  98 133 162 197 248 303
#     4  10  21  36  52  73 102 138 173 208 257 300
#     4  10  20  35  54  73 101 135 172 217 253 302
#     4  12  23  35  52  76 106 137 172 212 254 310
#     4  10  17  28  46  72  96 125 164 203 251 292
#     4   9  17  30  43  66  98 130 161 194 248 304
#     4   9  17  27  45  68  97 126 158 204 247 296
#
# _framework density 18.791094000000001
#
# number of rings (size 3 to 8) (size 9 to 14) (size 15 to 20)
#    0.000    2.000    0.000    5.143    0.000    5.714 
#    0.000    0.000    0.000    0.000    0.000    4.000 
#    0.000    0.000    0.000    0.000    0.000    0.000 
#
# Total GULP energy -346918.874019 kJ/mol
# GULP energy per Si atom -12389.959786 kJ/mol
# Density = 1.874832 g / cm^3
# Si number density = 18.791094 Si / 1000 Ang^3
#
#
#
# Elastic Constant Matrix: (Units=GPa)
#
#
# Indices 1 2 3 4 5 6 
#
# 1 114.1407 38.1421 47.0318 0.0000 18.1958 0.0000
# 2 38.1421 107.5105 18.6256 0.0000 4.0099 0.0000
# 3 47.0318 18.6256 57.4871 0.0000 8.8924 0.0000
# 4 0.0000 0.0000 0.0000 27.3142 0.0000 11.4232
# 5 18.1958 4.0099 8.8924 0.0000 32.1724 0.0000
# 6 0.0000 0.0000 0.0000 11.4232 0.0000 29.1034
#
#
#
# Elastic Compliance Matrix: (Units=1/GPa)
#
#
# Indices 1 2 3 4 5 6 
#
# 1 0.014971 -0.003321 -0.010369 0.000000 -0.005187 0.000000
# 2 -0.003321 0.010595 -0.000838 0.000000 0.000789 0.000000
# 3 -0.010369 -0.000838 0.026354 0.000000 -0.001315 0.000000
# 4 0.000000 0.000000 0.000000 0.043801 0.000000 -0.017192
# 5 -0.005187 0.000789 -0.001315 0.000000 0.034281 0.000000
# 6 0.000000 0.000000 0.000000 -0.017192 0.000000 0.041108
#
#
# Mechanical properties :
#
#
# Convention : Reuss Voigt Hill
#
# Bulk Modulus (GPa) = 43.73946 54.08194 48.91070
# Shear Modulus (GPa) = 24.06299 29.40724 26.73511
#
# Velocity S-wave (km/s) = 3.58236 3.96024 3.77603
# Velocity P-wave (km/s) = 6.35911 7.05369 6.71539
#
# Compressibility (1/GPa) = 0.02286265
#
# Stress axis : x y z
#
# Youngs Moduli (GPa) = 66.79763 94.38039 37.94545
#
# Poissons Ratio (x) = 0.31346 0.39347
# Poissons Ratio (y) = 0.22185 0.03179
# Poissons Ratio (z) = 0.69265 0.07907
#
# Static dielectric constant tensor:
#      x y z
#    x 3.443320 0.000000 0.152890 
#    y 0.000000 3.776230 0.000000 
#    z 0.152890 0.000000 3.090050 
# 
# 
# High freq. dielectric constant tensor:
#      x y z
#    x 1.717650 0.000000 0.041110 
#    y 0.000000 1.757040 0.000000 
#    z 0.041110 0.000000 1.682800 
# 
# From -- ./inp_files/70069.got.cif
#   From: 2010.03.12/outbox.cif.g09.slc.cpg/sg14_36_cif.got.tgz:70069.got - 2010.03.31 13:35:05.
