data_PCOD8123981
_publ_section_title
;
Structure prediction by ZEFSAII (Michael W. Deem and Ramdas Pophale) SiO2 
 PCOD8123981
Probable space group: P 21/C
;
_chemical_formula_sum "Si O2"
_cell_formula_units_Z 24
_cell_length_a 25.147925
_cell_length_b 5.064390
_cell_length_c 30.567760
_cell_angle_alpha 90.000000
_cell_angle_beta 19.011467
_cell_angle_gamma 90.000000
_cell_volume 1268.198335
_symmetry_space_group_name_H-M "P 21/C"
_symmetry_group_IT_number 14
_symmetry_cell_setting 'monoclinic'
loop_
_space_group_symop_operation_xyz
x,y,z
-x,1/2+y,1/2-z
-x,-y,-z
x,1/2-y,1/2+z
loop_
_atom_site_type_symbol
_atom_site_label
_atom_site_fract_x
_atom_site_fract_y
_atom_site_fract_z
Si Si1 0.955245 0.753317 0.637516
Si Si2 0.427749 0.157405 0.252339
Si Si3 0.961736 0.255490 0.573564
Si Si4 0.725701 0.876686 0.717970
Si Si5 0.708464 0.160341 0.094594
Si Si6 0.602597 0.751125 0.906955
O O1 0.930652 0.534508 0.619356
O O2 0.775311 0.770099 0.799337
O O3 0.094077 0.659284 0.563966
O O4 0.004120 0.029601 0.576698
O O5 0.410096 0.103887 0.214501
O O6 0.619953 0.136516 0.116253
O O7 0.350925 0.438461 0.325219
O O8 0.331795 0.941778 0.354146
O O9 0.117613 0.292725 0.420394
O O10 0.797864 0.165750 0.674905
O O11 0.637634 0.744877 0.827810
O O12 0.500000 0.500000 0.000000
O O13 0.500000 0.000000 0.000000
#
# Coordination Sequence:
#
# PCOD8123981 Si02
#       6
#     4   4   4   4   4   4
#     4  11  19  37  56  78 114 138 178 224 273 338
#     4  10  20  32  52  82 114 138 168 215 277 342
#     4  10  21  30  56  88 103 140 172 221 294 325
#     4  10  20  36  55  79 115 138 179 227 270 337
#     4  10  19  33  52  82 113 138 168 214 280 337
#     4  11  25  38  52  76 106 149 186 221 260 307
#
# _framework density 18.924485000000001
#
# number of rings (size 3 to 8) (size 9 to 14) (size 15 to 20)
#    0.000    1.667    3.333    2.000    0.000   11.333 
#    0.000    0.000    0.000    2.000    0.000    0.000 
#    0.000    0.000    0.000    0.000    0.000    0.000 
#
# Total GULP energy -297413.230990 kJ/mol
# GULP energy per Si atom -12392.217958 kJ/mol
# Density = 1.888141 g / cm^3
# Si number density = 18.924485 Si / 1000 Ang^3
#
#
#
# Elastic Constant Matrix: (Units=GPa)
#
#
# Indices 1 2 3 4 5 6 
#
# 1 139.6505 13.4534 58.5370 0.0000 -36.3724 0.0000
# 2 13.4534 68.7593 44.2465 0.0000 -2.6425 0.0000
# 3 58.5370 44.2465 134.5294 0.0000 -19.6440 0.0000
# 4 0.0000 0.0000 0.0000 27.1106 0.0000 -1.3715
# 5 -36.3724 -2.6425 -19.6440 0.0000 38.6979 0.0000
# 6 0.0000 0.0000 0.0000 -1.3715 0.0000 10.4850
#
#
#
# Elastic Compliance Matrix: (Units=1/GPa)
#
#
# Indices 1 2 3 4 5 6 
#
# 1 0.010820 0.000570 -0.003677 0.000000 0.008342 0.000000
# 2 0.000570 0.018617 -0.006596 0.000000 -0.001541 0.000000
# 3 -0.003677 -0.006596 0.011484 0.000000 0.001923 0.000000
# 4 0.000000 0.000000 0.000000 0.037132 0.000000 0.004857
# 5 0.008342 -0.001541 0.001923 0.000000 0.034553 0.000000
# 6 0.000000 0.000000 0.000000 0.004857 0.000000 0.096010
#
#
# Mechanical properties :
#
#
# Convention : Reuss Voigt Hill
#
# Bulk Modulus (GPa) = 46.48228 63.93476 55.20852
# Shear Modulus (GPa) = 21.25905 30.37219 25.81562
#
# Velocity S-wave (km/s) = 3.35530 4.01049 3.69743
# Velocity P-wave (km/s) = 6.29492 7.43659 6.88944
#
# Compressibility (1/GPa) = 0.02151358
#
# Stress axis : x y z
#
# Youngs Moduli (GPa) = 92.42178 53.71306 87.08003
#
# Poissons Ratio (x) = -0.03061 0.32023
# Poissons Ratio (y) = -0.05268 0.57441
# Poissons Ratio (z) = 0.33987 0.35431
#
# Static dielectric constant tensor:
#      x y z
#    x 4.036660 0.000000 -0.576460 
#    y 0.000000 3.561730 0.000000 
#    z -0.576460 0.000000 3.591030 
# 
# 
# High freq. dielectric constant tensor:
#      x y z
#    x 1.720180 0.000000 -0.035560 
#    y 0.000000 1.758760 0.000000 
#    z -0.035560 0.000000 1.704440 
# 
# From -- ./inp_files/78069.got.cif
#   From: 2010.03.12/outbox.cif.g09.slc.cpg/sg14_40_cif.got.tgz:78069.got - 2010.03.31 13:35:05.
