data_PCOD8123621
_publ_section_title
;
Structure prediction by ZEFSAII (Michael W. Deem and Ramdas Pophale) SiO2 
 PCOD8123621
Probable space group: P 21/C
;
_chemical_formula_sum "Si O2"
_cell_formula_units_Z 32
_cell_length_a 14.507147
_cell_length_b 14.154148
_cell_length_c 8.177223
_cell_angle_alpha 90.000000
_cell_angle_beta 116.726759
_cell_angle_gamma 90.000000
_cell_volume 1499.690198
_symmetry_space_group_name_H-M "P 21/C"
_symmetry_group_IT_number 14
_symmetry_cell_setting 'monoclinic'
loop_
_space_group_symop_operation_xyz
x,y,z
-x,1/2+y,1/2-z
-x,-y,-z
x,1/2-y,1/2+z
loop_
_atom_site_type_symbol
_atom_site_label
_atom_site_fract_x
_atom_site_fract_y
_atom_site_fract_z
Si Si1 0.441185 0.452874 0.599360
Si Si2 0.386940 0.668827 0.099763
Si Si3 0.208790 0.433243 0.346271
Si Si4 0.888722 0.955541 0.891877
Si Si5 0.199163 0.259207 0.702296
Si Si6 0.228644 0.519124 0.024948
Si Si7 0.665675 0.838594 0.448121
Si Si8 0.565021 0.144198 0.734031
O O1 0.500000 0.500000 0.500000
O O2 0.512969 0.368953 0.722490
O O3 0.332063 0.411287 0.450470
O O4 0.415785 0.535729 0.707381
O O5 0.366603 0.780656 0.110917
O O6 0.278347 0.622712 0.067680
O O7 0.406887 0.648359 0.929814
O O8 0.172815 0.480506 0.488476
O O9 0.158118 0.329019 0.279467
O O10 0.177985 0.498939 0.164534
O O11 0.889641 0.840273 0.879922
O O12 0.845855 0.003009 0.690673
O O13 0.000000 0.000000 0.000000
O O14 0.239847 0.215941 0.565697
O O15 0.304095 0.313991 0.842226
O O16 0.326239 0.449822 0.081197
O O17 0.548708 0.814683 0.316381
#
# Coordination Sequence:
#
# PCOD8123621 Si02
#       8
#     4   4   4   4   4   4   4   4
#     4  12  22  40  62  99 139 180 228 270 332 406
#     4  12  24  40  58  94 143 185 232 272 325 413
#     4  11  22  41  72  97 140 178 217 290 339 398
#     4  11  25  44  72 102 131 170 229 297 365 413
#     4  10  19  36  62  96 129 160 217 281 350 394
#     4  10  23  42  67  95 136 174 226 281 345 404
#     4  10  18  34  56  96 127 169 218 277 324 383
#     4  12  24  34  61  91 138 192 230 267 324 399
#
# _framework density 21.337741000000001
#
# number of rings (size 3 to 8) (size 9 to 14) (size 15 to 20)
#    0.000    1.000    3.750    4.125    3.500    0.500 
#    0.000    0.000    5.500    0.000    0.000    0.000 
#    0.000    0.000    0.000    0.000    0.000    0.000 
#
# Total GULP energy -396450.888892 kJ/mol
# GULP energy per Si atom -12389.090278 kJ/mol
# Density = 2.128918 g / cm^3
# Si number density = 21.337741 Si / 1000 Ang^3
#
#
#
# Elastic Constant Matrix: (Units=GPa)
#
#
# Indices 1 2 3 4 5 6 
#
# 1 64.4757 9.9124 32.0774 0.0000 1.6403 0.0000
# 2 9.9124 75.4051 9.8503 0.0000 16.3057 0.0000
# 3 32.0774 9.8503 104.6882 0.0000 -9.4481 0.0000
# 4 0.0000 0.0000 0.0000 61.6851 0.0000 -2.5129
# 5 1.6403 16.3057 -9.4481 0.0000 33.6394 0.0000
# 6 0.0000 0.0000 0.0000 -2.5129 0.0000 30.3881
#
#
#
# Elastic Compliance Matrix: (Units=1/GPa)
#
#
# Indices 1 2 3 4 5 6 
#
# 1 0.018619 -0.001284 -0.005756 0.000000 -0.001902 0.000000
# 2 -0.001284 0.015365 -0.001763 0.000000 -0.007880 0.000000
# 3 -0.005756 -0.001763 0.011885 0.000000 0.004474 0.000000
# 4 0.000000 0.000000 0.000000 0.016266 0.000000 0.001345
# 5 -0.001902 -0.007880 0.004474 0.000000 0.034896 0.000000
# 6 0.000000 0.000000 0.000000 0.001345 0.000000 0.033019
#
#
# Mechanical properties :
#
#
# Convention : Reuss Voigt Hill
#
# Bulk Modulus (GPa) = 35.38283 38.69436 37.03860
# Shear Modulus (GPa) = 31.83118 37.99112 34.91115
#
# Velocity S-wave (km/s) = 3.86654 4.22413 4.04929
# Velocity P-wave (km/s) = 6.04581 6.47802 6.26564
#
# Compressibility (1/GPa) = 0.02826230
#
# Stress axis : x y z
#
# Youngs Moduli (GPa) = 53.70808 65.08322 84.13618
#
# Poissons Ratio (x) = 0.08359 0.48428
# Poissons Ratio (y) = 0.06898 0.14836
# Poissons Ratio (z) = 0.30914 0.11477
#
# Static dielectric constant tensor:
#      x y z
#    x 3.426520 0.000000 -0.374400 
#    y 0.000000 3.378810 0.000000 
#    z -0.374400 0.000000 4.224330 
# 
# 
# High freq. dielectric constant tensor:
#      x y z
#    x 1.791540 0.000000 -0.036030 
#    y 0.000000 1.841530 0.000000 
#    z -0.036030 0.000000 1.848600 
# 
# From -- ./inp_files/16258.got.cif
#   From: 2010.03.12/outbox.cif.g09.slc.cpg/sg14_9_cif.got.tgz:16258.got - 2010.03.31 13:35:05.
