data_PCOD8123414
_publ_section_title
;
Structure prediction by ZEFSAII (Michael W. Deem and Ramdas Pophale) SiO2 
 PCOD8123414
Probable space group: P 21/C
;
_chemical_formula_sum "Si O2"
_cell_formula_units_Z 24
_cell_length_a 9.985193
_cell_length_b 15.010258
_cell_length_c 7.833233
_cell_angle_alpha 90.000000
_cell_angle_beta 84.473398
_cell_angle_gamma 90.000000
_cell_volume 1168.590040
_symmetry_space_group_name_H-M "P 21/C"
_symmetry_group_IT_number 14
_symmetry_cell_setting 'monoclinic'
loop_
_space_group_symop_operation_xyz
x,y,z
-x,1/2+y,1/2-z
-x,-y,-z
x,1/2-y,1/2+z
loop_
_atom_site_type_symbol
_atom_site_label
_atom_site_fract_x
_atom_site_fract_y
_atom_site_fract_z
Si Si1 0.791826 0.043904 0.085061
Si Si2 0.372395 0.413277 0.205848
Si Si3 0.463448 0.327521 0.883170
Si Si4 0.554397 0.349087 0.490273
Si Si5 0.199316 0.257502 0.323134
Si Si6 0.071014 0.123698 0.094318
O O1 0.702387 0.108309 0.978129
O O2 0.916544 0.098592 0.146910
O O3 0.704242 0.007291 0.256998
O O4 0.841672 0.963287 0.960378
O O5 0.459720 0.410330 0.018781
O O6 0.464701 0.401165 0.362915
O O7 0.260960 0.335231 0.196379
O O8 0.573271 0.254568 0.933985
O O9 0.487016 0.359089 0.686958
O O10 0.323257 0.274927 0.922608
O O11 0.136153 0.169398 0.249809
O O12 0.079593 0.302544 0.445210
#
# Coordination Sequence:
#
# PCOD8123414 Si02
#       6
#     4   4   4   4   4   4
#     4  10  23  38  56  88 125 151 190 251 306 332
#     4  10  20  38  62  84 117 156 193 247 296 352
#     4  11  19  35  64  88 112 155 203 239 289 358
#     4  11  21  36  61  90 116 153 198 247 295 348
#     4  10  17  36  63  84 103 156 209 226 283 363
#     4  10  21  39  64  80 117 162 196 239 287 355
#
# _framework density 20.537569999999999
#
# number of rings (size 3 to 8) (size 9 to 14) (size 15 to 20)
#    0.000    1.667    5.000    2.500    0.000    2.000 
#    0.000    0.833    3.667    0.000    0.000    0.000 
#    0.000    0.000    0.000    0.000    0.000    0.000 
#
# Total GULP energy -297375.008180 kJ/mol
# GULP energy per Si atom -12390.625341 kJ/mol
# Density = 2.049083 g / cm^3
# Si number density = 20.537570 Si / 1000 Ang^3
#
#
#
# Elastic Constant Matrix: (Units=GPa)
#
#
# Indices 1 2 3 4 5 6 
#
# 1 75.6722 33.1150 9.3506 0.0000 13.8091 0.0000
# 2 33.1150 71.8141 9.6758 0.0000 18.5007 0.0000
# 3 9.3506 9.6758 95.2558 0.0000 -4.7735 0.0000
# 4 0.0000 0.0000 0.0000 17.6716 0.0000 12.2254
# 5 13.8091 18.5007 -4.7735 0.0000 16.2456 0.0000
# 6 0.0000 0.0000 0.0000 12.2254 0.0000 37.6488
#
#
#
# Elastic Compliance Matrix: (Units=1/GPa)
#
#
# Indices 1 2 3 4 5 6 
#
# 1 0.017477 -0.005510 -0.001610 0.000000 -0.009055 0.000000
# 2 -0.005510 0.022436 -0.002825 0.000000 -0.021697 0.000000
# 3 -0.001610 -0.002825 0.011340 0.000000 0.007918 0.000000
# 4 0.000000 0.000000 0.000000 0.072984 0.000000 -0.023699
# 5 -0.009055 -0.021697 0.007918 0.000000 0.096287 0.000000
# 6 0.000000 0.000000 0.000000 -0.023699 0.000000 0.034257
#
#
# Mechanical properties :
#
#
# Convention : Reuss Voigt Hill
#
# Bulk Modulus (GPa) = 31.88440 38.55833 35.22137
# Shear Modulus (GPa) = 17.53624 27.01994 22.27809
#
# Velocity S-wave (km/s) = 2.92526 3.63110 3.29712
# Velocity P-wave (km/s) = 5.19309 6.03284 5.62865
#
# Compressibility (1/GPa) = 0.03136330
#
# Stress axis : x y z
#
# Youngs Moduli (GPa) = 57.21749 44.57196 88.18465
#
# Poissons Ratio (x) = 0.24557 0.14195
# Poissons Ratio (y) = 0.31524 0.24916
# Poissons Ratio (z) = 0.09210 0.12593
#
# Static dielectric constant tensor:
#      x y z
#    x 3.692120 0.000000 -0.054420 
#    y 0.000000 3.847420 0.000000 
#    z -0.054420 0.000000 3.554650 
# 
# 
# High freq. dielectric constant tensor:
#      x y z
#    x 1.782670 0.000000 -0.002710 
#    y 0.000000 1.807200 0.000000 
#    z -0.002710 0.000000 1.792100 
# 
# From -- ./inp_files/12644.got.cif
#   From: 2010.03.12/outbox.cif.g09.slc.cpg/sg14_7_cif.got.tgz:12644.got - 2010.03.31 13:35:05.
