data_PCOD8123892
_publ_section_title
;
Structure prediction by ZEFSAII (Michael W. Deem and Ramdas Pophale) SiO2 
 PCOD8123892
Probable space group: P 21/C
;
_chemical_formula_sum "Si O2"
_cell_formula_units_Z 16
_cell_length_a 8.453364
_cell_length_b 17.547957
_cell_length_c 6.638710
_cell_angle_alpha 90.000000
_cell_angle_beta 141.751172
_cell_angle_gamma 90.000000
_cell_volume 609.656375
_symmetry_space_group_name_H-M "P 21/C"
_symmetry_group_IT_number 14
_symmetry_cell_setting 'monoclinic'
loop_
_space_group_symop_operation_xyz
x,y,z
-x,1/2+y,1/2-z
-x,-y,-z
x,1/2-y,1/2+z
loop_
_atom_site_type_symbol
_atom_site_label
_atom_site_fract_x
_atom_site_fract_y
_atom_site_fract_z
Si Si1 0.500001 0.685726 0.606624
Si Si2 0.499996 0.140482 0.343767
Si Si3 0.999996 0.060948 0.788817
Si Si4 0.999999 0.392611 0.821996
O O1 0.500003 0.643545 0.396269
O O2 0.500002 0.775469 0.559895
O O3 0.249620 0.658563 0.479968
O O4 0.750380 0.658563 0.980727
O O5 0.754577 0.094864 0.660677
O O6 0.245410 0.094866 0.151510
O O7 0.999997 0.084617 0.555901
O O8 0.000001 0.969262 0.812627
#
# Coordination Sequence:
#
# PCOD8123892 Si02
#       4
#     4   4   4   4
#     4  10  19  31  49  71  95 122 152 190 232 274
#     4  10  19  31  49  71  95 122 152 190 232 274
#     4   9  17  30  49  71  92 119 158 196 226 263
#     4   9  17  30  49  71  92 119 158 196 226 263
#
# _framework density 26.244292000000002
#
# number of rings (size 3 to 8) (size 9 to 14) (size 15 to 20)
#    0.000    2.500    0.000    3.000    0.000    6.000 
#    0.000    0.000    0.000    9.000    0.000    0.000 
#    0.000    0.000    0.000    0.000    0.000    0.000 
#
# Total GULP energy -198480.887385 kJ/mol
# GULP energy per Si atom -12405.055462 kJ/mol
# Density = 2.618456 g / cm^3
# Si number density = 26.244292 Si / 1000 Ang^3
#
#
#
# Elastic Constant Matrix: (Units=GPa)
#
#
# Indices 1 2 3 4 5 6 
#
# 1 13.8623 30.2526 56.8325 0.0000 -6.5523 0.0000
# 2 30.2526 215.8274 110.8475 0.0000 44.9485 0.0000
# 3 56.8325 110.8475 193.8456 0.0000 106.9326 0.0000
# 4 0.0000 0.0000 0.0000 59.3126 0.0000 6.5272
# 5 -6.5523 44.9485 106.9326 0.0000 35.9446 0.0000
# 6 0.0000 0.0000 0.0000 6.5272 0.0000 47.6088
#
#
#
# Elastic Compliance Matrix: (Units=1/GPa)
#
#
# Indices 1 2 3 4 5 6 
#
# 1 0.017885 -0.002664 0.011475 0.000000 -0.027546 0.000000
# 2 -0.002664 0.006501 -0.002832 0.000000 -0.000188 0.000000
# 3 0.011475 -0.002832 -0.000478 0.000000 0.007055 0.000000
# 4 0.000000 0.000000 0.000000 0.017118 0.000000 -0.002347
# 5 -0.027546 -0.000188 0.007055 0.000000 0.002046 0.000000
# 6 0.000000 0.000000 0.000000 -0.002347 0.000000 0.021326
#
#
# Mechanical properties :
#
#
# Convention : Reuss Voigt Hill
#
# Bulk Modulus (GPa) = 27.88138 91.04449 59.46293
# Shear Modulus (GPa) = 77.64452 43.61338 60.62895
#
# Velocity S-wave (km/s) = 5.44514 4.08097 4.81164
# Velocity P-wave (km/s) = 7.08375 7.54799 7.31956
#
# Compressibility (1/GPa) = 0.03586624
#
# Stress axis : x y z
#
# Youngs Moduli (GPa) = 55.91169 153.83107 -2092.80704
#
# Poissons Ratio (x) = 0.40976 24.01517
# Poissons Ratio (y) = 0.14893 -5.92762
# Poissons Ratio (z) = -0.64159 0.43571
#
# Static dielectric constant tensor:
#      x y z
#    x 4.544690 0.000000 0.279390 
#    y 0.000000 4.481390 0.000000 
#    z 0.279390 0.000000 5.045610 
# 
# 
# High freq. dielectric constant tensor:
#      x y z
#    x 2.076930 0.000000 -0.006930 
#    y 0.000000 2.047480 0.000000 
#    z -0.006930 0.000000 2.064510 
# 
# From -- ./inp_files/4970.got.cif
#   From: 2010.03.12/outbox.cif.g09.slc.cpg/sg14_3_cif.got.tgz:4970.got - 2010.03.31 13:35:05.
