data_PCOD8123238
_publ_section_title
;
Structure prediction by ZEFSAII (Michael W. Deem and Ramdas Pophale) SiO2 
 PCOD8123238
Probable space group: P 21/C
;
_chemical_formula_sum "Si O2"
_cell_formula_units_Z 20
_cell_length_a 5.316946
_cell_length_b 8.195082
_cell_length_c 17.094384
_cell_angle_alpha 90.000000
_cell_angle_beta 94.586966
_cell_angle_gamma 90.000000
_cell_volume 742.464636
_symmetry_space_group_name_H-M "P 21/C"
_symmetry_group_IT_number 14
_symmetry_cell_setting 'monoclinic'
loop_
_space_group_symop_operation_xyz
x,y,z
-x,1/2+y,1/2-z
-x,-y,-z
x,1/2-y,1/2+z
loop_
_atom_site_type_symbol
_atom_site_label
_atom_site_fract_x
_atom_site_fract_y
_atom_site_fract_z
Si Si1 0.506545 0.065873 0.088773
Si Si2 0.876199 0.079733 0.409238
Si Si3 0.364951 0.536659 0.851178
Si Si4 0.443149 0.777380 0.201810
Si Si5 0.996088 0.326218 0.544885
O O1 0.550144 0.927451 0.153847
O O2 0.751276 0.185804 0.096637
O O3 0.257472 0.174336 0.100080
O O4 0.500000 0.000000 0.000000
O O5 0.092740 0.951827 0.387488
O O6 0.609632 0.982122 0.415617
O O7 0.824257 0.220399 0.343008
O O8 0.985745 0.168275 0.488674
O O9 0.405045 0.685422 0.791962
O O10 0.355190 0.369677 0.799133
O O11 0.000000 0.500000 0.500000
#
# Coordination Sequence:
#
# PCOD8123238 Si02
#       5
#     4   4   4   4   4
#     4  10  17  27  51  77 103 122 167 227 266 285
#     4  10  20  32  51  76 109 132 173 208 264 311
#     4  10  22  33  52  74 111 142 171 210 256 317
#     4  10  22  34  54  80 111 135 176 211 266 314
#     4  10  15  28  46  75 100 124 159 223 264 289
#
# _framework density 26.937311999999999
#
# number of rings (size 3 to 8) (size 9 to 14) (size 15 to 20)
#    1.200    0.800    4.000    3.600    2.800    0.000 
#    0.000    0.000    0.000    0.000    0.000   15.400 
#    0.000    0.000    0.000    0.000    0.000    0.000 
#
# Total GULP energy -247861.635966 kJ/mol
# GULP energy per Si atom -12393.081798 kJ/mol
# Density = 2.687600 g / cm^3
# Si number density = 26.937312 Si / 1000 Ang^3
#
#
#
# Elastic Constant Matrix: (Units=GPa)
#
#
# Indices 1 2 3 4 5 6 
#
# 1 224.5756 5.0920 20.0324 0.0000 0.6508 0.0000
# 2 5.0920 58.7679 -5.9914 0.0000 13.5107 0.0000
# 3 20.0324 -5.9914 82.2964 0.0000 -6.0120 0.0000
# 4 0.0000 0.0000 0.0000 55.6626 0.0000 1.8866
# 5 0.6508 13.5107 -6.0120 0.0000 22.9991 0.0000
# 6 0.0000 0.0000 0.0000 1.8866 0.0000 25.4407
#
#
#
# Elastic Compliance Matrix: (Units=1/GPa)
#
#
# Indices 1 2 3 4 5 6 
#
# 1 0.004567 -0.000479 -0.001158 0.000000 -0.000150 0.000000
# 2 -0.000479 0.019752 0.000722 0.000000 -0.011401 0.000000
# 3 -0.001158 0.000722 0.012699 0.000000 0.002928 0.000000
# 4 0.000000 0.000000 0.000000 0.018011 0.000000 -0.001336
# 5 -0.000150 -0.011401 0.002928 0.000000 0.050947 0.000000
# 6 0.000000 0.000000 0.000000 -0.001336 0.000000 0.039406
#
#
# Mechanical properties :
#
#
# Convention : Reuss Voigt Hill
#
# Bulk Modulus (GPa) = 28.41792 44.87842 36.64817
# Shear Modulus (GPa) = 31.45779 43.92094 37.68936
#
# Velocity S-wave (km/s) = 3.42104 4.04231 3.74458
# Velocity P-wave (km/s) = 5.11637 6.20351 5.68598
#
# Compressibility (1/GPa) = 0.03518907
#
# Stress axis : x y z
#
# Youngs Moduli (GPa) = 218.94253 50.62692 78.74342
#
# Poissons Ratio (x) = 0.02426 0.09116
# Poissons Ratio (y) = 0.10492 -0.05684
# Poissons Ratio (z) = 0.25346 -0.03654
#
# Static dielectric constant tensor:
#      x y z
#    x 7.301320 0.000000 0.072050 
#    y 0.000000 5.281150 0.000000 
#    z 0.072050 0.000000 4.520730 
# 
# 
# High freq. dielectric constant tensor:
#      x y z
#    x 2.084970 0.000000 0.000660 
#    y 0.000000 2.123310 0.000000 
#    z 0.000660 0.000000 2.064660 
# 
# From -- ./inp_files/52695.got.cif
#   From: 2010.03.12/outbox.cif.g09.slc.cpg/sg14_27_cif.got.tgz:52695.got - 2010.03.31 13:35:05.
