data_PCOD8123887
_publ_section_title
;
Structure prediction by ZEFSAII (Michael W. Deem and Ramdas Pophale) SiO2 
 PCOD8123887
Probable space group: P 21/C
;
_chemical_formula_sum "Si O2"
_cell_formula_units_Z 20
_cell_length_a 10.988825
_cell_length_b 13.271047
_cell_length_c 11.994103
_cell_angle_alpha 90.000000
_cell_angle_beta 136.506516
_cell_angle_gamma 90.000000
_cell_volume 1203.883243
_symmetry_space_group_name_H-M "P 21/C"
_symmetry_group_IT_number 14
_symmetry_cell_setting 'monoclinic'
loop_
_space_group_symop_operation_xyz
x,y,z
-x,1/2+y,1/2-z
-x,-y,-z
x,1/2-y,1/2+z
loop_
_atom_site_type_symbol
_atom_site_label
_atom_site_fract_x
_atom_site_fract_y
_atom_site_fract_z
Si Si1 0.278265 0.021060 0.239839
Si Si2 0.660385 0.538480 0.968301
Si Si3 0.028559 0.128231 0.914905
Si Si4 0.934660 0.646145 0.027312
Si Si5 0.001592 0.059408 0.658009
O O1 0.322302 0.068101 0.389656
O O2 0.459464 0.984893 0.301715
O O3 0.148513 0.925569 0.160162
O O4 0.190119 0.107775 0.106448
O O5 0.734459 0.631510 0.942547
O O6 0.786232 0.440632 0.028174
O O7 0.088795 0.089402 0.833233
O O8 0.988460 0.246988 0.884216
O O9 0.057471 0.555655 0.160222
O O10 0.935632 0.638386 0.893577
#
# Coordination Sequence:
#
# PCOD8123887 Si02
#       5
#     4   4   4   4   4
#     4   9  18  32  51  76  99 127 167 209 239 292
#     4   8  16  35  51  66 105 133 154 204 255 284
#     4  10  19  30  55  76  96 132 173 205 236 304
#     4   9  18  33  53  71 102 138 163 198 259 294
#     4   8  18  34  50  71 101 136 161 208 246 292
#
# _framework density 16.612905999999999
#
# number of rings (size 3 to 8) (size 9 to 14) (size 15 to 20)
#    1.200    2.000    0.000    0.000    2.800    0.000 
#    3.600    1.000    4.400    0.000    0.000    0.000 
#    0.000    0.000    0.000    0.000    0.000    0.000 
#
# Total GULP energy -247789.304601 kJ/mol
# GULP energy per Si atom -12389.465230 kJ/mol
# Density = 1.657509 g / cm^3
# Si number density = 16.612906 Si / 1000 Ang^3
#
#
#
# Elastic Constant Matrix: (Units=GPa)
#
#
# Indices 1 2 3 4 5 6 
#
# 1 91.9246 21.6028 38.3720 0.0000 -8.9773 0.0000
# 2 21.6028 86.4102 27.7851 0.0000 -10.1860 0.0000
# 3 38.3720 27.7851 78.4837 0.0000 -3.5182 0.0000
# 4 0.0000 0.0000 0.0000 15.6363 0.0000 -2.1389
# 5 -8.9773 -10.1860 -3.5182 0.0000 25.9519 0.0000
# 6 0.0000 0.0000 0.0000 -2.1389 0.0000 15.3347
#
#
#
# Elastic Compliance Matrix: (Units=1/GPa)
#
#
# Indices 1 2 3 4 5 6 
#
# 1 0.014142 -0.001059 -0.006378 0.000000 0.003612 0.000000
# 2 -0.001059 0.013689 -0.004129 0.000000 0.004447 0.000000
# 3 -0.006378 -0.004129 0.017255 0.000000 -0.001488 0.000000
# 4 0.000000 0.000000 0.000000 0.065198 0.000000 0.009094
# 5 0.003612 0.004447 -0.001488 0.000000 0.041326 0.000000
# 6 0.000000 0.000000 0.000000 0.009094 0.000000 0.066480
#
#
# Mechanical properties :
#
#
# Convention : Reuss Voigt Hill
#
# Bulk Modulus (GPa) = 45.54841 48.03759 46.79300
# Shear Modulus (GPa) = 20.11750 22.65515 21.38633
#
# Velocity S-wave (km/s) = 3.48365 3.69685 3.59183
# Velocity P-wave (km/s) = 6.60743 6.87029 6.74014
#
# Compressibility (1/GPa) = 0.02195466
#
# Stress axis : x y z
#
# Youngs Moduli (GPa) = 70.70989 73.04894 57.95511
#
# Poissons Ratio (x) = 0.07737 0.36961
# Poissons Ratio (y) = 0.07489 0.23931
# Poissons Ratio (z) = 0.45095 0.30163
#
# Static dielectric constant tensor:
#      x y z
#    x 3.224240 0.000000 -0.150670 
#    y 0.000000 2.819210 0.000000 
#    z -0.150670 0.000000 2.912240 
# 
# 
# High freq. dielectric constant tensor:
#      x y z
#    x 1.645780 0.000000 -0.019890 
#    y 0.000000 1.614600 0.000000 
#    z -0.019890 0.000000 1.614930 
# 
# From -- ./inp_files/23408.got.cif
#   From: 2010.03.12/outbox.cif.g09.slc.cpg/sg14_12_cif.got.tgz:23408.got - 2010.03.31 13:35:05.
