data_PCOD8123834
_publ_section_title
;
Structure prediction by ZEFSAII (Michael W. Deem and Ramdas Pophale) SiO2 
 PCOD8123834
Probable space group: P 21/C
;
_chemical_formula_sum "Si O2"
_cell_formula_units_Z 32
_cell_length_a 24.233913
_cell_length_b 9.986175
_cell_length_c 12.362995
_cell_angle_alpha 90.000000
_cell_angle_beta 147.155655
_cell_angle_gamma 90.000000
_cell_volume 1622.680271
_symmetry_space_group_name_H-M "P 21/C"
_symmetry_group_IT_number 14
_symmetry_cell_setting 'monoclinic'
loop_
_space_group_symop_operation_xyz
x,y,z
-x,1/2+y,1/2-z
-x,-y,-z
x,1/2-y,1/2+z
loop_
_atom_site_type_symbol
_atom_site_label
_atom_site_fract_x
_atom_site_fract_y
_atom_site_fract_z
Si Si1 0.767908 0.593349 0.536805
Si Si2 0.710175 0.529808 0.655687
Si Si3 0.558114 0.634882 0.083571
Si Si4 0.078230 0.389799 0.389416
Si Si5 0.622157 0.685326 0.956892
Si Si6 0.537082 0.117480 0.983687
Si Si7 0.900768 0.586688 0.116193
Si Si8 0.165868 0.136189 0.266261
O O1 0.753606 0.479973 0.608573
O O2 0.656015 0.654442 0.323599
O O3 0.828397 0.548090 0.528814
O O4 0.837537 0.706416 0.709089
O O5 0.639494 0.655963 0.506183
O O6 0.649246 0.415627 0.621075
O O7 0.798461 0.582874 0.878434
O O8 0.472563 0.749851 0.958873
O O9 0.500000 0.500000 0.000000
O O10 0.602244 0.622802 0.038627
O O11 0.054190 0.236583 0.318648
O O12 0.100608 0.400336 0.553520
O O13 0.979868 0.478792 0.200968
O O14 0.527472 0.648285 0.728026
O O15 0.716801 0.603267 0.063667
O O16 0.500000 0.000000 0.000000
O O17 0.875297 0.551849 0.199339
#
# Coordination Sequence:
#
# PCOD8123834 Si02
#       8
#     4   4   4   4   4   4   4   4
#     4  10  20  40  65  89 127 178 215 258 329 414
#     4  11  21  42  65  93 132 170 226 263 331 397
#     4  12  23  38  62  95 134 171 218 269 335 394
#     4  11  22  41  68  92 125 169 224 271 336 393
#     4  11  20  38  66  90 126 177 218 264 328 403
#     4  12  24  39  67  99 128 174 227 276 321 400
#     4  11  23  41  66  95 126 170 218 280 329 398
#     4  10  18  38  68  89 118 167 225 259 317 401
#
# _framework density 19.720458000000001
#
# number of rings (size 3 to 8) (size 9 to 14) (size 15 to 20)
#    0.000    1.000    7.500    2.625    0.000    0.500 
#    2.250    0.000    2.750    0.000    0.000    0.000 
#    0.000    0.000    0.000    0.000    0.000    0.000 
#
# Total GULP energy -396462.842937 kJ/mol
# GULP energy per Si atom -12389.463842 kJ/mol
# Density = 1.967557 g / cm^3
# Si number density = 19.720458 Si / 1000 Ang^3
#
#
#
# Elastic Constant Matrix: (Units=GPa)
#
#
# Indices 1 2 3 4 5 6 
#
# 1 160.0751 51.0779 41.3734 0.0000 -4.1544 0.0000
# 2 51.0779 89.4687 29.8953 0.0000 14.1402 0.0000
# 3 41.3734 29.8953 66.0022 0.0000 -3.7773 0.0000
# 4 0.0000 0.0000 0.0000 19.9512 0.0000 4.8128
# 5 -4.1544 14.1402 -3.7773 0.0000 36.9066 0.0000
# 6 0.0000 0.0000 0.0000 4.8128 0.0000 28.1819
#
#
#
# Elastic Compliance Matrix: (Units=1/GPa)
#
#
# Indices 1 2 3 4 5 6 
#
# 1 0.008461 -0.004056 -0.003343 0.000000 0.002164 0.000000
# 2 -0.004056 0.016420 -0.005312 0.000000 -0.007291 0.000000
# 3 -0.003343 -0.005312 0.019864 0.000000 0.003692 0.000000
# 4 0.000000 0.000000 0.000000 0.052276 0.000000 -0.008927
# 5 0.002164 -0.007291 0.003692 0.000000 0.030510 0.000000
# 6 0.000000 0.000000 0.000000 -0.008927 0.000000 0.037008
#
#
# Mechanical properties :
#
#
# Convention : Reuss Voigt Hill
#
# Bulk Modulus (GPa) = 51.75124 62.24882 57.00003
# Shear Modulus (GPa) = 25.45780 29.88789 27.67285
#
# Velocity S-wave (km/s) = 3.59685 3.89727 3.75007
# Velocity P-wave (km/s) = 6.59918 7.20317 6.90778
#
# Compressibility (1/GPa) = 0.01932321
#
# Stress axis : x y z
#
# Youngs Moduli (GPa) = 118.18361 60.90189 50.34185
#
# Poissons Ratio (x) = 0.24699 0.16830
# Poissons Ratio (y) = 0.47930 0.26743
# Poissons Ratio (z) = 0.39512 0.32353
#
# Static dielectric constant tensor:
#      x y z
#    x 4.137320 0.000000 -0.180790 
#    y 0.000000 3.273450 0.000000 
#    z -0.180790 0.000000 3.476800 
# 
# 
# High freq. dielectric constant tensor:
#      x y z
#    x 1.804540 0.000000 -0.017540 
#    y 0.000000 1.724160 0.000000 
#    z -0.017540 0.000000 1.759870 
# 
# From -- ./inp_files/35930.got.cif
#   From: 2010.03.12/outbox.cif.g09.slc.cpg/sg14_18_cif.got.tgz:35930.got - 2010.03.31 13:35:05.
