data_PCOD8123491
_publ_section_title
;
Structure prediction by ZEFSAII (Michael W. Deem and Ramdas Pophale) SiO2 
 PCOD8123491
Probable space group: P 21/C
;
_chemical_formula_sum "Si O2"
_cell_formula_units_Z 28
_cell_length_a 11.861240
_cell_length_b 18.096430
_cell_length_c 19.620754
_cell_angle_alpha 90.000000
_cell_angle_beta 21.514394
_cell_angle_gamma 90.000000
_cell_volume 1544.510988
_symmetry_space_group_name_H-M "P 21/C"
_symmetry_group_IT_number 14
_symmetry_cell_setting 'monoclinic'
loop_
_space_group_symop_operation_xyz
x,y,z
-x,1/2+y,1/2-z
-x,-y,-z
x,1/2-y,1/2+z
loop_
_atom_site_type_symbol
_atom_site_label
_atom_site_fract_x
_atom_site_fract_y
_atom_site_fract_z
Si Si1 0.670333 0.696682 0.573603
Si Si2 0.555747 0.205993 0.122372
Si Si3 0.277679 0.301938 0.074836
Si Si4 0.778926 0.411005 0.388038
Si Si5 0.201083 0.686922 0.114027
Si Si6 0.768880 0.923177 0.905167
Si Si7 0.062574 0.753408 0.471913
O O1 0.688265 0.773801 0.521515
O O2 0.756879 0.625524 0.480343
O O3 0.320591 0.690474 0.797575
O O4 0.913327 0.701087 0.498354
O O5 0.777807 0.199599 0.062659
O O6 0.202339 0.197394 0.343725
O O7 0.631635 0.140370 0.028335
O O8 0.594873 0.288401 0.065639
O O9 0.103585 0.380376 0.177354
O O10 0.084064 0.242983 0.226644
O O11 0.611911 0.306349 0.920689
O O12 0.556258 0.415043 0.448786
O O13 0.835439 0.492197 0.387378
O O14 0.047616 0.605379 0.198874
#
# Coordination Sequence:
#
# PCOD8123491 Si02
#       7
#     4   4   4   4   4   4   4
#     4  10  18  33  50  75 100 128 168 206 241 295
#     4  10  18  33  50  75 100 128 168 206 241 295
#     4  10  18  31  54  77 100 128 162 211 258 292
#     4  10  20  34  53  76 102 131 164 210 261 298
#     4  10  18  31  54  77 100 128 162 211 258 292
#     4  10  20  34  53  76 102 131 164 210 261 298
#     4  10  20  30  52  72  96 134 170 200 240 290
#
# _framework density 18.128715
#
# number of rings (size 3 to 8) (size 9 to 14) (size 15 to 20)
#    0.000    2.000    0.000    8.571    0.000    0.571 
#    0.000    1.429    0.000    6.857    0.000    0.000 
#    0.000    0.000    0.000    0.000    0.000    0.000 
#
# Total GULP energy -347100.502390 kJ/mol
# GULP energy per Si atom -12396.446514 kJ/mol
# Density = 1.808745 g / cm^3
# Si number density = 18.128715 Si / 1000 Ang^3
#
#
#
# Elastic Constant Matrix: (Units=GPa)
#
#
# Indices 1 2 3 4 5 6 
#
# 1 67.4809 26.6130 20.6821 0.0000 5.6481 0.0000
# 2 26.6130 110.5510 38.2980 0.0000 9.8090 0.0000
# 3 20.6821 38.2980 89.2655 0.0000 3.6755 0.0000
# 4 0.0000 0.0000 0.0000 15.9403 0.0000 -0.4473
# 5 5.6481 9.8090 3.6755 0.0000 31.9062 0.0000
# 6 0.0000 0.0000 0.0000 -0.4473 0.0000 21.6779
#
#
#
# Elastic Compliance Matrix: (Units=1/GPa)
#
#
# Indices 1 2 3 4 5 6 
#
# 1 0.016947 -0.003039 -0.002550 0.000000 -0.001772 0.000000
# 2 -0.003039 0.011416 -0.004091 0.000000 -0.002500 0.000000
# 3 -0.002550 -0.004091 0.013542 0.000000 0.000149 0.000000
# 4 0.000000 0.000000 0.000000 0.062770 0.000000 0.001295
# 5 -0.001772 -0.002500 0.000149 0.000000 0.032407 0.000000
# 6 0.000000 0.000000 0.000000 0.001295 0.000000 0.046157
#
#
# Mechanical properties :
#
#
# Convention : Reuss Voigt Hill
#
# Bulk Modulus (GPa) = 44.35301 48.72040 46.53671
# Shear Modulus (GPa) = 23.79649 26.01851 24.90750
#
# Velocity S-wave (km/s) = 3.62697 3.79253 3.71067
# Velocity P-wave (km/s) = 6.48526 6.79049 6.63963
#
# Compressibility (1/GPa) = 0.02254638
#
# Stress axis : x y z
#
# Youngs Moduli (GPa) = 59.00617 87.59416 73.84290
#
# Poissons Ratio (x) = 0.26622 0.18828
# Poissons Ratio (y) = 0.17933 0.30208
# Poissons Ratio (z) = 0.15045 0.35834
#
# Static dielectric constant tensor:
#      x y z
#    x 3.393490 0.000000 0.011090 
#    y 0.000000 3.261890 0.000000 
#    z 0.011090 0.000000 3.652270 
# 
# 
# High freq. dielectric constant tensor:
#      x y z
#    x 1.707510 0.000000 -0.010760 
#    y 0.000000 1.660750 0.000000 
#    z -0.010760 0.000000 1.718320 
# 
# From -- ./inp_files/14038.got.cif
#   From: 2010.03.12/outbox.cif.g09.slc.cpg/sg14_8_cif.got.tgz:14038.got - 2010.03.31 13:35:05.
