data_PCOD8123510
_publ_section_title
;
Structure prediction by ZEFSAII (Michael W. Deem and Ramdas Pophale) SiO2 
 PCOD8123510
Probable space group: P 21/C
;
_chemical_formula_sum "Si O2"
_cell_formula_units_Z 20
_cell_length_a 12.117470
_cell_length_b 19.019619
_cell_length_c 8.542077
_cell_angle_alpha 90.000000
_cell_angle_beta 143.509230
_cell_angle_gamma 90.000000
_cell_volume 1170.766483
_symmetry_space_group_name_H-M "P 21/C"
_symmetry_group_IT_number 14
_symmetry_cell_setting 'monoclinic'
loop_
_space_group_symop_operation_xyz
x,y,z
-x,1/2+y,1/2-z
-x,-y,-z
x,1/2-y,1/2+z
loop_
_atom_site_type_symbol
_atom_site_label
_atom_site_fract_x
_atom_site_fract_y
_atom_site_fract_z
Si Si1 0.718871 0.558092 0.158758
Si Si2 0.195071 0.223801 0.712178
Si Si3 0.632226 0.836629 0.798495
Si Si4 0.968289 0.843095 0.761499
Si Si5 0.672942 0.091036 0.706678
O O1 0.762483 0.602716 0.367861
O O2 0.833016 0.591432 0.146272
O O3 0.773597 0.476495 0.242801
O O4 0.495577 0.565042 0.871522
O O5 0.338580 0.264144 0.763285
O O6 0.071577 0.276319 0.674193
O O7 0.058878 0.176539 0.451001
O O8 0.315504 0.172757 0.961063
O O9 0.415922 0.859625 0.531846
O O10 0.181084 0.865188 0.026197
#
# Coordination Sequence:
#
# PCOD8123510 Si02
#       5
#     4   4   4   4   4
#     4   8  17  33  52  68  95 122 159 194 233 271
#     4   9  18  31  47  69 100 122 150 197 236 276
#     4   8  16  31  48  66  96 122 151 194 235 269
#     4  10  18  32  50  70  94 125 156 192 236 273
#     4   9  17  31  55  68  90 127 165 183 231 289
#
# _framework density 17.082827000000002
#
# number of rings (size 3 to 8) (size 9 to 14) (size 15 to 20)
#    1.200    2.000    0.000    0.600    0.000    1.600 
#    0.000    2.000    0.000    0.000    0.000    0.000 
#    0.000    0.000    0.000    0.000    0.000    0.000 
#
# Total GULP energy -247799.553502 kJ/mol
# GULP energy per Si atom -12389.977675 kJ/mol
# Density = 1.704395 g / cm^3
# Si number density = 17.082827 Si / 1000 Ang^3
#
#
#
# Elastic Constant Matrix: (Units=GPa)
#
#
# Indices 1 2 3 4 5 6 
#
# 1 34.0166 13.4079 35.6547 0.0000 -10.9166 0.0000
# 2 13.4079 84.0318 64.8773 0.0000 -9.5484 0.0000
# 3 35.6547 64.8773 136.6025 0.0000 -15.8632 0.0000
# 4 0.0000 0.0000 0.0000 27.0001 0.0000 9.6873
# 5 -10.9166 -9.5484 -15.8632 0.0000 24.5428 0.0000
# 6 0.0000 0.0000 0.0000 9.6873 0.0000 9.8870
#
#
#
# Elastic Compliance Matrix: (Units=1/GPa)
#
#
# Indices 1 2 3 4 5 6 
#
# 1 0.044710 0.003479 -0.011736 0.000000 0.013655 0.000000
# 2 0.003479 0.019124 -0.009673 0.000000 0.002735 0.000000
# 3 -0.011736 -0.009673 0.015065 0.000000 0.000754 0.000000
# 4 0.000000 0.000000 0.000000 0.057115 0.000000 -0.055961
# 5 0.013655 0.002735 0.000754 0.000000 0.048370 0.000000
# 6 0.000000 0.000000 0.000000 -0.055961 0.000000 0.155974
#
#
# Mechanical properties :
#
#
# Convention : Reuss Voigt Hill
#
# Bulk Modulus (GPa) = 23.23518 53.61452 38.42485
# Shear Modulus (GPa) = 12.80196 21.66670 17.23433
#
# Velocity S-wave (km/s) = 2.74050 3.56523 3.17972
# Velocity P-wave (km/s) = 4.86259 6.95708 6.00191
#
# Compressibility (1/GPa) = 0.04303818
#
# Stress axis : x y z
#
# Youngs Moduli (GPa) = 22.36657 52.28978 66.37709
#
# Poissons Ratio (x) = -0.18191 0.77902
# Poissons Ratio (y) = -0.07781 0.64207
# Poissons Ratio (z) = 0.26250 0.50580
#
# Static dielectric constant tensor:
#      x y z
#    x 2.834640 0.000000 0.000000 
#    y 0.000000 3.279740 0.000000 
#    z 0.000000 0.000000 3.042670 
# 
# 
# High freq. dielectric constant tensor:
#      x y z
#    x 1.623710 0.000000 0.008610 
#    y 0.000000 1.664100 0.000000 
#    z 0.008610 0.000000 1.642800 
# 
# From -- ./inp_files/6196.got.cif
#   From: 2010.03.12/outbox.cif.g09.slc.cpg/sg14_4_cif.got.tgz:6196.got - 2010.03.31 13:35:05.
