data_PCOD8123940
_publ_section_title
;
Structure prediction by ZEFSAII (Michael W. Deem and Ramdas Pophale) SiO2 
 PCOD8123940
Probable space group: P 21/C
;
_chemical_formula_sum "Si O2"
_cell_formula_units_Z 32
_cell_length_a 8.198840
_cell_length_b 11.456499
_cell_length_c 21.522321
_cell_angle_alpha 90.000000
_cell_angle_beta 59.228603
_cell_angle_gamma 90.000000
_cell_volume 1736.982707
_symmetry_space_group_name_H-M "P 21/C"
_symmetry_group_IT_number 14
_symmetry_cell_setting 'monoclinic'
loop_
_space_group_symop_operation_xyz
x,y,z
-x,1/2+y,1/2-z
-x,-y,-z
x,1/2-y,1/2+z
loop_
_atom_site_type_symbol
_atom_site_label
_atom_site_fract_x
_atom_site_fract_y
_atom_site_fract_z
Si Si1 0.653021 0.427426 0.050068
Si Si2 0.135725 0.602976 0.802342
Si Si3 0.262847 0.283386 0.279343
Si Si4 0.329655 0.753686 0.858448
Si Si5 0.755869 0.025389 0.396651
Si Si6 0.645771 0.572714 0.168848
Si Si7 0.093934 0.799387 0.723730
Si Si8 0.240402 0.952604 0.794774
O O1 0.673550 0.291856 0.069569
O O2 0.436203 0.455113 0.076274
O O3 0.724301 0.516388 0.089975
O O4 0.782532 0.443737 0.964222
O O5 0.159855 0.688067 0.856245
O O6 0.278085 0.494556 0.784050
O O7 0.182690 0.676307 0.730508
O O8 0.920375 0.559366 0.840794
O O9 0.468880 0.289699 0.207775
O O10 0.279844 0.205422 0.338768
O O11 0.193537 0.411792 0.314156
O O12 0.116412 0.224144 0.260562
O O13 0.288273 0.890988 0.852607
O O14 0.769917 0.147477 0.356314
O O15 0.419221 0.565140 0.213866
O O16 0.075255 0.888916 0.786576
#
# Coordination Sequence:
#
# PCOD8123940 Si02
#       8
#     4   4   4   4   4   4   4   4
#     4  10  20  36  55  78 119 139 187 225 278 337
#     4  10  19  33  50  79 107 137 182 223 276 319
#     4  11  19  31  53  78 110 141 186 224 282 316
#     4   9  19  33  52  77 107 147 173 231 269 326
#     4  11  21  34  54  88 107 151 176 230 285 321
#     4  10  19  32  52  79 106 143 176 227 272 320
#     4  11  20  31  52  78 112 134 183 227 272 330
#     4  10  19  33  51  78 112 137 184 223 277 321
#
# _framework density 18.422749
#
# number of rings (size 3 to 8) (size 9 to 14) (size 15 to 20)
#    0.000    1.750    5.000    1.500    0.000    2.000 
#    0.000    0.000    0.000    0.750    3.250    5.250 
#    0.000    0.000    0.000    0.000    0.000    0.000 
#
# Total GULP energy -396444.723693 kJ/mol
# GULP energy per Si atom -12388.897615 kJ/mol
# Density = 1.838082 g / cm^3
# Si number density = 18.422749 Si / 1000 Ang^3
#
#
#
# Elastic Constant Matrix: (Units=GPa)
#
#
# Indices 1 2 3 4 5 6 
#
# 1 71.9651 39.2661 16.0277 0.0000 10.8738 0.0000
# 2 39.2661 119.5922 41.3983 0.0000 15.7491 0.0000
# 3 16.0277 41.3983 75.5142 0.0000 23.1037 0.0000
# 4 0.0000 0.0000 0.0000 24.0434 0.0000 6.8751
# 5 10.8738 15.7491 23.1037 0.0000 22.2762 0.0000
# 6 0.0000 0.0000 0.0000 6.8751 0.0000 29.8010
#
#
#
# Elastic Compliance Matrix: (Units=1/GPa)
#
#
# Indices 1 2 3 4 5 6 
#
# 1 0.017446 -0.005304 0.000971 0.000000 -0.005773 0.000000
# 2 -0.005304 0.012000 -0.005345 0.000000 -0.000351 0.000000
# 3 0.000971 -0.005345 0.021907 0.000000 -0.019416 0.000000
# 4 0.000000 0.000000 0.000000 0.044529 0.000000 -0.010273
# 5 -0.005773 -0.000351 -0.019416 0.000000 0.068094 0.000000
# 6 0.000000 0.000000 0.000000 -0.010273 0.000000 0.035926
#
#
# Mechanical properties :
#
#
# Convention : Reuss Voigt Hill
#
# Bulk Modulus (GPa) = 31.25347 51.16173 41.20760
# Shear Modulus (GPa) = 21.74636 26.58273 24.16455
#
# Velocity S-wave (km/s) = 3.43943 3.80271 3.62563
# Velocity P-wave (km/s) = 5.72489 6.86382 6.32007
#
# Compressibility (1/GPa) = 0.03199645
#
# Stress axis : x y z
#
# Youngs Moduli (GPa) = 57.32104 83.33496 45.64705
#
# Poissons Ratio (x) = 0.44200 -0.04434
# Poissons Ratio (y) = 0.30402 0.24400
# Poissons Ratio (z) = -0.05568 0.44546
#
# Static dielectric constant tensor:
#      x y z
#    x 3.619520 0.000000 0.242030 
#    y 0.000000 3.694520 0.000000 
#    z 0.242030 0.000000 3.103020 
# 
# 
# High freq. dielectric constant tensor:
#      x y z
#    x 1.735220 0.000000 0.019500 
#    y 0.000000 1.717480 0.000000 
#    z 0.019500 0.000000 1.653380 
# 
# From -- ./inp_files/65425.got.cif
#   From: 2010.03.12/outbox.cif.g09.slc.cpg/sg14_33_cif.got.tgz:65425.got - 2010.03.31 13:35:05.
