data_PCOD8123264
_publ_section_title
;
Structure prediction by ZEFSAII (Michael W. Deem and Ramdas Pophale) SiO2 
 PCOD8123264
Probable space group: P 21/C
;
_chemical_formula_sum "Si O2"
_cell_formula_units_Z 32
_cell_length_a 12.352472
_cell_length_b 18.540107
_cell_length_c 20.292003
_cell_angle_alpha 90.000000
_cell_angle_beta 23.277521
_cell_angle_gamma 90.000000
_cell_volume 1836.502962
_symmetry_space_group_name_H-M "P 21/C"
_symmetry_group_IT_number 14
_symmetry_cell_setting 'monoclinic'
loop_
_space_group_symop_operation_xyz
x,y,z
-x,1/2+y,1/2-z
-x,-y,-z
x,1/2-y,1/2+z
loop_
_atom_site_type_symbol
_atom_site_label
_atom_site_fract_x
_atom_site_fract_y
_atom_site_fract_z
Si Si1 0.706977 0.682475 0.659897
Si Si2 0.929333 0.172274 0.918879
Si Si3 0.115930 0.666809 0.051088
Si Si4 0.901276 0.940500 0.972153
Si Si5 0.696738 0.462065 0.981594
Si Si6 0.448227 0.961782 0.737462
Si Si7 0.893253 0.963029 0.251992
Si Si8 0.676562 0.842115 0.694379
O O1 0.893248 0.649467 0.615561
O O2 0.766569 0.638561 0.558504
O O3 0.782639 0.765906 0.605091
O O4 0.392052 0.674905 0.854843
O O5 0.980599 0.116285 0.830552
O O6 0.996832 0.254997 0.860983
O O7 0.611448 0.168526 0.110173
O O8 0.160229 0.616340 0.090386
O O9 0.891649 0.630602 0.128569
O O10 0.209770 0.930673 0.825308
O O11 0.932638 0.972797 0.881176
O O12 0.702410 0.995888 0.120292
O O13 0.891407 0.515849 0.830365
O O14 0.651505 0.488739 0.081384
O O15 0.413222 0.455180 0.102592
O O16 0.647503 0.899608 0.652564
#
# Coordination Sequence:
#
# PCOD8123264 Si02
#       8
#     4   4   4   4   4   4   4   4
#     4  10  17  32  52  78 104 130 175 218 248 303
#     4  10  17  33  54  75 102 136 176 206 250 315
#     4  10  20  31  50  80 109 130 164 218 261 303
#     4  10  16  30  55  75  96 130 176 211 244 299
#     4  10  20  34  51  79 106 131 175 219 250 294
#     4  10  17  31  52  76 102 130 168 211 256 300
#     4  10  19  33  56  77  98 138 180 212 246 300
#     4  10  20  29  51  81 106 133 166 212 267 305
#
# _framework density 17.424419
#
# number of rings (size 3 to 8) (size 9 to 14) (size 15 to 20)
#    0.000    2.000    5.000    0.750    0.000    0.500 
#    0.000    1.875    0.000    0.000    0.000    0.000 
#    0.000    0.000    0.000    0.000    0.000    0.000 
#
# Total GULP energy -396537.961745 kJ/mol
# GULP energy per Si atom -12391.811305 kJ/mol
# Density = 1.738476 g / cm^3
# Si number density = 17.424419 Si / 1000 Ang^3
#
#
#
# Elastic Constant Matrix: (Units=GPa)
#
#
# Indices 1 2 3 4 5 6 
#
# 1 45.6121 27.1046 26.7170 0.0000 -1.8566 0.0000
# 2 27.1046 99.8961 22.9999 0.0000 4.7982 0.0000
# 3 26.7170 22.9999 60.0037 0.0000 -1.6920 0.0000
# 4 0.0000 0.0000 0.0000 15.6180 0.0000 -0.3374
# 5 -1.8566 4.7982 -1.6920 0.0000 20.6109 0.0000
# 6 0.0000 0.0000 0.0000 -0.3374 0.0000 27.9978
#
#
#
# Elastic Compliance Matrix: (Units=1/GPa)
#
#
# Indices 1 2 3 4 5 6 
#
# 1 0.032923 -0.006301 -0.012147 0.000000 0.003435 0.000000
# 2 -0.006301 0.012362 -0.002035 0.000000 -0.003613 0.000000
# 3 -0.012147 -0.002035 0.022890 0.000000 0.001259 0.000000
# 4 0.000000 0.000000 0.000000 0.064045 0.000000 0.000772
# 5 0.003435 -0.003613 0.001259 0.000000 0.049772 0.000000
# 6 0.000000 0.000000 0.000000 0.000772 0.000000 0.035726
#
#
# Mechanical properties :
#
#
# Convention : Reuss Voigt Hill
#
# Bulk Modulus (GPa) = 36.75265 39.90610 38.32937
# Shear Modulus (GPa) = 18.67382 21.42471 20.04926
#
# Velocity S-wave (km/s) = 3.27724 3.51034 3.39579
# Velocity P-wave (km/s) = 5.95473 6.27552 6.11723
#
# Compressibility (1/GPa) = 0.02720892
#
# Stress axis : x y z
#
# Youngs Moduli (GPa) = 30.37351 80.89246 43.68792
#
# Poissons Ratio (x) = 0.50973 0.53068
# Poissons Ratio (y) = 0.19139 0.08889
# Poissons Ratio (z) = 0.36895 0.16459
#
# Static dielectric constant tensor:
#      x y z
#    x 2.995960 0.000000 -0.028950 
#    y 0.000000 3.644230 0.000000 
#    z -0.028950 0.000000 3.327160 
# 
# 
# High freq. dielectric constant tensor:
#      x y z
#    x 1.628700 0.000000 -0.014590 
#    y 0.000000 1.682910 0.000000 
#    z -0.014590 0.000000 1.664880 
# 
# From -- ./inp_files/73981.got.cif
#   From: 2010.03.12/outbox.cif.g09.slc.cpg/sg14_37_cif.got.tgz:73981.got - 2010.03.31 13:35:05.
