data_PCOD8123398
_publ_section_title
;
Structure prediction by ZEFSAII (Michael W. Deem and Ramdas Pophale) SiO2 
 PCOD8123398
Probable space group: P 21/C
;
_chemical_formula_sum "Si O2"
_cell_formula_units_Z 32
_cell_length_a 8.280404
_cell_length_b 11.957363
_cell_length_c 27.176015
_cell_angle_alpha 90.000000
_cell_angle_beta 34.390332
_cell_angle_gamma 90.000000
_cell_volume 1519.808091
_symmetry_space_group_name_H-M "P 21/C"
_symmetry_group_IT_number 14
_symmetry_cell_setting 'monoclinic'
loop_
_space_group_symop_operation_xyz
x,y,z
-x,1/2+y,1/2-z
-x,-y,-z
x,1/2-y,1/2+z
loop_
_atom_site_type_symbol
_atom_site_label
_atom_site_fract_x
_atom_site_fract_y
_atom_site_fract_z
Si Si1 0.915621 0.859223 0.771239
Si Si2 0.466539 0.350785 0.166496
Si Si3 0.776837 0.904166 0.169027
Si Si4 0.794722 0.487015 0.216449
Si Si5 0.530594 0.580520 0.105857
Si Si6 0.005931 0.620399 0.358415
Si Si7 0.326768 0.162807 0.329185
Si Si8 0.952735 0.669340 0.923874
O O1 0.713202 0.758285 0.804246
O O2 0.876102 0.974455 0.750658
O O3 0.849246 0.882241 0.845083
O O4 0.254411 0.837238 0.678359
O O5 0.322460 0.407751 0.249548
O O6 0.462435 0.447067 0.125491
O O7 0.786718 0.319621 0.102788
O O8 0.842100 0.780911 0.132852
O O9 0.530596 0.950184 0.195730
O O10 0.026134 0.998029 0.107235
O O11 0.842656 0.588958 0.167089
O O12 0.977454 0.386446 0.146809
O O13 0.728912 0.612875 0.102717
O O14 0.692829 0.603978 0.014442
O O15 0.851464 0.706149 0.434324
O O16 0.336785 0.663820 0.269522
#
# Coordination Sequence:
#
# PCOD8123398 Si02
#       8
#     4   4   4   4   4   4   4   4
#     4  11  23  35  56  92 123 158 204 249 311 367
#     4  11  19  37  62  89 120 160 208 257 298 369
#     4  10  17  35  61  83 113 154 216 250 278 357
#     4  10  19  32  59  86 116 154 197 249 303 354
#     4  11  24  38  60  96 129 152 201 262 323 365
#     4  10  20  35  55  84 123 162 201 252 301 365
#     4  10  17  36  57  88 113 161 207 245 290 369
#     4  11  22  40  62  90 127 161 199 257 317 368
#
# _framework density 21.055288000000001
#
# number of rings (size 3 to 8) (size 9 to 14) (size 15 to 20)
#    0.000    1.500    8.750    1.125    1.750    0.500 
#    0.000    0.625    0.000    0.750    0.000    0.000 
#    0.000    0.000    0.000    0.000    0.000    0.000 
#
# Total GULP energy -396465.417399 kJ/mol
# GULP energy per Si atom -12389.544294 kJ/mol
# Density = 2.100737 g / cm^3
# Si number density = 21.055288 Si / 1000 Ang^3
#
#
#
# Elastic Constant Matrix: (Units=GPa)
#
#
# Indices 1 2 3 4 5 6 
#
# 1 59.2497 13.6875 5.6420 0.0000 -3.8027 0.0000
# 2 13.6875 105.8294 -1.5741 0.0000 -7.8078 0.0000
# 3 5.6420 -1.5741 25.1423 0.0000 -0.3107 0.0000
# 4 0.0000 0.0000 0.0000 19.7205 0.0000 3.3135
# 5 -3.8027 -7.8078 -0.3107 0.0000 14.7653 0.0000
# 6 0.0000 0.0000 0.0000 3.3135 0.0000 38.2173
#
#
#
# Elastic Compliance Matrix: (Units=1/GPa)
#
#
# Indices 1 2 3 4 5 6 
#
# 1 0.017983 -0.002135 -0.004127 0.000000 0.003415 0.000000
# 2 -0.002135 0.010098 0.001171 0.000000 0.004814 0.000000
# 3 -0.004127 0.001171 0.040778 0.000000 0.000414 0.000000
# 4 0.000000 0.000000 0.000000 0.051458 0.000000 -0.004461
# 5 0.003415 0.004814 0.000414 0.000000 0.071160 0.000000
# 6 0.000000 0.000000 0.000000 -0.004461 0.000000 0.026553
#
#
# Mechanical properties :
#
#
# Convention : Reuss Voigt Hill
#
# Bulk Modulus (GPa) = 17.04255 25.08135 21.06195
# Shear Modulus (GPa) = 20.17980 26.03836 23.10908
#
# Velocity S-wave (km/s) = 3.09919 3.52044 3.31651
# Velocity P-wave (km/s) = 4.57367 5.33504 4.96896
#
# Compressibility (1/GPa) = 0.05867665
#
# Stress axis : x y z
#
# Youngs Moduli (GPa) = 55.60751 99.03004 24.52291
#
# Poissons Ratio (x) = 0.21146 0.10120
# Poissons Ratio (y) = 0.11874 -0.02871
# Poissons Ratio (z) = 0.22949 -0.11595
#
# Static dielectric constant tensor:
#      x y z
#    x 3.900360 0.000000 0.034410 
#    y 0.000000 4.022380 0.000000 
#    z 0.034410 0.000000 3.246910 
# 
# 
# High freq. dielectric constant tensor:
#      x y z
#    x 1.827900 0.000000 0.006540 
#    y 0.000000 1.838480 0.000000 
#    z 0.006540 0.000000 1.760570 
# 
# From -- ./inp_files/55587.got.cif
#   From: 2010.03.12/outbox.cif.g09.slc.cpg/sg14_28_cif.got.tgz:55587.got - 2010.03.31 13:35:05.
