data_PCOD8123439
_publ_section_title
;
Structure prediction by ZEFSAII (Michael W. Deem and Ramdas Pophale) SiO2 
 PCOD8123439
Probable space group: P 21/C
;
_chemical_formula_sum "Si O2"
_cell_formula_units_Z 28
_cell_length_a 5.195211
_cell_length_b 14.133650
_cell_length_c 29.285795
_cell_angle_alpha 90.000000
_cell_angle_beta 114.997977
_cell_angle_gamma 90.000000
_cell_volume 1948.935215
_symmetry_space_group_name_H-M "P 21/C"
_symmetry_group_IT_number 14
_symmetry_cell_setting 'monoclinic'
loop_
_space_group_symop_operation_xyz
x,y,z
-x,1/2+y,1/2-z
-x,-y,-z
x,1/2-y,1/2+z
loop_
_atom_site_type_symbol
_atom_site_label
_atom_site_fract_x
_atom_site_fract_y
_atom_site_fract_z
Si Si1 0.176628 0.615207 0.475675
Si Si2 0.645378 0.092556 0.226064
Si Si3 0.188521 0.109520 0.968421
Si Si4 0.886333 0.879758 0.862674
Si Si5 0.987241 0.907672 0.144026
Si Si6 0.362451 0.116519 0.793376
Si Si7 0.165111 0.197447 0.232139
O O1 0.499471 0.651772 0.498028
O O2 0.179019 0.502637 0.473466
O O3 0.994351 0.656509 0.419643
O O4 0.030357 0.652785 0.511140
O O5 0.723107 0.982229 0.237107
O O6 0.932870 0.152854 0.248471
O O7 0.458087 0.104392 0.164810
O O8 0.447908 0.130479 0.253118
O O9 0.099508 0.138743 0.910759
O O10 0.964837 0.802858 0.829311
O O11 0.033633 0.978974 0.860096
O O12 0.299908 0.871567 0.179711
O O13 0.766276 0.873385 0.165655
O O14 0.233762 0.196721 0.751498
#
# Coordination Sequence:
#
# PCOD8123439 Si02
#       7
#     4   4   4   4   4   4   4
#     4   9  16  24  39  55  80 109 139 172 198 235
#     4   9  18  30  41  61  85 110 144 175 206 251
#     4   9  17  25  36  59  78 108 146 167 196 240
#     4   8  18  27  43  57  87 111 145 171 209 245
#     4  10  18  29  43  58  86 116 145 174 206 248
#     4  11  18  30  46  60  82 120 144 177 213 244
#     4  10  19  29  44  63  81 112 153 173 209 254
#
# _framework density 14.366818
#
# number of rings (size 3 to 8) (size 9 to 14) (size 15 to 20)
#    0.857    1.714    1.429    1.714    2.000    3.429 
#    0.000    0.000    0.000    0.000    0.000    0.000 
#    0.000    0.000    0.000   25.714    0.000    1.429 
#
# Total GULP energy -346928.257022 kJ/mol
# GULP energy per Si atom -12390.294894 kJ/mol
# Density = 1.433412 g / cm^3
# Si number density = 14.366818 Si / 1000 Ang^3
#
#
#
# Elastic Constant Matrix: (Units=GPa)
#
#
# Indices 1 2 3 4 5 6 
#
# 1 94.8205 19.4337 11.7616 0.0000 2.7676 0.0000
# 2 19.4337 52.5195 26.2775 0.0000 4.3263 0.0000
# 3 11.7616 26.2775 36.3031 0.0000 0.0146 0.0000
# 4 0.0000 0.0000 0.0000 13.4593 0.0000 0.3141
# 5 2.7676 4.3263 0.0146 0.0000 23.5547 0.0000
# 6 0.0000 0.0000 0.0000 0.3141 0.0000 12.7675
#
#
#
# Elastic Compliance Matrix: (Units=1/GPa)
#
#
# Indices 1 2 3 4 5 6 
#
# 1 0.011446 -0.003644 -0.001070 0.000000 -0.000675 0.000000
# 2 -0.003644 0.031734 -0.021787 0.000000 -0.005387 0.000000
# 3 -0.001070 -0.021787 0.043661 0.000000 0.004100 0.000000
# 4 0.000000 0.000000 0.000000 0.074341 0.000000 -0.001829
# 5 -0.000675 -0.005387 0.004100 0.000000 0.043521 0.000000
# 6 0.000000 0.000000 0.000000 -0.001829 0.000000 0.078369
#
#
# Mechanical properties :
#
#
# Convention : Reuss Voigt Hill
#
# Bulk Modulus (GPa) = 29.55292 33.17650 31.36471
# Shear Modulus (GPa) = 14.39460 18.36765 16.38113
#
# Velocity S-wave (km/s) = 3.16877 3.57946 3.38036
# Velocity P-wave (km/s) = 5.83121 6.34239 6.09217
#
# Compressibility (1/GPa) = 0.03383760
#
# Stress axis : x y z
#
# Youngs Moduli (GPa) = 87.37010 31.51226 22.90362
#
# Poissons Ratio (x) = 0.11484 0.02451
# Poissons Ratio (y) = 0.31839 0.49900
# Poissons Ratio (z) = 0.09349 0.68656
#
# Static dielectric constant tensor:
#      x y z
#    x 2.965930 0.000000 0.030390 
#    y 0.000000 2.353370 0.000000 
#    z 0.030390 0.000000 2.740110 
# 
# 
# High freq. dielectric constant tensor:
#      x y z
#    x 1.569790 0.000000 0.004750 
#    y 0.000000 1.485010 0.000000 
#    z 0.004750 0.000000 1.532280 
# 
# From -- ./inp_files/71339.got.cif
#   From: 2010.03.12/outbox.cif.g09.slc.cpg/sg14_36_cif.got.tgz:71339.got - 2010.03.31 13:35:05.
