data_PCOD8123230
_publ_section_title
;
Structure prediction by ZEFSAII (Michael W. Deem and Ramdas Pophale) SiO2 
 PCOD8123230
Probable space group: P 21/C
;
_chemical_formula_sum "Si O2"
_cell_formula_units_Z 32
_cell_length_a 19.762081
_cell_length_b 17.839116
_cell_length_c 5.191828
_cell_angle_alpha 90.000000
_cell_angle_beta 104.641908
_cell_angle_gamma 90.000000
_cell_volume 1770.876562
_symmetry_space_group_name_H-M "P 21/C"
_symmetry_group_IT_number 14
_symmetry_cell_setting 'monoclinic'
loop_
_space_group_symop_operation_xyz
x,y,z
-x,1/2+y,1/2-z
-x,-y,-z
x,1/2-y,1/2+z
loop_
_atom_site_type_symbol
_atom_site_label
_atom_site_fract_x
_atom_site_fract_y
_atom_site_fract_z
Si Si1 0.958164 0.588485 0.202290
Si Si2 0.614539 0.162045 0.820958
Si Si3 0.162796 0.703272 0.949276
Si Si4 0.464425 0.201412 0.745897
Si Si5 0.832838 0.799763 0.573543
Si Si6 0.045552 0.586032 0.788109
Si Si7 0.318452 0.296632 0.988637
Si Si8 0.325293 0.828644 0.620545
O O1 0.887278 0.634097 0.163604
O O2 0.937502 0.501608 0.183510
O O3 0.008635 0.608728 0.486982
O O4 0.995946 0.611221 0.974380
O O5 0.531411 0.148165 0.766968
O O6 0.633696 0.250055 0.810606
O O7 0.643678 0.123774 0.588654
O O8 0.656548 0.125871 0.101399
O O9 0.143460 0.760420 0.703424
O O10 0.119241 0.627565 0.876711
O O11 0.243625 0.682793 0.006406
O O12 0.467580 0.268898 0.540989
O O13 0.390270 0.157402 0.624358
O O14 0.842912 0.762839 0.303474
O O15 0.755311 0.837870 0.524434
O O16 0.320254 0.225945 0.189587
#
# Coordination Sequence:
#
# PCOD8123230 Si02
#       8
#     4   4   4   4   4   4   4   4
#     4  10  21  40  54  69  97 123 160 200 232 292
#     4  10  14  23  36  54  83 126 147 173 224 270
#     4  12  21  32  48  71 102 126 153 202 237 278
#     4  10  14  20  34  52  82 120 149 172 213 277
#     4  10  19  32  53  75  97 124 152 198 248 284
#     4  10  23  37  53  72  93 128 161 195 240 280
#     4   8  16  25  36  62  91 115 143 187 227 271
#     4  10  16  25  36  57  87 120 147 183 225 268
#
# _framework density 18.070146999999999
#
# number of rings (size 3 to 8) (size 9 to 14) (size 15 to 20)
#    0.000    2.000    5.000    1.500    0.000    3.000 
#    0.000    0.000    0.000    0.000    0.000    0.000 
#    0.000    2.000    0.000    0.000    0.000    7.250 
#
# Total GULP energy -396489.562920 kJ/mol
# GULP energy per Si atom -12390.298841 kJ/mol
# Density = 1.802902 g / cm^3
# Si number density = 18.070147 Si / 1000 Ang^3
#
#
#
# Elastic Constant Matrix: (Units=GPa)
#
#
# Indices 1 2 3 4 5 6 
#
# 1 106.8269 36.2677 8.9261 0.0000 14.4938 0.0000
# 2 36.2677 22.5031 8.8210 0.0000 9.6927 0.0000
# 3 8.9261 8.8210 100.1040 0.0000 -8.8256 0.0000
# 4 0.0000 0.0000 0.0000 6.5117 0.0000 -2.7723
# 5 14.4938 9.6927 -8.8256 0.0000 32.2151 0.0000
# 6 0.0000 0.0000 0.0000 -2.7723 0.0000 2.2468
#
#
#
# Elastic Compliance Matrix: (Units=1/GPa)
#
#
# Indices 1 2 3 4 5 6 
#
# 1 0.020851 -0.034744 0.001329 0.000000 0.001437 0.000000
# 2 -0.034744 0.112725 -0.008656 0.000000 -0.020656 0.000000
# 3 0.001329 -0.008656 0.011078 0.000000 0.005041 0.000000
# 4 0.000000 0.000000 0.000000 0.323515 0.000000 0.399179
# 5 0.001437 -0.020656 0.005041 0.000000 0.037991 0.000000
# 6 0.000000 0.000000 0.000000 0.399179 0.000000 0.937613
#
#
# Mechanical properties :
#
#
# Convention : Reuss Voigt Hill
#
# Bulk Modulus (GPa) = 16.52586 37.49595 27.01090
# Shear Modulus (GPa) = 3.22979 19.88935 11.55957
#
# Velocity S-wave (km/s) = 1.33837 3.32124 2.53198
# Velocity P-wave (km/s) = 3.39905 5.95842 4.85059
#
# Compressibility (1/GPa) = 0.06051123
#
# Stress axis : x y z
#
# Youngs Moduli (GPa) = 47.96031 8.87114 90.26619
#
# Poissons Ratio (x) = 0.30822 -0.11997
# Poissons Ratio (y) = 1.66635 0.78136
# Poissons Ratio (z) = -0.06374 0.07679
#
# Static dielectric constant tensor:
#      x y z
#    x 3.753080 0.000000 -0.239710 
#    y 0.000000 2.593210 0.000000 
#    z -0.239710 0.000000 4.561530 
# 
# 
# High freq. dielectric constant tensor:
#      x y z
#    x 1.725650 0.000000 -0.001990 
#    y 0.000000 1.598370 0.000000 
#    z -0.001990 0.000000 1.739040 
# 
# From -- ./inp_files/4148.got.cif
#   From: 2010.03.12/outbox.cif.g09.slc.cpg/sg14_3_cif.got.tgz:4148.got - 2010.03.31 13:35:05.
