data_PCOD8123757
_publ_section_title
;
Structure prediction by ZEFSAII (Michael W. Deem and Ramdas Pophale) SiO2 
 PCOD8123757
Probable space group: P 21/C
;
_chemical_formula_sum "Si O2"
_cell_formula_units_Z 24
_cell_length_a 7.606084
_cell_length_b 12.268860
_cell_length_c 13.997073
_cell_angle_alpha 90.000000
_cell_angle_beta 73.452743
_cell_angle_gamma 90.000000
_cell_volume 1252.083392
_symmetry_space_group_name_H-M "P 21/C"
_symmetry_group_IT_number 14
_symmetry_cell_setting 'monoclinic'
loop_
_space_group_symop_operation_xyz
x,y,z
-x,1/2+y,1/2-z
-x,-y,-z
x,1/2-y,1/2+z
loop_
_atom_site_type_symbol
_atom_site_label
_atom_site_fract_x
_atom_site_fract_y
_atom_site_fract_z
Si Si1 0.283278 0.482438 0.245348
Si Si2 0.107004 0.832024 0.468261
Si Si3 0.236920 0.460163 0.036016
Si Si4 0.425366 0.134482 0.328865
Si Si5 0.202083 0.715485 0.267374
Si Si6 0.097269 0.273182 0.334091
O O1 0.300624 0.442038 0.133794
O O2 0.490188 0.527068 0.238915
O O3 0.146440 0.586684 0.277657
O O4 0.209176 0.386456 0.323715
O O5 0.215548 0.765679 0.371024
O O6 0.966725 0.912820 0.438112
O O7 0.008753 0.743189 0.550526
O O8 0.239085 0.910232 0.510507
O O9 0.373324 0.394852 0.945599
O O10 0.590706 0.224579 0.308434
O O11 0.248468 0.177051 0.298200
O O12 0.047034 0.776978 0.230068
#
# Coordination Sequence:
#
# PCOD8123757 Si02
#       6
#     4   4   4   4   4   4
#     4  10  21  37  60  89 115 158 198 240 296 352
#     4  10  20  35  63  88 118 158 197 243 299 342
#     4  10  18  36  64  88 112 156 207 248 281 347
#     4   9  23  35  55  90 116 149 200 238 297 338
#     4  10  22  38  56  90 117 156 193 242 302 343
#     4  11  21  40  58  86 125 150 196 252 287 353
#
# _framework density 19.168051999999999
#
# number of rings (size 3 to 8) (size 9 to 14) (size 15 to 20)
#    1.000    1.000    3.333    0.500    2.333    0.667 
#    0.000    0.000    0.000    1.000    0.000    0.000 
#    0.000    0.000    0.000    0.000    0.000    0.000 
#
# Total GULP energy -297317.266040 kJ/mol
# GULP energy per Si atom -12388.219418 kJ/mol
# Density = 1.912442 g / cm^3
# Si number density = 19.168052 Si / 1000 Ang^3
#
#
#
# Elastic Constant Matrix: (Units=GPa)
#
#
# Indices 1 2 3 4 5 6 
#
# 1 64.8960 0.9892 22.0171 0.0000 -12.9592 0.0000
# 2 0.9892 60.2441 39.2491 0.0000 -11.5227 0.0000
# 3 22.0171 39.2491 81.9933 0.0000 -12.2498 0.0000
# 4 0.0000 0.0000 0.0000 41.3605 0.0000 -9.1911
# 5 -12.9592 -11.5227 -12.2498 0.0000 25.6195 0.0000
# 6 0.0000 0.0000 0.0000 -9.1911 0.0000 31.5610
#
#
#
# Elastic Compliance Matrix: (Units=1/GPa)
#
#
# Indices 1 2 3 4 5 6 
#
# 1 0.019398 0.005731 -0.006570 0.000000 0.009248 0.000000
# 2 0.005731 0.026625 -0.012990 0.000000 0.008663 0.000000
# 3 -0.006570 -0.012990 0.020256 0.000000 0.000519 0.000000
# 4 0.000000 0.000000 0.000000 0.025851 0.000000 0.007528
# 5 0.009248 0.008663 0.000519 0.000000 0.047855 0.000000
# 6 0.000000 0.000000 0.000000 0.007528 0.000000 0.033877
#
#
# Mechanical properties :
#
#
# Convention : Reuss Voigt Hill
#
# Bulk Modulus (GPa) = 25.89304 36.84936 31.37120
# Shear Modulus (GPa) = 23.32166 29.36673 26.34419
#
# Velocity S-wave (km/s) = 3.49190 3.91841 3.71129
# Velocity P-wave (km/s) = 5.45853 6.30381 5.89634
#
# Compressibility (1/GPa) = 0.03862042
#
# Stress axis : x y z
#
# Youngs Moduli (GPa) = 51.55228 37.55913 49.36817
#
# Poissons Ratio (x) = -0.21525 0.32437
# Poissons Ratio (y) = -0.29545 0.64127
# Poissons Ratio (z) = 0.33872 0.48788
#
# Static dielectric constant tensor:
#      x y z
#    x 3.469480 0.000000 -0.168390 
#    y 0.000000 3.461010 0.000000 
#    z -0.168390 0.000000 3.297330 
# 
# 
# High freq. dielectric constant tensor:
#      x y z
#    x 1.740520 0.000000 -0.016410 
#    y 0.000000 1.732190 0.000000 
#    z -0.016410 0.000000 1.728280 
# 
# From -- ./inp_files/39386.got.cif
#   From: 2010.03.12/outbox.cif.g09.slc.cpg/sg14_20_cif.got.tgz:39386.got - 2010.03.31 13:35:05.
