data_PCOD8123039
_publ_section_title
;
Structure prediction by ZEFSAII (Michael W. Deem and Ramdas Pophale) SiO2 
 PCOD8123039
Probable space group: P 2/C
;
_chemical_formula_sum "Si O2"
_cell_formula_units_Z 24
_cell_length_a 15.685210
_cell_length_b 7.549333
_cell_length_c 17.877414
_cell_angle_alpha 90.000000
_cell_angle_beta 38.644721
_cell_angle_gamma 90.000000
_cell_volume 1321.991591
_symmetry_space_group_name_H-M "P 2/C"
_symmetry_group_IT_number 13
_symmetry_cell_setting 'monoclinic'
loop_
_space_group_symop_operation_xyz
x,y,z
-x,y,1/2-z
-x,-y,-z
x,-y,1/2+z
loop_
_atom_site_type_symbol
_atom_site_label
_atom_site_fract_x
_atom_site_fract_y
_atom_site_fract_z
Si Si1 0.190650 0.780036 0.315881
Si Si2 0.801852 0.816763 0.700906
Si Si3 0.658406 0.510133 0.876382
Si Si4 0.850553 0.502320 0.884746
Si Si5 0.114559 0.785165 0.021402
Si Si6 0.893326 0.811804 0.961403
O O1 0.300912 0.643846 0.209250
O O2 0.188455 0.765753 0.407087
O O3 0.042429 0.732175 0.384746
O O4 0.232520 0.977609 0.262419
O O5 0.688195 0.700848 0.819666
O O6 0.802728 0.772881 0.612459
O O7 0.947783 0.767188 0.636131
O O8 0.737433 0.485198 0.899343
O O9 0.500000 0.500000 0.000000
O O10 0.817913 0.350199 0.967377
O O11 0.836836 0.694913 0.932228
O O12 0.000000 0.470049 0.750000
O O13 0.125392 0.982964 0.047226
#
# Coordination Sequence:
#
# PCOD8123039 Si02
#       6
#     4   4   4   4   4   4
#     4   9  18  36  59  81 107 143 181 221 269 320
#     4   9  18  36  59  81 107 143 181 221 269 320
#     4  12  25  37  51  79 118 151 175 214 273 330
#     4  12  21  33  55  85 112 140 177 226 274 311
#     4   9  18  34  60  86 105 133 183 234 268 309
#     4   9  18  34  60  86 105 133 183 234 268 309
#
# _framework density 18.154426000000001
#
# number of rings (size 3 to 8) (size 9 to 14) (size 15 to 20)
#    0.000    2.000    3.333    3.000    0.000    5.333 
#    0.000    3.333    0.000    4.000    0.000    0.000 
#    0.000    0.000    0.000    0.000    0.000    0.000 
#
# Total GULP energy -297662.385028 kJ/mol
# GULP energy per Si atom -12402.599376 kJ/mol
# Density = 1.811311 g / cm^3
# Si number density = 18.154426 Si / 1000 Ang^3
#
#
#
# Elastic Constant Matrix: (Units=GPa)
#
#
# Indices 1 2 3 4 5 6 
#
# 1 61.8003 9.6451 19.6091 0.0000 -3.4081 0.0000
# 2 9.6451 66.4667 17.1786 0.0000 -1.8917 0.0000
# 3 19.6091 17.1786 63.2985 0.0000 -14.1097 0.0000
# 4 0.0000 0.0000 0.0000 30.8768 0.0000 4.0029
# 5 -3.4081 -1.8917 -14.1097 0.0000 22.3713 0.0000
# 6 0.0000 0.0000 0.0000 4.0029 0.0000 15.5886
#
#
#
# Elastic Compliance Matrix: (Units=1/GPa)
#
#
# Indices 1 2 3 4 5 6 
#
# 1 0.018055 -0.001239 -0.005431 0.000000 -0.000779 0.000000
# 2 -0.001239 0.016316 -0.004397 0.000000 -0.001582 0.000000
# 3 -0.005431 -0.004397 0.021418 0.000000 0.012309 0.000000
# 4 0.000000 0.000000 0.000000 0.033502 0.000000 -0.008603
# 5 -0.000779 -0.001582 0.012309 0.000000 0.052211 0.000000
# 6 0.000000 0.000000 0.000000 -0.008603 0.000000 0.066358
#
#
# Mechanical properties :
#
#
# Convention : Reuss Voigt Hill
#
# Bulk Modulus (GPa) = 29.71249 31.60346 30.65797
# Shear Modulus (GPa) = 20.72872 23.44286 22.08579
#
# Velocity S-wave (km/s) = 3.38272 3.59737 3.49169
# Velocity P-wave (km/s) = 5.62664 5.89073 5.76020
#
# Compressibility (1/GPa) = 0.03365588
#
# Stress axis : x y z
#
# Youngs Moduli (GPa) = 55.38748 61.28859 46.69043
#
# Poissons Ratio (x) = 0.07591 0.25356
# Poissons Ratio (y) = 0.06860 0.20530
# Poissons Ratio (z) = 0.30079 0.26949
#
# Static dielectric constant tensor:
#      x y z
#    x 3.404250 0.000000 0.256590 
#    y 0.000000 3.506350 0.000000 
#    z 0.256590 0.000000 3.229780 
# 
# 
# High freq. dielectric constant tensor:
#      x y z
#    x 1.671940 0.000000 0.030960 
#    y 0.000000 1.722240 0.000000 
#    z 0.030960 0.000000 1.691760 
# 
# From -- ./inp_files/52861.got.cif
#   From: 2010.06.25/outbox.cif.g09.slc.cpg/sg13_27_cif.got.tgz:52861.got - 2010.06.28 04:50:58.
