data_PCOD8123413
_publ_section_title
;
Structure prediction by ZEFSAII (Michael W. Deem and Ramdas Pophale) SiO2 
 PCOD8123413
Probable space group: P 21/C
;
_chemical_formula_sum "Si O2"
_cell_formula_units_Z 32
_cell_length_a 16.835063
_cell_length_b 13.071763
_cell_length_c 12.857314
_cell_angle_alpha 90.000000
_cell_angle_beta 144.665518
_cell_angle_gamma 90.000000
_cell_volume 1636.397919
_symmetry_space_group_name_H-M "P 21/C"
_symmetry_group_IT_number 14
_symmetry_cell_setting 'monoclinic'
loop_
_space_group_symop_operation_xyz
x,y,z
-x,1/2+y,1/2-z
-x,-y,-z
x,1/2-y,1/2+z
loop_
_atom_site_type_symbol
_atom_site_label
_atom_site_fract_x
_atom_site_fract_y
_atom_site_fract_z
Si Si1 0.090788 0.733284 0.710215
Si Si2 0.513824 0.579516 0.778304
Si Si3 0.099978 0.056097 0.027414
Si Si4 0.681054 0.373588 0.939917
Si Si5 0.205610 0.896068 0.991987
Si Si6 0.506365 0.240730 0.889215
Si Si7 0.603360 0.907398 0.590568
Si Si8 0.744086 0.277289 0.801153
O O1 0.123830 0.785751 0.633845
O O2 0.944933 0.673944 0.548411
O O3 0.192841 0.637467 0.844611
O O4 0.108860 0.823255 0.815958
O O5 0.593200 0.473238 0.865304
O O6 0.347735 0.564671 0.590447
O O7 0.569943 0.640119 0.736422
O O8 0.561317 0.639016 0.933718
O O9 0.241569 0.055657 0.241905
O O10 0.116476 0.992950 0.936388
O O11 0.000000 0.000000 0.000000
O O12 0.584438 0.277490 0.867038
O O13 0.739189 0.364893 0.884517
O O14 0.251593 0.834100 0.142997
O O15 0.403826 0.324651 0.824407
O O16 0.608563 0.208969 0.089127
O O17 0.500000 0.000000 0.500000
#
# Coordination Sequence:
#
# PCOD8123413 Si02
#       8
#     4   4   4   4   4   4   4   4
#     4  10  22  40  59  89 125 164 208 252 310 377
#     4  12  21  35  63  93 125 161 203 259 317 370
#     4  12  23  38  67  93 116 170 217 249 310 374
#     4  10  20  34  58  90 120 159 208 252 303 372
#     4  11  20  38  64  90 123 164 210 259 309 371
#     4  11  19  35  57  90 124 158 195 252 318 359
#     4  12  22  39  64  91 129 155 209 271 305 365
#     4  10  17  36  61  85 121 160 201 245 310 375
#
# _framework density 19.555146000000001
#
# number of rings (size 3 to 8) (size 9 to 14) (size 15 to 20)
#    0.000    1.000    8.750    0.750    0.000    0.500 
#    4.500    0.000    0.000    3.000    0.000    0.000 
#    0.000    0.000    0.000    0.000    0.000    0.000 
#
# Total GULP energy -396483.286773 kJ/mol
# GULP energy per Si atom -12390.102712 kJ/mol
# Density = 1.951064 g / cm^3
# Si number density = 19.555146 Si / 1000 Ang^3
#
#
#
# Elastic Constant Matrix: (Units=GPa)
#
#
# Indices 1 2 3 4 5 6 
#
# 1 105.8216 36.8158 39.0120 0.0000 -10.5358 0.0000
# 2 36.8158 40.8731 22.2803 0.0000 -0.5184 0.0000
# 3 39.0120 22.2803 80.1102 0.0000 0.9836 0.0000
# 4 0.0000 0.0000 0.0000 33.9255 0.0000 -3.9342
# 5 -10.5358 -0.5184 0.9836 0.0000 36.0304 0.0000
# 6 0.0000 0.0000 0.0000 -3.9342 0.0000 39.3171
#
#
#
# Elastic Compliance Matrix: (Units=1/GPa)
#
#
# Indices 1 2 3 4 5 6 
#
# 1 0.015537 -0.011531 -0.004414 0.000000 0.004498 0.000000
# 2 -0.011531 0.037411 -0.004756 0.000000 -0.002704 0.000000
# 3 -0.004414 -0.004756 0.015977 0.000000 -0.001795 0.000000
# 4 0.000000 0.000000 0.000000 0.029822 0.000000 0.002984
# 5 0.004498 -0.002704 -0.001795 0.000000 0.029080 0.000000
# 6 0.000000 0.000000 0.000000 0.002984 0.000000 0.025733
#
#
# Mechanical properties :
#
#
# Convention : Reuss Voigt Hill
#
# Bulk Modulus (GPa) = 36.33480 47.00232 41.66856
# Shear Modulus (GPa) = 24.49340 30.43439 27.46389
#
# Velocity S-wave (km/s) = 3.54295 3.94932 3.75164
# Velocity P-wave (km/s) = 5.94623 6.69956 6.33411
#
# Compressibility (1/GPa) = 0.02752182
#
# Stress axis : x y z
#
# Youngs Moduli (GPa) = 64.36344 26.73026 62.58907
#
# Poissons Ratio (x) = 0.30823 0.27628
# Poissons Ratio (y) = 0.74219 0.29768
# Poissons Ratio (z) = 0.28412 0.12713
#
# Static dielectric constant tensor:
#      x y z
#    x 3.730200 0.000000 -0.151230 
#    y 0.000000 3.466360 0.000000 
#    z -0.151230 0.000000 3.570610 
# 
# 
# High freq. dielectric constant tensor:
#      x y z
#    x 1.761440 0.000000 -0.015020 
#    y 0.000000 1.742450 0.000000 
#    z -0.015020 0.000000 1.748000 
# 
# From -- ./inp_files/32775.got.cif
#   From: 2010.03.12/outbox.cif.g09.slc.cpg/sg14_17_cif.got.tgz:32775.got - 2010.03.31 13:35:05.
