data_PCOD8123433
_publ_section_title
;
Structure prediction by ZEFSAII (Michael W. Deem and Ramdas Pophale) SiO2 
 PCOD8123433
Probable space group: P 21/C
;
_chemical_formula_sum "Si O2"
_cell_formula_units_Z 32
_cell_length_a 28.493383
_cell_length_b 5.307524
_cell_length_c 31.098830
_cell_angle_alpha 90.000000
_cell_angle_beta 22.241758
_cell_angle_gamma 90.000000
_cell_volume 1780.178992
_symmetry_space_group_name_H-M "P 21/C"
_symmetry_group_IT_number 14
_symmetry_cell_setting 'monoclinic'
loop_
_space_group_symop_operation_xyz
x,y,z
-x,1/2+y,1/2-z
-x,-y,-z
x,1/2-y,1/2+z
loop_
_atom_site_type_symbol
_atom_site_label
_atom_site_fract_x
_atom_site_fract_y
_atom_site_fract_z
Si Si1 0.197395 0.750009 0.365327
Si Si2 0.769728 0.750009 0.133527
Si Si3 0.351080 0.249998 0.853929
Si Si4 0.363263 0.749999 0.896573
Si Si5 0.947456 0.750002 0.240702
Si Si6 0.845313 0.250002 0.363517
Si Si7 0.063801 0.749991 0.388006
Si Si8 0.027765 0.250009 0.879345
O O1 0.283579 0.501204 0.297850
O O2 0.124005 0.750004 0.383514
O O3 0.104477 0.750019 0.484926
O O4 0.283577 0.998820 0.297850
O O5 0.743299 0.750001 0.105511
O O6 0.916351 0.750020 0.018856
O O7 0.323666 0.499194 0.904638
O O8 0.490738 0.249999 0.717629
O O9 0.323665 0.000801 0.904638
O O10 0.295575 0.750001 0.999973
O O11 0.866157 0.499862 0.317615
O O12 0.996455 0.750004 0.150742
O O13 0.067361 0.750002 0.168897
O O14 0.866156 0.000141 0.317616
O O15 0.105544 0.499246 0.326910
O O16 0.105542 0.000730 0.326909
#
# Coordination Sequence:
#
# PCOD8123433 Si02
#       8
#     4   4   4   4   4   4   4   4
#     4  10  19  31  44  73 102 131 150 195 253 298
#     4  10  18  28  46  67  97 127 158 192 222 310
#     4  10  21  33  51  78  92 128 180 196 245 310
#     4  10  21  36  51  68 103 129 162 222 250 272
#     4  10  21  33  47  74  92 130 183 191 242 293
#     4  10  21  35  49  65 102 131 160 224 238 274
#     4  10  19  29  46  71 104 129 152 193 253 298
#     4  10  18  29  46  66  96 131 159 197 221 305
#
# _framework density 17.975722000000001
#
# number of rings (size 3 to 8) (size 9 to 14) (size 15 to 20)
#    0.000    2.000    0.000    6.000    7.000    0.000 
#    0.000    0.000    0.000    0.000    0.000    0.000 
#    0.000   34.000    0.000    0.000    0.000    0.000 
#
# Total GULP energy -396671.529194 kJ/mol
# GULP energy per Si atom -12395.985287 kJ/mol
# Density = 1.793481 g / cm^3
# Si number density = 17.975722 Si / 1000 Ang^3
#
#
#
# Elastic Constant Matrix: (Units=GPa)
#
#
# Indices 1 2 3 4 5 6 
#
# 1 67.8590 31.8841 1.9493 0.0000 20.3867 0.0000
# 2 31.8841 196.2341 14.3351 0.0000 11.7344 0.0000
# 3 1.9493 14.3351 46.0234 0.0000 12.5855 0.0000
# 4 0.0000 0.0000 0.0000 12.2666 0.0000 9.5215
# 5 20.3867 11.7344 12.5855 0.0000 17.3301 0.0000
# 6 0.0000 0.0000 0.0000 9.5215 0.0000 26.1252
#
#
#
# Elastic Compliance Matrix: (Units=1/GPa)
#
#
# Indices 1 2 3 4 5 6 
#
# 1 0.026854 -0.002882 0.009814 0.000000 -0.036767 0.000000
# 2 -0.002882 0.005646 -0.001894 0.000000 0.000943 0.000000
# 3 0.009814 -0.001894 0.030832 0.000000 -0.032653 0.000000
# 4 0.000000 0.000000 0.000000 0.113682 0.000000 -0.041432
# 5 -0.036767 0.000943 -0.032653 0.000000 0.124030 0.000000
# 6 0.000000 0.000000 0.000000 -0.041432 0.000000 0.053377
#
#
# Mechanical properties :
#
#
# Convention : Reuss Voigt Hill
#
# Bulk Modulus (GPa) = 13.62232 45.16153 29.39192
# Shear Modulus (GPa) = 13.55694 28.60758 21.08226
#
# Velocity S-wave (km/s) = 2.74921 3.99363 3.42836
# Velocity P-wave (km/s) = 4.20383 6.81496 5.66197
#
# Compressibility (1/GPa) = 0.07340893
#
# Stress axis : x y z
#
# Youngs Moduli (GPa) = 37.23811 177.11069 32.43408
#
# Poissons Ratio (x) = 0.51037 -0.31832
# Poissons Ratio (y) = 0.10731 0.06144
# Poissons Ratio (z) = -0.36547 0.33550
#
# Static dielectric constant tensor:
#      x y z
#    x 3.109330 0.000000 0.125980 
#    y 0.000000 5.218570 0.000000 
#    z 0.125980 0.000000 2.839350 
# 
# 
# High freq. dielectric constant tensor:
#      x y z
#    x 1.684710 0.000000 0.019690 
#    y 0.000000 1.742240 0.000000 
#    z 0.019690 0.000000 1.628250 
# 
# From -- ./inp_files/74801.got.cif
#   From: 2010.03.12/outbox.cif.g09.slc.cpg/sg14_38_cif.got.tgz:74801.got - 2010.03.31 13:35:05.
