data_PCOD8123915
_publ_section_title
;
Structure prediction by ZEFSAII (Michael W. Deem and Ramdas Pophale) SiO2 
 PCOD8123915
Probable space group: P 21/C
;
_chemical_formula_sum "Si O2"
_cell_formula_units_Z 20
_cell_length_a 14.417282
_cell_length_b 9.514747
_cell_length_c 17.952631
_cell_angle_alpha 90.000000
_cell_angle_beta 27.436887
_cell_angle_gamma 90.000000
_cell_volume 1134.734161
_symmetry_space_group_name_H-M "P 21/C"
_symmetry_group_IT_number 14
_symmetry_cell_setting 'monoclinic'
loop_
_space_group_symop_operation_xyz
x,y,z
-x,1/2+y,1/2-z
-x,-y,-z
x,1/2-y,1/2+z
loop_
_atom_site_type_symbol
_atom_site_label
_atom_site_fract_x
_atom_site_fract_y
_atom_site_fract_z
Si Si1 0.419443 0.176191 0.732408
Si Si2 0.647248 0.109504 0.156171
Si Si3 0.621838 0.093057 0.012139
Si Si4 0.795621 0.025698 0.738264
Si Si5 0.997129 0.273378 0.982107
O O1 0.483425 0.265776 0.760902
O O2 0.551499 0.241283 0.569506
O O3 0.459090 0.011284 0.717978
O O4 0.184558 0.191847 0.883095
O O5 0.706933 0.044885 0.032205
O O6 0.851669 0.162284 0.047332
O O7 0.427750 0.998871 0.132769
O O8 0.790161 0.069224 0.829285
O O9 0.935542 0.889003 0.627155
O O10 0.883464 0.156396 0.631634
#
# Coordination Sequence:
#
# PCOD8123915 Si02
#       5
#     4   4   4   4   4
#     4   9  20  34  55  79 109 146 183 229 275 327
#     4  10  19  35  55  82 109 146 184 230 272 328
#     4   8  18  33  55  74 112 137 186 224 272 330
#     4   9  17  35  54  82 101 151 181 224 280 333
#     4  10  19  31  60  75 113 141 187 225 278 331
#
# _framework density 17.625274999999998
#
# number of rings (size 3 to 8) (size 9 to 14) (size 15 to 20)
#    1.200    1.600    0.000    1.800    2.800    0.000 
#    3.600    1.000    0.000    0.000    0.000    0.000 
#    0.000    0.000    0.000    0.000    0.000    0.000 
#
# Total GULP energy -247767.366653 kJ/mol
# GULP energy per Si atom -12388.368333 kJ/mol
# Density = 1.758516 g / cm^3
# Si number density = 17.625275 Si / 1000 Ang^3
#
#
#
# Elastic Constant Matrix: (Units=GPa)
#
#
# Indices 1 2 3 4 5 6 
#
# 1 64.8464 27.2557 10.4543 0.0000 -15.0619 0.0000
# 2 27.2557 85.3477 26.1685 0.0000 -3.5701 0.0000
# 3 10.4543 26.1685 46.9866 0.0000 8.7699 0.0000
# 4 0.0000 0.0000 0.0000 16.7040 0.0000 -4.1082
# 5 -15.0619 -3.5701 8.7699 0.0000 27.2133 0.0000
# 6 0.0000 0.0000 0.0000 -4.1082 0.0000 25.8112
#
#
#
# Elastic Compliance Matrix: (Units=1/GPa)
#
#
# Indices 1 2 3 4 5 6 
#
# 1 0.021041 -0.004893 -0.004267 0.000000 0.012379 0.000000
# 2 -0.004893 0.015848 -0.008108 0.000000 0.001984 0.000000
# 3 -0.004267 -0.008108 0.029140 0.000000 -0.012816 0.000000
# 4 0.000000 0.000000 0.000000 0.062305 0.000000 0.009917
# 5 0.012379 0.001984 -0.012816 0.000000 0.047988 0.000000
# 6 0.000000 0.000000 0.000000 0.009917 0.000000 0.040321
#
#
# Mechanical properties :
#
#
# Convention : Reuss Voigt Hill
#
# Bulk Modulus (GPa) = 31.75325 36.10418 33.92872
# Shear Modulus (GPa) = 19.10752 22.83253 20.97002
#
# Velocity S-wave (km/s) = 3.29614 3.60313 3.45305
# Velocity P-wave (km/s) = 5.70446 6.15133 5.93210
#
# Compressibility (1/GPa) = 0.03149284
#
# Stress axis : x y z
#
# Youngs Moduli (GPa) = 47.52657 63.09758 34.31746
#
# Poissons Ratio (x) = 0.30876 0.14642
# Poissons Ratio (y) = 0.23257 0.27825
# Poissons Ratio (z) = 0.20278 0.51160
#
# Static dielectric constant tensor:
#      x y z
#    x 3.272370 0.000000 0.037280 
#    y 0.000000 3.131550 0.000000 
#    z 0.037280 0.000000 3.127750 
# 
# 
# High freq. dielectric constant tensor:
#      x y z
#    x 1.680700 0.000000 -0.007890 
#    y 0.000000 1.671230 0.000000 
#    z -0.007890 0.000000 1.656960 
# 
# From -- ./inp_files/38842.got.cif
#   From: 2010.03.12/outbox.cif.g09.slc.cpg/sg14_20_cif.got.tgz:38842.got - 2010.03.31 13:35:05.
