data_PCOD8123495
_publ_section_title
;
Structure prediction by ZEFSAII (Michael W. Deem and Ramdas Pophale) SiO2 
 PCOD8123495
Probable space group: P 21/C
;
_chemical_formula_sum "Si O2"
_cell_formula_units_Z 32
_cell_length_a 11.184084
_cell_length_b 18.197839
_cell_length_c 20.653884
_cell_angle_alpha 90.000000
_cell_angle_beta 157.422723
_cell_angle_gamma 90.000000
_cell_volume 1613.886786
_symmetry_space_group_name_H-M "P 21/C"
_symmetry_group_IT_number 14
_symmetry_cell_setting 'monoclinic'
loop_
_space_group_symop_operation_xyz
x,y,z
-x,1/2+y,1/2-z
-x,-y,-z
x,1/2-y,1/2+z
loop_
_atom_site_type_symbol
_atom_site_label
_atom_site_fract_x
_atom_site_fract_y
_atom_site_fract_z
Si Si1 0.633084 0.092181 0.939810
Si Si2 0.634218 0.430728 0.702251
Si Si3 0.367353 0.672237 0.180196
Si Si4 0.368266 0.418471 0.438380
Si Si5 0.367370 0.172226 0.687167
Si Si6 0.368271 0.918472 0.429887
Si Si7 0.634254 0.930739 0.431985
Si Si8 0.633060 0.907808 0.693258
O O1 0.511706 0.124059 0.948311
O O2 0.534278 0.150893 0.837119
O O3 0.484440 0.013546 0.848818
O O4 0.000015 0.082765 0.125617
O O5 0.541808 0.387030 0.720231
O O6 0.479582 0.387891 0.563686
O O7 0.999984 0.432711 0.873698
O O8 0.499977 0.750007 0.269799
O O9 0.534266 0.650902 0.197154
O O10 0.999992 0.676199 0.985529
O O11 0.500000 0.500000 0.500000
O O12 0.999999 0.417017 0.249700
O O13 0.458176 0.112956 0.678416
O O14 0.479581 0.887899 0.415890
O O15 0.511705 0.875933 0.563390
O O16 0.500000 0.000000 0.500000
O O17 0.515632 0.013561 0.364415
#
# Coordination Sequence:
#
# PCOD8123495 Si02
#       8
#     4   4   4   4   4   4   4   4
#     4  11  21  35  58  85 113 145 184 227 273 326
#     4  10  20  36  58  84 113 144 182 227 277 329
#     4  11  24  40  57  79 111 148 185 228 275 326
#     4  10  18  31  54  83 113 142 179 226 276 326
#     4  11  24  40  57  79 111 148 185 228 275 326
#     4  10  18  31  54  83 113 142 179 226 276 326
#     4  10  20  36  58  84 113 144 182 227 277 329
#     4  11  21  35  58  85 113 145 184 227 273 326
#
# _framework density 19.827909999999999
#
# number of rings (size 3 to 8) (size 9 to 14) (size 15 to 20)
#    0.000    1.500    0.000    9.750    0.000    7.000 
#    0.000    1.250    0.000    3.000    0.000    0.000 
#    0.000    0.000    0.000    0.000    0.000    0.000 
#
# Total GULP energy -396812.663290 kJ/mol
# GULP energy per Si atom -12400.395728 kJ/mol
# Density = 1.978278 g / cm^3
# Si number density = 19.827910 Si / 1000 Ang^3
#
#
#
# Elastic Constant Matrix: (Units=GPa)
#
#
# Indices 1 2 3 4 5 6 
#
# 1 112.2795 11.9509 34.2676 0.0000 -3.8230 0.0000
# 2 11.9509 45.1767 11.6196 0.0000 -0.2026 0.0000
# 3 34.2676 11.6196 91.0757 0.0000 -9.0091 0.0000
# 4 0.0000 0.0000 0.0000 -37.8487 0.0000 137.7009
# 5 -3.8230 -0.2026 -9.0091 0.0000 32.7109 0.0000
# 6 0.0000 0.0000 0.0000 137.7009 0.0000 -264.9105
#
#
#
# Elastic Compliance Matrix: (Units=1/GPa)
#
#
# Indices 1 2 3 4 5 6 
#
# 1 0.010198 -0.001773 -0.003592 0.000000 0.000192 0.000000
# 2 -0.001773 0.023209 -0.002365 0.000000 -0.000715 0.000000
# 3 -0.003592 -0.002365 0.012943 0.000000 0.003130 0.000000
# 4 0.000000 0.000000 0.000000 0.029649 0.000000 0.015411
# 5 0.000192 -0.000715 0.003130 0.000000 0.031451 0.000000
# 6 0.000000 0.000000 0.000000 0.015411 0.000000 0.004236
#
#
# Mechanical properties :
#
#
# Convention : Reuss Voigt Hill
#
# Bulk Modulus (GPa) = 32.37213 40.46756 36.41984
# Shear Modulus (GPa) = 36.37920 -41.29675 -2.45877
#
# Velocity S-wave (km/s) = 4.28804 -4.56868 -1.11479
# Velocity P-wave (km/s) = 6.39362 2.71601 4.09278
#
# Compressibility (1/GPa) = 0.03089077
#
# Stress axis : x y z
#
# Youngs Moduli (GPa) = 98.06029 43.08618 77.26402
#
# Poissons Ratio (x) = 0.07639 0.27752
# Poissons Ratio (y) = 0.17386 0.18270
# Poissons Ratio (z) = 0.35221 0.10188
#
# Static dielectric constant tensor:
#      x y z
#    x 4.385980 0.000000 -0.306520 
#    y 0.000000 3.254130 0.000000 
#    z -0.306520 0.000000 3.879830 
# 
# 
# High freq. dielectric constant tensor:
#      x y z
#    x 1.798810 0.000000 -0.002320 
#    y 0.000000 1.728330 0.000000 
#    z -0.002320 0.000000 1.794970 
# 
# From -- ./inp_files/67573.got.cif
#   From: 2010.03.12/outbox.cif.g09.slc.cpg/sg14_34_cif.got.tgz:67573.got - 2010.03.31 13:35:05.
