data_PCOD8123469
_publ_section_title
;
Structure prediction by ZEFSAII (Michael W. Deem and Ramdas Pophale) SiO2 
 PCOD8123469
Probable space group: P 21/C
;
_chemical_formula_sum "Si O2"
_cell_formula_units_Z 32
_cell_length_a 9.087117
_cell_length_b 11.330870
_cell_length_c 20.062188
_cell_angle_alpha 90.000000
_cell_angle_beta 125.676683
_cell_angle_gamma 90.000000
_cell_volume 1678.012993
_symmetry_space_group_name_H-M "P 21/C"
_symmetry_group_IT_number 14
_symmetry_cell_setting 'monoclinic'
loop_
_space_group_symop_operation_xyz
x,y,z
-x,1/2+y,1/2-z
-x,-y,-z
x,1/2-y,1/2+z
loop_
_atom_site_type_symbol
_atom_site_label
_atom_site_fract_x
_atom_site_fract_y
_atom_site_fract_z
Si Si1 0.173098 0.388009 0.169335
Si Si2 0.446689 0.859799 0.057461
Si Si3 0.308900 0.663909 0.860884
Si Si4 0.357231 0.578983 0.385528
Si Si5 0.005950 0.491601 0.760308
Si Si6 0.705019 0.806427 0.695508
Si Si7 0.189836 0.669344 0.981964
Si Si8 0.582794 0.003707 0.371019
O O1 0.237111 0.279549 0.230566
O O2 0.342358 0.442864 0.175661
O O3 0.082849 0.491213 0.190084
O O4 0.026914 0.335479 0.078363
O O5 0.607858 0.765207 0.110651
O O6 0.502052 0.982788 0.110146
O O7 0.437247 0.889449 0.977795
O O8 0.258960 0.796144 0.031053
O O9 0.335064 0.797688 0.839699
O O10 0.135272 0.604029 0.778154
O O11 0.277031 0.659470 0.931570
O O12 0.491948 0.594058 0.894125
O O13 0.157480 0.518029 0.336549
O O14 0.121244 0.371161 0.790251
O O15 0.566137 0.900533 0.690502
O O16 0.254095 0.561819 0.044682
#
# Coordination Sequence:
#
# PCOD8123469 Si02
#       8
#     4   4   4   4   4   4   4   4
#     4  11  21  35  55  85 110 145 184 230 280 328
#     4   9  18  32  53  79 107 142 177 229 277 323
#     4   9  19  33  54  83 108 144 186 232 270 327
#     4  10  18  30  53  81 106 140 185 226 277 322
#     4  10  19  33  56  79 108 138 187 234 274 319
#     4  10  20  37  53  80 111 144 185 231 278 328
#     4   9  18  35  57  80 107 143 186 229 273 326
#     4  10  21  35  56  80 111 149 179 229 283 327
#
# _framework density 19.070174999999999
#
# number of rings (size 3 to 8) (size 9 to 14) (size 15 to 20)
#    0.000    2.250    1.250    3.000    0.000    4.000 
#    0.000    0.000    0.000    0.750    6.500    0.000 
#    0.000    0.000    0.000    0.000    0.000    0.000 
#
# Total GULP energy -396473.522336 kJ/mol
# GULP energy per Si atom -12389.797573 kJ/mol
# Density = 1.902677 g / cm^3
# Si number density = 19.070175 Si / 1000 Ang^3
#
#
#
# Elastic Constant Matrix: (Units=GPa)
#
#
# Indices 1 2 3 4 5 6 
#
# 1 52.4668 22.1957 24.9567 0.0000 3.7441 0.0000
# 2 22.1957 126.5072 53.4266 0.0000 7.0162 0.0000
# 3 24.9567 53.4266 95.3584 0.0000 26.3604 0.0000
# 4 0.0000 0.0000 0.0000 29.6372 0.0000 1.2524
# 5 3.7441 7.0162 26.3604 0.0000 19.8913 0.0000
# 6 0.0000 0.0000 0.0000 1.2524 0.0000 22.4485
#
#
#
# Elastic Compliance Matrix: (Units=1/GPa)
#
#
# Indices 1 2 3 4 5 6 
#
# 1 0.022363 -0.001528 -0.006284 0.000000 0.004657 0.000000
# 2 -0.001528 0.010997 -0.007526 0.000000 0.006382 0.000000
# 3 -0.006284 -0.007526 0.024125 0.000000 -0.028133 0.000000
# 4 0.000000 0.000000 0.000000 0.033821 0.000000 -0.001887
# 5 0.004657 0.006382 -0.028133 0.000000 0.084429 0.000000
# 6 0.000000 0.000000 0.000000 -0.001887 0.000000 0.044652
#
#
# Mechanical properties :
#
#
# Convention : Reuss Voigt Hill
#
# Bulk Modulus (GPa) = 37.30025 52.83227 45.06626
# Shear Modulus (GPa) = 19.23093 25.97896 22.60495
#
# Velocity S-wave (km/s) = 3.17902 3.69492 3.44664
# Velocity P-wave (km/s) = 5.75125 6.77993 6.28667
#
# Compressibility (1/GPa) = 0.02680947
#
# Stress axis : x y z
#
# Youngs Moduli (GPa) = 44.71701 90.93354 41.45105
#
# Poissons Ratio (x) = 0.13894 0.26048
# Poissons Ratio (y) = 0.06833 0.31194
# Poissons Ratio (z) = 0.28101 0.68433
#
# Static dielectric constant tensor:
#      x y z
#    x 3.177670 0.000000 0.396640 
#    y 0.000000 4.217050 0.000000 
#    z 0.396640 0.000000 3.667540 
# 
# 
# High freq. dielectric constant tensor:
#      x y z
#    x 1.693750 0.000000 0.034180 
#    y 0.000000 1.761030 0.000000 
#    z 0.034180 0.000000 1.746610 
# 
# From -- ./inp_files/65600.got.cif
#   From: 2010.03.12/outbox.cif.g09.slc.cpg/sg14_33_cif.got.tgz:65600.got - 2010.03.31 13:35:05.
