data_PCOD8123898
_publ_section_title
;
Structure prediction by ZEFSAII (Michael W. Deem and Ramdas Pophale) SiO2 
 PCOD8123898
Probable space group: P 21/C
;
_chemical_formula_sum "Si O2"
_cell_formula_units_Z 32
_cell_length_a 22.607528
_cell_length_b 9.271497
_cell_length_c 27.679866
_cell_angle_alpha 90.000000
_cell_angle_beta 162.592597
_cell_angle_gamma 90.000000
_cell_volume 1735.706845
_symmetry_space_group_name_H-M "P 21/C"
_symmetry_group_IT_number 14
_symmetry_cell_setting 'monoclinic'
loop_
_space_group_symop_operation_xyz
x,y,z
-x,1/2+y,1/2-z
-x,-y,-z
x,1/2-y,1/2+z
loop_
_atom_site_type_symbol
_atom_site_label
_atom_site_fract_x
_atom_site_fract_y
_atom_site_fract_z
Si Si1 0.126471 0.657007 0.380211
Si Si2 0.150439 0.174465 0.906775
Si Si3 0.812856 0.651140 0.813015
Si Si4 0.930853 0.177665 0.054059
Si Si5 0.836677 0.335002 0.837523
Si Si6 0.406200 0.662494 0.263399
Si Si7 0.907401 0.655308 0.527568
Si Si8 0.570549 0.823833 0.210670
O O1 0.130892 0.487840 0.372774
O O2 0.044744 0.689744 0.369708
O O3 0.345771 0.722703 0.545287
O O4 0.981084 0.723966 0.228338
O O5 0.077929 0.191680 0.904816
O O6 0.377809 0.223704 0.079681
O O7 0.793360 0.488028 0.777368
O O8 0.615217 0.699267 0.688021
O O9 0.866964 0.759805 0.811927
O O10 0.980345 0.650731 0.984059
O O11 0.742595 0.270183 0.891340
O O12 0.899139 0.014875 0.011616
O O13 0.649538 0.290409 0.725001
O O14 0.891406 0.216544 0.839988
O O15 0.391019 0.490151 0.245123
O O16 0.708869 0.724041 0.351383
#
# Coordination Sequence:
#
# PCOD8123898 Si02
#       8
#     4   4   4   4   4   4   4   4
#     4  10  22  37  51  71 100 133 169 206 244 290
#     4  10  22  37  51  71 100 133 169 206 244 290
#     4   8  15  29  50  74  99 128 162 200 241 288
#     4  10  19  31  51  79 104 126 159 204 251 295
#     4   8  15  29  50  74  99 128 162 200 241 288
#     4   9  18  34  54  75  99 129 167 204 239 290
#     4  10  19  31  51  79 104 126 159 204 251 295
#     4   9  18  34  54  75  99 129 167 204 239 290
#
# _framework density 18.436292999999999
#
# number of rings (size 3 to 8) (size 9 to 14) (size 15 to 20)
#    0.000    2.750    0.000    3.000    0.000    7.500 
#    0.000    1.250    0.000    7.500    0.000    0.000 
#    0.000    0.000    0.000    0.000    0.000    0.000 
#
# Total GULP energy -396713.333820 kJ/mol
# GULP energy per Si atom -12397.291682 kJ/mol
# Density = 1.839433 g / cm^3
# Si number density = 18.436293 Si / 1000 Ang^3
#
#
#
# Elastic Constant Matrix: (Units=GPa)
#
#
# Indices 1 2 3 4 5 6 
#
# 1 71.9636 13.3623 8.7502 0.0000 18.3143 0.0000
# 2 13.3623 31.4954 2.3243 0.0000 6.2458 0.0000
# 3 8.7502 2.3243 14.6835 0.0000 -1.4159 0.0000
# 4 0.0000 0.0000 0.0000 26.1715 0.0000 0.4524
# 5 18.3143 6.2458 -1.4159 0.0000 18.6120 0.0000
# 6 0.0000 0.0000 0.0000 0.4524 0.0000 33.5724
#
#
#
# Elastic Compliance Matrix: (Units=1/GPa)
#
#
# Indices 1 2 3 4 5 6 
#
# 1 0.021776 -0.003975 -0.014391 0.000000 -0.021189 0.000000
# 2 -0.003975 0.035374 -0.004028 0.000000 -0.008266 0.000000
# 3 -0.014391 -0.004028 0.079396 0.000000 0.021553 0.000000
# 4 0.000000 0.000000 0.000000 0.038218 0.000000 -0.000515
# 5 -0.021189 -0.008266 0.021553 0.000000 0.078992 0.000000
# 6 0.000000 0.000000 0.000000 -0.000515 0.000000 0.029793
#
#
# Mechanical properties :
#
#
# Convention : Reuss Voigt Hill
#
# Bulk Modulus (GPa) = 10.89821 18.55733 14.72777
# Shear Modulus (GPa) = 13.93059 21.91824 17.92442
#
# Velocity S-wave (km/s) = 2.75181 3.45173 3.12145
# Velocity P-wave (km/s) = 4.00259 5.09641 4.58226
#
# Compressibility (1/GPa) = 0.09175819
#
# Stress axis : x y z
#
# Youngs Moduli (GPa) = 45.92160 28.26974 12.59516
#
# Poissons Ratio (x) = 0.11237 0.18126
# Poissons Ratio (y) = 0.18253 0.05073
# Poissons Ratio (z) = 0.66086 0.11386
#
# Static dielectric constant tensor:
#      x y z
#    x 3.690560 0.000000 0.492200 
#    y 0.000000 3.400530 0.000000 
#    z 0.492200 0.000000 3.229320 
# 
# 
# High freq. dielectric constant tensor:
#      x y z
#    x 1.723830 0.000000 0.027370 
#    y 0.000000 1.712120 0.000000 
#    z 0.027370 0.000000 1.684790 
# 
# From -- ./inp_files/78002.got.cif
#   From: 2010.03.12/outbox.cif.g09.slc.cpg/sg14_40_cif.got.tgz:78002.got - 2010.03.31 13:35:05.
