data_PCOD8123990
_publ_section_title
;
Structure prediction by ZEFSAII (Michael W. Deem and Ramdas Pophale) SiO2 
 PCOD8123990
Probable space group: P 21/C
;
_chemical_formula_sum "Si O2"
_cell_formula_units_Z 24
_cell_length_a 5.039731
_cell_length_b 15.342764
_cell_length_c 15.685325
_cell_angle_alpha 90.000000
_cell_angle_beta 78.402615
_cell_angle_gamma 90.000000
_cell_volume 1188.081831
_symmetry_space_group_name_H-M "P 21/C"
_symmetry_group_IT_number 14
_symmetry_cell_setting 'monoclinic'
loop_
_space_group_symop_operation_xyz
x,y,z
-x,1/2+y,1/2-z
-x,-y,-z
x,1/2-y,1/2+z
loop_
_atom_site_type_symbol
_atom_site_label
_atom_site_fract_x
_atom_site_fract_y
_atom_site_fract_z
Si Si1 0.509067 0.287366 0.934419
Si Si2 0.602644 0.418049 0.783570
Si Si3 0.259550 0.390017 0.478800
Si Si4 0.037083 0.001456 0.359522
Si Si5 0.947913 0.367452 0.009453
Si Si6 0.301339 0.922308 0.913884
O O1 0.620953 0.330805 0.840398
O O2 0.406054 0.189711 0.920313
O O3 0.739111 0.290974 0.994205
O O4 0.256581 0.338747 0.988742
O O5 0.809951 0.494131 0.800391
O O6 0.676571 0.388456 0.683742
O O7 0.302943 0.455842 0.803642
O O8 0.418819 0.404368 0.556400
O O9 0.259555 0.473089 0.416548
O O10 0.947622 0.371826 0.524530
O O11 0.901383 0.054837 0.445565
O O12 0.104130 0.904395 0.391144
#
# Coordination Sequence:
#
# PCOD8123990 Si02
#       6
#     4   4   4   4   4   4
#     4  10  19  33  54  79 108 139 176 226 274 315
#     4  10  19  33  55  81 108 138 178 228 272 313
#     4  10  21  38  57  75 103 144 186 221 262 322
#     4   9  17  30  50  77 110 143 172 207 262 330
#     4   9  17  30  50  77 109 144 173 203 263 335
#     4  10  21  38  58  77 102 144 189 221 261 322
#
# _framework density 20.200627999999998
#
# number of rings (size 3 to 8) (size 9 to 14) (size 15 to 20)
#    0.000    2.333    0.000    3.000    0.000    4.000 
#    0.000    5.000    0.000    4.000    0.000    0.000 
#    0.000    0.000    0.000    0.000    0.000    0.000 
#
# Total GULP energy -297495.117929 kJ/mol
# GULP energy per Si atom -12395.629914 kJ/mol
# Density = 2.015465 g / cm^3
# Si number density = 20.200628 Si / 1000 Ang^3
#
#
#
# Elastic Constant Matrix: (Units=GPa)
#
#
# Indices 1 2 3 4 5 6 
#
# 1 101.6893 16.1230 23.7824 0.0000 4.4788 0.0000
# 2 16.1230 73.8277 31.7266 0.0000 -2.5111 0.0000
# 3 23.7824 31.7266 81.8632 0.0000 3.6713 0.0000
# 4 0.0000 0.0000 0.0000 14.7268 0.0000 0.5977
# 5 4.4788 -2.5111 3.6713 0.0000 21.2577 0.0000
# 6 0.0000 0.0000 0.0000 0.5977 0.0000 34.0556
#
#
#
# Elastic Compliance Matrix: (Units=1/GPa)
#
#
# Indices 1 2 3 4 5 6 
#
# 1 0.010719 -0.001330 -0.002510 0.000000 -0.001982 0.000000
# 2 -0.001330 0.016613 -0.006201 0.000000 0.003313 0.000000
# 3 -0.002510 -0.006201 0.015477 0.000000 -0.002877 0.000000
# 4 0.000000 0.000000 0.000000 0.067952 0.000000 -0.001193
# 5 -0.001982 0.003313 -0.002877 0.000000 0.048347 0.000000
# 6 0.000000 0.000000 0.000000 -0.001193 0.000000 0.029385
#
#
# Mechanical properties :
#
#
# Convention : Reuss Voigt Hill
#
# Bulk Modulus (GPa) = 43.99837 44.51603 44.25720
# Shear Modulus (GPa) = 23.13219 26.39124 24.76172
#
# Velocity S-wave (km/s) = 3.38764 3.61841 3.50493
# Velocity P-wave (km/s) = 6.09339 6.28825 6.19159
#
# Compressibility (1/GPa) = 0.02272811
#
# Stress axis : x y z
#
# Youngs Moduli (GPa) = 93.29247 60.19439 64.61299
#
# Poissons Ratio (x) = 0.08004 0.16216
# Poissons Ratio (y) = 0.12406 0.40065
# Poissons Ratio (z) = 0.23414 0.37325
#
# Static dielectric constant tensor:
#      x y z
#    x 3.813190 0.000000 0.113870 
#    y 0.000000 3.593870 0.000000 
#    z 0.113870 0.000000 3.370370 
# 
# 
# High freq. dielectric constant tensor:
#      x y z
#    x 1.811940 0.000000 0.005590 
#    y 0.000000 1.766730 0.000000 
#    z 0.005590 0.000000 1.756770 
# 
# From -- ./inp_files/37296.got.cif
#   From: 2010.03.12/outbox.cif.g09.slc.cpg/sg14_19_cif.got.tgz:37296.got - 2010.03.31 13:35:05.
