data_PCOD8123085
_publ_section_title
;
Structure prediction by ZEFSAII (Michael W. Deem and Ramdas Pophale) SiO2 
 PCOD8123085
Probable space group: P 2/C
;
_chemical_formula_sum "Si O2"
_cell_formula_units_Z 22
_cell_length_a 14.177924
_cell_length_b 6.693423
_cell_length_c 10.262814
_cell_angle_alpha 90.000000
_cell_angle_beta 83.457124
_cell_angle_gamma 90.000000
_cell_volume 967.585838
_symmetry_space_group_name_H-M "P 2/C"
_symmetry_group_IT_number 13
_symmetry_cell_setting 'monoclinic'
loop_
_space_group_symop_operation_xyz
x,y,z
-x,y,1/2-z
-x,-y,-z
x,-y,1/2+z
loop_
_atom_site_type_symbol
_atom_site_label
_atom_site_fract_x
_atom_site_fract_y
_atom_site_fract_z
Si Si1 0.895733 0.700166 0.236390
Si Si2 0.415098 0.886852 0.078974
Si Si3 0.500000 0.561512 0.250000
Si Si4 0.236620 0.923500 0.701191
Si Si5 0.318310 0.349024 0.386752
Si Si6 0.169043 0.392791 0.030247
O O1 0.873502 0.534992 0.350322
O O2 0.896654 0.611196 0.088992
O O3 0.000000 0.786446 0.250000
O O4 0.820352 0.880156 0.248576
O O5 0.459909 0.696298 0.141153
O O6 0.350043 0.026515 0.180144
O O7 0.339058 0.826122 0.983577
O O8 0.500000 0.000000 0.000000
O O9 0.415477 0.418864 0.306552
O O10 0.237480 0.740033 0.803721
O O11 0.186665 0.832178 0.580502
O O12 0.273060 0.533673 0.470821
#
# Coordination Sequence:
#
# PCOD8123085 Si02
#       6
#     4   4   2   4   4   4
#     4  12  28  49  77 110 144 191 243 307 373 440
#     4  12  23  40  64 101 141 186 241 293 353 424
#     4  12  24  40  66 102 144 190 248 292 352 432
#     4  12  25  46  73 106 147 190 245 301 365 433
#     4  12  23  44  67 102 143 192 236 296 361 423
#     4  12  25  50  75 107 148 190 243 301 369 442
#
# _framework density 22.737000999999999
#
# number of rings (size 3 to 8) (size 9 to 14) (size 15 to 20)
#    0.000    0.000    3.636    7.636    0.000    1.455 
#    0.000    0.000    0.000    0.000    0.000    0.000 
#    0.000    0.000    0.000    0.000    0.000    0.000 
#
# Total GULP energy -272780.909350 kJ/mol
# GULP energy per Si atom -12399.132243 kJ/mol
# Density = 2.268525 g / cm^3
# Si number density = 22.737001 Si / 1000 Ang^3
#
#
#
# Elastic Constant Matrix: (Units=GPa)
#
#
# Indices 1 2 3 4 5 6 
#
# 1 104.5147 24.8846 29.4053 0.0000 7.5748 0.0000
# 2 24.8846 91.3569 39.4662 0.0000 1.5430 0.0000
# 3 29.4053 39.4662 124.5865 0.0000 21.6671 0.0000
# 4 0.0000 0.0000 0.0000 18.5084 0.0000 6.4585
# 5 7.5748 1.5430 21.6671 0.0000 32.5057 0.0000
# 6 0.0000 0.0000 0.0000 6.4585 0.0000 32.0333
#
#
#
# Elastic Compliance Matrix: (Units=1/GPa)
#
#
# Indices 1 2 3 4 5 6 
#
# 1 0.010631 -0.002188 -0.001587 0.000000 -0.001315 0.000000
# 2 -0.002188 0.013292 -0.004155 0.000000 0.002648 0.000000
# 3 -0.001587 -0.004155 0.010880 0.000000 -0.006685 0.000000
# 4 0.000000 0.000000 0.000000 0.058118 0.000000 -0.011718
# 5 -0.001315 0.002648 -0.006685 0.000000 0.035401 0.000000
# 6 0.000000 0.000000 0.000000 -0.011718 0.000000 0.033580
#
#
# Mechanical properties :
#
#
# Convention : Reuss Voigt Hill
#
# Bulk Modulus (GPa) = 52.78978 56.44114 54.61546
# Shear Modulus (GPa) = 27.16265 31.72296 29.44280
#
# Velocity S-wave (km/s) = 3.46011 3.73931 3.60242
# Velocity P-wave (km/s) = 6.26348 6.59701 6.43241
#
# Compressibility (1/GPa) = 0.01894306
#
# Stress axis : x y z
#
# Youngs Moduli (GPa) = 94.06570 75.23218 91.91184
#
# Poissons Ratio (x) = 0.16459 0.14589
# Poissons Ratio (y) = 0.20580 0.38188
# Poissons Ratio (z) = 0.14931 0.31258
#
# Static dielectric constant tensor:
#      x y z
#    x 3.938530 0.000000 0.155230 
#    y 0.000000 4.194050 0.000000 
#    z 0.155230 0.000000 4.118180 
# 
# 
# High freq. dielectric constant tensor:
#      x y z
#    x 1.895300 0.000000 0.006380 
#    y 0.000000 1.906030 0.000000 
#    z 0.006380 0.000000 1.913520 
# 
# From -- ./inp_files/35320.got.cif
#   From: 2010.06.25/outbox.cif.g09.slc.cpg/sg13_18_cif.got.tgz:35320.got - 2010.06.28 04:50:58.
