data_PCOD8123475
_publ_section_title
;
Structure prediction by ZEFSAII (Michael W. Deem and Ramdas Pophale) SiO2 
 PCOD8123475
Probable space group: P 21/C
;
_chemical_formula_sum "Si O2"
_cell_formula_units_Z 32
_cell_length_a 8.386157
_cell_length_b 11.502215
_cell_length_c 32.272292
_cell_angle_alpha 90.000000
_cell_angle_beta 31.590422
_cell_angle_gamma 90.000000
_cell_volume 1630.706695
_symmetry_space_group_name_H-M "P 21/C"
_symmetry_group_IT_number 14
_symmetry_cell_setting 'monoclinic'
loop_
_space_group_symop_operation_xyz
x,y,z
-x,1/2+y,1/2-z
-x,-y,-z
x,1/2-y,1/2+z
loop_
_atom_site_type_symbol
_atom_site_label
_atom_site_fract_x
_atom_site_fract_y
_atom_site_fract_z
Si Si1 0.202011 0.899763 0.744684
Si Si2 0.689300 0.664020 0.776377
Si Si3 0.648978 0.211140 0.849643
Si Si4 0.659182 0.857050 0.002474
Si Si5 0.521162 0.838425 0.880525
Si Si6 0.389128 0.029386 0.850869
Si Si7 0.699905 0.332435 0.684970
Si Si8 0.245874 0.622513 0.522120
O O1 0.370259 0.833905 0.669708
O O2 0.253644 0.833640 0.776460
O O3 0.842338 0.903986 0.816107
O O4 0.352082 0.026230 0.713835
O O5 0.563846 0.718415 0.846685
O O6 0.501026 0.718456 0.779816
O O7 0.041679 0.697272 0.693059
O O8 0.644473 0.111776 0.814503
O O9 0.378034 0.201901 0.943767
O O10 0.977093 0.823956 0.910585
O O11 0.619162 0.994710 0.016513
O O12 0.378490 0.819877 0.034530
O O13 0.303064 0.929643 0.904126
O O14 0.360241 0.799771 0.958472
O O15 0.117515 0.115111 0.897334
O O16 0.479151 0.950559 0.790772
#
# Coordination Sequence:
#
# PCOD8123475 Si02
#       8
#     4   4   4   4   4   4   4   4
#     4  11  22  40  57  86 119 162 197 236 298 355
#     4  10  23  38  59  84 121 158 197 239 290 363
#     4  11  23  36  61  87 121 151 194 249 298 351
#     4  10  20  35  56  91 120 150 195 253 301 341
#     4  10  18  36  56  85 118 155 189 237 297 352
#     4  10  20  31  57  91 114 146 195 244 299 348
#     4  10  23  37  62  85 119 156 200 244 303 349
#     4  10  18  30  59  88 120 146 186 254 302 340
#
# _framework density 19.623394000000001
#
# number of rings (size 3 to 8) (size 9 to 14) (size 15 to 20)
#    0.000    1.750    3.750    0.375    8.750    0.000 
#    0.000    0.625    0.000    0.750    0.000    0.000 
#    0.000    0.000    0.000    0.000    0.000    0.000 
#
# Total GULP energy -396578.540928 kJ/mol
# GULP energy per Si atom -12393.079404 kJ/mol
# Density = 1.957873 g / cm^3
# Si number density = 19.623394 Si / 1000 Ang^3
#
#
#
# Elastic Constant Matrix: (Units=GPa)
#
#
# Indices 1 2 3 4 5 6 
#
# 1 109.7451 33.0461 24.4534 0.0000 0.0774 0.0000
# 2 33.0461 91.0944 30.8596 0.0000 -2.6434 0.0000
# 3 24.4534 30.8596 55.4995 0.0000 7.0090 0.0000
# 4 0.0000 0.0000 0.0000 21.8208 0.0000 -1.1857
# 5 0.0774 -2.6434 7.0090 0.0000 23.3106 0.0000
# 6 0.0000 0.0000 0.0000 -1.1857 0.0000 27.8807
#
#
#
# Elastic Compliance Matrix: (Units=1/GPa)
#
#
# Indices 1 2 3 4 5 6 
#
# 1 0.010663 -0.002749 -0.003249 0.000000 0.000630 0.000000
# 2 -0.002749 0.014592 -0.007393 0.000000 0.003887 0.000000
# 3 -0.003249 -0.007393 0.024599 0.000000 -0.008224 0.000000
# 4 0.000000 0.000000 0.000000 0.045934 0.000000 0.001953
# 5 0.000630 0.003887 -0.008224 0.000000 0.045810 0.000000
# 6 0.000000 0.000000 0.000000 0.001953 0.000000 0.035950
#
#
# Mechanical properties :
#
#
# Convention : Reuss Voigt Hill
#
# Bulk Modulus (GPa) = 43.34366 48.11745 45.73056
# Shear Modulus (GPa) = 23.58223 25.80108 24.69165
#
# Velocity S-wave (km/s) = 3.47037 3.62997 3.55107
# Velocity P-wave (km/s) = 6.18010 6.49173 6.33783
#
# Compressibility (1/GPa) = 0.02307143
#
# Stress axis : x y z
#
# Youngs Moduli (GPa) = 93.77836 68.52870 40.65144
#
# Poissons Ratio (x) = 0.18841 0.13208
# Poissons Ratio (y) = 0.25783 0.30055
# Poissons Ratio (z) = 0.30470 0.50666
#
# Static dielectric constant tensor:
#      x y z
#    x 3.985770 0.000000 0.064520 
#    y 0.000000 3.306490 0.000000 
#    z 0.064520 0.000000 3.262830 
# 
# 
# High freq. dielectric constant tensor:
#      x y z
#    x 1.794380 0.000000 0.006920 
#    y 0.000000 1.726720 0.000000 
#    z 0.006920 0.000000 1.734640 
# 
# From -- ./inp_files/79615.got.cif
#   From: 2010.03.12/outbox.cif.g09.slc.cpg/sg14_40_cif.got.tgz:79615.got - 2010.03.31 13:35:05.
