data_PCOD8123844
_publ_section_title
;
Structure prediction by ZEFSAII (Michael W. Deem and Ramdas Pophale) SiO2 
 PCOD8123844
Probable space group: P 21/C
;
_chemical_formula_sum "Si O2"
_cell_formula_units_Z 28
_cell_length_a 9.587496
_cell_length_b 15.308753
_cell_length_c 19.840808
_cell_angle_alpha 90.000000
_cell_angle_beta 151.154453
_cell_angle_gamma 90.000000
_cell_volume 1404.936840
_symmetry_space_group_name_H-M "P 21/C"
_symmetry_group_IT_number 14
_symmetry_cell_setting 'monoclinic'
loop_
_space_group_symop_operation_xyz
x,y,z
-x,1/2+y,1/2-z
-x,-y,-z
x,1/2-y,1/2+z
loop_
_atom_site_type_symbol
_atom_site_label
_atom_site_fract_x
_atom_site_fract_y
_atom_site_fract_z
Si Si1 0.698234 0.549367 0.448222
Si Si2 0.125805 0.160730 0.317855
Si Si3 0.737928 0.842086 0.093509
Si Si4 0.177449 0.705627 0.440603
Si Si5 0.646169 0.393028 0.965025
Si Si6 0.876791 0.982120 0.254670
Si Si7 0.789786 0.572800 0.338550
O O1 0.653451 0.625334 0.483979
O O2 0.454878 0.475042 0.360118
O O3 0.641537 0.583675 0.348622
O O4 0.030050 0.516909 0.593928
O O5 0.112528 0.247644 0.358861
O O6 0.443466 0.117185 0.445645
O O7 0.066262 0.204041 0.219951
O O8 0.909561 0.084002 0.247441
O O9 0.929468 0.915962 0.213760
O O10 0.467901 0.828016 0.028592
O O11 0.207785 0.799737 0.488110
O O12 0.043098 0.644998 0.441472
O O13 0.465854 0.426453 0.824540
O O14 0.898736 0.461521 0.090298
#
# Coordination Sequence:
#
# PCOD8123844 Si02
#       7
#     4   4   4   4   4   4   4
#     4  11  23  39  64  86 126 162 203 252 311 369
#     4  10  21  35  61  97 127 147 203 265 311 351
#     4  11  20  37  63  94 117 159 205 251 309 363
#     4  10  18  39  62  89 118 160 205 251 293 373
#     4  10  22  37  64  90 123 160 208 251 303 364
#     4  12  21  38  66  95 122 161 205 259 309 362
#     4  10  23  42  58  90 123 165 208 247 305 370
#
# _framework density 19.929722999999999
#
# number of rings (size 3 to 8) (size 9 to 14) (size 15 to 20)
#    0.000    1.429    4.286    2.571    0.000    0.571 
#    2.571    0.000    3.143    0.000    0.000    0.000 
#    0.000    0.000    0.000    0.000    0.000    0.000 
#
# Total GULP energy -346933.063083 kJ/mol
# GULP energy per Si atom -12390.466539 kJ/mol
# Density = 1.988436 g / cm^3
# Si number density = 19.929723 Si / 1000 Ang^3
#
#
#
# Elastic Constant Matrix: (Units=GPa)
#
#
# Indices 1 2 3 4 5 6 
#
# 1 86.5799 48.6162 32.4984 0.0000 -14.2769 0.0000
# 2 48.6162 109.7420 42.2976 0.0000 -10.6735 0.0000
# 3 32.4984 42.2976 93.3341 0.0000 -16.3884 0.0000
# 4 0.0000 0.0000 0.0000 37.1930 0.0000 1.1942
# 5 -14.2769 -10.6735 -16.3884 0.0000 24.8139 0.0000
# 6 0.0000 0.0000 0.0000 1.1942 0.0000 15.0193
#
#
#
# Elastic Compliance Matrix: (Units=1/GPa)
#
#
# Indices 1 2 3 4 5 6 
#
# 1 0.016638 -0.006024 -0.002078 0.000000 0.005609 0.000000
# 2 -0.006024 0.013281 -0.003989 0.000000 -0.000388 0.000000
# 3 -0.002078 -0.003989 0.014405 0.000000 0.006602 0.000000
# 4 0.000000 0.000000 0.000000 0.026956 0.000000 -0.002143
# 5 0.005609 -0.000388 0.006602 0.000000 0.047721 0.000000
# 6 0.000000 0.000000 0.000000 -0.002143 0.000000 0.066751
#
#
# Mechanical properties :
#
#
# Convention : Reuss Voigt Hill
#
# Bulk Modulus (GPa) = 49.65181 59.60894 54.63038
# Shear Modulus (GPa) = 23.07898 26.48816 24.78357
#
# Velocity S-wave (km/s) = 3.40666 3.64961 3.53022
# Velocity P-wave (km/s) = 6.35935 6.90898 6.63985
#
# Compressibility (1/GPa) = 0.02014025
#
# Stress axis : x y z
#
# Youngs Moduli (GPa) = 60.10489 75.29694 69.42047
#
# Poissons Ratio (x) = 0.45359 0.14428
# Poissons Ratio (y) = 0.36207 0.27694
# Poissons Ratio (z) = 0.12492 0.30038
#
# Static dielectric constant tensor:
#      x y z
#    x 3.343030 0.000000 0.047720 
#    y 0.000000 3.733930 0.000000 
#    z 0.047720 0.000000 3.718130 
# 
# 
# High freq. dielectric constant tensor:
#      x y z
#    x 1.740380 0.000000 0.005040 
#    y 0.000000 1.777620 0.000000 
#    z 0.005040 0.000000 1.786790 
# 
# From -- ./inp_files/65942.got.cif
#   From: 2010.03.12/outbox.cif.g09.slc.cpg/sg14_33_cif.got.tgz:65942.got - 2010.03.31 13:35:05.
