data_PCOD8123590
_publ_section_title
;
Structure prediction by ZEFSAII (Michael W. Deem and Ramdas Pophale) SiO2 
 PCOD8123590
Probable space group: P 21/C
;
_chemical_formula_sum "Si O2"
_cell_formula_units_Z 32
_cell_length_a 25.744685
_cell_length_b 9.524062
_cell_length_c 14.507596
_cell_angle_alpha 90.000000
_cell_angle_beta 151.253238
_cell_angle_gamma 90.000000
_cell_volume 1710.785044
_symmetry_space_group_name_H-M "P 21/C"
_symmetry_group_IT_number 14
_symmetry_cell_setting 'monoclinic'
loop_
_space_group_symop_operation_xyz
x,y,z
-x,1/2+y,1/2-z
-x,-y,-z
x,1/2-y,1/2+z
loop_
_atom_site_type_symbol
_atom_site_label
_atom_site_fract_x
_atom_site_fract_y
_atom_site_fract_z
Si Si1 0.211381 0.582065 0.140291
Si Si2 0.628669 0.491345 0.460304
Si Si3 0.241729 0.663367 0.993594
Si Si4 0.231227 0.520030 0.502457
Si Si5 0.006489 0.406967 0.101087
Si Si6 0.423071 0.673686 0.141883
Si Si7 0.737145 0.092805 0.755118
Si Si8 0.079160 0.892277 0.080378
O O1 0.287506 0.488251 0.324681
O O2 0.247472 0.740859 0.210766
O O3 0.226291 0.552600 0.053754
O O4 0.087759 0.548302 0.974616
O O5 0.689370 0.516106 0.457627
O O6 0.543256 0.615588 0.338434
O O7 0.572915 0.338402 0.378604
O O8 0.199119 0.816849 0.954864
O O9 0.173402 0.631407 0.798625
O O10 0.366100 0.660581 0.153546
O O11 0.288789 0.502572 0.692619
O O12 0.123227 0.426287 0.329451
O O13 0.989608 0.245088 0.049913
O O14 0.000000 0.500000 0.000000
O O15 0.362559 0.577200 0.970870
O O16 0.855324 0.040744 0.903621
O O17 0.000000 0.000000 0.000000
#
# Coordination Sequence:
#
# PCOD8123590 Si02
#       8
#     4   4   4   4   4   4   4   4
#     4   9  18  32  55  80 104 138 183 213 258 324
#     4  10  19  35  56  78 102 139 178 224 272 313
#     4   9  18  35  54  74 105 147 175 207 268 326
#     4  10  18  33  59  79 102 140 185 218 253 314
#     4  11  18  34  56  81 106 136 182 221 248 312
#     4   9  19  36  56  74 103 139 180 223 266 317
#     4   8  18  35  52  76 105 143 178 207 263 329
#     4  10  20  34  51  76 112 145 168 206 271 319
#
# _framework density 18.704863
#
# number of rings (size 3 to 8) (size 9 to 14) (size 15 to 20)
#    0.000    2.500    2.500    1.500    1.750    1.000 
#    4.500    0.000    2.750    0.000    0.000    0.000 
#    0.000    0.000    0.000    0.000    0.000    0.000 
#
# Total GULP energy -396487.627026 kJ/mol
# GULP energy per Si atom -12390.238345 kJ/mol
# Density = 1.866229 g / cm^3
# Si number density = 18.704863 Si / 1000 Ang^3
#
#
#
# Elastic Constant Matrix: (Units=GPa)
#
#
# Indices 1 2 3 4 5 6 
#
# 1 106.8656 27.8197 43.0557 0.0000 -2.8075 0.0000
# 2 27.8197 41.0654 30.5040 0.0000 10.9213 0.0000
# 3 43.0557 30.5040 84.7236 0.0000 11.6036 0.0000
# 4 0.0000 0.0000 0.0000 22.5031 0.0000 11.5858
# 5 -2.8075 10.9213 11.6036 0.0000 32.7412 0.0000
# 6 0.0000 0.0000 0.0000 11.5858 0.0000 22.5074
#
#
#
# Elastic Compliance Matrix: (Units=1/GPa)
#
#
# Indices 1 2 3 4 5 6 
#
# 1 0.013244 -0.006571 -0.005066 0.000000 0.005123 0.000000
# 2 -0.006571 0.038198 -0.009029 0.000000 -0.010105 0.000000
# 3 -0.005066 -0.009029 0.018157 0.000000 -0.003857 0.000000
# 4 0.000000 0.000000 0.000000 0.060462 0.000000 -0.031123
# 5 0.005123 -0.010105 -0.003857 0.000000 0.035720 0.000000
# 6 0.000000 0.000000 0.000000 -0.031123 0.000000 0.060451
#
#
# Mechanical properties :
#
#
# Convention : Reuss Voigt Hill
#
# Bulk Modulus (GPa) = 35.37958 48.37928 41.87943
# Shear Modulus (GPa) = 18.05143 24.30202 21.17673
#
# Velocity S-wave (km/s) = 3.10992 3.60840 3.36840
# Velocity P-wave (km/s) = 5.64369 6.57886 6.12914
#
# Compressibility (1/GPa) = 0.02826489
#
# Stress axis : x y z
#
# Youngs Moduli (GPa) = 75.50614 26.17960 55.07562
#
# Poissons Ratio (x) = 0.17204 0.27902
# Poissons Ratio (y) = 0.49618 0.49729
# Poissons Ratio (z) = 0.38252 0.23638
#
# Static dielectric constant tensor:
#      x y z
#    x 4.496870 0.000000 -0.231240 
#    y 0.000000 5.196810 0.000000 
#    z -0.231240 0.000000 3.448210 
# 
# 
# High freq. dielectric constant tensor:
#      x y z
#    x 1.742050 0.000000 -0.005680 
#    y 0.000000 1.683680 0.000000 
#    z -0.005680 0.000000 1.721460 
# 
# From -- ./inp_files/51849.got.cif
#   From: 2010.03.12/outbox.cif.g09.slc.cpg/sg14_26_cif.got.tgz:51849.got - 2010.03.31 13:35:05.
