data_PCOD8123942
_publ_section_title
;
Structure prediction by ZEFSAII (Michael W. Deem and Ramdas Pophale) SiO2 
 PCOD8123942
Probable space group: P 21/C
;
_chemical_formula_sum "Si O2"
_cell_formula_units_Z 20
_cell_length_a 8.200073
_cell_length_b 9.786531
_cell_length_c 24.366161
_cell_angle_alpha 90.000000
_cell_angle_beta 151.852815
_cell_angle_gamma 90.000000
_cell_volume 922.432580
_symmetry_space_group_name_H-M "P 21/C"
_symmetry_group_IT_number 14
_symmetry_cell_setting 'monoclinic'
loop_
_space_group_symop_operation_xyz
x,y,z
-x,1/2+y,1/2-z
-x,-y,-z
x,1/2-y,1/2+z
loop_
_atom_site_type_symbol
_atom_site_label
_atom_site_fract_x
_atom_site_fract_y
_atom_site_fract_z
Si Si1 0.752792 0.509816 0.696612
Si Si2 0.592579 0.796025 0.836772
Si Si3 0.935073 0.519319 0.560195
Si Si4 0.596932 0.262656 0.341571
Si Si5 0.634361 0.481829 0.199921
O O1 0.720352 0.387992 0.731790
O O2 0.480437 0.485933 0.565270
O O3 0.681985 0.652630 0.705914
O O4 0.137931 0.511276 0.787520
O O5 0.547603 0.752418 0.761556
O O6 0.606177 0.653126 0.874209
O O7 0.938554 0.888985 0.938916
O O8 0.038763 0.657901 0.557315
O O9 0.099753 0.519968 0.669498
O O10 0.624462 0.111486 0.376053
#
# Coordination Sequence:
#
# PCOD8123942 Si02
#       5
#     4   4   4   4   4
#     4  11  19  33  53  77  99 128 166 209 245 283
#     4   9  18  32  50  72 100 134 165 195 242 302
#     4   9  19  35  53  73 100 133 165 197 244 302
#     4   9  18  32  50  72 100 134 165 195 242 302
#     4  10  19  32  53  78 100 125 165 210 244 283
#
# _framework density 21.681802000000001
#
# number of rings (size 3 to 8) (size 9 to 14) (size 15 to 20)
#    0.000    2.400    0.000    5.400    0.000    0.000 
#    0.000    4.000    0.000    0.000    0.000   47.600 
#    0.000    0.000    0.000    0.000    0.000    0.000 
#
# Total GULP energy -247774.679030 kJ/mol
# GULP energy per Si atom -12388.733951 kJ/mol
# Density = 2.163245 g / cm^3
# Si number density = 21.681802 Si / 1000 Ang^3
#
#
#
# Elastic Constant Matrix: (Units=GPa)
#
#
# Indices 1 2 3 4 5 6 
#
# 1 78.9027 19.6614 0.8566 0.0000 7.7113 0.0000
# 2 19.6614 156.0561 1.7582 0.0000 12.2675 0.0000
# 3 0.8566 1.7582 38.9216 0.0000 -2.1060 0.0000
# 4 0.0000 0.0000 0.0000 11.3500 0.0000 -7.6280
# 5 7.7113 12.2675 -2.1060 0.0000 30.7566 0.0000
# 6 0.0000 0.0000 0.0000 -7.6280 0.0000 38.0146
#
#
#
# Elastic Compliance Matrix: (Units=1/GPa)
#
#
# Indices 1 2 3 4 5 6 
#
# 1 0.013312 -0.001454 -0.000378 0.000000 -0.002784 0.000000
# 2 -0.001454 0.006782 -0.000402 0.000000 -0.002368 0.000000
# 3 -0.000378 -0.000402 0.025829 0.000000 0.002024 0.000000
# 4 0.000000 0.000000 0.000000 0.101839 0.000000 0.020435
# 5 -0.002784 -0.002368 0.002024 0.000000 0.034294 0.000000
# 6 0.000000 0.000000 0.000000 0.020435 0.000000 0.030406
#
#
# Mechanical properties :
#
#
# Convention : Reuss Voigt Hill
#
# Bulk Modulus (GPa) = 24.12327 35.38144 29.75235
# Shear Modulus (GPa) = 21.66851 32.79787 27.23319
#
# Velocity S-wave (km/s) = 3.16474 3.89355 3.54791
# Velocity P-wave (km/s) = 4.95018 6.04706 5.52590
#
# Compressibility (1/GPa) = 0.04145375
#
# Stress axis : x y z
#
# Youngs Moduli (GPa) = 75.11831 147.45272 38.71669
#
# Poissons Ratio (x) = 0.21442 0.01463
# Poissons Ratio (y) = 0.10923 0.01558
# Poissons Ratio (z) = 0.02839 0.05935
#
# Static dielectric constant tensor:
#      x y z
#    x 3.904480 0.000000 -0.130940 
#    y 0.000000 4.750230 0.000000 
#    z -0.130940 0.000000 3.494430 
# 
# 
# High freq. dielectric constant tensor:
#      x y z
#    x 1.858520 0.000000 -0.017500 
#    y 0.000000 1.870640 0.000000 
#    z -0.017500 0.000000 1.811570 
# 
# From -- ./inp_files/38729.got.cif
#   From: 2010.03.12/outbox.cif.g09.slc.cpg/sg14_20_cif.got.tgz:38729.got - 2010.03.31 13:35:05.
