data_PCOD8123606
_publ_section_title
;
Structure prediction by ZEFSAII (Michael W. Deem and Ramdas Pophale) SiO2 
 PCOD8123606
Probable space group: P 21/C
;
_chemical_formula_sum "Si O2"
_cell_formula_units_Z 28
_cell_length_a 11.473506
_cell_length_b 9.444301
_cell_length_c 15.371013
_cell_angle_alpha 90.000000
_cell_angle_beta 66.632843
_cell_angle_gamma 90.000000
_cell_volume 1528.983092
_symmetry_space_group_name_H-M "P 21/C"
_symmetry_group_IT_number 14
_symmetry_cell_setting 'monoclinic'
loop_
_space_group_symop_operation_xyz
x,y,z
-x,1/2+y,1/2-z
-x,-y,-z
x,1/2-y,1/2+z
loop_
_atom_site_type_symbol
_atom_site_label
_atom_site_fract_x
_atom_site_fract_y
_atom_site_fract_z
Si Si1 0.591063 0.901518 0.386327
Si Si2 0.674736 0.361200 0.967849
Si Si3 0.646576 0.037112 0.937238
Si Si4 0.550396 0.740737 0.727879
Si Si5 0.296536 0.274582 0.488885
Si Si6 0.345173 0.969698 0.265660
Si Si7 0.852670 0.522332 0.031549
O O1 0.437473 0.913323 0.433927
O O2 0.631312 0.832488 0.282626
O O3 0.629145 0.803389 0.455912
O O4 0.653780 0.057369 0.381234
O O5 0.678703 0.194656 0.956578
O O6 0.805418 0.411070 0.973223
O O7 0.738038 0.930815 0.965000
O O8 0.685868 0.017748 0.826204
O O9 0.500000 0.000000 0.000000
O O10 0.608982 0.698467 0.618732
O O11 0.550445 0.909926 0.740048
O O12 0.406278 0.682596 0.770414
O O13 0.175432 0.182993 0.493433
O O14 0.215301 0.994605 0.356150
O O15 0.000000 0.500000 0.000000
#
# Coordination Sequence:
#
# PCOD8123606 Si02
#       7
#     4   4   4   4   4   4   4
#     4  10  18  34  53  85 119 147 184 237 298 354
#     4  10  20  33  57  80 115 151 192 235 290 345
#     4  12  20  34  55  92 125 139 173 250 317 344
#     4  11  20  31  53  89 117 149 182 234 306 351
#     4  10  21  36  58  88 120 147 186 246 296 346
#     4  11  22  33  57  87 120 149 187 237 295 356
#     4  10  23  43  59  76 113 169 206 224 266 352
#
# _framework density 18.312825
#
# number of rings (size 3 to 8) (size 9 to 14) (size 15 to 20)
#    0.000    1.429    5.714    0.000    4.000    0.000 
#    0.000    2.143    0.000    0.000    0.000    0.000 
#    0.000    0.000    0.000    0.000    0.000    0.000 
#
# Total GULP energy -347113.535575 kJ/mol
# GULP energy per Si atom -12396.911985 kJ/mol
# Density = 1.827114 g / cm^3
# Si number density = 18.312825 Si / 1000 Ang^3
#
#
#
# Elastic Constant Matrix: (Units=GPa)
#
#
# Indices 1 2 3 4 5 6 
#
# 1 107.1467 46.7162 39.4790 0.0000 -6.9492 0.0000
# 2 46.7162 134.9975 37.7687 0.0000 -4.7767 0.0000
# 3 39.4790 37.7687 101.0094 0.0000 12.1519 0.0000
# 4 0.0000 0.0000 0.0000 22.4066 0.0000 6.9405
# 5 -6.9492 -4.7767 12.1519 0.0000 18.7998 0.0000
# 6 0.0000 0.0000 0.0000 6.9405 0.0000 19.9595
#
#
#
# Elastic Compliance Matrix: (Units=1/GPa)
#
#
# Indices 1 2 3 4 5 6 
#
# 1 0.012798 -0.002835 -0.004798 0.000000 0.007111 0.000000
# 2 -0.002835 0.009259 -0.002723 0.000000 0.003064 0.000000
# 3 -0.004798 -0.002723 0.014193 0.000000 -0.011640 0.000000
# 4 0.000000 0.000000 0.000000 0.050017 0.000000 -0.017392
# 5 0.007111 0.003064 -0.011640 0.000000 0.064123 0.000000
# 6 0.000000 0.000000 0.000000 -0.017392 0.000000 0.056149
#
#
# Mechanical properties :
#
#
# Convention : Reuss Voigt Hill
#
# Bulk Modulus (GPa) = 64.34996 65.67573 65.01284
# Shear Modulus (GPa) = 21.51190 26.84583 24.17886
#
# Velocity S-wave (km/s) = 3.43109 3.83294 3.63757
# Velocity P-wave (km/s) = 7.13527 7.45182 7.29526
#
# Compressibility (1/GPa) = 0.01554003
#
# Stress axis : x y z
#
# Youngs Moduli (GPa) = 78.13762 108.00631 70.45484
#
# Poissons Ratio (x) = 0.30619 0.33801
# Poissons Ratio (y) = 0.22151 0.19182
# Poissons Ratio (z) = 0.37487 0.29406
#
# Static dielectric constant tensor:
#      x y z
#    x 2.945920 0.000000 0.361470 
#    y 0.000000 3.801790 0.000000 
#    z 0.361470 0.000000 3.524660 
# 
# 
# High freq. dielectric constant tensor:
#      x y z
#    x 1.654380 0.000000 0.039750 
#    y 0.000000 1.728820 0.000000 
#    z 0.039750 0.000000 1.713650 
# 
# From -- ./inp_files/43362.got.cif
#   From: 2010.03.12/outbox.cif.g09.slc.cpg/sg14_22_cif.got.tgz:43362.got - 2010.03.31 13:35:05.
