data_PCOD8123648
_publ_section_title
;
Structure prediction by ZEFSAII (Michael W. Deem and Ramdas Pophale) SiO2 
 PCOD8123648
Probable space group: P 21/C
;
_chemical_formula_sum "Si O2"
_cell_formula_units_Z 32
_cell_length_a 10.815119
_cell_length_b 8.801036
_cell_length_c 19.564441
_cell_angle_alpha 90.000000
_cell_angle_beta 67.305657
_cell_angle_gamma 90.000000
_cell_volume 1718.045985
_symmetry_space_group_name_H-M "P 21/C"
_symmetry_group_IT_number 14
_symmetry_cell_setting 'monoclinic'
loop_
_space_group_symop_operation_xyz
x,y,z
-x,1/2+y,1/2-z
-x,-y,-z
x,1/2-y,1/2+z
loop_
_atom_site_type_symbol
_atom_site_label
_atom_site_fract_x
_atom_site_fract_y
_atom_site_fract_z
Si Si1 0.804977 0.772505 0.709097
Si Si2 0.594688 0.538819 0.794514
Si Si3 0.730034 0.955354 0.854805
Si Si4 0.110514 0.778935 0.139375
Si Si5 0.724063 0.227455 0.771561
Si Si6 0.704225 0.085152 0.493848
Si Si7 0.711034 0.050776 0.649692
Si Si8 0.587369 0.679438 0.942462
O O1 0.701958 0.632180 0.727320
O O2 0.805707 0.848615 0.783936
O O3 0.763841 0.883994 0.656520
O O4 0.952904 0.712834 0.662313
O O5 0.618686 0.360131 0.782823
O O6 0.446162 0.569338 0.799387
O O7 0.607298 0.582135 0.870438
O O8 0.633317 0.854039 0.923039
O O9 0.834306 0.047378 0.881300
O O10 0.651055 0.083950 0.826506
O O11 0.150323 0.720368 0.207549
O O12 0.173166 0.660864 0.072100
O O13 0.781106 0.172254 0.685791
O O14 0.569786 0.181125 0.504389
O O15 0.743560 0.090938 0.564923
O O16 0.677183 0.908113 0.479931
#
# Coordination Sequence:
#
# PCOD8123648 Si02
#       8
#     4   4   4   4   4   4   4   4
#     4  10  21  35  59  84 112 147 189 240 285 339
#     4  10  18  34  60  80 110 145 197 240 281 332
#     4   8  19  33  55  83 107 140 194 240 272 322
#     4  10  21  35  55  85 114 148 191 229 287 346
#     4   9  19  35  55  85 110 144 189 243 280 338
#     4  10  20  34  57  81 117 156 190 234 285 348
#     4  10  21  37  54  84 115 148 187 240 292 334
#     4   9  17  35  55  83 109 152 198 232 276 336
#
# _framework density 18.625810999999999
#
# number of rings (size 3 to 8) (size 9 to 14) (size 15 to 20)
#    0.750    1.750    1.250    0.750    1.750    2.000 
#    0.000    1.250    0.000    1.500    0.000    0.000 
#    0.000    0.000    0.000    0.000    0.000    0.000 
#
# Total GULP energy -396537.852430 kJ/mol
# GULP energy per Si atom -12391.807888 kJ/mol
# Density = 1.858342 g / cm^3
# Si number density = 18.625811 Si / 1000 Ang^3
#
#
#
# Elastic Constant Matrix: (Units=GPa)
#
#
# Indices 1 2 3 4 5 6 
#
# 1 78.9045 31.8175 48.6887 0.0000 0.9721 0.0000
# 2 31.8175 100.6907 32.4098 0.0000 -3.8374 0.0000
# 3 48.6887 32.4098 74.4103 0.0000 7.6784 0.0000
# 4 0.0000 0.0000 0.0000 25.5296 0.0000 0.6473
# 5 0.9721 -3.8374 7.6784 0.0000 27.2795 0.0000
# 6 0.0000 0.0000 0.0000 0.6473 0.0000 27.1103
#
#
#
# Elastic Compliance Matrix: (Units=1/GPa)
#
#
# Indices 1 2 3 4 5 6 
#
# 1 0.022047 -0.002478 -0.013625 0.000000 0.002701 0.000000
# 2 -0.002478 0.012095 -0.003946 0.000000 0.002900 0.000000
# 3 -0.013625 -0.003946 0.024801 0.000000 -0.007050 0.000000
# 4 0.000000 0.000000 0.000000 0.039194 0.000000 -0.000936
# 5 0.002701 0.002900 -0.007050 0.000000 0.038954 0.000000
# 6 0.000000 0.000000 0.000000 -0.000936 0.000000 0.036909
#
#
# Mechanical properties :
#
#
# Convention : Reuss Voigt Hill
#
# Bulk Modulus (GPa) = 53.06703 53.31527 53.19115
# Shear Modulus (GPa) = 22.68810 25.38983 24.03897
#
# Velocity S-wave (km/s) = 3.49392 3.69610 3.59643
# Velocity P-wave (km/s) = 6.69549 6.84846 6.77241
#
# Compressibility (1/GPa) = 0.01884409
#
# Stress axis : x y z
#
# Youngs Moduli (GPa) = 45.35708 82.67824 40.32146
#
# Poissons Ratio (x) = 0.20489 0.54940
# Poissons Ratio (y) = 0.11240 0.15910
# Poissons Ratio (z) = 0.61801 0.32624
#
# Static dielectric constant tensor:
#      x y z
#    x 3.232200 0.000000 0.075900 
#    y 0.000000 3.414750 0.000000 
#    z 0.075900 0.000000 3.261250 
# 
# 
# High freq. dielectric constant tensor:
#      x y z
#    x 1.701830 0.000000 0.008990 
#    y 0.000000 1.723350 0.000000 
#    z 0.008990 0.000000 1.705220 
# 
# From -- ./inp_files/66843.got.cif
#   From: 2010.03.12/outbox.cif.g09.slc.cpg/sg14_34_cif.got.tgz:66843.got - 2010.03.31 13:35:05.
