data_PCOD8123057
_publ_section_title
;
Structure prediction by ZEFSAII (Michael W. Deem and Ramdas Pophale) SiO2 
 PCOD8123057
Probable space group: P 2/C
;
_chemical_formula_sum "Si O2"
_cell_formula_units_Z 16
_cell_length_a 9.497633
_cell_length_b 11.269878
_cell_length_c 7.373489
_cell_angle_alpha 90.000000
_cell_angle_beta 114.991780
_cell_angle_gamma 90.000000
_cell_volume 715.339811
_symmetry_space_group_name_H-M "P 2/C"
_symmetry_group_IT_number 13
_symmetry_cell_setting 'monoclinic'
loop_
_space_group_symop_operation_xyz
x,y,z
-x,y,1/2-z
-x,-y,-z
x,-y,1/2+z
loop_
_atom_site_type_symbol
_atom_site_label
_atom_site_fract_x
_atom_site_fract_y
_atom_site_fract_z
Si Si1 0.530510 0.635246 0.474315
Si Si2 0.296777 0.825972 0.492386
Si Si3 0.326937 0.919372 0.136601
Si Si4 0.168836 0.756700 0.773994
O O1 0.500000 0.662772 0.250000
O O2 0.500000 0.500000 0.500000
O O3 0.429189 0.725059 0.543528
O O4 0.712630 0.651643 0.614773
O O5 0.233067 0.873489 0.263975
O O6 0.161878 0.775128 0.551260
O O7 0.357557 0.940724 0.635890
O O8 0.500000 0.862311 0.250000
O O9 0.232286 0.874682 0.910288
O O10 0.000000 0.719452 0.750000
#
# Coordination Sequence:
#
# PCOD8123057 Si02
#       4
#     4   4   4   4
#     4  12  25  49  76 101 132 185 243 284 335 417
#     4  12  23  43  73 100 139 187 239 281 336 413
#     4  12  22  40  70 100 139 183 238 277 339 414
#     4  12  26  43  67 106 144 176 226 289 357 410
#
# _framework density 22.366990000000001
#
# number of rings (size 3 to 8) (size 9 to 14) (size 15 to 20)
#    0.000    0.000    7.500    4.500    0.000    2.000 
#    0.000    5.000    0.000    0.000    0.000    0.000 
#    0.000    0.000    0.000    0.000    0.000    0.000 
#
# Total GULP energy -198240.941085 kJ/mol
# GULP energy per Si atom -12390.058818 kJ/mol
# Density = 2.231608 g / cm^3
# Si number density = 22.366990 Si / 1000 Ang^3
#
#
#
# Elastic Constant Matrix: (Units=GPa)
#
#
# Indices 1 2 3 4 5 6 
#
# 1 171.7474 72.6518 58.1655 0.0000 -21.6313 0.0000
# 2 72.6518 176.9644 35.0505 0.0000 -5.4899 0.0000
# 3 58.1655 35.0505 84.9002 0.0000 -33.8703 0.0000
# 4 0.0000 0.0000 0.0000 23.7870 0.0000 -11.2367
# 5 -21.6313 -5.4899 -33.8703 0.0000 46.0697 0.0000
# 6 0.0000 0.0000 0.0000 -11.2367 0.0000 13.9026
#
#
#
# Elastic Compliance Matrix: (Units=1/GPa)
#
#
# Indices 1 2 3 4 5 6 
#
# 1 0.008524 -0.002565 -0.004679 0.000000 0.000257 0.000000
# 2 -0.002565 0.007011 -0.001817 0.000000 -0.001705 0.000000
# 3 -0.004679 -0.001817 0.020902 0.000000 0.012954 0.000000
# 4 0.000000 0.000000 0.000000 0.068004 0.000000 0.054964
# 5 0.000257 -0.001705 0.012954 0.000000 0.031147 0.000000
# 6 0.000000 0.000000 0.000000 0.054964 0.000000 0.116353
#
#
# Mechanical properties :
#
#
# Convention : Reuss Voigt Hill
#
# Bulk Modulus (GPa) = 54.59870 85.03863 69.81866
# Shear Modulus (GPa) = 18.10492 34.60148 26.35320
#
# Velocity S-wave (km/s) = 2.84817 3.93744 3.43624
# Velocity P-wave (km/s) = 5.93965 7.66639 6.85759
#
# Compressibility (1/GPa) = 0.01831546
#
# Stress axis : x y z
#
# Youngs Moduli (GPa) = 117.31001 142.63375 47.84265
#
# Poissons Ratio (x) = 0.36586 0.22383
# Poissons Ratio (y) = 0.30090 0.08695
# Poissons Ratio (z) = 0.54884 0.25921
#
# Static dielectric constant tensor:
#      x y z
#    x 3.966920 0.000000 -0.589070 
#    y 0.000000 4.047860 0.000000 
#    z -0.589070 0.000000 3.980730 
# 
# 
# High freq. dielectric constant tensor:
#      x y z
#    x 1.866630 0.000000 -0.043860 
#    y 0.000000 1.880620 0.000000 
#    z -0.043860 0.000000 1.877650 
# 
# From -- ./inp_files/11922.got.cif
#   From: 2010.06.25/outbox.cif.g09.slc.cpg/sg13_6_cif.got.tgz:11922.got - 2010.06.28 04:50:58.
