data_PCOD8123873
_publ_section_title
;
Structure prediction by ZEFSAII (Michael W. Deem and Ramdas Pophale) SiO2 
 PCOD8123873
Probable space group: P 21/C
;
_chemical_formula_sum "Si O2"
_cell_formula_units_Z 32
_cell_length_a 18.062504
_cell_length_b 16.919818
_cell_length_c 21.890018
_cell_angle_alpha 90.000000
_cell_angle_beta 162.568399
_cell_angle_gamma 90.000000
_cell_volume 2004.074235
_symmetry_space_group_name_H-M "P 21/C"
_symmetry_group_IT_number 14
_symmetry_cell_setting 'monoclinic'
loop_
_space_group_symop_operation_xyz
x,y,z
-x,1/2+y,1/2-z
-x,-y,-z
x,1/2-y,1/2+z
loop_
_atom_site_type_symbol
_atom_site_label
_atom_site_fract_x
_atom_site_fract_y
_atom_site_fract_z
Si Si1 0.111301 0.243134 0.912263
Si Si2 0.827882 0.330467 0.913934
Si Si3 0.685005 0.256825 0.985954
Si Si4 0.802009 0.821864 0.401002
Si Si5 0.877869 0.092492 0.581488
Si Si6 0.636226 0.186283 0.818158
Si Si7 0.461502 0.041050 0.730762
Si Si8 0.692365 0.907526 0.988755
O O1 0.885291 0.271254 0.692682
O O2 0.050495 0.266788 0.934266
O O3 0.355372 0.288841 0.083680
O O4 0.165578 0.149738 0.947190
O O5 0.805260 0.233989 0.902649
O O6 0.563190 0.368544 0.689753
O O7 0.930499 0.368555 0.057067
O O8 0.015202 0.350801 0.007605
O O9 0.707992 0.350222 0.989597
O O10 0.414550 0.233160 0.798299
O O11 0.731718 0.211113 0.959990
O O12 0.690123 0.899399 0.345100
O O13 0.731617 0.010899 0.459412
O O14 0.140548 0.076279 0.820262
O O15 0.632282 0.090346 0.816149
O O16 0.642787 0.989134 0.915034
#
# Coordination Sequence:
#
# PCOD8123873 Si02
#       8
#     4   4   4   4   4   4   4   4
#     4   8  15  29  46  61  81 115 153 181 209 248
#     4   9  18  32  44  64  94 119 144 172 216 267
#     4   8  15  29  46  61  81 115 153 181 209 248
#     4  10  19  28  44  68  93 116 142 180 216 260
#     4   9  17  30  47  64  87 118 147 179 218 258
#     4   8  16  29  46  64  84 111 148 188 210 242
#     4   9  17  28  44  68  87 107 146 184 216 255
#     4   9  17  30  47  64  87 118 147 179 218 258
#
# _framework density 15.967473
#
# number of rings (size 3 to 8) (size 9 to 14) (size 15 to 20)
#    0.000    3.500    0.000    2.250    0.000    7.000 
#    0.000    1.250    0.000    3.000    0.000    3.500 
#    0.000    0.000    0.000    0.000    0.000    0.000 
#
# Total GULP energy -396421.825171 kJ/mol
# GULP energy per Si atom -12388.182037 kJ/mol
# Density = 1.593113 g / cm^3
# Si number density = 15.967473 Si / 1000 Ang^3
#
#
#
# Elastic Constant Matrix: (Units=GPa)
#
#
# Indices 1 2 3 4 5 6 
#
# 1 19.1416 29.9290 25.0153 0.0000 -9.6962 0.0000
# 2 29.9290 105.0060 47.3675 0.0000 -6.7385 0.0000
# 3 25.0153 47.3675 127.0283 0.0000 -31.8591 0.0000
# 4 0.0000 0.0000 0.0000 11.3132 0.0000 2.2476
# 5 -9.6962 -6.7385 -31.8591 0.0000 18.1856 0.0000
# 6 0.0000 0.0000 0.0000 2.2476 0.0000 17.1240
#
#
#
# Elastic Compliance Matrix: (Units=1/GPa)
#
#
# Indices 1 2 3 4 5 6 
#
# 1 0.139183 -0.036667 0.002619 0.000000 0.065210 0.000000
# 2 -0.036667 0.021459 -0.006582 0.000000 -0.023130 0.000000
# 3 0.002619 -0.006582 0.017034 0.000000 0.028798 0.000000
# 4 0.000000 0.000000 0.000000 0.090759 0.000000 -0.011912
# 5 0.065210 -0.023130 0.028798 0.000000 0.131638 0.000000
# 6 0.000000 0.000000 0.000000 -0.011912 0.000000 0.059961
#
#
# Mechanical properties :
#
#
# Convention : Reuss Voigt Hill
#
# Bulk Modulus (GPa) = 10.37182 50.64438 30.50810
# Shear Modulus (GPa) = 8.71944 19.24883 13.98413
#
# Velocity S-wave (km/s) = 2.33936 3.47580 2.96258
# Velocity P-wave (km/s) = 3.71571 6.92057 5.55432
#
# Compressibility (1/GPa) = 0.09641514
#
# Stress axis : x y z
#
# Youngs Moduli (GPa) = 7.18481 46.60058 58.70723
#
# Poissons Ratio (x) = 1.70869 -0.15374
# Poissons Ratio (y) = 0.26344 0.38642
# Poissons Ratio (z) = -0.01882 0.30673
#
# Static dielectric constant tensor:
#      x y z
#    x 2.737930 0.000000 -0.152010 
#    y 0.000000 3.252520 0.000000 
#    z -0.152010 0.000000 3.132370 
# 
# 
# High freq. dielectric constant tensor:
#      x y z
#    x 1.571230 0.000000 -0.018800 
#    y 0.000000 1.616570 0.000000 
#    z -0.018800 0.000000 1.620060 
# 
# From -- ./inp_files/69470.got.cif
#   From: 2010.03.12/outbox.cif.g09.slc.cpg/sg14_35_cif.got.tgz:69470.got - 2010.03.31 13:35:05.
