data_PCOD8123042
_publ_section_title
;
Structure prediction by ZEFSAII (Michael W. Deem and Ramdas Pophale) SiO2 
 PCOD8123042
Probable space group: P 2/C
;
_chemical_formula_sum "Si O2"
_cell_formula_units_Z 24
_cell_length_a 32.202978
_cell_length_b 4.985009
_cell_length_c 21.810921
_cell_angle_alpha 90.000000
_cell_angle_beta 19.425866
_cell_angle_gamma 90.000000
_cell_volume 1164.504424
_symmetry_space_group_name_H-M "P 2/C"
_symmetry_group_IT_number 13
_symmetry_cell_setting 'monoclinic'
loop_
_space_group_symop_operation_xyz
x,y,z
-x,y,1/2-z
-x,-y,-z
x,-y,1/2+z
loop_
_atom_site_type_symbol
_atom_site_label
_atom_site_fract_x
_atom_site_fract_y
_atom_site_fract_z
Si Si1 0.778061 0.069158 0.446735
Si Si2 0.389471 0.473482 0.519013
Si Si3 0.207433 0.544462 0.381658
Si Si4 0.328949 0.431614 0.339165
Si Si5 0.957525 0.058739 0.876462
Si Si6 0.373664 0.034317 0.959926
O O1 0.752931 0.368327 0.505614
O O2 0.741076 0.043207 0.427319
O O3 0.924928 0.010949 0.244937
O O4 0.696929 0.868185 0.601339
O O5 0.293225 0.380929 0.704804
O O6 0.525879 0.498075 0.358084
O O7 0.348222 0.762045 0.550813
O O8 0.387419 0.264501 0.466265
O O9 0.293047 0.447057 0.318262
O O10 0.131987 0.805419 0.506877
O O11 0.113672 0.306482 0.493144
O O12 0.000000 0.153365 0.750000
O O13 0.500000 0.123827 0.750000
#
# Coordination Sequence:
#
# PCOD8123042 Si02
#       6
#     4   4   4   4   4   4
#     4  12  24  38  70  96 120 164 224 260 302 370
#     4  12  25  42  65  97 133 166 205 264 327 374
#     4  12  25  42  65  97 133 166 205 264 327 374
#     4  12  21  40  66  98 127 158 208 272 317 374
#     4  12  23  44  65  94 129 169 215 257 309 382
#     4  12  23  44  65  94 129 169 215 257 309 382
#
# _framework density 20.609627
#
# number of rings (size 3 to 8) (size 9 to 14) (size 15 to 20)
#    0.000    0.000    6.667    4.500    0.000    0.000 
#    0.000   10.000    0.000    0.000    0.000    0.000 
#    0.000    0.000    0.000    0.000    0.000    0.000 
#
# Total GULP energy -297861.218711 kJ/mol
# GULP energy per Si atom -12410.884113 kJ/mol
# Density = 2.056272 g / cm^3
# Si number density = 20.609627 Si / 1000 Ang^3
#
#
#
# Elastic Constant Matrix: (Units=GPa)
#
#
# Indices 1 2 3 4 5 6 
#
# 1 89.1689 -2.0180 46.0116 0.0000 -9.1878 0.0000
# 2 -2.0180 78.8938 10.1364 0.0000 4.3889 0.0000
# 3 46.0116 10.1364 82.9372 0.0000 -7.3058 0.0000
# 4 0.0000 0.0000 0.0000 25.2600 0.0000 0.1731
# 5 -9.1878 4.3889 -7.3058 0.0000 29.0825 0.0000
# 6 0.0000 0.0000 0.0000 0.1731 0.0000 24.7945
#
#
#
# Elastic Compliance Matrix: (Units=1/GPa)
#
#
# Indices 1 2 3 4 5 6 
#
# 1 0.016095 0.001404 -0.008868 0.000000 0.002645 0.000000
# 2 0.001404 0.013165 -0.002581 0.000000 -0.002192 0.000000
# 3 -0.008868 -0.002581 0.017466 0.000000 0.001976 0.000000
# 4 0.000000 0.000000 0.000000 0.039590 0.000000 -0.000276
# 5 0.002645 -0.002192 0.001976 0.000000 0.036048 0.000000
# 6 0.000000 0.000000 0.000000 -0.000276 0.000000 0.040333
#
#
# Mechanical properties :
#
#
# Convention : Reuss Voigt Hill
#
# Bulk Modulus (GPa) = 37.54229 39.91777 38.73003
# Shear Modulus (GPa) = 26.08720 28.95205 27.51963
#
# Velocity S-wave (km/s) = 3.56164 3.75211 3.65811
# Velocity P-wave (km/s) = 5.93036 6.17913 6.05602
#
# Compressibility (1/GPa) = 0.02663663
#
# Stress axis : x y z
#
# Youngs Moduli (GPa) = 62.13234 75.96080 57.25321
#
# Poissons Ratio (x) = -0.10664 0.50769
# Poissons Ratio (y) = -0.08722 0.14776
# Poissons Ratio (z) = 0.55096 0.19604
#
# Static dielectric constant tensor:
#      x y z
#    x 3.760610 0.000000 -0.232060 
#    y 0.000000 3.813330 0.000000 
#    z -0.232060 0.000000 3.674380 
# 
# 
# High freq. dielectric constant tensor:
#      x y z
#    x 1.808840 0.000000 -0.015820 
#    y 0.000000 1.823310 0.000000 
#    z -0.015820 0.000000 1.799860 
# 
# From -- ./inp_files/82636.got.cif
#   From: 2010.06.25/outbox.cif.g09.slc.cpg/sg13_42_cif.got.tgz:82636.got - 2010.06.28 04:50:58.
