data_PCOD8123523
_publ_section_title
;
Structure prediction by ZEFSAII (Michael W. Deem and Ramdas Pophale) SiO2 
 PCOD8123523
Probable space group: P 21/C
;
_chemical_formula_sum "Si O2"
_cell_formula_units_Z 24
_cell_length_a 26.199543
_cell_length_b 5.014206
_cell_length_c 19.946620
_cell_angle_alpha 90.000000
_cell_angle_beta 150.084531
_cell_angle_gamma 90.000000
_cell_volume 1306.843341
_symmetry_space_group_name_H-M "P 21/C"
_symmetry_group_IT_number 14
_symmetry_cell_setting 'monoclinic'
loop_
_space_group_symop_operation_xyz
x,y,z
-x,1/2+y,1/2-z
-x,-y,-z
x,1/2-y,1/2+z
loop_
_atom_site_type_symbol
_atom_site_label
_atom_site_fract_x
_atom_site_fract_y
_atom_site_fract_z
Si Si1 0.930165 0.265848 0.496714
Si Si2 0.062138 0.787577 0.840430
Si Si3 0.864882 0.733908 0.847063
Si Si4 0.303464 0.257200 0.948314
Si Si5 0.515194 0.362910 0.225909
Si Si6 0.270601 0.757142 0.000119
O O1 0.919707 0.200518 0.562712
O O2 0.886088 0.556614 0.430261
O O3 0.049372 0.249256 0.613088
O O4 0.863549 0.056342 0.378671
O O5 0.170177 0.816306 0.927515
O O6 0.994130 0.570766 0.724704
O O7 0.756363 0.794523 0.689242
O O8 0.266693 0.464193 0.963492
O O9 0.281516 0.963006 0.951223
O O10 0.424975 0.298599 0.069635
O O11 0.510662 0.675487 0.238964
O O12 0.631671 0.287894 0.337597
#
# Coordination Sequence:
#
# PCOD8123523 Si02
#       6
#     4   4   4   4   4   4
#     4  10  21  33  47  70  96 129 163 198 243 282
#     4  12  23  35  52  74 102 133 164 197 245 302
#     4  10  19  33  50  67  96 128 164 204 234 285
#     4  10  18  32  54  77  97 128 167 201 248 289
#     4   8  16  29  48  74  99 123 158 204 247 283
#     4  10  19  32  51  76 104 127 158 208 249 287
#
# _framework density 18.364863
#
# number of rings (size 3 to 8) (size 9 to 14) (size 15 to 20)
#    0.000    2.000    0.000    5.000    0.000    2.667 
#    0.000    0.000    0.000    2.000    0.000    0.000 
#    0.000    0.000    0.000    0.000    0.000    0.000 
#
# Total GULP energy -297558.853484 kJ/mol
# GULP energy per Si atom -12398.285562 kJ/mol
# Density = 1.832306 g / cm^3
# Si number density = 18.364863 Si / 1000 Ang^3
#
#
#
# Elastic Constant Matrix: (Units=GPa)
#
#
# Indices 1 2 3 4 5 6 
#
# 1 47.5620 5.0162 36.0125 0.0000 7.7881 0.0000
# 2 5.0162 77.0540 9.7734 0.0000 5.9355 0.0000
# 3 36.0125 9.7734 123.1193 0.0000 10.0408 0.0000
# 4 0.0000 0.0000 0.0000 20.4074 0.0000 3.9941
# 5 7.7881 5.9355 10.0408 0.0000 28.7068 0.0000
# 6 0.0000 0.0000 0.0000 3.9941 0.0000 13.5678
#
#
#
# Elastic Compliance Matrix: (Units=1/GPa)
#
#
# Indices 1 2 3 4 5 6 
#
# 1 0.027652 -0.000464 -0.007666 0.000000 -0.004725 0.000000
# 2 -0.000464 0.013282 -0.000726 0.000000 -0.002367 0.000000
# 3 -0.007666 -0.000726 0.010541 0.000000 -0.001457 0.000000
# 4 0.000000 0.000000 0.000000 0.051998 0.000000 -0.015307
# 5 -0.004725 -0.002367 -0.001457 0.000000 0.037116 0.000000
# 6 0.000000 0.000000 0.000000 -0.015307 0.000000 0.078210
#
#
# Mechanical properties :
#
#
# Convention : Reuss Voigt Hill
#
# Bulk Modulus (GPa) = 29.61707 38.81551 34.21629
# Shear Modulus (GPa) = 20.18039 25.66529 22.92284
#
# Velocity S-wave (km/s) = 3.31850 3.74240 3.53681
# Velocity P-wave (km/s) = 5.55385 6.31314 5.94563
#
# Compressibility (1/GPa) = 0.03376432
#
# Stress axis : x y z
#
# Youngs Moduli (GPa) = 36.16330 75.28727 94.86764
#
# Poissons Ratio (x) = 0.03492 0.72727
# Poissons Ratio (y) = 0.01678 0.06884
# Poissons Ratio (z) = 0.27723 0.05464
#
# Static dielectric constant tensor:
#      x y z
#    x 2.909000 0.000000 0.242380 
#    y 0.000000 3.544930 0.000000 
#    z 0.242380 0.000000 3.644780 
# 
# 
# High freq. dielectric constant tensor:
#      x y z
#    x 1.651560 0.000000 0.013060 
#    y 0.000000 1.737110 0.000000 
#    z 0.013060 0.000000 1.727030 
# 
# From -- ./inp_files/51693.got.cif
#   From: 2010.03.12/outbox.cif.g09.slc.cpg/sg14_26_cif.got.tgz:51693.got - 2010.03.31 13:35:05.
