data_PCOD8123522
_publ_section_title
;
Structure prediction by ZEFSAII (Michael W. Deem and Ramdas Pophale) SiO2 
 PCOD8123522
Probable space group: P 21/C
;
_chemical_formula_sum "Si O2"
_cell_formula_units_Z 32
_cell_length_a 11.242729
_cell_length_b 20.509431
_cell_length_c 9.109985
_cell_angle_alpha 90.000000
_cell_angle_beta 49.655733
_cell_angle_gamma 90.000000
_cell_volume 1601.009646
_symmetry_space_group_name_H-M "P 21/C"
_symmetry_group_IT_number 14
_symmetry_cell_setting 'monoclinic'
loop_
_space_group_symop_operation_xyz
x,y,z
-x,1/2+y,1/2-z
-x,-y,-z
x,1/2-y,1/2+z
loop_
_atom_site_type_symbol
_atom_site_label
_atom_site_fract_x
_atom_site_fract_y
_atom_site_fract_z
Si Si1 0.194480 0.069410 0.734147
Si Si2 0.071568 0.592861 0.047951
Si Si3 0.370690 0.243343 0.305021
Si Si4 0.675171 0.953013 0.072632
Si Si5 0.776358 0.831704 0.838927
Si Si6 0.641255 0.060662 0.506847
Si Si7 0.085943 0.958784 0.230013
Si Si8 0.461049 0.337628 0.985896
O O1 0.197025 0.071092 0.908689
O O2 0.287755 0.132345 0.601115
O O3 0.016750 0.072461 0.819518
O O4 0.283312 0.004172 0.615134
O O5 0.960206 0.652302 0.183369
O O6 0.997521 0.524420 0.151821
O O7 0.237618 0.602240 0.993642
O O8 0.097183 0.593253 0.851906
O O9 0.250891 0.280227 0.509105
O O10 0.274998 0.195033 0.277699
O O11 0.493221 0.203660 0.311892
O O12 0.467662 0.293760 0.128170
O O13 0.503991 0.960745 0.275855
O O14 0.675721 0.897653 0.946440
O O15 0.738100 0.022541 0.961614
O O16 0.585983 0.104851 0.413060
#
# Coordination Sequence:
#
# PCOD8123522 Si02
#       8
#     4   4   4   4   4   4   4   4
#     4  10  18  33  56  81 115 144 185 232 282 335
#     4   9  19  34  51  77 112 142 173 223 276 322
#     4  10  20  34  60  81 100 141 194 237 271 326
#     4  10  18  32  53  81 112 145 184 222 273 336
#     4  10  19  36  57  80 104 140 187 234 272 325
#     4  10  20  35  55  81 118 150 180 228 285 337
#     4   9  18  31  52  79 108 145 177 214 272 329
#     4  10  19  35  56  82 106 141 187 229 281 329
#
# _framework density 19.987386999999998
#
# number of rings (size 3 to 8) (size 9 to 14) (size 15 to 20)
#    0.000    2.250    2.500    2.625    0.000    1.500 
#    0.000    2.500    0.000    0.000    0.000    0.000 
#    0.000    0.000    0.000    0.000    0.000    0.000 
#
# Total GULP energy -396680.282490 kJ/mol
# GULP energy per Si atom -12396.258828 kJ/mol
# Density = 1.994189 g / cm^3
# Si number density = 19.987387 Si / 1000 Ang^3
#
#
#
# Elastic Constant Matrix: (Units=GPa)
#
#
# Indices 1 2 3 4 5 6 
#
# 1 88.9300 23.3286 36.4465 0.0000 5.9467 0.0000
# 2 23.3286 60.2422 22.9122 0.0000 5.7818 0.0000
# 3 36.4465 22.9122 66.5731 0.0000 11.4626 0.0000
# 4 0.0000 0.0000 0.0000 32.5700 0.0000 5.9197
# 5 5.9467 5.7818 11.4626 0.0000 31.7646 0.0000
# 6 0.0000 0.0000 0.0000 5.9197 0.0000 27.6989
#
#
#
# Elastic Compliance Matrix: (Units=1/GPa)
#
#
# Indices 1 2 3 4 5 6 
#
# 1 0.014984 -0.003099 -0.007198 0.000000 0.000356 0.000000
# 2 -0.003099 0.019782 -0.004896 0.000000 -0.001254 0.000000
# 3 -0.007198 -0.004896 0.021604 0.000000 -0.005557 0.000000
# 4 0.000000 0.000000 0.000000 0.031944 0.000000 -0.006827
# 5 0.000356 -0.001254 -0.005557 0.000000 0.033648 0.000000
# 6 0.000000 0.000000 0.000000 -0.006827 0.000000 0.037562
#
#
# Mechanical properties :
#
#
# Convention : Reuss Voigt Hill
#
# Bulk Modulus (GPa) = 38.48531 42.34665 40.41598
# Shear Modulus (GPa) = 25.17998 27.27724 26.22861
#
# Velocity S-wave (km/s) = 3.55321 3.69822 3.62644
# Velocity P-wave (km/s) = 6.01085 6.28239 6.14812
#
# Compressibility (1/GPa) = 0.02598394
#
# Stress axis : x y z
#
# Youngs Moduli (GPa) = 66.73841 50.55061 46.28874
#
# Poissons Ratio (x) = 0.15666 0.33318
# Poissons Ratio (y) = 0.20682 0.22662
# Poissons Ratio (z) = 0.48038 0.24749
#
# Static dielectric constant tensor:
#      x y z
#    x 3.761340 0.000000 0.222570 
#    y 0.000000 3.603890 0.000000 
#    z 0.222570 0.000000 3.584210 
# 
# 
# High freq. dielectric constant tensor:
#      x y z
#    x 1.771900 0.000000 0.021080 
#    y 0.000000 1.765650 0.000000 
#    z 0.021080 0.000000 1.770420 
# 
# From -- ./inp_files/14303.got.cif
#   From: 2010.03.12/outbox.cif.g09.slc.cpg/sg14_8_cif.got.tgz:14303.got - 2010.03.31 13:35:05.
