data_PCOD8123919
_publ_section_title
;
Structure prediction by ZEFSAII (Michael W. Deem and Ramdas Pophale) SiO2 
 PCOD8123919
Probable space group: P 21/C
;
_chemical_formula_sum "Si O2"
_cell_formula_units_Z 24
_cell_length_a 19.019162
_cell_length_b 8.587917
_cell_length_c 24.263408
_cell_angle_alpha 90.000000
_cell_angle_beta 160.435863
_cell_angle_gamma 90.000000
_cell_volume 1327.078711
_symmetry_space_group_name_H-M "P 21/C"
_symmetry_group_IT_number 14
_symmetry_cell_setting 'monoclinic'
loop_
_space_group_symop_operation_xyz
x,y,z
-x,1/2+y,1/2-z
-x,-y,-z
x,1/2-y,1/2+z
loop_
_atom_site_type_symbol
_atom_site_label
_atom_site_fract_x
_atom_site_fract_y
_atom_site_fract_z
Si Si1 0.190118 0.611067 0.750121
Si Si2 0.725566 0.860827 0.304679
Si Si3 0.717697 0.831396 0.907332
Si Si4 0.499692 0.088585 0.682186
Si Si5 0.491463 0.608129 0.072028
Si Si6 0.193286 0.800950 0.646701
O O1 0.300829 0.462366 0.803744
O O2 0.210863 0.758064 0.724438
O O3 0.943772 0.585558 0.581502
O O4 0.303418 0.642122 0.891505
O O5 0.718792 0.797117 0.360972
O O6 0.554005 0.776208 0.140776
O O7 0.957404 0.829953 0.451813
O O8 0.670617 0.043304 0.262502
O O9 0.654065 0.730038 0.914004
O O10 0.548130 0.966180 0.767278
O O11 0.722464 0.161490 0.828864
O O12 0.407174 0.001411 0.559773
#
# Coordination Sequence:
#
# PCOD8123919 Si02
#       6
#     4   4   4   4   4   4
#     4   9  18  33  52  72  98 129 163 199 242 289
#     4   9  17  30  50  74  97 122 161 202 240 282
#     4  10  19  32  50  71  97 129 163 201 243 290
#     4  10  19  32  49  69  96 126 161 198 242 287
#     4   9  18  33  51  72  98 130 162 198 242 289
#     4   9  17  30  50  74  96 123 160 203 239 282
#
# _framework density 18.084835000000002
#
# number of rings (size 3 to 8) (size 9 to 14) (size 15 to 20)
#    0.000    2.667    0.000    2.000    0.000    4.667 
#    0.000    5.000    0.000    4.000    0.000    0.000 
#    0.000    0.000    0.000    0.000    0.000    0.000 
#
# Total GULP energy -297463.946739 kJ/mol
# GULP energy per Si atom -12394.331114 kJ/mol
# Density = 1.804367 g / cm^3
# Si number density = 18.084835 Si / 1000 Ang^3
#
#
#
# Elastic Constant Matrix: (Units=GPa)
#
#
# Indices 1 2 3 4 5 6 
#
# 1 64.2981 23.1897 34.0780 0.0000 -8.2840 0.0000
# 2 23.1897 75.4691 18.7156 0.0000 -8.1799 0.0000
# 3 34.0780 18.7156 73.1985 0.0000 -12.1509 0.0000
# 4 0.0000 0.0000 0.0000 20.1560 0.0000 4.3503
# 5 -8.2840 -8.1799 -12.1509 0.0000 27.3031 0.0000
# 6 0.0000 0.0000 0.0000 4.3503 0.0000 27.2400
#
#
#
# Elastic Compliance Matrix: (Units=1/GPa)
#
#
# Indices 1 2 3 4 5 6 
#
# 1 0.022043 -0.004414 -0.008900 0.000000 0.001405 0.000000
# 2 -0.004414 0.015238 -0.001410 0.000000 0.002599 0.000000
# 3 -0.008900 -0.001410 0.019055 0.000000 0.005357 0.000000
# 4 0.000000 0.000000 0.000000 0.051384 0.000000 -0.008206
# 5 0.001405 0.002599 0.005357 0.000000 0.040215 0.000000
# 6 0.000000 0.000000 0.000000 -0.008206 0.000000 0.038021
#
#
# Mechanical properties :
#
#
# Convention : Reuss Voigt Hill
#
# Bulk Modulus (GPa) = 37.19200 40.54803 38.87002
# Shear Modulus (GPa) = 22.28501 24.07197 23.17849
#
# Velocity S-wave (km/s) = 3.51415 3.65233 3.58390
# Velocity P-wave (km/s) = 6.08897 6.34474 6.21817
#
# Compressibility (1/GPa) = 0.02688750
#
# Stress axis : x y z
#
# Youngs Moduli (GPa) = 45.36686 65.62552 52.47998
#
# Poissons Ratio (x) = 0.28965 0.46709
# Poissons Ratio (y) = 0.20023 0.07399
# Poissons Ratio (z) = 0.40378 0.09253
#
# Static dielectric constant tensor:
#      x y z
#    x 3.307610 0.000000 0.019380 
#    y 0.000000 3.405900 0.000000 
#    z 0.019380 0.000000 3.141500 
# 
# 
# High freq. dielectric constant tensor:
#      x y z
#    x 1.694870 0.000000 0.001830 
#    y 0.000000 1.704640 0.000000 
#    z 0.001830 0.000000 1.675300 
# 
# From -- ./inp_files/38977.got.cif
#   From: 2010.03.12/outbox.cif.g09.slc.cpg/sg14_20_cif.got.tgz:38977.got - 2010.03.31 13:35:05.
