data_PCOD8123117
_publ_section_title
;
Structure prediction by ZEFSAII (Michael W. Deem and Ramdas Pophale) SiO2 
 PCOD8123117
Probable space group: P 2/C
;
_chemical_formula_sum "Si O2"
_cell_formula_units_Z 16
_cell_length_a 9.242345
_cell_length_b 10.838785
_cell_length_c 7.776853
_cell_angle_alpha 90.000000
_cell_angle_beta 58.797809
_cell_angle_gamma 90.000000
_cell_volume 666.358143
_symmetry_space_group_name_H-M "P 2/C"
_symmetry_group_IT_number 13
_symmetry_cell_setting 'monoclinic'
loop_
_space_group_symop_operation_xyz
x,y,z
-x,y,1/2-z
-x,-y,-z
x,-y,1/2+z
loop_
_atom_site_type_symbol
_atom_site_label
_atom_site_fract_x
_atom_site_fract_y
_atom_site_fract_z
Si Si1 0.000000 0.810473 0.750000
Si Si2 0.808206 0.008896 0.188077
Si Si3 0.500000 0.843323 0.750000
Si Si4 0.380224 0.237968 0.664895
Si Si5 0.063799 0.631852 0.400216
O O1 0.831412 0.898726 0.841219
O O2 0.998304 0.730071 0.578830
O O3 0.665695 0.069820 0.154482
O O4 0.750357 0.874468 0.280476
O O5 0.000000 0.000000 0.000000
O O6 0.511605 0.753812 0.576992
O O7 0.500000 0.215051 0.750000
O O8 0.268966 0.361736 0.765096
O O9 0.000000 0.665472 0.250000
O O10 0.000000 0.500000 0.500000
#
# Coordination Sequence:
#
# PCOD8123117 Si02
#       5
#     2   4   2   4   4
#     4  12  24  46  76 116 162 200 264 330 390 476
#     4  12  24  43  78 117 162 212 251 317 406 472
#     4  12  26  44  70 116 170 198 254 318 398 490
#     4  12  27  49  75 117 165 205 256 327 399 481
#     4  12  27  51  82 110 148 211 278 329 392 468
#
# _framework density 24.011112000000001
#
# number of rings (size 3 to 8) (size 9 to 14) (size 15 to 20)
#    0.000    0.000    5.000    5.250    1.750    0.000 
#    0.000    1.250    2.750    0.000    0.000    0.000 
#    0.000    0.000    0.000    0.000    0.000    0.000 
#
# Total GULP energy -198300.087778 kJ/mol
# GULP energy per Si atom -12393.755486 kJ/mol
# Density = 2.395646 g / cm^3
# Si number density = 24.011112 Si / 1000 Ang^3
#
#
#
# Elastic Constant Matrix: (Units=GPa)
#
#
# Indices 1 2 3 4 5 6 
#
# 1 168.3522 66.2476 76.9172 0.0000 5.5303 0.0000
# 2 66.2476 127.8502 60.2224 0.0000 -0.9121 0.0000
# 3 76.9172 60.2224 163.5243 0.0000 9.6091 0.0000
# 4 0.0000 0.0000 0.0000 20.9733 0.0000 -3.9865
# 5 5.5303 -0.9121 9.6091 0.0000 52.0651 0.0000
# 6 0.0000 0.0000 0.0000 -3.9865 0.0000 32.0429
#
#
#
# Elastic Compliance Matrix: (Units=1/GPa)
#
#
# Indices 1 2 3 4 5 6 
#
# 1 0.008444 -0.003048 -0.002824 0.000000 -0.000429 0.000000
# 2 -0.003048 0.010598 -0.002527 0.000000 0.000976 0.000000
# 3 -0.002824 -0.002527 0.008451 0.000000 -0.001304 0.000000
# 4 0.000000 0.000000 0.000000 0.048835 0.000000 0.006076
# 5 -0.000429 0.000976 -0.001304 0.000000 0.019510 0.000000
# 6 0.000000 0.000000 0.000000 0.006076 0.000000 0.031964
#
#
# Mechanical properties :
#
#
# Convention : Reuss Voigt Hill
#
# Bulk Modulus (GPa) = 93.49969 96.27791 94.88880
# Shear Modulus (GPa) = 33.74644 38.10554 35.92599
#
# Velocity S-wave (km/s) = 3.75300 3.98803 3.87230
# Velocity P-wave (km/s) = 7.60294 7.83519 7.71994
#
# Compressibility (1/GPa) = 0.01069522
#
# Stress axis : x y z
#
# Youngs Moduli (GPa) = 118.43193 94.35551 118.33305
#
# Poissons Ratio (x) = 0.28761 0.33416
# Poissons Ratio (y) = 0.36100 0.29899
# Poissons Ratio (z) = 0.33444 0.23841
#
# Static dielectric constant tensor:
#      x y z
#    x 4.768420 0.000000 0.151080 
#    y 0.000000 4.334160 0.000000 
#    z 0.151080 0.000000 4.751810 
# 
# 
# High freq. dielectric constant tensor:
#      x y z
#    x 1.976240 0.000000 0.013680 
#    y 0.000000 1.923630 0.000000 
#    z 0.013680 0.000000 1.970920 
# 
# From -- ./inp_files/11547.got.cif
#   From: 2010.06.25/outbox.cif.g09.slc.cpg/sg13_6_cif.got.tgz:11547.got - 2010.06.28 04:50:58.
