data_PCOD8123612
_publ_section_title
;
Structure prediction by ZEFSAII (Michael W. Deem and Ramdas Pophale) SiO2 
 PCOD8123612
Probable space group: P 21/C
;
_chemical_formula_sum "Si O2"
_cell_formula_units_Z 32
_cell_length_a 9.627830
_cell_length_b 16.623673
_cell_length_c 12.329811
_cell_angle_alpha 90.000000
_cell_angle_beta 59.829263
_cell_angle_gamma 90.000000
_cell_volume 1706.053680
_symmetry_space_group_name_H-M "P 21/C"
_symmetry_group_IT_number 14
_symmetry_cell_setting 'monoclinic'
loop_
_space_group_symop_operation_xyz
x,y,z
-x,1/2+y,1/2-z
-x,-y,-z
x,1/2-y,1/2+z
loop_
_atom_site_type_symbol
_atom_site_label
_atom_site_fract_x
_atom_site_fract_y
_atom_site_fract_z
Si Si1 0.754741 0.433503 0.494483
Si Si2 0.241028 0.113089 0.995532
Si Si3 0.734995 0.784831 0.812410
Si Si4 0.528193 0.158566 0.234123
Si Si5 0.986482 0.702963 0.575902
Si Si6 0.611561 0.370306 0.345787
Si Si7 0.265060 0.688863 0.908797
Si Si8 0.549268 0.200869 0.461532
O O1 0.824202 0.522145 0.490150
O O2 0.622264 0.414018 0.638922
O O3 0.669998 0.436242 0.409605
O O4 0.898829 0.370019 0.435391
O O5 0.143131 0.172991 0.958600
O O6 0.426655 0.116009 0.886911
O O7 0.215299 0.143105 0.127679
O O8 0.650529 0.829233 0.743264
O O9 0.893427 0.736212 0.716849
O O10 0.621715 0.720483 0.917618
O O11 0.618507 0.240473 0.174137
O O12 0.523065 0.144333 0.366216
O O13 0.084305 0.778178 0.487367
O O14 0.718409 0.377500 0.193468
O O15 0.635986 0.284421 0.395454
O O16 0.331570 0.656693 0.999142
#
# Coordination Sequence:
#
# PCOD8123612 Si02
#       8
#     4   4   4   4   4   4   4   4
#     4  11  21  37  55  85 114 149 186 234 290 334
#     4  11  22  35  59  83 113 148 186 235 288 338
#     4  10  19  33  55  84 110 147 192 234 280 331
#     4   9  17  32  54  80 111 140 191 238 273 327
#     4  11  22  34  53  87 118 145 185 239 284 336
#     4  10  18  34  56  78 107 144 192 233 269 335
#     4   9  18  31  53  80 109 142 186 231 280 321
#     4   9  15  32  53  81 106 141 186 235 273 320
#
# _framework density 18.756737000000001
#
# number of rings (size 3 to 8) (size 9 to 14) (size 15 to 20)
#    0.000    2.000    5.000    3.750    1.750    1.000 
#    0.000    0.000    0.000    5.250    0.000    0.000 
#    0.000    0.000    0.000    0.000    0.000    0.000 
#
# Total GULP energy -396708.634895 kJ/mol
# GULP energy per Si atom -12397.144840 kJ/mol
# Density = 1.871405 g / cm^3
# Si number density = 18.756737 Si / 1000 Ang^3
#
#
#
# Elastic Constant Matrix: (Units=GPa)
#
#
# Indices 1 2 3 4 5 6 
#
# 1 79.5310 16.4129 49.9738 0.0000 3.9113 0.0000
# 2 16.4129 53.8660 44.4371 0.0000 -1.0154 0.0000
# 3 49.9738 44.4371 129.6591 0.0000 9.0235 0.0000
# 4 0.0000 0.0000 0.0000 13.7389 0.0000 -0.7914
# 5 3.9113 -1.0154 9.0235 0.0000 32.8475 0.0000
# 6 0.0000 0.0000 0.0000 -0.7914 0.0000 14.1710
#
#
#
# Elastic Compliance Matrix: (Units=1/GPa)
#
#
# Indices 1 2 3 4 5 6 
#
# 1 0.016597 0.000287 -0.006482 0.000000 -0.000187 0.000000
# 2 0.000287 0.026243 -0.009337 0.000000 0.003342 0.000000
# 3 -0.006482 -0.009337 0.013638 0.000000 -0.003263 0.000000
# 4 0.000000 0.000000 0.000000 0.073021 0.000000 0.004078
# 5 -0.000187 0.003342 -0.003263 0.000000 0.031466 0.000000
# 6 0.000000 0.000000 0.000000 0.004078 0.000000 0.070794
#
#
# Mechanical properties :
#
#
# Convention : Reuss Voigt Hill
#
# Bulk Modulus (GPa) = 39.35000 53.85599 46.60299
# Shear Modulus (GPa) = 18.43014 22.30030 20.36522
#
# Velocity S-wave (km/s) = 3.13803 3.45182 3.29865
# Velocity P-wave (km/s) = 5.84417 6.68296 6.27759
#
# Compressibility (1/GPa) = 0.02541296
#
# Stress axis : x y z
#
# Youngs Moduli (GPa) = 60.25265 38.10544 73.32388
#
# Poissons Ratio (x) = -0.01094 0.47530
# Poissons Ratio (y) = -0.01729 0.68464
# Poissons Ratio (z) = 0.39057 0.35580
#
# Static dielectric constant tensor:
#      x y z
#    x 3.563570 0.000000 0.277680 
#    y 0.000000 3.094880 0.000000 
#    z 0.277680 0.000000 3.818120 
# 
# 
# High freq. dielectric constant tensor:
#      x y z
#    x 1.734600 0.000000 0.012560 
#    y 0.000000 1.679650 0.000000 
#    z 0.012560 0.000000 1.726550 
# 
# From -- ./inp_files/26640.got.cif
#   From: 2010.03.12/outbox.cif.g09.slc.cpg/sg14_14_cif.got.tgz:26640.got - 2010.03.31 13:35:05.
