data_PCOD8123736
_publ_section_title
;
Structure prediction by ZEFSAII (Michael W. Deem and Ramdas Pophale) SiO2 
 PCOD8123736
Probable space group: P 21/C
;
_chemical_formula_sum "Si O2"
_cell_formula_units_Z 32
_cell_length_a 22.426278
_cell_length_b 17.844743
_cell_length_c 11.476027
_cell_angle_alpha 90.000000
_cell_angle_beta 22.164300
_cell_angle_gamma 90.000000
_cell_volume 1732.623570
_symmetry_space_group_name_H-M "P 21/C"
_symmetry_group_IT_number 14
_symmetry_cell_setting 'monoclinic'
loop_
_space_group_symop_operation_xyz
x,y,z
-x,1/2+y,1/2-z
-x,-y,-z
x,1/2-y,1/2+z
loop_
_atom_site_type_symbol
_atom_site_label
_atom_site_fract_x
_atom_site_fract_y
_atom_site_fract_z
Si Si1 0.545509 0.873438 0.125145
Si Si2 0.677490 0.526412 0.201889
Si Si3 0.235318 0.407432 0.194124
Si Si4 0.562471 0.772678 0.724069
Si Si5 0.502445 0.982530 0.631016
Si Si6 0.119390 0.889308 0.588529
Si Si7 0.666333 0.285224 0.155653
Si Si8 0.291444 0.850328 0.066291
O O1 0.618101 0.807986 0.074708
O O2 0.386692 0.839916 0.353597
O O3 0.501430 0.942201 0.287228
O O4 0.669010 0.900629 0.801723
O O5 0.500000 0.500000 0.500000
O O6 0.758512 0.540418 0.931125
O O7 0.773367 0.462937 0.094853
O O8 0.059397 0.407168 0.559982
O O9 0.283869 0.325031 0.061724
O O10 0.343513 0.436909 0.104489
O O11 0.491074 0.767695 0.983355
O O12 0.427656 0.810945 0.893071
O O13 0.500000 0.000000 0.500000
O O14 0.346271 0.932754 0.929952
O O15 0.187797 0.824528 0.546101
O O16 0.133593 0.860546 0.429458
O O17 0.740554 0.205379 0.983057
#
# Coordination Sequence:
#
# PCOD8123736 Si02
#       8
#     4   4   4   4   4   4   4   4
#     4  11  19  33  64  87 110 146 207 248 287 340
#     4  12  18  37  65  89 113 149 206 250 284 349
#     4  11  22  38  58  91 121 152 192 247 308 345
#     4   9  19  34  56  84 111 147 198 245 285 341
#     4  11  21  37  60  86 112 153 202 246 286 352
#     4  11  21  36  58  87 125 153 186 248 307 353
#     4  10  18  36  59  85 112 155 198 244 291 354
#     4   9  19  35  55  77 113 153 192 229 286 353
#
# _framework density 18.469101999999999
#
# number of rings (size 3 to 8) (size 9 to 14) (size 15 to 20)
#    0.000    1.500    5.000    1.875    0.000    0.000 
#    2.250    0.625    5.500    0.000    0.000    0.000 
#    0.000    0.000    0.000    0.000    0.000    0.000 
#
# Total GULP energy -396670.155167 kJ/mol
# GULP energy per Si atom -12395.942349 kJ/mol
# Density = 1.842707 g / cm^3
# Si number density = 18.469102 Si / 1000 Ang^3
#
#
#
# Elastic Constant Matrix: (Units=GPa)
#
#
# Indices 1 2 3 4 5 6 
#
# 1 85.5861 44.1532 37.6225 0.0000 23.5124 0.0000
# 2 44.1532 117.0457 47.0078 0.0000 16.2528 0.0000
# 3 37.6225 47.0078 113.9115 0.0000 14.6378 0.0000
# 4 0.0000 0.0000 0.0000 26.3141 0.0000 13.4916
# 5 23.5124 16.2528 14.6378 0.0000 26.2643 0.0000
# 6 0.0000 0.0000 0.0000 13.4916 0.0000 38.9920
#
#
#
# Elastic Compliance Matrix: (Units=1/GPa)
#
#
# Indices 1 2 3 4 5 6 
#
# 1 0.018444 -0.004110 -0.002801 0.000000 -0.012407 0.000000
# 2 -0.004110 0.011626 -0.003219 0.000000 -0.001721 0.000000
# 3 -0.002801 -0.003219 0.011261 0.000000 -0.001776 0.000000
# 4 0.000000 0.000000 0.000000 0.046198 0.000000 -0.015985
# 5 -0.012407 -0.001721 -0.001776 0.000000 0.051237 0.000000
# 6 0.000000 0.000000 0.000000 -0.015985 0.000000 0.031177
#
#
# Mechanical properties :
#
#
# Convention : Reuss Voigt Hill
#
# Bulk Modulus (GPa) = 47.46047 63.79005 55.62526
# Shear Modulus (GPa) = 25.35150 30.83140 28.09145
#
# Velocity S-wave (km/s) = 3.70894 4.09020 3.90423
# Velocity P-wave (km/s) = 6.64038 7.54454 7.10685
#
# Compressibility (1/GPa) = 0.02107017
#
# Stress axis : x y z
#
# Youngs Moduli (GPa) = 54.21700 86.01521 88.80498
#
# Poissons Ratio (x) = 0.35351 0.24878
# Poissons Ratio (y) = 0.22282 0.28587
# Poissons Ratio (z) = 0.15189 0.27689
#
# Static dielectric constant tensor:
#      x y z
#    x 9.659200 0.000000 -1.990340 
#    y 0.000000 3.867410 0.000000 
#    z -1.990340 0.000000 4.202890 
# 
# 
# High freq. dielectric constant tensor:
#      x y z
#    x 1.707360 0.000000 0.030410 
#    y 0.000000 1.733310 0.000000 
#    z 0.030410 0.000000 1.690140 
# 
# From -- ./inp_files/26117.got.cif
#   From: 2010.03.12/outbox.cif.g09.slc.cpg/sg14_14_cif.got.tgz:26117.got - 2010.03.31 13:35:05.
