data_PCOD8123363
_publ_section_title
;
Structure prediction by ZEFSAII (Michael W. Deem and Ramdas Pophale) SiO2 
 PCOD8123363
Probable space group: P 21/C
;
_chemical_formula_sum "Si O2"
_cell_formula_units_Z 32
_cell_length_a 8.993092
_cell_length_b 21.207535
_cell_length_c 11.842493
_cell_angle_alpha 90.000000
_cell_angle_beta 48.105935
_cell_angle_gamma 90.000000
_cell_volume 1681.270069
_symmetry_space_group_name_H-M "P 21/C"
_symmetry_group_IT_number 14
_symmetry_cell_setting 'monoclinic'
loop_
_space_group_symop_operation_xyz
x,y,z
-x,1/2+y,1/2-z
-x,-y,-z
x,1/2-y,1/2+z
loop_
_atom_site_type_symbol
_atom_site_label
_atom_site_fract_x
_atom_site_fract_y
_atom_site_fract_z
Si Si1 0.168117 0.165926 0.991601
Si Si2 0.706920 0.485427 0.748525
Si Si3 0.927023 0.650754 0.804013
Si Si4 0.476215 0.709302 0.840376
Si Si5 0.512322 0.594156 0.963370
Si Si6 0.786727 0.786977 0.794268
Si Si7 0.944920 0.209478 0.543608
Si Si8 0.059923 0.928538 0.044092
O O1 0.367608 0.174970 0.819575
O O2 0.028245 0.225778 0.048048
O O3 0.058302 0.103742 0.001932
O O4 0.225440 0.163653 0.095975
O O5 0.547760 0.542555 0.844504
O O6 0.930873 0.512252 0.655481
O O7 0.724755 0.453107 0.613861
O O8 0.649057 0.431270 0.866368
O O9 0.725783 0.608617 0.914744
O O10 0.871941 0.719010 0.785369
O O11 0.084311 0.620285 0.635204
O O12 0.033886 0.655535 0.871128
O O13 0.415481 0.658016 0.965611
O O14 0.567501 0.772883 0.850891
O O15 0.282964 0.726203 0.867047
O O16 0.934295 0.816213 0.625907
#
# Coordination Sequence:
#
# PCOD8123363 Si02
#       8
#     4   4   4   4   4   4   4   4
#     4  10  19  36  50  78 114 133 172 228 260 314
#     4   9  18  30  58  82  97 138 183 228 264 311
#     4   9  17  35  51  74 116 134 168 223 258 313
#     4  10  19  35  52  78 108 142 174 216 264 320
#     4   9  17  35  54  82 104 131 182 227 263 312
#     4   9  19  34  50  76 109 140 175 213 254 320
#     4  10  20  33  54  77 107 150 172 201 273 327
#     4  10  17  34  55  82 104 137 177 228 269 306
#
# _framework density 19.033228999999999
#
# number of rings (size 3 to 8) (size 9 to 14) (size 15 to 20)
#    0.000    2.500    5.000    0.000    1.750    2.000 
#    6.750    0.000    0.000    7.500    0.000    0.000 
#    0.000    0.000    0.000    0.000    0.000    0.000 
#
# Total GULP energy -396477.280786 kJ/mol
# GULP energy per Si atom -12389.915025 kJ/mol
# Density = 1.898991 g / cm^3
# Si number density = 19.033229 Si / 1000 Ang^3
#
#
#
# Elastic Constant Matrix: (Units=GPa)
#
#
# Indices 1 2 3 4 5 6 
#
# 1 88.9305 13.6939 29.3551 0.0000 8.7115 0.0000
# 2 13.6939 40.2570 27.7988 0.0000 2.0272 0.0000
# 3 29.3551 27.7988 103.7814 0.0000 10.4121 0.0000
# 4 0.0000 0.0000 0.0000 38.1721 0.0000 9.1565
# 5 8.7115 2.0272 10.4121 0.0000 23.8542 0.0000
# 6 0.0000 0.0000 0.0000 9.1565 0.0000 9.8016
#
#
#
# Elastic Compliance Matrix: (Units=1/GPa)
#
#
# Indices 1 2 3 4 5 6 
#
# 1 0.012810 -0.002354 -0.002660 0.000000 -0.003317 0.000000
# 2 -0.002354 0.030934 -0.007784 0.000000 0.001628 0.000000
# 3 -0.002660 -0.007784 0.012873 0.000000 -0.003986 0.000000
# 4 0.000000 0.000000 0.000000 0.033763 0.000000 -0.031541
# 5 -0.003317 0.001628 -0.003986 0.000000 0.044734 0.000000
# 6 0.000000 0.000000 0.000000 -0.031541 0.000000 0.131488
#
#
# Mechanical properties :
#
#
# Convention : Reuss Voigt Hill
#
# Bulk Modulus (GPa) = 32.23489 41.62938 36.93213
# Shear Modulus (GPa) = 16.52687 25.17366 20.85027
#
# Velocity S-wave (km/s) = 2.94992 3.64072 3.31337
# Velocity P-wave (km/s) = 5.34561 6.29226 5.83816
#
# Compressibility (1/GPa) = 0.03102229
#
# Stress axis : x y z
#
# Youngs Moduli (GPa) = 78.06290 32.32717 77.68276
#
# Poissons Ratio (x) = 0.07608 0.20665
# Poissons Ratio (y) = 0.18372 0.60464
# Poissons Ratio (z) = 0.20766 0.25162
#
# Static dielectric constant tensor:
#      x y z
#    x 3.405270 0.000000 0.263480 
#    y 0.000000 3.487070 0.000000 
#    z 0.263480 0.000000 3.804600 
# 
# 
# High freq. dielectric constant tensor:
#      x y z
#    x 1.692260 0.000000 0.007520 
#    y 0.000000 1.726050 0.000000 
#    z 0.007520 0.000000 1.757200 
# 
# From -- ./inp_files/26961.got.cif
#   From: 2010.03.12/outbox.cif.g09.slc.cpg/sg14_14_cif.got.tgz:26961.got - 2010.03.31 13:35:05.
