data_PCOD8123750
_publ_section_title
;
Structure prediction by ZEFSAII (Michael W. Deem and Ramdas Pophale) SiO2 
 PCOD8123750
Probable space group: P 21/C
;
_chemical_formula_sum "Si O2"
_cell_formula_units_Z 32
_cell_length_a 14.832255
_cell_length_b 21.481858
_cell_length_c 8.658055
_cell_angle_alpha 90.000000
_cell_angle_beta 146.114658
_cell_angle_gamma 90.000000
_cell_volume 1538.047497
_symmetry_space_group_name_H-M "P 21/C"
_symmetry_group_IT_number 14
_symmetry_cell_setting 'monoclinic'
loop_
_space_group_symop_operation_xyz
x,y,z
-x,1/2+y,1/2-z
-x,-y,-z
x,1/2-y,1/2+z
loop_
_atom_site_type_symbol
_atom_site_label
_atom_site_fract_x
_atom_site_fract_y
_atom_site_fract_z
Si Si1 0.580084 0.332486 0.365213
Si Si2 0.060663 0.879132 0.262490
Si Si3 0.857984 0.073384 0.285839
Si Si4 0.730558 0.014615 0.555798
Si Si5 0.350718 0.706790 0.189924
Si Si6 0.550957 0.891526 0.814225
Si Si7 0.184477 0.052846 0.629730
Si Si8 0.701818 0.603761 0.196985
O O1 0.705839 0.387753 0.512601
O O2 0.632181 0.279627 0.317779
O O3 0.588321 0.308410 0.551575
O O4 0.400658 0.359546 0.079180
O O5 0.069364 0.904210 0.448356
O O6 0.128059 0.933166 0.242651
O O7 0.165694 0.815895 0.401240
O O8 0.876409 0.862887 0.957649
O O9 0.999270 0.077268 0.357695
O O10 0.801582 0.002398 0.224243
O O11 0.559798 0.049281 0.300470
O O12 0.750364 0.967473 0.442308
O O13 0.732239 0.969799 0.707288
O O14 0.459865 0.672439 0.218692
O O15 0.599224 0.891148 0.705651
O O16 0.704862 0.892284 0.146126
#
# Coordination Sequence:
#
# PCOD8123750 Si02
#       8
#     4   4   4   4   4   4   4   4
#     4  11  23  43  65  88 119 159 211 254 311 360
#     4   9  20  41  61  88 125 163 203 250 307 362
#     4   9  19  37  63  88 122 163 202 250 301 374
#     4  10  21  35  58  95 132 162 193 256 306 363
#     4  10  23  45  64  84 118 161 203 257 308 363
#     4  11  21  37  63  89 126 164 206 247 305 357
#     4  10  18  36  61  92 123 163 206 242 307 369
#     4  12  22  38  60  95 125 160 206 253 299 368
#
# _framework density 20.805599999999998
#
# number of rings (size 3 to 8) (size 9 to 14) (size 15 to 20)
#    0.000    1.750    1.250    4.125    0.000    0.000 
#    9.000    1.250    0.000    0.000    0.000    0.000 
#    0.000    0.000    0.000    0.000    0.000    0.000 
#
# Total GULP energy -396840.967678 kJ/mol
# GULP energy per Si atom -12401.280240 kJ/mol
# Density = 2.075825 g / cm^3
# Si number density = 20.805600 Si / 1000 Ang^3
#
#
#
# Elastic Constant Matrix: (Units=GPa)
#
#
# Indices 1 2 3 4 5 6 
#
# 1 103.1676 18.4152 35.5172 0.0000 12.2864 0.0000
# 2 18.4152 68.2553 38.5010 0.0000 12.4191 0.0000
# 3 35.5172 38.5010 133.4769 0.0000 20.7464 0.0000
# 4 0.0000 0.0000 0.0000 18.9167 0.0000 -5.3232
# 5 12.2864 12.4191 20.7464 0.0000 28.0076 0.0000
# 6 0.0000 0.0000 0.0000 -5.3232 0.0000 29.9059
#
#
#
# Elastic Compliance Matrix: (Units=1/GPa)
#
#
# Indices 1 2 3 4 5 6 
#
# 1 0.010974 -0.001269 -0.002140 0.000000 -0.002666 0.000000
# 2 -0.001269 0.018171 -0.004224 0.000000 -0.004372 0.000000
# 3 -0.002140 -0.004224 0.009993 0.000000 -0.004591 0.000000
# 4 0.000000 0.000000 0.000000 0.055651 0.000000 0.009906
# 5 -0.002666 -0.004372 -0.004591 0.000000 0.042213 0.000000
# 6 0.000000 0.000000 0.000000 0.009906 0.000000 0.035201
#
#
# Mechanical properties :
#
#
# Convention : Reuss Voigt Hill
#
# Bulk Modulus (GPa) = 41.88813 54.41853 48.15333
# Shear Modulus (GPa) = 25.58502 29.53047 27.55775
#
# Velocity S-wave (km/s) = 3.51054 3.77152 3.64336
# Velocity P-wave (km/s) = 6.05051 6.72148 6.39480
#
# Compressibility (1/GPa) = 0.02387311
#
# Stress axis : x y z
#
# Youngs Moduli (GPa) = 91.12816 55.03128 100.06677
#
# Poissons Ratio (x) = 0.06981 0.21410
# Poissons Ratio (y) = 0.11560 0.42273
# Poissons Ratio (z) = 0.19498 0.23248
#
# Static dielectric constant tensor:
#      x y z
#    x 3.835100 0.000000 0.186760 
#    y 0.000000 3.627860 0.000000 
#    z 0.186760 0.000000 3.651030 
# 
# 
# High freq. dielectric constant tensor:
#      x y z
#    x 1.823700 0.000000 0.011400 
#    y 0.000000 1.794260 0.000000 
#    z 0.011400 0.000000 1.811500 
# 
# From -- ./inp_files/10811.got.cif
#   From: 2010.03.12/outbox.cif.g09.slc.cpg/sg14_6_cif.got.tgz:10811.got - 2010.03.31 13:35:05.
