data_PCOD8123924
_publ_section_title
;
Structure prediction by ZEFSAII (Michael W. Deem and Ramdas Pophale) SiO2 
 PCOD8123924
Probable space group: P 21/C
;
_chemical_formula_sum "Si O2"
_cell_formula_units_Z 32
_cell_length_a 13.580472
_cell_length_b 20.292241
_cell_length_c 8.461494
_cell_angle_alpha 90.000000
_cell_angle_beta 51.460333
_cell_angle_gamma 90.000000
_cell_volume 1823.882947
_symmetry_space_group_name_H-M "P 21/C"
_symmetry_group_IT_number 14
_symmetry_cell_setting 'monoclinic'
loop_
_space_group_symop_operation_xyz
x,y,z
-x,1/2+y,1/2-z
-x,-y,-z
x,1/2-y,1/2+z
loop_
_atom_site_type_symbol
_atom_site_label
_atom_site_fract_x
_atom_site_fract_y
_atom_site_fract_z
Si Si1 0.355684 0.423136 0.659299
Si Si2 0.136984 0.344206 0.024518
Si Si3 0.355682 0.576864 0.629338
Si Si4 0.778474 0.726394 0.763170
Si Si5 0.641534 0.176499 0.606958
Si Si6 0.641534 0.676499 0.609972
Si Si7 0.778474 0.273605 0.679878
Si Si8 0.136983 0.844206 0.201519
O O1 0.254382 0.393826 0.883863
O O2 0.330753 0.500000 0.669249
O O3 0.500001 0.408538 0.571825
O O4 0.332425 0.390919 0.511034
O O5 0.140109 0.284260 0.897080
O O6 0.138788 0.316974 0.201213
O O7 0.000001 0.379066 0.138616
O O8 0.332423 0.609080 0.824122
O O9 0.254380 0.606173 0.607379
O O10 0.728084 0.677613 0.678112
O O11 0.665129 0.760310 0.974304
O O12 0.500000 0.180280 0.688057
O O13 0.665128 0.239687 0.695441
O O14 0.728086 0.177614 0.365716
O O15 0.861208 0.316973 0.478786
O O16 0.859894 0.215739 0.677289
#
# Coordination Sequence:
#
# PCOD8123924 Si02
#       8
#     4   4   4   4   4   4   4   4
#     4   9  19  35  52  71  96 128 166 204 241 283
#     4  10  19  32  51  73  99 129 159 195 240 290
#     4   9  19  35  52  71  96 128 166 204 241 283
#     4   9  18  29  46  74 101 124 155 196 244 290
#     4   9  16  28  48  72  98 126 157 197 242 289
#     4   9  16  28  48  72  98 126 157 197 242 289
#     4   9  18  29  46  74 101 124 155 196 244 290
#     4  10  19  32  51  73  99 129 159 195 240 290
#
# _framework density 17.544985
#
# number of rings (size 3 to 8) (size 9 to 14) (size 15 to 20)
#    0.000    2.750    0.000    1.500    0.000    7.500 
#    0.000    2.500    0.000    6.000    0.000    0.000 
#    0.000    0.000    0.000    0.000    0.000    0.000 
#
# Total GULP energy -396633.257088 kJ/mol
# GULP energy per Si atom -12394.789284 kJ/mol
# Density = 1.750505 g / cm^3
# Si number density = 17.544985 Si / 1000 Ang^3
#
#
#
# Elastic Constant Matrix: (Units=GPa)
#
#
# Indices 1 2 3 4 5 6 
#
# 1 86.4017 42.8403 64.6354 0.0000 -8.6854 0.0000
# 2 42.8403 85.0902 42.0653 0.0000 -7.8745 0.0000
# 3 64.6354 42.0653 84.9121 0.0000 -6.4512 0.0000
# 4 0.0000 0.0000 0.0000 16.2241 0.0000 1.0006
# 5 -8.6854 -7.8745 -6.4512 0.0000 33.1942 0.0000
# 6 0.0000 0.0000 0.0000 1.0006 0.0000 16.1267
#
#
#
# Elastic Compliance Matrix: (Units=1/GPa)
#
#
# Indices 1 2 3 4 5 6 
#
# 1 0.028487 -0.004606 -0.019203 0.000000 0.002629 0.000000
# 2 -0.004606 0.016472 -0.004516 0.000000 0.001825 0.000000
# 3 -0.019203 -0.004516 0.028591 0.000000 -0.000539 0.000000
# 4 0.000000 0.000000 0.000000 0.061873 0.000000 -0.003839
# 5 0.002629 0.001825 -0.000539 0.000000 0.031142 0.000000
# 6 0.000000 0.000000 0.000000 -0.003839 0.000000 0.062247
#
#
# Mechanical properties :
#
#
# Convention : Reuss Voigt Hill
#
# Bulk Modulus (GPa) = 59.16918 61.72067 60.44492
# Shear Modulus (GPa) = 17.17646 20.23322 18.70484
#
# Velocity S-wave (km/s) = 3.13228 3.39959 3.26867
# Velocity P-wave (km/s) = 6.84683 7.11790 6.98368
#
# Compressibility (1/GPa) = 0.01690069
#
# Stress axis : x y z
#
# Youngs Moduli (GPa) = 35.10320 60.70743 34.97657
#
# Poissons Ratio (x) = 0.27961 0.67166
# Poissons Ratio (y) = 0.16168 0.15794
# Poissons Ratio (z) = 0.67410 0.27414
#
# Static dielectric constant tensor:
#      x y z
#    x 3.263940 0.000000 0.012340 
#    y 0.000000 3.027030 0.000000 
#    z 0.012340 0.000000 3.265220 
# 
# 
# High freq. dielectric constant tensor:
#      x y z
#    x 1.679040 0.000000 -0.003950 
#    y 0.000000 1.646660 0.000000 
#    z -0.003950 0.000000 1.678660 
# 
# From -- ./inp_files/10691.got.cif
#   From: 2010.03.12/outbox.cif.g09.slc.cpg/sg14_6_cif.got.tgz:10691.got - 2010.03.31 13:35:05.
