data_PCOD8123953
_publ_section_title
;
Structure prediction by ZEFSAII (Michael W. Deem and Ramdas Pophale) SiO2 
 PCOD8123953
Probable space group: P 21/C
;
_chemical_formula_sum "Si O2"
_cell_formula_units_Z 32
_cell_length_a 11.637566
_cell_length_b 29.509473
_cell_length_c 5.090674
_cell_angle_alpha 90.000000
_cell_angle_beta 64.724721
_cell_angle_gamma 90.000000
_cell_volume 1580.867638
_symmetry_space_group_name_H-M "P 21/C"
_symmetry_group_IT_number 14
_symmetry_cell_setting 'monoclinic'
loop_
_space_group_symop_operation_xyz
x,y,z
-x,1/2+y,1/2-z
-x,-y,-z
x,1/2-y,1/2+z
loop_
_atom_site_type_symbol
_atom_site_label
_atom_site_fract_x
_atom_site_fract_y
_atom_site_fract_z
Si Si1 0.389044 0.576855 0.170417
Si Si2 0.137277 0.627261 0.377000
Si Si3 0.947500 0.078340 0.531528
Si Si4 0.302653 0.973566 0.264129
Si Si5 0.029213 0.721763 0.491542
Si Si6 0.662161 0.619838 0.840573
Si Si7 0.734980 0.720345 0.805530
Si Si8 0.234998 0.072993 0.268601
O O1 0.286579 0.616456 0.222809
O O2 0.372403 0.554272 0.469605
O O3 0.373310 0.537820 0.967113
O O4 0.523768 0.600430 0.028752
O O5 0.074342 0.618849 0.154340
O O6 0.119482 0.679549 0.465730
O O7 0.068859 0.595864 0.657538
O O8 0.846763 0.038611 0.568630
O O9 0.089136 0.059434 0.357671
O O10 0.316976 0.026980 0.200174
O O11 0.060482 0.739544 0.171311
O O12 0.882896 0.706553 0.654971
O O13 0.655132 0.674221 0.859672
O O14 0.711528 0.605308 0.508557
O O15 0.757236 0.600403 0.967284
O O16 0.698705 0.754698 0.609454
#
# Coordination Sequence:
#
# PCOD8123953 Si02
#       8
#     4   4   4   4   4   4   4   4
#     4  10  23  41  57  79 115 158 196 227 270 332
#     4  10  20  37  58  79 112 150 184 231 285 335
#     4  10  20  36  58  83 112 146 189 235 287 339
#     4  10  22  39  59  83 115 154 189 236 286 325
#     4  10  19  32  54  83 110 135 175 231 290 345
#     4  12  25  39  59  86 116 154 196 230 273 337
#     4  10  21  38  58  82 113 144 179 230 288 335
#     4  12  23  36  60  89 117 147 190 240 282 335
#
# _framework density 20.242048
#
# number of rings (size 3 to 8) (size 9 to 14) (size 15 to 20)
#    0.000    1.500    0.000    5.625    0.000    5.000 
#    0.000    6.250    0.000    0.000    0.000    0.000 
#    0.000    0.000    0.000    0.000    0.000    0.000 
#
# Total GULP energy -397005.768878 kJ/mol
# GULP energy per Si atom -12406.430277 kJ/mol
# Density = 2.019598 g / cm^3
# Si number density = 20.242048 Si / 1000 Ang^3
#
#
#
# Elastic Constant Matrix: (Units=GPa)
#
#
# Indices 1 2 3 4 5 6 
#
# 1 54.5115 15.3209 24.5376 0.0000 -2.1858 0.0000
# 2 15.3209 94.5489 4.6988 0.0000 -2.5185 0.0000
# 3 24.5376 4.6988 68.2420 0.0000 7.1959 0.0000
# 4 0.0000 0.0000 0.0000 22.9937 0.0000 1.7464
# 5 -2.1858 -2.5185 7.1959 0.0000 26.6623 0.0000
# 6 0.0000 0.0000 0.0000 1.7464 0.0000 23.5314
#
#
#
# Elastic Compliance Matrix: (Units=1/GPa)
#
#
# Indices 1 2 3 4 5 6 
#
# 1 0.023263 -0.003240 -0.008554 0.000000 0.003910 0.000000
# 2 -0.003240 0.011104 0.000327 0.000000 0.000695 0.000000
# 3 -0.008554 0.000327 0.018298 0.000000 -0.005609 0.000000
# 4 0.000000 0.000000 0.000000 0.043737 0.000000 -0.003246
# 5 0.003910 0.000695 -0.005609 0.000000 0.039406 0.000000
# 6 0.000000 0.000000 0.000000 -0.003246 0.000000 0.042737
#
#
# Mechanical properties :
#
#
# Convention : Reuss Voigt Hill
#
# Bulk Modulus (GPa) = 33.63448 34.04633 33.84041
# Shear Modulus (GPa) = 23.65315 26.15382 24.90349
#
# Velocity S-wave (km/s) = 3.42206 3.59842 3.51135
# Velocity P-wave (km/s) = 5.68034 5.84131 5.76139
#
# Compressibility (1/GPa) = 0.02973139
#
# Stress axis : x y z
#
# Youngs Moduli (GPa) = 42.98758 90.05892 54.65005
#
# Poissons Ratio (x) = 0.29182 0.46746
# Poissons Ratio (y) = 0.13929 -0.01789
# Poissons Ratio (z) = 0.36770 -0.02947
#
# Static dielectric constant tensor:
#      x y z
#    x 3.712650 0.000000 0.122120 
#    y 0.000000 3.504840 0.000000 
#    z 0.122120 0.000000 3.767280 
# 
# 
# High freq. dielectric constant tensor:
#      x y z
#    x 1.787040 0.000000 0.013560 
#    y 0.000000 1.786280 0.000000 
#    z 0.013560 0.000000 1.802610 
# 
# From -- ./inp_files/3315.got.cif
#   From: 2010.03.12/outbox.cif.g09.slc.cpg/sg14_2_cif.got.tgz:3315.got - 2010.03.31 13:35:05.
