data_PCOD8123789
_publ_section_title
;
Structure prediction by ZEFSAII (Michael W. Deem and Ramdas Pophale) SiO2 
 PCOD8123789
Probable space group: P 21/C
;
_chemical_formula_sum "Si O2"
_cell_formula_units_Z 20
_cell_length_a 6.734440
_cell_length_b 7.525411
_cell_length_c 22.222438
_cell_angle_alpha 90.000000
_cell_angle_beta 121.405194
_cell_angle_gamma 90.000000
_cell_volume 961.233180
_symmetry_space_group_name_H-M "P 21/C"
_symmetry_group_IT_number 14
_symmetry_cell_setting 'monoclinic'
loop_
_space_group_symop_operation_xyz
x,y,z
-x,1/2+y,1/2-z
-x,-y,-z
x,1/2-y,1/2+z
loop_
_atom_site_type_symbol
_atom_site_label
_atom_site_fract_x
_atom_site_fract_y
_atom_site_fract_z
Si Si1 0.957321 0.231412 0.291592
Si Si2 0.549609 0.581486 0.101500
Si Si3 0.044752 0.125988 0.175114
Si Si4 0.772325 0.174901 0.546760
Si Si5 0.240046 0.449996 0.155191
O O1 0.226749 0.201761 0.351051
O O2 0.875462 0.426245 0.300327
O O3 0.926485 0.215311 0.215232
O O4 0.786762 0.092732 0.295932
O O5 0.593763 0.416341 0.064874
O O6 0.461971 0.502050 0.150923
O O7 0.351067 0.703177 0.037390
O O8 0.852009 0.138297 0.090576
O O9 0.263446 0.252881 0.189700
O O10 0.003569 0.050340 0.577096
#
# Coordination Sequence:
#
# PCOD8123789 Si02
#       5
#     4   4   4   4   4
#     4  11  20  39  56  81 116 151 190 233 288 336
#     4  10  18  37  61  86 109 152 191 233 277 347
#     4  10  20  40  57  79 119 153 180 242 290 329
#     4   8  19  36  62  79 118 149 184 233 295 325
#     4   9  20  37  58  82 114 148 188 232 284 336
#
# _framework density 20.806605999999999
#
# number of rings (size 3 to 8) (size 9 to 14) (size 15 to 20)
#    1.200    1.200    2.000    0.600    0.000    0.800 
#   10.800    1.000    0.000    0.000    0.000    0.000 
#    0.000    0.000    0.000    0.000    0.000    0.000 
#
# Total GULP energy -247763.249461 kJ/mol
# GULP energy per Si atom -12388.162473 kJ/mol
# Density = 2.075925 g / cm^3
# Si number density = 20.806606 Si / 1000 Ang^3
#
#
#
# Elastic Constant Matrix: (Units=GPa)
#
#
# Indices 1 2 3 4 5 6 
#
# 1 57.0107 27.1029 6.2079 0.0000 -17.6783 0.0000
# 2 27.1029 117.1894 14.9047 0.0000 -12.8388 0.0000
# 3 6.2079 14.9047 53.3441 0.0000 -8.3028 0.0000
# 4 0.0000 0.0000 0.0000 26.1070 0.0000 -2.5631
# 5 -17.6783 -12.8388 -8.3028 0.0000 24.9520 0.0000
# 6 0.0000 0.0000 0.0000 -2.5631 0.0000 17.1521
#
#
#
# Elastic Compliance Matrix: (Units=1/GPa)
#
#
# Indices 1 2 3 4 5 6 
#
# 1 0.024088 -0.003988 0.000683 0.000000 0.015242 0.000000
# 2 -0.003988 0.009890 -0.002053 0.000000 0.001580 0.000000
# 3 0.000683 -0.002053 0.020197 0.000000 0.006148 0.000000
# 4 0.000000 0.000000 0.000000 0.038874 0.000000 0.005809
# 5 0.015242 0.001580 0.006148 0.000000 0.053734 0.000000
# 6 0.000000 0.000000 0.000000 0.005809 0.000000 0.059170
#
#
# Mechanical properties :
#
#
# Convention : Reuss Voigt Hill
#
# Bulk Modulus (GPa) = 23.00992 35.99724 29.50358
# Shear Modulus (GPa) = 21.63036 25.59747 23.61391
#
# Velocity S-wave (km/s) = 3.22777 3.51131 3.37252
# Velocity P-wave (km/s) = 4.99743 5.81184 5.41995
#
# Compressibility (1/GPa) = 0.04345952
#
# Stress axis : x y z
#
# Youngs Moduli (GPa) = 41.51379 101.11455 49.51143
#
# Poissons Ratio (x) = 0.40326 -0.03383
# Poissons Ratio (y) = 0.16556 0.10166
# Poissons Ratio (z) = -0.02837 0.20761
#
# Static dielectric constant tensor:
#      x y z
#    x 3.477330 0.000000 -0.011040 
#    y 0.000000 3.434430 0.000000 
#    z -0.011040 0.000000 3.894530 
# 
# 
# High freq. dielectric constant tensor:
#      x y z
#    x 1.799110 0.000000 -0.002770 
#    y 0.000000 1.786110 0.000000 
#    z -0.002770 0.000000 1.818290 
# 
# From -- ./inp_files/62957.got.cif
#   From: 2010.03.12/outbox.cif.g09.slc.cpg/sg14_32_cif.got.tgz:62957.got - 2010.03.31 13:35:05.
