data_PCOD8123061
_publ_section_title
;
Structure prediction by ZEFSAII (Michael W. Deem and Ramdas Pophale) SiO2 
 PCOD8123061
Probable space group: P 2/C
;
_chemical_formula_sum "Si O2"
_cell_formula_units_Z 28
_cell_length_a 31.905847
_cell_length_b 8.306973
_cell_length_c 31.487044
_cell_angle_alpha 90.000000
_cell_angle_beta 9.292360
_cell_angle_gamma 90.000000
_cell_volume 1347.543549
_symmetry_space_group_name_H-M "P 2/C"
_symmetry_group_IT_number 13
_symmetry_cell_setting 'monoclinic'
loop_
_space_group_symop_operation_xyz
x,y,z
-x,y,1/2-z
-x,-y,-z
x,-y,1/2+z
loop_
_atom_site_type_symbol
_atom_site_label
_atom_site_fract_x
_atom_site_fract_y
_atom_site_fract_z
Si Si1 0.999978 0.027540 0.370798
Si Si2 0.000000 0.456600 0.250000
Si Si3 0.999980 0.865418 0.036473
Si Si4 0.500033 0.548102 0.624885
Si Si5 0.500000 0.318589 0.250000
Si Si6 0.499969 0.875268 0.836024
Si Si7 0.500011 0.639084 0.965847
Si Si8 0.000039 0.624716 0.657626
O O1 0.000005 0.953623 0.417842
O O2 0.751704 0.983025 0.591239
O O3 0.999962 0.220648 0.372711
O O4 0.248222 0.983027 0.094711
O O5 0.751302 0.570753 0.498692
O O6 0.000022 0.341297 0.208399
O O7 0.750408 0.752712 0.280869
O O8 0.249528 0.752681 0.781751
O O9 0.000000 0.000000 0.000000
O O10 0.500055 0.739978 0.628150
O O11 0.500011 0.521759 0.574909
O O12 0.750651 0.480223 0.397005
O O13 0.249423 0.480238 0.898240
O O14 0.499970 0.201049 0.210181
O O15 0.500000 0.500000 0.000000
#
# Coordination Sequence:
#
# PCOD8123061 Si02
#       8
#     4   2   4   4   2   4   4   4
#     4  12  26  45  67  99 138 176 216 271 339 394
#     4  12  22  42  62 102 130 166 224 280 316 376
#     4  12  26  46  68  99 138 175 216 276 339 396
#     4  12  23  45  69  96 133 179 222 265 326 395
#     4  12  24  38  72  96 128 170 230 272 326 382
#     4  12  23  45  68  96 129 178 221 271 325 389
#     4  12  27  44  71 102 132 170 226 281 319 395
#     4  12  26  41  70  97 135 178 217 271 331 396
#
# _framework density 20.778551
#
# number of rings (size 3 to 8) (size 9 to 14) (size 15 to 20)
#    0.000    0.000    5.714    4.286    4.000    1.143 
#    0.000    0.000    0.000    0.000    0.000    0.000 
#    0.000    0.000    0.000    0.000    0.000    0.000 
#
# Total GULP energy -347236.301477 kJ/mol
# GULP energy per Si atom -12401.296481 kJ/mol
# Density = 2.073126 g / cm^3
# Si number density = 20.778551 Si / 1000 Ang^3
#
#
#
# Elastic Constant Matrix: (Units=GPa)
#
#
# Indices 1 2 3 4 5 6 
#
# 1 151.1388 30.7677 38.2637 0.0000 7.3857 0.0000
# 2 30.7677 91.2555 51.1649 0.0000 -2.6859 0.0000
# 3 38.2637 51.1649 188.2834 0.0000 -12.3072 0.0000
# 4 0.0000 0.0000 0.0000 -13.7784 0.0000 8.0258
# 5 7.3857 -2.6859 -12.3072 0.0000 31.1494 0.0000
# 6 0.0000 0.0000 0.0000 8.0258 0.0000 46.8544
#
#
#
# Elastic Compliance Matrix: (Units=1/GPa)
#
#
# Indices 1 2 3 4 5 6 
#
# 1 0.007414 -0.001932 -0.001137 0.000000 -0.002373 0.000000
# 2 -0.001932 0.013434 -0.003236 0.000000 0.000338 0.000000
# 3 -0.001137 -0.003236 0.006591 0.000000 0.002595 0.000000
# 4 0.000000 0.000000 0.000000 -0.065993 0.000000 0.011304
# 5 -0.002373 0.000338 0.002595 0.000000 0.033720 0.000000
# 6 0.000000 0.000000 0.000000 0.011304 0.000000 0.019406
#
#
# Mechanical properties :
#
#
# Convention : Reuss Voigt Hill
#
# Bulk Modulus (GPa) = 67.43452 74.56338 70.99895
# Shear Modulus (GPa) = 155.64421 33.54386 94.59403
#
# Velocity S-wave (km/s) = 8.66423 4.02226 6.75453
# Velocity P-wave (km/s) = 11.51591 7.58512 9.75065
#
# Compressibility (1/GPa) = 0.01482920
#
# Stress axis : x y z
#
# Youngs Moduli (GPa) = 134.88869 74.43867 151.72037
#
# Poissons Ratio (x) = 0.14382 0.17246
# Poissons Ratio (y) = 0.26061 0.49094
# Poissons Ratio (z) = 0.15333 0.24087
#
# Static dielectric constant tensor:
#      x y z
#    x 4.037640 0.000000 -0.012890 
#    y 0.000000 3.752520 0.000000 
#    z -0.012890 0.000000 4.134980 
# 
# 
# High freq. dielectric constant tensor:
#      x y z
#    x 1.832010 0.000000 -0.001000 
#    y 0.000000 1.814310 0.000000 
#    z -0.001000 0.000000 1.839510 
# 
# From -- ./inp_files/97997.got.cif
#   From: 2010.06.25/outbox.cif.g09.slc.cpg/sg13_49_cif.got.tgz:97997.got - 2010.06.28 04:50:58.
