data_PCOD8123923
_publ_section_title
;
Structure prediction by ZEFSAII (Michael W. Deem and Ramdas Pophale) SiO2 
 PCOD8123923
Probable space group: P 21/C
;
_chemical_formula_sum "Si O2"
_cell_formula_units_Z 32
_cell_length_a 14.980389
_cell_length_b 8.540046
_cell_length_c 20.542456
_cell_angle_alpha 90.000000
_cell_angle_beta 43.177253
_cell_angle_gamma 90.000000
_cell_volume 1798.271760
_symmetry_space_group_name_H-M "P 21/C"
_symmetry_group_IT_number 14
_symmetry_cell_setting 'monoclinic'
loop_
_space_group_symop_operation_xyz
x,y,z
-x,1/2+y,1/2-z
-x,-y,-z
x,1/2-y,1/2+z
loop_
_atom_site_type_symbol
_atom_site_label
_atom_site_fract_x
_atom_site_fract_y
_atom_site_fract_z
Si Si1 0.114798 0.854028 0.559659
Si Si2 0.366798 0.055899 0.898830
Si Si3 0.332375 0.538584 0.768560
Si Si4 0.835541 0.444101 0.398830
Si Si5 0.789530 0.335671 0.609813
Si Si6 0.234116 0.145972 0.440341
Si Si7 0.009155 0.835671 0.890187
Si Si8 0.130506 0.538584 0.768560
O O1 0.155646 0.744375 0.598735
O O2 0.120394 0.750807 0.491285
O O3 0.215621 0.000000 0.500000
O O4 0.968816 0.914305 0.647653
O O5 0.515461 0.002426 0.818717
O O6 0.353116 0.244375 0.901265
O O7 0.290638 0.977977 0.878594
O O8 0.304513 0.000000 0.000000
O O9 0.313164 0.713695 0.805454
O O10 0.264121 0.414305 0.852347
O O11 0.267627 0.519517 0.732373
O O12 0.847104 0.497574 0.318717
O O13 0.952174 0.522023 0.378594
O O14 0.884861 0.402301 0.615139
O O15 0.102964 0.249193 0.508715
O O16 0.075929 0.713695 0.805454
#
# Coordination Sequence:
#
# PCOD8123923 Si02
#       8
#     4   4   4   4   4   4   4   4
#     4   9  18  32  51  73  96 123 157 200 247 285
#     4  10  20  32  49  72  99 130 161 196 236 284
#     4  10  19  32  50  71  98 130 162 197 236 283
#     4  10  20  32  49  72  99 130 161 196 236 284
#     4   9  18  32  50  73  98 124 158 202 248 285
#     4   9  18  32  51  73  96 123 157 200 247 285
#     4   9  18  32  50  73  98 124 158 202 248 285
#     4  10  19  32  50  71  98 130 162 197 236 283
#
# _framework density 17.794862999999999
#
# number of rings (size 3 to 8) (size 9 to 14) (size 15 to 20)
#    0.000    2.500    0.000    2.250    0.000    9.000 
#    0.000    0.000    0.000    0.750    0.000    0.000 
#    0.000    0.000    0.000    0.000    0.000    0.000 
#
# Total GULP energy -396742.242049 kJ/mol
# GULP energy per Si atom -12398.195064 kJ/mol
# Density = 1.775436 g / cm^3
# Si number density = 17.794863 Si / 1000 Ang^3
#
#
#
# Elastic Constant Matrix: (Units=GPa)
#
#
# Indices 1 2 3 4 5 6 
#
# 1 103.8154 48.0218 71.0816 0.0000 0.5351 0.0000
# 2 48.0218 92.0810 32.7462 0.0000 -0.6031 0.0000
# 3 71.0816 32.7462 97.9707 0.0000 -0.7659 0.0000
# 4 0.0000 0.0000 0.0000 17.8706 0.0000 0.0453
# 5 0.5351 -0.6031 -0.7659 0.0000 23.0928 0.0000
# 6 0.0000 0.0000 0.0000 0.0453 0.0000 16.7232
#
#
#
# Elastic Compliance Matrix: (Units=1/GPa)
#
#
# Indices 1 2 3 4 5 6 
#
# 1 0.022259 -0.006661 -0.013932 0.000000 -0.001152 0.000000
# 2 -0.006661 0.014319 0.000051 0.000000 0.000530 0.000000
# 3 -0.013932 0.000051 0.020306 0.000000 0.000998 0.000000
# 4 0.000000 0.000000 0.000000 0.055958 0.000000 -0.000152
# 5 -0.001152 0.000530 0.000998 0.000000 0.043377 0.000000
# 6 0.000000 0.000000 0.000000 -0.000152 0.000000 0.059798
#
#
# Mechanical properties :
#
#
# Convention : Reuss Voigt Hill
#
# Bulk Modulus (GPa) = 63.29318 66.39623 64.84471
# Shear Modulus (GPa) = 19.05707 21.00515 20.03111
#
# Velocity S-wave (km/s) = 3.27606 3.43943 3.35874
# Velocity P-wave (km/s) = 7.06792 7.29150 7.18058
#
# Compressibility (1/GPa) = 0.01579949
#
# Stress axis : x y z
#
# Youngs Moduli (GPa) = 44.92535 69.83559 49.24576
#
# Poissons Ratio (x) = 0.46520 0.68611
# Poissons Ratio (y) = 0.29927 -0.00252
# Poissons Ratio (z) = 0.62592 -0.00357
#
# Static dielectric constant tensor:
#      x y z
#    x 3.024100 0.000000 0.010490 
#    y 0.000000 3.469530 0.000000 
#    z 0.010490 0.000000 3.289840 
# 
# 
# High freq. dielectric constant tensor:
#      x y z
#    x 1.661530 0.000000 0.001000 
#    y 0.000000 1.694970 0.000000 
#    z 0.001000 0.000000 1.686910 
# 
# From -- ./inp_files/50629.got.cif
#   From: 2010.03.12/outbox.cif.g09.slc.cpg/sg14_26_cif.got.tgz:50629.got - 2010.03.31 13:35:05.
