data_PCOD8123973
_publ_section_title
;
Structure prediction by ZEFSAII (Michael W. Deem and Ramdas Pophale) SiO2 
 PCOD8123973
Probable space group: P 21/C
;
_chemical_formula_sum "Si O2"
_cell_formula_units_Z 24
_cell_length_a 11.156542
_cell_length_b 23.769439
_cell_length_c 5.299555
_cell_angle_alpha 90.000000
_cell_angle_beta 71.618109
_cell_angle_gamma 90.000000
_cell_volume 1333.653611
_symmetry_space_group_name_H-M "P 21/C"
_symmetry_group_IT_number 14
_symmetry_cell_setting 'monoclinic'
loop_
_space_group_symop_operation_xyz
x,y,z
-x,1/2+y,1/2-z
-x,-y,-z
x,1/2-y,1/2+z
loop_
_atom_site_type_symbol
_atom_site_label
_atom_site_fract_x
_atom_site_fract_y
_atom_site_fract_z
Si Si1 0.186121 0.096003 0.402446
Si Si2 0.126714 0.034570 0.927357
Si Si3 0.541187 0.592342 0.414727
Si Si4 0.476039 0.279436 0.554753
Si Si5 0.177614 0.221438 0.283315
Si Si6 0.390805 0.499219 0.270347
O O1 0.119632 0.081831 0.713054
O O2 0.338483 0.094452 0.356806
O O3 0.139824 0.157289 0.351416
O O4 0.142845 0.055610 0.203549
O O5 0.246458 0.994196 0.772592
O O6 0.000000 0.000000 0.000000
O O7 0.488198 0.654751 0.498487
O O8 0.422385 0.552657 0.425784
O O9 0.602907 0.563635 0.618624
O O10 0.533974 0.246444 0.274603
O O11 0.327126 0.270930 0.664754
O O12 0.120693 0.257368 0.554749
O O13 0.500000 0.500000 0.000000
#
# Coordination Sequence:
#
# PCOD8123973 Si02
#       6
#     4   4   4   4   4   4
#     4  10  19  33  51  73 106 136 164 213 255 300
#     4  11  22  35  51  75 106 138 172 207 256 308
#     4   9  19  31  50  77 103 137 173 211 260 307
#     4   9  18  28  44  70 104 133 161 205 259 306
#     4   9  16  27  45  72  99 127 162 203 255 302
#     4  10  19  33  53  75 106 137 172 214 257 306
#
# _framework density 17.995676
#
# number of rings (size 3 to 8) (size 9 to 14) (size 15 to 20)
#    0.000    2.333    1.667    1.500    2.333    4.000 
#    0.000    0.000    0.000    0.000    0.000    7.000 
#    0.000    0.000    0.000    0.000    0.000    0.000 
#
# Total GULP energy -297334.968685 kJ/mol
# GULP energy per Si atom -12388.957029 kJ/mol
# Density = 1.795472 g / cm^3
# Si number density = 17.995676 Si / 1000 Ang^3
#
#
#
# Elastic Constant Matrix: (Units=GPa)
#
#
# Indices 1 2 3 4 5 6 
#
# 1 71.6376 34.0397 26.7722 0.0000 -4.8088 0.0000
# 2 34.0397 125.7627 36.4352 0.0000 0.6269 0.0000
# 3 26.7722 36.4352 85.0700 0.0000 13.9094 0.0000
# 4 0.0000 0.0000 0.0000 30.4473 0.0000 0.3385
# 5 -4.8088 0.6269 13.9094 0.0000 27.1498 0.0000
# 6 0.0000 0.0000 0.0000 0.3385 0.0000 11.1079
#
#
#
# Elastic Compliance Matrix: (Units=1/GPa)
#
#
# Indices 1 2 3 4 5 6 
#
# 1 0.017881 -0.003380 -0.005141 0.000000 0.005879 0.000000
# 2 -0.003380 0.009812 -0.003278 0.000000 0.000854 0.000000
# 3 -0.005141 -0.003278 0.016277 0.000000 -0.009174 0.000000
# 4 0.000000 0.000000 0.000000 0.032855 0.000000 -0.001001
# 5 0.005879 0.000854 -0.009174 0.000000 0.042554 0.000000
# 6 0.000000 0.000000 0.000000 -0.001001 0.000000 0.090057
#
#
# Mechanical properties :
#
#
# Convention : Reuss Voigt Hill
#
# Bulk Modulus (GPa) = 49.08805 52.99607 51.04206
# Shear Modulus (GPa) = 20.84858 26.08920 23.46889
#
# Velocity S-wave (km/s) = 3.40742 3.81169 3.61521
# Velocity P-wave (km/s) = 6.54351 6.99180 6.77136
#
# Compressibility (1/GPa) = 0.02037156
#
# Stress axis : x y z
#
# Youngs Moduli (GPa) = 55.92540 101.91816 61.43596
#
# Poissons Ratio (x) = 0.34445 0.31585
# Poissons Ratio (y) = 0.18901 0.20142
# Poissons Ratio (z) = 0.28752 0.33414
#
# Static dielectric constant tensor:
#      x y z
#    x 2.791960 0.000000 3.805330 
#    y 0.000000 5.568900 0.000000 
#    z 3.805330 0.000000 -2.493980 
# 
# 
# High freq. dielectric constant tensor:
#      x y z
#    x 1.645080 0.000000 0.028760 
#    y 0.000000 1.696960 0.000000 
#    z 0.028760 0.000000 1.698410 
# 
# From -- ./inp_files/1637.got.cif
#   From: 2010.03.12/outbox.cif.g09.slc.cpg/sg14_1_cif.got.tgz:1637.got - 2010.03.31 13:35:05.
