data_PCOD8123528
_publ_section_title
;
Structure prediction by ZEFSAII (Michael W. Deem and Ramdas Pophale) SiO2 
 PCOD8123528
Probable space group: P 21/C
;
_chemical_formula_sum "Si O2"
_cell_formula_units_Z 24
_cell_length_a 7.342855
_cell_length_b 13.644132
_cell_length_c 9.631361
_cell_angle_alpha 90.000000
_cell_angle_beta 78.097963
_cell_angle_gamma 90.000000
_cell_volume 944.191507
_symmetry_space_group_name_H-M "P 21/C"
_symmetry_group_IT_number 14
_symmetry_cell_setting 'monoclinic'
loop_
_space_group_symop_operation_xyz
x,y,z
-x,1/2+y,1/2-z
-x,-y,-z
x,1/2-y,1/2+z
loop_
_atom_site_type_symbol
_atom_site_label
_atom_site_fract_x
_atom_site_fract_y
_atom_site_fract_z
Si Si1 0.421752 0.846126 0.496481
Si Si2 0.050553 0.316147 0.881323
Si Si3 0.778294 0.539781 0.633104
Si Si4 0.072459 0.653140 0.410655
Si Si5 0.549187 0.711797 0.694671
Si Si6 0.205167 0.032333 0.555254
O O1 0.403704 0.764304 0.617947
O O2 0.443979 0.780662 0.356389
O O3 0.598781 0.914035 0.496796
O O4 0.236651 0.914411 0.528785
O O5 0.973195 0.320989 0.739797
O O6 0.248352 0.261869 0.841844
O O7 0.907365 0.250766 0.998690
O O8 0.071958 0.423462 0.953812
O O9 0.904832 0.586762 0.494932
O O10 0.578918 0.595402 0.657307
O O11 0.865315 0.554114 0.776485
O O12 0.750669 0.422223 0.612399
#
# Coordination Sequence:
#
# PCOD8123528 Si02
#       6
#     4   4   4   4   4   4
#     4   9  17  31  54  79 104 141 180 226 277 324
#     4  10  18  32  54  79 108 145 181 224 273 322
#     4   9  18  33  52  79 109 141 184 227 267 324
#     4  10  19  32  54  79 108 145 184 224 272 323
#     4   9  16  31  54  76 104 138 179 224 274 323
#     4   9  18  33  52  77 109 141 182 225 271 325
#
# _framework density 25.418575000000001
#
# number of rings (size 3 to 8) (size 9 to 14) (size 15 to 20)
#    0.000    2.667    0.000    5.000    0.000    0.667 
#    0.000    3.333    0.000   11.000    0.000    0.000 
#    0.000    0.000    0.000    0.000    0.000    0.000 
#
# Total GULP energy -297475.003709 kJ/mol
# GULP energy per Si atom -12394.791821 kJ/mol
# Density = 2.536072 g / cm^3
# Si number density = 25.418575 Si / 1000 Ang^3
#
#
#
# Elastic Constant Matrix: (Units=GPa)
#
#
# Indices 1 2 3 4 5 6 
#
# 1 70.7213 36.4914 41.7097 0.0000 4.4720 0.0000
# 2 36.4914 204.4584 105.1077 0.0000 23.6448 0.0000
# 3 41.7097 105.1077 173.3042 0.0000 33.3785 0.0000
# 4 0.0000 0.0000 0.0000 46.3495 0.0000 -0.0027
# 5 4.4720 23.6448 33.3785 0.0000 17.8269 0.0000
# 6 0.0000 0.0000 0.0000 -0.0027 0.0000 25.7023
#
#
#
# Elastic Compliance Matrix: (Units=1/GPa)
#
#
# Indices 1 2 3 4 5 6 
#
# 1 0.017096 -0.001500 -0.004320 0.000000 0.005789 0.000000
# 2 -0.001500 0.007290 -0.003551 0.000000 -0.002644 0.000000
# 3 -0.004320 -0.003551 0.012274 0.000000 -0.017188 0.000000
# 4 0.000000 0.000000 0.000000 0.021575 0.000000 0.000002
# 5 0.005789 -0.002644 -0.017188 0.000000 0.090331 0.000000
# 6 0.000000 0.000000 0.000000 0.000002 0.000000 0.038907
#
#
# Mechanical properties :
#
#
# Convention : Reuss Voigt Hill
#
# Bulk Modulus (GPa) = 55.81019 90.56684 73.18851
# Shear Modulus (GPa) = 23.56413 35.65408 29.60910
#
# Velocity S-wave (km/s) = 3.04804 3.74930 3.41671
# Velocity P-wave (km/s) = 5.86443 7.37906 6.66491
#
# Compressibility (1/GPa) = 0.01791788
#
# Stress axis : x y z
#
# Youngs Moduli (GPa) = 58.49464 137.17435 81.47372
#
# Poissons Ratio (x) = 0.20576 0.35194
# Poissons Ratio (y) = 0.08774 0.28932
# Poissons Ratio (z) = 0.25268 0.48712
#
# Static dielectric constant tensor:
#      x y z
#    x 4.301610 0.000000 -0.229330 
#    y 0.000000 5.553330 0.000000 
#    z -0.229330 0.000000 4.697800 
# 
# 
# High freq. dielectric constant tensor:
#      x y z
#    x 1.997060 0.000000 -0.021900 
#    y 0.000000 2.045340 0.000000 
#    z -0.021900 0.000000 2.025860 
# 
# From -- ./inp_files/8412.got.cif
#   From: 2010.03.12/outbox.cif.g09.slc.cpg/sg14_5_cif.got.tgz:8412.got - 2010.03.31 13:35:05.
