data_PCOD8123284
_publ_section_title
;
Structure prediction by ZEFSAII (Michael W. Deem and Ramdas Pophale) SiO2 
 PCOD8123284
Probable space group: P 21/C
;
_chemical_formula_sum "Si O2"
_cell_formula_units_Z 32
_cell_length_a 18.359682
_cell_length_b 17.448698
_cell_length_c 12.239013
_cell_angle_alpha 90.000000
_cell_angle_beta 154.003433
_cell_angle_gamma 90.000000
_cell_volume 1718.553996
_symmetry_space_group_name_H-M "P 21/C"
_symmetry_group_IT_number 14
_symmetry_cell_setting 'monoclinic'
loop_
_space_group_symop_operation_xyz
x,y,z
-x,1/2+y,1/2-z
-x,-y,-z
x,1/2-y,1/2+z
loop_
_atom_site_type_symbol
_atom_site_label
_atom_site_fract_x
_atom_site_fract_y
_atom_site_fract_z
Si Si1 0.975696 0.395097 0.865178
Si Si2 0.820831 0.034970 0.440627
Si Si3 0.998882 0.162777 0.162347
Si Si4 0.709517 0.446008 0.220379
Si Si5 0.056878 0.161389 0.705541
Si Si6 0.269812 0.046819 0.463322
Si Si7 0.364416 0.549197 0.517937
Si Si8 0.342407 0.065697 0.168921
O O1 0.778518 0.396033 0.625163
O O2 0.013426 0.341054 0.813062
O O3 0.037643 0.480728 0.921585
O O4 0.074627 0.363335 0.102957
O O5 0.662307 0.036408 0.146910
O O6 0.904170 0.118541 0.559346
O O7 0.759345 0.010556 0.475654
O O8 0.016908 0.249714 0.152389
O O9 0.143358 0.116691 0.295861
O O10 0.824852 0.128366 0.885791
O O11 0.740514 0.499309 0.368117
O O12 0.758280 0.497625 0.182982
O O13 0.521422 0.413357 0.961894
O O14 0.225523 0.140575 0.000261
O O15 0.453100 0.084981 0.716179
O O16 0.365334 0.466848 0.578188
#
# Coordination Sequence:
#
# PCOD8123284 Si02
#       8
#     4   4   4   4   4   4   4   4
#     4  10  19  37  63  79 110 153 200 234 272 353
#     4  10  18  35  60  84 109 146 196 239 276 336
#     4  11  23  38  54  88 121 149 188 235 305 343
#     4  10  21  37  61  82 117 152 198 236 277 348
#     4  11  21  36  60  83 116 152 191 236 295 345
#     4  10  22  34  58  86 116 148 189 244 282 333
#     4  10  16  34  62  84 105 140 197 240 273 320
#     4  10  18  36  63  85 103 152 204 232 269 344
#
# _framework density 18.620305999999999
#
# number of rings (size 3 to 8) (size 9 to 14) (size 15 to 20)
#    0.000    1.750    3.750    2.250    0.000    2.000 
#    4.500    0.000    0.000    0.000    0.000    0.000 
#    0.000    0.000    0.000    0.000    0.000    0.000 
#
# Total GULP energy -396789.238332 kJ/mol
# GULP energy per Si atom -12399.663698 kJ/mol
# Density = 1.857793 g / cm^3
# Si number density = 18.620306 Si / 1000 Ang^3
#
#
#
# Elastic Constant Matrix: (Units=GPa)
#
#
# Indices 1 2 3 4 5 6 
#
# 1 70.9150 33.9386 33.6162 0.0000 0.9234 0.0000
# 2 33.9386 109.2922 56.0652 0.0000 1.8341 0.0000
# 3 33.6162 56.0652 121.8786 0.0000 4.9183 0.0000
# 4 0.0000 0.0000 0.0000 18.0251 0.0000 -0.1753
# 5 0.9234 1.8341 4.9183 0.0000 27.4410 0.0000
# 6 0.0000 0.0000 0.0000 -0.1753 0.0000 12.6238
#
#
#
# Elastic Compliance Matrix: (Units=1/GPa)
#
#
# Indices 1 2 3 4 5 6 
#
# 1 0.017376 -0.003843 -0.003033 0.000000 0.000216 0.000000
# 2 -0.003843 0.012827 -0.004846 0.000000 0.000141 0.000000
# 3 -0.003033 -0.004846 0.011336 0.000000 -0.001606 0.000000
# 4 0.000000 0.000000 0.000000 0.055486 0.000000 0.000771
# 5 0.000216 0.000141 -0.001606 0.000000 0.036713 0.000000
# 6 0.000000 0.000000 0.000000 0.000771 0.000000 0.079226
#
#
# Mechanical properties :
#
#
# Convention : Reuss Voigt Hill
#
# Bulk Modulus (GPa) = 55.27050 61.03619 58.15335
# Shear Modulus (GPa) = 20.62374 23.51571 22.06973
#
# Velocity S-wave (km/s) = 3.33166 3.55760 3.44648
# Velocity P-wave (km/s) = 6.67438 7.05166 6.86561
#
# Compressibility (1/GPa) = 0.01809283
#
# Stress axis : x y z
#
# Youngs Moduli (GPa) = 57.55134 77.96146 88.21795
#
# Poissons Ratio (x) = 0.29963 0.26759
# Poissons Ratio (y) = 0.22119 0.42751
# Poissons Ratio (z) = 0.17457 0.37781
#
# Static dielectric constant tensor:
#      x y z
#    x 3.561180 0.000000 -0.065050 
#    y 0.000000 2.998000 0.000000 
#    z -0.065050 0.000000 3.670030 
# 
# 
# High freq. dielectric constant tensor:
#      x y z
#    x 1.730700 0.000000 -0.006620 
#    y 0.000000 1.678920 0.000000 
#    z -0.006620 0.000000 1.740880 
# 
# From -- ./inp_files/34368.got.cif
#   From: 2010.03.12/outbox.cif.g09.slc.cpg/sg14_18_cif.got.tgz:34368.got - 2010.03.31 13:35:05.
