data_PCOD8123258
_publ_section_title
;
Structure prediction by ZEFSAII (Michael W. Deem and Ramdas Pophale) SiO2 
 PCOD8123258
Probable space group: P 21/C
;
_chemical_formula_sum "Si O2"
_cell_formula_units_Z 32
_cell_length_a 18.198729
_cell_length_b 4.951853
_cell_length_c 23.088863
_cell_angle_alpha 90.000000
_cell_angle_beta 117.692793
_cell_angle_gamma 90.000000
_cell_volume 1842.368143
_symmetry_space_group_name_H-M "P 21/C"
_symmetry_group_IT_number 14
_symmetry_cell_setting 'monoclinic'
loop_
_space_group_symop_operation_xyz
x,y,z
-x,1/2+y,1/2-z
-x,-y,-z
x,1/2-y,1/2+z
loop_
_atom_site_type_symbol
_atom_site_label
_atom_site_fract_x
_atom_site_fract_y
_atom_site_fract_z
Si Si1 0.169055 0.134683 0.866424
Si Si2 0.817584 0.364930 0.208825
Si Si3 0.993763 0.245545 0.785010
Si Si4 0.490351 0.020405 0.284196
Si Si5 0.327337 0.311585 0.492826
Si Si6 0.409763 0.707775 0.069415
Si Si7 0.358505 0.693078 0.820755
Si Si8 0.415129 0.299252 0.407832
O O1 0.189375 0.336837 0.820741
O O2 0.073912 0.178537 0.854551
O O3 0.229409 0.176838 0.943261
O O4 0.182082 0.836322 0.845949
O O5 0.741153 0.303447 0.224205
O O6 0.902912 0.328819 0.277783
O O7 0.995463 0.560825 0.768965
O O8 0.531655 0.774110 0.264350
O O9 0.404332 0.914760 0.280245
O O10 0.556576 0.117811 0.355996
O O11 0.353963 0.521449 0.553068
O O12 0.378791 0.401262 0.454841
O O13 0.349739 0.014420 0.520814
O O14 0.485863 0.764700 0.053472
O O15 0.376162 0.492827 0.880530
O O16 0.392633 0.989529 0.848583
#
# Coordination Sequence:
#
# PCOD8123258 Si02
#       8
#     4   4   4   4   4   4   4   4
#     4  10  18  28  44  66 100 135 152 180 225 260
#     4  10  16  30  44  68  96 125 164 188 214 273
#     4   8  16  26  42  62  92 131 160 181 212 261
#     4  11  23  40  53  64  89 119 160 213 253 275
#     4  12  19  31  47  70 103 126 158 185 220 287
#     4  11  23  33  48  69  88 127 163 196 235 280
#     4  11  19  32  52  72  90 127 163 194 237 279
#     4  11  20  32  45  69 103 126 156 188 229 271
#
# _framework density 17.368949000000001
#
# number of rings (size 3 to 8) (size 9 to 14) (size 15 to 20)
#    0.000    1.500    2.500    6.000    0.000    0.000 
#    0.000    0.000    0.000    0.000    0.000    0.000 
#    0.000    6.000    0.000    0.000    0.000    0.625 
#
# Total GULP energy -396664.890074 kJ/mol
# GULP energy per Si atom -12395.777815 kJ/mol
# Density = 1.732942 g / cm^3
# Si number density = 17.368949 Si / 1000 Ang^3
#
#
#
# Elastic Constant Matrix: (Units=GPa)
#
#
# Indices 1 2 3 4 5 6 
#
# 1 72.6484 11.0086 45.6094 0.0000 31.4182 0.0000
# 2 11.0086 76.1374 10.9040 0.0000 6.5679 0.0000
# 3 45.6094 10.9040 58.2807 0.0000 20.2073 0.0000
# 4 0.0000 0.0000 0.0000 29.1774 0.0000 4.4848
# 5 31.4182 6.5679 20.2073 0.0000 35.8530 0.0000
# 6 0.0000 0.0000 0.0000 4.4848 0.0000 17.7880
#
#
#
# Elastic Compliance Matrix: (Units=1/GPa)
#
#
# Indices 1 2 3 4 5 6 
#
# 1 0.035086 -0.000460 -0.020806 0.000000 -0.018935 0.000000
# 2 -0.000460 0.013551 -0.001808 0.000000 -0.001061 0.000000
# 3 -0.020806 -0.001808 0.033984 0.000000 -0.000590 0.000000
# 4 0.000000 0.000000 0.000000 0.035655 0.000000 -0.008990
# 5 -0.018935 -0.001061 -0.000590 0.000000 0.045011 0.000000
# 6 0.000000 0.000000 0.000000 -0.008990 0.000000 0.058484
#
#
# Mechanical properties :
#
#
# Convention : Reuss Voigt Hill
#
# Bulk Modulus (GPa) = 27.41767 38.01225 32.71496
# Shear Modulus (GPa) = 17.85234 25.86666 21.85950
#
# Velocity S-wave (km/s) = 3.20946 3.86326 3.55144
# Velocity P-wave (km/s) = 5.43635 6.46780 5.97437
#
# Compressibility (1/GPa) = 0.03647283
#
# Stress axis : x y z
#
# Youngs Moduli (GPa) = 28.50170 73.79516 29.42598
#
# Poissons Ratio (x) = 0.03393 0.61224
# Poissons Ratio (y) = 0.01311 0.05319
# Poissons Ratio (z) = 0.59301 0.13340
#
# Static dielectric constant tensor:
#      x y z
#    x 3.309510 0.000000 0.430310 
#    y 0.000000 3.460880 0.000000 
#    z 0.430310 0.000000 3.035070 
# 
# 
# High freq. dielectric constant tensor:
#      x y z
#    x 1.644900 0.000000 0.044420 
#    y 0.000000 1.703410 0.000000 
#    z 0.044420 0.000000 1.625670 
# 
# From -- ./inp_files/68926.got.cif
#   From: 2010.03.12/outbox.cif.g09.slc.cpg/sg14_35_cif.got.tgz:68926.got - 2010.03.31 13:35:05.
