data_PCOD8123160
_publ_section_title
;
Structure prediction by ZEFSAII (Michael W. Deem and Ramdas Pophale) SiO2 
 PCOD8123160
Probable space group: P 2/C
;
_chemical_formula_sum "Si O2"
_cell_formula_units_Z 18
_cell_length_a 19.831665
_cell_length_b 4.760697
_cell_length_c 15.235520
_cell_angle_alpha 90.000000
_cell_angle_beta 28.467096
_cell_angle_gamma 90.000000
_cell_volume 685.630667
_symmetry_space_group_name_H-M "P 2/C"
_symmetry_group_IT_number 13
_symmetry_cell_setting 'monoclinic'
loop_
_space_group_symop_operation_xyz
x,y,z
-x,y,1/2-z
-x,-y,-z
x,-y,1/2+z
loop_
_atom_site_type_symbol
_atom_site_label
_atom_site_fract_x
_atom_site_fract_y
_atom_site_fract_z
Si Si1 0.204922 0.027627 0.351969
Si Si2 0.946635 0.674887 0.719949
Si Si3 0.622881 0.542019 0.288861
Si Si4 0.220141 0.861298 0.139397
Si Si5 0.500000 0.627468 0.750000
O O1 0.333139 0.860302 0.247961
O O2 0.213613 0.031506 0.237524
O O3 0.057587 0.876378 0.543026
O O4 0.236811 0.344207 0.352319
O O5 0.882403 0.413267 0.738770
O O6 0.000000 0.545460 0.750000
O O7 0.825475 0.905889 0.880629
O O8 0.500000 0.500000 0.500000
O O9 0.575240 0.542755 0.242056
O O10 0.382395 0.805823 0.934125
#
# Coordination Sequence:
#
# PCOD8123160 Si02
#       5
#     4   4   4   4   2
#     4  12  25  48  73 104 143 186 244 295 362 421
#     4  12  25  46  71 104 143 185 247 293 361 422
#     4  12  26  47  72 106 145 188 236 299 353 434
#     4  12  26  44  72 104 141 193 234 302 356 433
#     4  12  28  46  74 104 148 186 248 280 376 420
#
# _framework density 26.253201000000001
#
# number of rings (size 3 to 8) (size 9 to 14) (size 15 to 20)
#    0.000    0.000    2.222    8.000    0.000    1.778 
#    0.000    0.000    0.000    0.000    0.000    0.000 
#    0.000    0.000    0.000    0.000    0.000    0.000 
#
# Total GULP energy -223062.248484 kJ/mol
# GULP energy per Si atom -12392.347138 kJ/mol
# Density = 2.619345 g / cm^3
# Si number density = 26.253201 Si / 1000 Ang^3
#
#
#
# Elastic Constant Matrix: (Units=GPa)
#
#
# Indices 1 2 3 4 5 6 
#
# 1 132.6036 32.2484 27.2013 0.0000 -3.0372 0.0000
# 2 32.2484 97.5104 -15.5297 0.0000 -3.3768 0.0000
# 3 27.2013 -15.5297 60.0305 0.0000 10.6756 0.0000
# 4 0.0000 0.0000 0.0000 18.8837 0.0000 -4.7771
# 5 -3.0372 -3.3768 10.6756 0.0000 34.2487 0.0000
# 6 0.0000 0.0000 0.0000 -4.7771 0.0000 8.3982
#
#
#
# Elastic Compliance Matrix: (Units=1/GPa)
#
#
# Indices 1 2 3 4 5 6 
#
# 1 0.009806 -0.004105 -0.005916 0.000000 0.002309 0.000000
# 2 -0.004105 0.012416 0.005208 0.000000 -0.000763 0.000000
# 3 -0.005916 0.005208 0.021902 0.000000 -0.006838 0.000000
# 4 0.000000 0.000000 0.000000 0.061857 0.000000 0.035186
# 5 0.002309 -0.000763 -0.006838 0.000000 0.031459 0.000000
# 6 0.000000 0.000000 0.000000 0.035186 0.000000 0.139087
#
#
# Mechanical properties :
#
#
# Convention : Reuss Voigt Hill
#
# Bulk Modulus (GPa) = 28.98752 41.99827 35.49289
# Shear Modulus (GPa) = 16.79806 28.72110 22.75958
#
# Velocity S-wave (km/s) = 2.53227 3.31116 2.94755
# Velocity P-wave (km/s) = 4.42892 5.53629 5.01327
#
# Compressibility (1/GPa) = 0.03449760
#
# Stress axis : x y z
#
# Youngs Moduli (GPa) = 101.97724 80.54116 45.65739
#
# Poissons Ratio (x) = 0.33065 0.27011
# Poissons Ratio (y) = 0.41865 -0.23778
# Poissons Ratio (z) = 0.60330 -0.41945
#
# Static dielectric constant tensor:
#      x y z
#    x 5.031950 0.000000 -0.357050 
#    y 0.000000 4.834800 0.000000 
#    z -0.357050 0.000000 5.050480 
# 
# 
# High freq. dielectric constant tensor:
#      x y z
#    x 2.071590 0.000000 -0.011160 
#    y 0.000000 2.057120 0.000000 
#    z -0.011160 0.000000 2.060760 
# 
# From -- ./inp_files/56378.got.cif
#   From: 2010.06.25/outbox.cif.g09.slc.cpg/sg13_29_cif.got.tgz:56378.got - 2010.06.28 04:50:58.
