data_PCOD8123956
_publ_section_title
;
Structure prediction by ZEFSAII (Michael W. Deem and Ramdas Pophale) SiO2 
 PCOD8123956
Probable space group: P 21/C
;
_chemical_formula_sum "Si O2"
_cell_formula_units_Z 32
_cell_length_a 11.276142
_cell_length_b 9.378665
_cell_length_c 21.720460
_cell_angle_alpha 90.000000
_cell_angle_beta 140.141485
_cell_angle_gamma 90.000000
_cell_volume 1472.165997
_symmetry_space_group_name_H-M "P 21/C"
_symmetry_group_IT_number 14
_symmetry_cell_setting 'monoclinic'
loop_
_space_group_symop_operation_xyz
x,y,z
-x,1/2+y,1/2-z
-x,-y,-z
x,1/2-y,1/2+z
loop_
_atom_site_type_symbol
_atom_site_label
_atom_site_fract_x
_atom_site_fract_y
_atom_site_fract_z
Si Si1 0.733144 0.337837 0.676795
Si Si2 0.143425 0.336535 0.891501
Si Si3 0.843292 0.157108 0.613497
Si Si4 0.258411 0.157389 0.830680
Si Si5 0.102305 0.366127 0.485854
Si Si6 0.622561 0.699559 0.747969
Si Si7 0.016039 0.671427 0.434305
Si Si8 0.501307 0.384324 0.697767
O O1 0.707255 0.225329 0.610819
O O2 0.686562 0.494918 0.632260
O O3 0.598955 0.299991 0.680259
O O4 0.940322 0.333436 0.783488
O O5 0.220477 0.496692 0.926380
O O6 0.280346 0.248346 0.901450
O O7 0.141763 0.267043 0.958016
O O8 0.051225 0.164100 0.721742
O O9 0.828630 0.246834 0.543873
O O10 0.398650 0.221178 0.834485
O O11 0.952526 0.321572 0.478977
O O12 0.289962 0.414777 0.595057
O O13 0.022077 0.503338 0.416764
O O14 0.824531 0.751087 0.846233
O O15 0.605586 0.531190 0.754726
O O16 0.478975 0.788160 0.732567
#
# Coordination Sequence:
#
# PCOD8123956 Si02
#       8
#     4   4   4   4   4   4   4   4
#     4   9  18  33  54  77 105 143 186 227 266 319
#     4  10  19  32  55  82 108 142 183 226 271 319
#     4   9  17  31  53  79 103 138 189 230 256 305
#     4   8  16  32  52  76 103 139 187 224 259 320
#     4  10  21  36  55  81 113 145 175 219 280 332
#     4   9  19  36  57  79 106 143 186 225 265 325
#     4   9  19  37  56  75 105 144 183 219 264 329
#     4  10  21  37  57  84 112 141 181 228 278 323
#
# _framework density 21.736678999999999
#
# number of rings (size 3 to 8) (size 9 to 14) (size 15 to 20)
#    0.000    2.750    0.000    1.500    0.000    7.500 
#    0.000    8.750    0.000    0.000    0.000    0.000 
#    0.000    0.000    0.000    0.000    0.000    0.000 
#
# Total GULP energy -396577.962624 kJ/mol
# GULP energy per Si atom -12393.061332 kJ/mol
# Density = 2.168721 g / cm^3
# Si number density = 21.736679 Si / 1000 Ang^3
#
#
#
# Elastic Constant Matrix: (Units=GPa)
#
#
# Indices 1 2 3 4 5 6 
#
# 1 158.5174 79.8015 14.8209 0.0000 -40.7322 0.0000
# 2 79.8015 154.7975 36.5064 0.0000 -31.0219 0.0000
# 3 14.8209 36.5064 27.0880 0.0000 -10.6777 0.0000
# 4 0.0000 0.0000 0.0000 21.4445 0.0000 -11.6696
# 5 -40.7322 -31.0219 -10.6777 0.0000 30.9293 0.0000
# 6 0.0000 0.0000 0.0000 -11.6696 0.0000 45.1643
#
#
#
# Elastic Compliance Matrix: (Units=1/GPa)
#
#
# Indices 1 2 3 4 5 6 
#
# 1 0.011161 -0.004466 0.004561 0.000000 0.011793 0.000000
# 2 -0.004466 0.012286 -0.013399 0.000000 0.001816 0.000000
# 3 0.004561 -0.013399 0.057354 0.000000 0.012368 0.000000
# 4 0.000000 0.000000 0.000000 0.054261 0.000000 0.014020
# 5 0.011793 0.001816 0.012368 0.000000 0.053954 0.000000
# 6 0.000000 0.000000 0.000000 0.014020 0.000000 0.025764
#
#
# Mechanical properties :
#
#
# Convention : Reuss Voigt Hill
#
# Bulk Modulus (GPa) = 18.45247 66.96229 42.70738
# Shear Modulus (GPa) = 19.27145 33.45923 26.36534
#
# Velocity S-wave (km/s) = 2.98079 3.92765 3.48651
# Velocity P-wave (km/s) = 4.51158 7.17228 5.99149
#
# Compressibility (1/GPa) = 0.05419330
#
# Stress axis : x y z
#
# Youngs Moduli (GPa) = 89.60135 81.39358 17.43567
#
# Poissons Ratio (x) = 0.36348 -0.07952
# Poissons Ratio (y) = 0.40013 0.23361
# Poissons Ratio (z) = -0.40865 1.09055
#
# Static dielectric constant tensor:
#      x y z
#    x 4.558000 0.000000 -0.347630 
#    y 0.000000 4.046230 0.000000 
#    z -0.347630 0.000000 3.413110 
# 
# 
# High freq. dielectric constant tensor:
#      x y z
#    x 1.876040 0.000000 -0.017490 
#    y 0.000000 1.851410 0.000000 
#    z -0.017490 0.000000 1.806630 
# 
# From -- ./inp_files/72999.got.cif
#   From: 2010.03.12/outbox.cif.g09.slc.cpg/sg14_37_cif.got.tgz:72999.got - 2010.03.31 13:35:05.
