data_PCOD8123737
_publ_section_title
;
Structure prediction by ZEFSAII (Michael W. Deem and Ramdas Pophale) SiO2 
 PCOD8123737
Probable space group: P 21/C
;
_chemical_formula_sum "Si O2"
_cell_formula_units_Z 28
_cell_length_a 8.538643
_cell_length_b 13.703601
_cell_length_c 15.097593
_cell_angle_alpha 90.000000
_cell_angle_beta 52.708297
_cell_angle_gamma 90.000000
_cell_volume 1405.415966
_symmetry_space_group_name_H-M "P 21/C"
_symmetry_group_IT_number 14
_symmetry_cell_setting 'monoclinic'
loop_
_space_group_symop_operation_xyz
x,y,z
-x,1/2+y,1/2-z
-x,-y,-z
x,1/2-y,1/2+z
loop_
_atom_site_type_symbol
_atom_site_label
_atom_site_fract_x
_atom_site_fract_y
_atom_site_fract_z
Si Si1 0.251421 0.935748 0.469062
Si Si2 0.624961 0.037487 0.774768
Si Si3 0.953679 0.240102 0.530441
Si Si4 0.031931 0.402706 0.149672
Si Si5 0.391716 0.228782 0.892169
Si Si6 0.405490 0.177320 0.580508
Si Si7 0.549401 0.330025 0.671807
O O1 0.341512 0.951062 0.341086
O O2 0.093870 0.847178 0.522606
O O3 0.429030 0.906871 0.473914
O O4 0.145863 0.033643 0.536488
O O5 0.490274 0.123410 0.857743
O O6 0.838781 0.040495 0.752068
O O7 0.516945 0.937176 0.833965
O O8 0.785533 0.322751 0.580101
O O9 0.950341 0.194982 0.630575
O O10 0.166045 0.285986 0.438052
O O11 0.190027 0.372852 0.170538
O O12 0.408199 0.272136 0.984307
O O13 0.495336 0.305534 0.791332
O O14 0.438593 0.253595 0.647125
#
# Coordination Sequence:
#
# PCOD8123737 Si02
#       7
#     4   4   4   4   4   4   4
#     4  10  18  38  62  94 113 149 212 253 295 339
#     4  11  21  37  64  85 121 163 196 243 302 364
#     4   9  19  36  60  87 121 157 191 248 296 356
#     4  10  18  36  59  90 116 151 206 254 292 334
#     4  11  21  41  62  85 124 162 195 248 302 348
#     4  10  22  38  60  88 125 152 196 257 295 358
#     4  11  22  42  60  90 122 158 203 245 301 360
#
# _framework density 19.922927999999999
#
# number of rings (size 3 to 8) (size 9 to 14) (size 15 to 20)
#    0.000    1.714    4.286    4.714    0.000    1.143 
#    7.714    2.857    0.000    0.000    0.000    0.000 
#    0.000    0.000    0.000    0.000    0.000    0.000 
#
# Total GULP energy -347114.436369 kJ/mol
# GULP energy per Si atom -12396.944156 kJ/mol
# Density = 1.987758 g / cm^3
# Si number density = 19.922928 Si / 1000 Ang^3
#
#
#
# Elastic Constant Matrix: (Units=GPa)
#
#
# Indices 1 2 3 4 5 6 
#
# 1 117.4967 33.2326 37.3199 0.0000 -35.8342 0.0000
# 2 33.2326 83.0371 32.6365 0.0000 -23.5827 0.0000
# 3 37.3199 32.6365 63.9568 0.0000 -23.0514 0.0000
# 4 0.0000 0.0000 0.0000 36.0169 0.0000 -9.0703
# 5 -35.8342 -23.5827 -23.0514 0.0000 40.8233 0.0000
# 6 0.0000 0.0000 0.0000 -9.0703 0.0000 24.0104
#
#
#
# Elastic Compliance Matrix: (Units=1/GPa)
#
#
# Indices 1 2 3 4 5 6 
#
# 1 0.012544 -0.001223 -0.003743 0.000000 0.008191 0.000000
# 2 -0.001223 0.016226 -0.005744 0.000000 0.005057 0.000000
# 3 -0.003743 -0.005744 0.023065 0.000000 0.006420 0.000000
# 4 0.000000 0.000000 0.000000 0.030684 0.000000 0.011591
# 5 0.008191 0.005057 0.006420 0.000000 0.038232 0.000000
# 6 0.000000 0.000000 0.000000 0.011591 0.000000 0.046027
#
#
# Mechanical properties :
#
#
# Convention : Reuss Voigt Hill
#
# Bulk Modulus (GPa) = 32.87936 52.31872 42.59904
# Shear Modulus (GPa) = 25.20984 30.92356 28.06670
#
# Velocity S-wave (km/s) = 3.56106 3.94402 3.75742
# Velocity P-wave (km/s) = 5.78336 6.85988 6.34450
#
# Compressibility (1/GPa) = 0.03041422
#
# Stress axis : x y z
#
# Youngs Moduli (GPa) = 79.72141 61.63029 43.35613
#
# Poissons Ratio (x) = 0.07535 0.16230
# Poissons Ratio (y) = 0.09747 0.24903
# Poissons Ratio (z) = 0.29844 0.35399
#
# Static dielectric constant tensor:
#      x y z
#    x 3.983380 0.000000 -0.419240 
#    y 0.000000 3.645120 0.000000 
#    z -0.419240 0.000000 3.446960 
# 
# 
# High freq. dielectric constant tensor:
#      x y z
#    x 1.787350 0.000000 -0.029750 
#    y 0.000000 1.771670 0.000000 
#    z -0.029750 0.000000 1.753130 
# 
# From -- ./inp_files/55915.got.cif
#   From: 2010.03.12/outbox.cif.g09.slc.cpg/sg14_28_cif.got.tgz:55915.got - 2010.03.31 13:35:05.
