data_PCOD8123666
_publ_section_title
;
Structure prediction by ZEFSAII (Michael W. Deem and Ramdas Pophale) SiO2 
 PCOD8123666
Probable space group: P 21/C
;
_chemical_formula_sum "Si O2"
_cell_formula_units_Z 32
_cell_length_a 12.962299
_cell_length_b 16.772006
_cell_length_c 19.123882
_cell_angle_alpha 90.000000
_cell_angle_beta 158.043025
_cell_angle_gamma 90.000000
_cell_volume 1554.570629
_symmetry_space_group_name_H-M "P 21/C"
_symmetry_group_IT_number 14
_symmetry_cell_setting 'monoclinic'
loop_
_space_group_symop_operation_xyz
x,y,z
-x,1/2+y,1/2-z
-x,-y,-z
x,1/2-y,1/2+z
loop_
_atom_site_type_symbol
_atom_site_label
_atom_site_fract_x
_atom_site_fract_y
_atom_site_fract_z
Si Si1 0.511244 0.619945 0.191412
Si Si2 0.616794 0.944591 0.410449
Si Si3 0.876462 0.686865 0.159914
Si Si4 0.671723 0.090064 0.278815
Si Si5 0.710407 0.288030 0.464268
Si Si6 0.116014 0.843300 0.073513
Si Si7 0.722555 0.585205 0.818369
Si Si8 0.716642 0.271003 0.706860
O O1 0.369124 0.539997 0.071528
O O2 0.537079 0.620254 0.292506
O O3 0.825981 0.623824 0.364589
O O4 0.348995 0.695366 0.057638
O O5 0.803978 0.901889 0.587004
O O6 0.298839 0.916857 0.216313
O O7 0.729458 0.915794 0.406845
O O8 0.018468 0.682465 0.324686
O O9 0.105823 0.727781 0.253013
O O10 0.589575 0.733811 0.990768
O O11 0.663770 0.140401 0.203042
O O12 0.960276 0.095612 0.503557
O O13 0.604135 0.998776 0.214943
O O14 0.740083 0.299378 0.400566
O O15 0.451386 0.342989 0.324885
O O16 0.090785 0.777009 0.117955
#
# Coordination Sequence:
#
# PCOD8123666 Si02
#       8
#     4   4   4   4   4   4   4   4
#     4  11  21  35  65  90 114 153 210 250 299 358
#     4   9  20  40  60  87 118 159 195 256 300 364
#     4  11  25  40  60  88 131 161 200 245 314 364
#     4  10  18  34  64  93 111 149 206 254 296 351
#     4  11  24  39  59  89 124 160 197 250 302 362
#     4  10  21  38  65  88 118 152 209 251 301 351
#     4   9  19  36  61  88 120 148 197 254 302 351
#     4  11  21  40  63  90 120 164 203 251 297 369
#
# _framework density 20.584461999999998
#
# number of rings (size 3 to 8) (size 9 to 14) (size 15 to 20)
#    0.000    1.750    2.500    1.875    3.500    0.000 
#    2.250    1.250    0.000    0.000    0.000    0.000 
#    0.000    0.000    0.000    0.000    0.000    0.000 
#
# Total GULP energy -396705.854355 kJ/mol
# GULP energy per Si atom -12397.057949 kJ/mol
# Density = 2.053761 g / cm^3
# Si number density = 20.584462 Si / 1000 Ang^3
#
#
#
# Elastic Constant Matrix: (Units=GPa)
#
#
# Indices 1 2 3 4 5 6 
#
# 1 44.1453 18.9115 17.0119 0.0000 15.8901 0.0000
# 2 18.9115 150.3753 53.0456 0.0000 -1.9000 0.0000
# 3 17.0119 53.0456 93.8417 0.0000 1.4027 0.0000
# 4 0.0000 0.0000 0.0000 21.6257 0.0000 3.7943
# 5 15.8901 -1.9000 1.4027 0.0000 30.7115 0.0000
# 6 0.0000 0.0000 0.0000 3.7943 0.0000 21.6204
#
#
#
# Elastic Compliance Matrix: (Units=1/GPa)
#
#
# Indices 1 2 3 4 5 6 
#
# 1 0.031106 -0.002762 -0.003837 0.000000 -0.016090 0.000000
# 2 -0.002762 0.008568 -0.004375 0.000000 0.002159 0.000000
# 3 -0.003837 -0.004375 0.013809 0.000000 0.001084 0.000000
# 4 0.000000 0.000000 0.000000 0.047710 0.000000 -0.008373
# 5 -0.016090 0.002159 0.001084 0.000000 0.040970 0.000000
# 6 0.000000 0.000000 0.000000 -0.008373 0.000000 0.047722
#
#
# Mechanical properties :
#
#
# Convention : Reuss Voigt Hill
#
# Bulk Modulus (GPa) = 31.71106 51.81115 41.76110
# Shear Modulus (GPa) = 22.48771 28.08441 25.28606
#
# Velocity S-wave (km/s) = 3.30882 3.69772 3.50866
# Velocity P-wave (km/s) = 5.48056 6.59208 6.06185
#
# Compressibility (1/GPa) = 0.03153474
#
# Stress axis : x y z
#
# Youngs Moduli (GPa) = 32.14832 116.71593 72.41861
#
# Poissons Ratio (x) = 0.32232 0.27790
# Poissons Ratio (y) = 0.08878 0.31681
# Poissons Ratio (z) = 0.12337 0.51060
#
# Static dielectric constant tensor:
#      x y z
#    x 3.590960 0.000000 0.290620 
#    y 0.000000 3.842510 0.000000 
#    z 0.290620 0.000000 3.493820 
# 
# 
# High freq. dielectric constant tensor:
#      x y z
#    x 1.793070 0.000000 0.028290 
#    y 0.000000 1.812050 0.000000 
#    z 0.028290 0.000000 1.785750 
# 
# From -- ./inp_files/68789.got.cif
#   From: 2010.03.12/outbox.cif.g09.slc.cpg/sg14_35_cif.got.tgz:68789.got - 2010.03.31 13:35:05.
