data_PCOD8123268
_publ_section_title
;
Structure prediction by ZEFSAII (Michael W. Deem and Ramdas Pophale) SiO2 
 PCOD8123268
Probable space group: P 21/C
;
_chemical_formula_sum "Si O2"
_cell_formula_units_Z 32
_cell_length_a 8.262597
_cell_length_b 16.364409
_cell_length_c 11.882771
_cell_angle_alpha 90.000000
_cell_angle_beta 88.027958
_cell_angle_gamma 90.000000
_cell_volume 1605.747785
_symmetry_space_group_name_H-M "P 21/C"
_symmetry_group_IT_number 14
_symmetry_cell_setting 'monoclinic'
loop_
_space_group_symop_operation_xyz
x,y,z
-x,1/2+y,1/2-z
-x,-y,-z
x,1/2-y,1/2+z
loop_
_atom_site_type_symbol
_atom_site_label
_atom_site_fract_x
_atom_site_fract_y
_atom_site_fract_z
Si Si1 0.589641 0.594285 0.437677
Si Si2 0.214709 0.106052 0.652035
Si Si3 0.106881 0.971263 0.266263
Si Si4 0.913099 0.114009 0.161094
Si Si5 0.306805 0.096152 0.394820
Si Si6 0.795533 0.787835 0.796326
Si Si7 0.394426 0.949840 0.726896
Si Si8 0.729210 0.072537 0.950595
O O1 0.689445 0.674439 0.401355
O O2 0.516365 0.549895 0.328725
O O3 0.444316 0.618183 0.526467
O O4 0.705747 0.523658 0.485597
O O5 0.258351 0.116415 0.521572
O O6 0.239726 0.192178 0.713081
O O7 0.027417 0.080600 0.665737
O O8 0.331110 0.041287 0.709104
O O9 0.211882 0.914085 0.179215
O O10 0.219172 0.012663 0.357669
O O11 0.031965 0.039332 0.185966
O O12 0.756168 0.111050 0.246489
O O13 0.013876 0.196923 0.181343
O O14 0.861688 0.110040 0.032074
O O15 0.252256 0.172886 0.321266
O O16 0.501777 0.082522 0.382308
#
# Coordination Sequence:
#
# PCOD8123268 Si02
#       8
#     4   4   4   4   4   4   4   4
#     4   9  18  33  58  83 117 143 181 234 284 323
#     4  11  23  36  58  85 106 152 193 227 284 338
#     4  10  19  34  55  82 110 144 195 230 261 334
#     4   9  18  31  57  84 112 144 181 228 278 331
#     4  10  20  41  57  77 115 154 182 236 278 328
#     4  10  21  39  52  84 122 142 177 242 296 325
#     4   9  18  37  60  83 106 147 201 225 260 345
#     4  10  16  31  57  84 103 146 190 221 271 325
#
# _framework density 19.928408999999998
#
# number of rings (size 3 to 8) (size 9 to 14) (size 15 to 20)
#    0.000    2.250    3.750    1.125    0.000    1.000 
#    6.750    5.000    0.000    0.000    0.000    0.000 
#    0.000    0.000    0.000    0.000    0.000    0.000 
#
# Total GULP energy -396725.717931 kJ/mol
# GULP energy per Si atom -12397.678685 kJ/mol
# Density = 1.988305 g / cm^3
# Si number density = 19.928409 Si / 1000 Ang^3
#
#
#
# Elastic Constant Matrix: (Units=GPa)
#
#
# Indices 1 2 3 4 5 6 
#
# 1 107.4283 41.3105 33.7014 0.0000 -16.8069 0.0000
# 2 41.3105 87.6544 31.7431 0.0000 -5.2491 0.0000
# 3 33.7014 31.7431 71.8224 0.0000 -22.1718 0.0000
# 4 0.0000 0.0000 0.0000 17.9275 0.0000 0.0582
# 5 -16.8069 -5.2491 -22.1718 0.0000 36.3596 0.0000
# 6 0.0000 0.0000 0.0000 0.0582 0.0000 16.3647
#
#
#
# Elastic Compliance Matrix: (Units=1/GPa)
#
#
# Indices 1 2 3 4 5 6 
#
# 1 0.012511 -0.004701 -0.002731 0.000000 0.003439 0.000000
# 2 -0.004701 0.015480 -0.005687 0.000000 -0.003406 0.000000
# 3 -0.002731 -0.005687 0.021035 0.000000 0.010743 0.000000
# 4 0.000000 0.000000 0.000000 0.055781 0.000000 -0.000199
# 5 0.003439 -0.003406 0.010743 0.000000 0.035152 0.000000
# 6 0.000000 0.000000 0.000000 -0.000199 0.000000 0.061108
#
#
# Mechanical properties :
#
#
# Convention : Reuss Voigt Hill
#
# Bulk Modulus (GPa) = 43.88553 53.37944 48.63249
# Shear Modulus (GPa) = 21.28557 24.80705 23.04631
#
# Velocity S-wave (km/s) = 3.27173 3.53201 3.40436
# Velocity P-wave (km/s) = 6.02841 6.59373 6.31739
#
# Compressibility (1/GPa) = 0.02278655
#
# Stress axis : x y z
#
# Youngs Moduli (GPa) = 79.92815 64.60094 47.54037
#
# Poissons Ratio (x) = 0.30371 0.12984
# Poissons Ratio (y) = 0.37577 0.27036
# Poissons Ratio (z) = 0.21830 0.36738
#
# Static dielectric constant tensor:
#      x y z
#    x 4.074480 0.000000 -0.299570 
#    y 0.000000 3.204260 0.000000 
#    z -0.299570 0.000000 3.491430 
# 
# 
# High freq. dielectric constant tensor:
#      x y z
#    x 1.796010 0.000000 -0.019060 
#    y 0.000000 1.732290 0.000000 
#    z -0.019060 0.000000 1.767610 
# 
# From -- ./inp_files/25517.got.cif
#   From: 2010.03.12/outbox.cif.g09.slc.cpg/sg14_13_cif.got.tgz:25517.got - 2010.03.31 13:35:05.
