data_PCOD8123300
_publ_section_title
;
Structure prediction by ZEFSAII (Michael W. Deem and Ramdas Pophale) SiO2 
 PCOD8123300
Probable space group: P 21/C
;
_chemical_formula_sum "Si O2"
_cell_formula_units_Z 32
_cell_length_a 9.027247
_cell_length_b 17.406144
_cell_length_c 23.672766
_cell_angle_alpha 90.000000
_cell_angle_beta 148.621435
_cell_angle_gamma 90.000000
_cell_volume 1936.807094
_symmetry_space_group_name_H-M "P 21/C"
_symmetry_group_IT_number 14
_symmetry_cell_setting 'monoclinic'
loop_
_space_group_symop_operation_xyz
x,y,z
-x,1/2+y,1/2-z
-x,-y,-z
x,1/2-y,1/2+z
loop_
_atom_site_type_symbol
_atom_site_label
_atom_site_fract_x
_atom_site_fract_y
_atom_site_fract_z
Si Si1 0.315406 0.971238 0.700739
Si Si2 0.831917 0.244926 0.866409
Si Si3 0.949170 0.255919 0.030227
Si Si4 0.123812 0.373077 0.894467
Si Si5 0.708371 0.649266 0.287423
Si Si6 0.563140 0.878763 0.299766
Si Si7 0.728171 0.529582 0.960574
Si Si8 0.555796 0.865702 0.617083
O O1 0.615583 0.933359 0.781575
O O2 0.164393 0.926569 0.703640
O O3 0.080720 0.968016 0.570955
O O4 0.383051 0.061021 0.734742
O O5 0.559472 0.296660 0.788824
O O6 0.736894 0.164837 0.806388
O O7 0.050001 0.289426 0.896559
O O8 0.972829 0.228347 0.973075
O O9 0.012360 0.182118 0.090549
O O10 0.183188 0.319734 0.117071
O O11 0.647854 0.291339 0.949683
O O12 0.248682 0.361856 0.873786
O O13 0.344140 0.417614 0.007582
O O14 0.765806 0.641420 0.239268
O O15 0.557157 0.930916 0.354000
O O16 0.624235 0.443651 0.938723
#
# Coordination Sequence:
#
# PCOD8123300 Si02
#       8
#     4   4   4   4   4   4   4   4
#     4   9  17  30  49  74  91 121 160 203 242 275
#     4   9  19  31  48  72  97 127 165 203 236 286
#     4  10  18  33  48  71  96 131 164 197 241 288
#     4   9  19  31  46  76 105 121 151 208 245 287
#     4   9  18  30  50  67  96 130 160 199 239 285
#     4  11  16  29  55  72  93 125 166 205 244 277
#     4  10  17  28  51  75  97 122 152 205 249 280
#     4  11  18  31  49  74 102 125 160 194 249 296
#
# _framework density 16.522037999999998
#
# number of rings (size 3 to 8) (size 9 to 14) (size 15 to 20)
#    0.750    1.500    3.750    1.500    0.000    0.000 
#    2.250    0.625    2.750    0.000    0.000    1.750 
#    0.000    0.000    0.000    0.000    0.000    0.000 
#
# Total GULP energy -396441.489913 kJ/mol
# GULP energy per Si atom -12388.796560 kJ/mol
# Density = 1.648443 g / cm^3
# Si number density = 16.522038 Si / 1000 Ang^3
#
#
#
# Elastic Constant Matrix: (Units=GPa)
#
#
# Indices 1 2 3 4 5 6 
#
# 1 90.8369 39.5475 28.3073 0.0000 -15.8921 0.0000
# 2 39.5475 91.3264 49.2640 0.0000 -4.9618 0.0000
# 3 28.3073 49.2640 43.3014 0.0000 -9.3965 0.0000
# 4 0.0000 0.0000 0.0000 28.0380 0.0000 -0.8853
# 5 -15.8921 -4.9618 -9.3965 0.0000 13.5548 0.0000
# 6 0.0000 0.0000 0.0000 -0.8853 0.0000 16.6473
#
#
#
# Elastic Compliance Matrix: (Units=1/GPa)
#
#
# Indices 1 2 3 4 5 6 
#
# 1 0.016808 -0.006319 -0.000028 0.000000 0.017374 0.000000
# 2 -0.006319 0.033213 -0.038401 0.000000 -0.021872 0.000000
# 3 -0.000028 -0.038401 0.075031 0.000000 0.037923 0.000000
# 4 0.000000 0.000000 0.000000 0.035726 0.000000 0.001900
# 5 0.017374 -0.021872 0.037923 0.000000 0.112428 0.000000
# 6 0.000000 0.000000 0.000000 0.001900 0.000000 0.060171
#
#
# Mechanical properties :
#
#
# Convention : Reuss Voigt Hill
#
# Bulk Modulus (GPa) = 28.12612 51.07802 39.60207
# Shear Modulus (GPa) = 11.50152 18.87108 15.18630
#
# Velocity S-wave (km/s) = 2.64129 3.38328 3.03504
# Velocity P-wave (km/s) = 5.13442 6.80031 6.02522
#
# Compressibility (1/GPa) = 0.03555414
#
# Stress axis : x y z
#
# Youngs Moduli (GPa) = 59.49376 30.10905 13.32788
#
# Poissons Ratio (x) = 0.19027 0.00038
# Poissons Ratio (y) = 0.37597 0.51180
# Poissons Ratio (z) = 0.00168 1.15622
#
# Static dielectric constant tensor:
#      x y z
#    x 2.809110 0.000000 -0.126010 
#    y 0.000000 3.562620 0.000000 
#    z -0.126010 0.000000 3.145190 
# 
# 
# High freq. dielectric constant tensor:
#      x y z
#    x 1.604800 0.000000 -0.015020 
#    y 0.000000 1.643200 0.000000 
#    z -0.015020 0.000000 1.607160 
# 
# From -- ./inp_files/65986.got.cif
#   From: 2010.03.12/outbox.cif.g09.slc.cpg/sg14_33_cif.got.tgz:65986.got - 2010.03.31 13:35:05.
