data_PCOD8123008
_publ_section_title
;
Structure prediction by ZEFSAII (Michael W. Deem and Ramdas Pophale) SiO2 
 PCOD8123008
Probable space group: P 2/C
;
_chemical_formula_sum "Si O2"
_cell_formula_units_Z 12
_cell_length_a 8.340870
_cell_length_b 4.938678
_cell_length_c 13.761709
_cell_angle_alpha 90.000000
_cell_angle_beta 53.292231
_cell_angle_gamma 90.000000
_cell_volume 454.468088
_symmetry_space_group_name_H-M "P 2/C"
_symmetry_group_IT_number 13
_symmetry_cell_setting 'monoclinic'
loop_
_space_group_symop_operation_xyz
x,y,z
-x,y,1/2-z
-x,-y,-z
x,-y,1/2+z
loop_
_atom_site_type_symbol
_atom_site_label
_atom_site_fract_x
_atom_site_fract_y
_atom_site_fract_z
Si Si1 0.701865 0.359299 0.891348
Si Si2 0.117485 0.169611 0.078571
Si Si3 0.281421 0.106524 0.813434
O O1 0.745343 0.068871 0.925597
O O2 0.693303 0.334749 0.778202
O O3 0.877965 0.560248 0.859139
O O4 0.500000 0.500000 0.000000
O O5 0.881829 0.108294 0.163766
O O6 0.199917 0.241029 0.941743
O O7 0.500000 0.968376 0.750000
#
# Coordination Sequence:
#
# PCOD8123008 Si02
#       3
#     4   4   4
#     4  12  26  52  79 115 159 211 263 327 397 469
#     4  11  28  52  77 118 159 208 265 322 403 468
#     4  11  26  51  81 117 156 212 259 334 386 478
#
# _framework density 26.404495000000001
#
# number of rings (size 3 to 8) (size 9 to 14) (size 15 to 20)
#    0.000    0.667    3.333    2.000    0.000   13.333 
#    0.000    0.000    0.000    0.000    0.000    0.000 
#    0.000    0.000    0.000    0.000    0.000    0.000 
#
# Total GULP energy -148797.752708 kJ/mol
# GULP energy per Si atom -12399.812726 kJ/mol
# Density = 2.634440 g / cm^3
# Si number density = 26.404495 Si / 1000 Ang^3
#
#
#
# Elastic Constant Matrix: (Units=GPa)
#
#
# Indices 1 2 3 4 5 6 
#
# 1 155.5446 29.3441 80.6111 0.0000 -2.3036 0.0000
# 2 29.3441 100.7033 47.6366 0.0000 42.8437 0.0000
# 3 80.6111 47.6366 199.4744 0.0000 9.5268 0.0000
# 4 0.0000 0.0000 0.0000 15.9486 0.0000 5.6177
# 5 -2.3036 42.8437 9.5268 0.0000 55.2068 0.0000
# 6 0.0000 0.0000 0.0000 5.6177 0.0000 34.8925
#
#
#
# Elastic Compliance Matrix: (Units=1/GPa)
#
#
# Indices 1 2 3 4 5 6 
#
# 1 0.008428 -0.002084 -0.003027 0.000000 0.002491 0.000000
# 2 -0.002084 0.017388 -0.002684 0.000000 -0.013118 0.000000
# 3 -0.003027 -0.002684 0.006840 0.000000 0.000776 0.000000
# 4 0.000000 0.000000 0.000000 0.066471 0.000000 -0.010702
# 5 0.002491 -0.013118 0.000776 0.000000 0.028264 0.000000
# 6 0.000000 0.000000 0.000000 -0.010702 0.000000 0.030382
#
#
# Mechanical properties :
#
#
# Convention : Reuss Voigt Hill
#
# Bulk Modulus (GPa) = 58.59399 85.65620 72.12510
# Shear Modulus (GPa) = 27.92489 41.08494 34.50491
#
# Velocity S-wave (km/s) = 3.25557 3.94887 3.61887
# Velocity P-wave (km/s) = 6.03082 7.30082 6.69599
#
# Compressibility (1/GPa) = 0.01706660
#
# Stress axis : x y z
#
# Youngs Moduli (GPa) = 118.65399 57.51171 146.19042
#
# Poissons Ratio (x) = 0.11983 0.44255
# Poissons Ratio (y) = 0.24723 0.39235
# Poissons Ratio (z) = 0.35919 0.15435
#
# Static dielectric constant tensor:
#      x y z
#    x 5.876920 0.000000 0.198270 
#    y 0.000000 4.608350 0.000000 
#    z 0.198270 0.000000 5.067230 
# 
# 
# High freq. dielectric constant tensor:
#      x y z
#    x 2.087260 0.000000 -0.001100 
#    y 0.000000 2.029420 0.000000 
#    z -0.001100 0.000000 2.089490 
# 
# From -- ./inp_files/44679.got.cif
#   From: 2010.06.25/outbox.cif.g09.slc.cpg/sg13_23_cif.got.tgz:44679.got - 2010.06.28 04:50:58.
