data_PCOD8123254
_publ_section_title
;
Structure prediction by ZEFSAII (Michael W. Deem and Ramdas Pophale) SiO2 
 PCOD8123254
Probable space group: P 21/C
;
_chemical_formula_sum "Si O2"
_cell_formula_units_Z 24
_cell_length_a 14.496469
_cell_length_b 5.164536
_cell_length_c 26.625820
_cell_angle_alpha 90.000000
_cell_angle_beta 143.727041
_cell_angle_gamma 90.000000
_cell_volume 1179.366370
_symmetry_space_group_name_H-M "P 21/C"
_symmetry_group_IT_number 14
_symmetry_cell_setting 'monoclinic'
loop_
_space_group_symop_operation_xyz
x,y,z
-x,1/2+y,1/2-z
-x,-y,-z
x,1/2-y,1/2+z
loop_
_atom_site_type_symbol
_atom_site_label
_atom_site_fract_x
_atom_site_fract_y
_atom_site_fract_z
Si Si1 0.431811 0.339852 0.196200
Si Si2 0.074940 0.479586 0.305849
Si Si3 0.589466 0.411762 0.164097
Si Si4 0.328628 0.405363 0.347836
Si Si5 0.098721 0.354316 0.679721
Si Si6 0.074575 0.250154 0.556981
O O1 0.459133 0.596577 0.241406
O O2 0.459510 0.411572 0.150278
O O3 0.257689 0.245511 0.128037
O O4 0.258504 0.421638 0.373913
O O5 0.967331 0.239916 0.242902
O O6 0.046845 0.525212 0.353022
O O7 0.572265 0.155557 0.123224
O O8 0.761060 0.434429 0.265459
O O9 0.562728 0.653435 0.114025
O O10 0.173347 0.383259 0.244314
O O11 0.036543 0.253285 0.599444
O O12 0.000000 0.500000 0.500000
O O13 0.000000 0.000000 0.500000
#
# Coordination Sequence:
#
# PCOD8123254 Si02
#       6
#     4   4   4   4   4   4
#     4  12  22  39  63  83 110 158 207 244 292 338
#     4  10  16  27  50  80 116 137 174 236 312 338
#     4  10  18  30  54  79 109 135 187 234 288 327
#     4   9  17  29  50  86 111 133 180 244 298 330
#     4   9  20  33  53  77 116 146 185 235 293 337
#     4  12  27  40  56  85 123 160 198 239 291 352
#
# _framework density 20.349910999999999
#
# number of rings (size 3 to 8) (size 9 to 14) (size 15 to 20)
#    1.000    0.667    3.333    3.000    2.333    0.000 
#    0.000    0.000    0.000    0.000    0.000    7.000 
#    0.000    0.000    0.000    0.000    0.000    0.000 
#
# Total GULP energy -297407.753740 kJ/mol
# GULP energy per Si atom -12391.989739 kJ/mol
# Density = 2.030359 g / cm^3
# Si number density = 20.349911 Si / 1000 Ang^3
#
#
#
# Elastic Constant Matrix: (Units=GPa)
#
#
# Indices 1 2 3 4 5 6 
#
# 1 178.4503 47.1351 22.4265 0.0000 12.5270 0.0000
# 2 47.1351 145.4486 18.7978 0.0000 2.2983 0.0000
# 3 22.4265 18.7978 30.6823 0.0000 0.2663 0.0000
# 4 0.0000 0.0000 0.0000 274.1977 0.0000 -85.9480
# 5 12.5270 2.2983 0.2663 0.0000 16.9387 0.0000
# 6 0.0000 0.0000 0.0000 -85.9480 0.0000 68.3946
#
#
#
# Elastic Compliance Matrix: (Units=1/GPa)
#
#
# Indices 1 2 3 4 5 6 
#
# 1 0.006873 -0.001637 -0.003979 0.000000 -0.004798 0.000000
# 2 -0.001637 0.007872 -0.003628 0.000000 0.000200 0.000000
# 3 -0.003979 -0.003628 0.037698 0.000000 0.002842 0.000000
# 4 0.000000 0.000000 0.000000 0.006017 0.000000 0.007561
# 5 -0.004798 0.000200 0.002842 0.000000 0.062513 0.000000
# 6 0.000000 0.000000 0.000000 0.007561 0.000000 0.024123
#
#
# Mechanical properties :
#
#
# Convention : Reuss Voigt Hill
#
# Bulk Modulus (GPa) = 29.45062 59.03334 44.24198
# Shear Modulus (GPa) = 28.58734 89.65431 59.12082
#
# Velocity S-wave (km/s) = 3.75212 6.64470 5.39585
# Velocity P-wave (km/s) = 5.76842 9.37771 7.78512
#
# Compressibility (1/GPa) = 0.03395514
#
# Stress axis : x y z
#
# Youngs Moduli (GPa) = 145.49331 127.03989 26.52647
#
# Poissons Ratio (x) = 0.20800 0.10555
# Poissons Ratio (y) = 0.23822 0.09623
# Poissons Ratio (z) = 0.57892 0.46084
#
# Static dielectric constant tensor:
#      x y z
#    x 3.915230 0.000000 0.099090 
#    y 0.000000 3.805450 0.000000 
#    z 0.099090 0.000000 2.900140 
# 
# 
# High freq. dielectric constant tensor:
#      x y z
#    x 1.819640 0.000000 0.013320 
#    y 0.000000 1.812740 0.000000 
#    z 0.013320 0.000000 1.714090 
# 
# From -- ./inp_files/80099.got.cif
#   From: 2010.03.12/outbox.cif.g09.slc.cpg/sg14_41_cif.got.tgz:80099.got - 2010.03.31 13:35:05.
