data_PCOD8123205
_publ_section_title
;
Structure prediction by ZEFSAII (Michael W. Deem and Ramdas Pophale) SiO2 
 PCOD8123205
Probable space group: P 2/C
;
_chemical_formula_sum "Si O2"
_cell_formula_units_Z 16
_cell_length_a 11.672706
_cell_length_b 5.003394
_cell_length_c 13.874313
_cell_angle_alpha 90.000000
_cell_angle_beta 133.779042
_cell_angle_gamma 90.000000
_cell_volume 585.049981
_symmetry_space_group_name_H-M "P 2/C"
_symmetry_group_IT_number 13
_symmetry_cell_setting 'monoclinic'
loop_
_space_group_symop_operation_xyz
x,y,z
-x,y,1/2-z
-x,-y,-z
x,-y,1/2+z
loop_
_atom_site_type_symbol
_atom_site_label
_atom_site_fract_x
_atom_site_fract_y
_atom_site_fract_z
Si Si1 0.555599 0.904750 0.884023
Si Si2 0.375590 0.625342 0.328383
Si Si3 0.832331 0.409792 0.608819
Si Si4 0.897110 0.253904 0.970564
O O1 0.500000 0.026302 0.750000
O O2 0.462631 0.630391 0.839996
O O3 0.503920 0.140491 0.928553
O O4 0.746409 0.833697 0.998112
O O5 0.712597 0.466623 0.626356
O O6 0.261965 0.754313 0.182873
O O7 0.854626 0.682775 0.558826
O O8 0.000000 0.308894 0.750000
O O9 0.000000 0.500000 0.000000
O O10 0.000000 0.000000 0.000000
#
# Coordination Sequence:
#
# PCOD8123205 Si02
#       4
#     4   4   4   4
#     4  12  27  52  80 116 165 219 270 337 406 491
#     4  12  27  52  80 116 163 215 279 333 406 490
#     4  12  28  52  83 123 162 217 271 343 412 488
#     4  12  27  51  79 119 165 212 269 341 414 486
#
# _framework density 27.348092999999999
#
# number of rings (size 3 to 8) (size 9 to 14) (size 15 to 20)
#    0.000    0.000    5.000    3.750    0.000    2.000 
#    0.000    0.000    0.000    0.000    0.000    0.000 
#    0.000    0.000    0.000    0.000    0.000    0.000 
#
# Total GULP energy -198275.648453 kJ/mol
# GULP energy per Si atom -12392.228028 kJ/mol
# Density = 2.728585 g / cm^3
# Si number density = 27.348093 Si / 1000 Ang^3
#
#
#
# Elastic Constant Matrix: (Units=GPa)
#
#
# Indices 1 2 3 4 5 6 
#
# 1 175.2082 81.3670 64.5569 0.0000 16.3499 0.0000
# 2 81.3670 191.2599 37.2424 0.0000 24.0948 0.0000
# 3 64.5569 37.2424 149.6648 0.0000 -12.8047 0.0000
# 4 0.0000 0.0000 0.0000 57.2984 0.0000 -15.1128
# 5 16.3499 24.0948 -12.8047 0.0000 36.8449 0.0000
# 6 0.0000 0.0000 0.0000 -15.1128 0.0000 89.4716
#
#
#
# Elastic Compliance Matrix: (Units=1/GPa)
#
#
# Indices 1 2 3 4 5 6 
#
# 1 0.008381 -0.002528 -0.003260 0.000000 -0.003199 0.000000
# 2 -0.002528 0.006967 -0.000966 0.000000 -0.003770 0.000000
# 3 -0.003260 -0.000966 0.008766 0.000000 0.005125 0.000000
# 4 0.000000 0.000000 0.000000 0.018266 0.000000 0.003085
# 5 -0.003199 -0.003770 0.005125 0.000000 0.032807 0.000000
# 6 0.000000 0.000000 0.000000 0.003085 0.000000 0.011698
#
#
# Mechanical properties :
#
#
# Convention : Reuss Voigt Hill
#
# Bulk Modulus (GPa) = 94.27198 98.05173 96.16185
# Shear Modulus (GPa) = 48.11030 58.92075 53.51553
#
# Velocity S-wave (km/s) = 4.19881 4.64667 4.42840
# Velocity P-wave (km/s) = 7.61923 8.04486 7.83493
#
# Compressibility (1/GPa) = 0.01060761
#
# Stress axis : x y z
#
# Youngs Moduli (GPa) = 119.31760 143.53644 114.07100
#
# Poissons Ratio (x) = 0.36282 0.37184
# Poissons Ratio (y) = 0.30161 0.11017
# Poissons Ratio (z) = 0.38895 0.13863
#
# Static dielectric constant tensor:
#      x y z
#    x 5.116680 0.000000 0.076740 
#    y 0.000000 4.794220 0.000000 
#    z 0.076740 0.000000 6.016640 
# 
# 
# High freq. dielectric constant tensor:
#      x y z
#    x 2.128320 0.000000 0.007100 
#    y 0.000000 2.110150 0.000000 
#    z 0.007100 0.000000 2.117210 
# 
# From -- ./inp_files/67153.got.cif
#   From: 2010.06.25/outbox.cif.g09.slc.cpg/sg13_34_cif.got.tgz:67153.got - 2010.06.28 04:50:58.
