data_PCOD8123485
_publ_section_title
;
Structure prediction by ZEFSAII (Michael W. Deem and Ramdas Pophale) SiO2 
 PCOD8123485
Probable space group: P 21/C
;
_chemical_formula_sum "Si O2"
_cell_formula_units_Z 32
_cell_length_a 13.531355
_cell_length_b 19.232611
_cell_length_c 8.600242
_cell_angle_alpha 90.000000
_cell_angle_beta 129.461345
_cell_angle_gamma 90.000000
_cell_volume 1727.975687
_symmetry_space_group_name_H-M "P 21/C"
_symmetry_group_IT_number 14
_symmetry_cell_setting 'monoclinic'
loop_
_space_group_symop_operation_xyz
x,y,z
-x,1/2+y,1/2-z
-x,-y,-z
x,1/2-y,1/2+z
loop_
_atom_site_type_symbol
_atom_site_label
_atom_site_fract_x
_atom_site_fract_y
_atom_site_fract_z
Si Si1 0.504414 0.678520 0.686307
Si Si2 0.127441 0.538583 0.312397
Si Si3 0.504415 0.678503 0.322445
Si Si4 0.127447 0.538565 0.942471
Si Si5 0.772870 0.324198 0.456710
Si Si6 0.623265 0.962059 0.940917
Si Si7 0.623259 0.962042 0.305589
Si Si8 0.227130 0.675783 0.910933
O O1 0.477073 0.686348 0.477034
O O2 0.560039 0.750012 0.809980
O O3 0.370451 0.658152 0.630916
O O4 0.610953 0.620096 0.828336
O O5 0.132043 0.615934 0.387585
O O6 0.245937 0.492954 0.497925
O O7 0.999995 0.500013 0.243078
O O8 0.129988 0.544677 0.129977
O O9 0.610954 0.620075 0.393514
O O10 0.370450 0.658126 0.109930
O O11 0.132044 0.615909 0.876443
O O12 0.245947 0.492931 0.993962
O O13 0.819051 0.249987 0.569048
O O14 0.776579 0.320897 0.276596
O O15 0.500006 0.000014 0.742670
O O16 0.624268 0.977098 0.124263
#
# Coordination Sequence:
#
# PCOD8123485 Si02
#       8
#     4   4   4   4   4   4   4   4
#     4  10  18  31  52  77 107 137 175 219 269 316
#     4  10  20  36  57  80 107 143 182 217 263 320
#     4  10  18  31  52  77 107 137 175 219 269 316
#     4  10  20  36  57  80 107 143 182 217 263 320
#     4  11  21  34  54  79 108 139 178 221 267 315
#     4   9  16  30  53  77 104 137 174 215 259 314
#     4   9  16  30  53  77 104 137 174 215 259 314
#     4  11  21  34  54  79 108 139 178 221 267 315
#
# _framework density 18.518778000000001
#
# number of rings (size 3 to 8) (size 9 to 14) (size 15 to 20)
#    0.000    2.000    2.500    4.500    0.000    0.500 
#    0.000    5.000    0.000    3.000    0.000    0.000 
#    0.000    0.000    0.000    0.000    0.000    0.000 
#
# Total GULP energy -396760.227578 kJ/mol
# GULP energy per Si atom -12398.757112 kJ/mol
# Density = 1.847663 g / cm^3
# Si number density = 18.518778 Si / 1000 Ang^3
#
#
#
# Elastic Constant Matrix: (Units=GPa)
#
#
# Indices 1 2 3 4 5 6 
#
# 1 71.4670 65.7111 59.5122 0.0000 13.5096 0.0000
# 2 65.7111 160.4780 63.1766 0.0000 19.7404 0.0000
# 3 59.5122 63.1766 68.5003 0.0000 9.7027 0.0000
# 4 0.0000 0.0000 0.0000 31.9622 0.0000 0.8323
# 5 13.5096 19.7404 9.7027 0.0000 33.6826 0.0000
# 6 0.0000 0.0000 0.0000 0.8323 0.0000 32.0635
#
#
#
# Elastic Compliance Matrix: (Units=1/GPa)
#
#
# Indices 1 2 3 4 5 6 
#
# 1 0.055188 -0.005108 -0.042248 0.000000 -0.006971 0.000000
# 2 -0.005108 0.010614 -0.004963 0.000000 -0.002742 0.000000
# 3 -0.042248 -0.004963 0.055325 0.000000 0.003916 0.000000
# 4 0.000000 0.000000 0.000000 0.031308 0.000000 -0.000813
# 5 -0.006971 -0.002742 0.003916 0.000000 0.032964 0.000000
# 6 0.000000 0.000000 0.000000 -0.000813 0.000000 0.031209
#
#
# Mechanical properties :
#
#
# Convention : Reuss Voigt Hill
#
# Bulk Modulus (GPa) = 60.64493 75.24945 67.94719
# Shear Modulus (GPa) = 15.30261 27.01136 21.15699
#
# Velocity S-wave (km/s) = 2.87771 3.82330 3.38370
# Velocity P-wave (km/s) = 6.62273 7.75967 7.21363
#
# Compressibility (1/GPa) = 0.01648943
#
# Stress axis : x y z
#
# Youngs Moduli (GPa) = 18.12001 94.21390 18.07504
#
# Poissons Ratio (x) = 0.48127 0.76363
# Poissons Ratio (y) = 0.09256 0.08970
# Poissons Ratio (z) = 0.76553 0.46757
#
# Static dielectric constant tensor:
#      x y z
#    x 3.260030 0.000000 0.071840 
#    y 0.000000 3.665620 0.000000 
#    z 0.071840 0.000000 3.250550 
# 
# 
# High freq. dielectric constant tensor:
#      x y z
#    x 1.693020 0.000000 -0.006000 
#    y 0.000000 1.737500 0.000000 
#    z -0.006000 0.000000 1.693830 
# 
# From -- ./inp_files/16865.got.cif
#   From: 2010.03.12/outbox.cif.g09.slc.cpg/sg14_9_cif.got.tgz:16865.got - 2010.03.31 13:35:05.
