data_PCOD8123518
_publ_section_title
;
Structure prediction by ZEFSAII (Michael W. Deem and Ramdas Pophale) SiO2 
 PCOD8123518
Probable space group: P 21/C
;
_chemical_formula_sum "Si O2"
_cell_formula_units_Z 28
_cell_length_a 9.625521
_cell_length_b 10.586789
_cell_length_c 22.654792
_cell_angle_alpha 90.000000
_cell_angle_beta 42.819694
_cell_angle_gamma 90.000000
_cell_volume 1569.139941
_symmetry_space_group_name_H-M "P 21/C"
_symmetry_group_IT_number 14
_symmetry_cell_setting 'monoclinic'
loop_
_space_group_symop_operation_xyz
x,y,z
-x,1/2+y,1/2-z
-x,-y,-z
x,1/2-y,1/2+z
loop_
_atom_site_type_symbol
_atom_site_label
_atom_site_fract_x
_atom_site_fract_y
_atom_site_fract_z
Si Si1 0.398595 0.592602 0.207200
Si Si2 0.240859 0.850610 0.287104
Si Si3 0.222711 0.383859 0.058238
Si Si4 0.206726 0.229386 0.439985
Si Si5 0.635670 0.512593 0.656365
Si Si6 0.253152 0.757111 0.412916
Si Si7 0.494386 0.411577 0.079055
O O1 0.268320 0.721600 0.240644
O O2 0.640555 0.629850 0.138983
O O3 0.328848 0.510671 0.284993
O O4 0.364214 0.511682 0.158596
O O5 0.396289 0.959822 0.217063
O O6 0.307388 0.815735 0.332813
O O7 0.013343 0.902603 0.350922
O O8 0.349549 0.342361 0.076534
O O9 0.242289 0.279147 0.000143
O O10 0.312859 0.518997 0.011027
O O11 0.236172 0.369194 0.406454
O O12 0.972620 0.195167 0.498296
O O13 0.723083 0.393501 0.593955
O O14 0.419837 0.802447 0.406910
#
# Coordination Sequence:
#
# PCOD8123518 Si02
#       7
#     4   4   4   4   4   4   4
#     4   9  18  31  54  76 104 129 170 218 253 298
#     4   9  18  33  52  75 101 136 168 207 267 296
#     4   9  20  35  54  70 103 141 171 208 247 310
#     4   9  19  33  54  75 102 137 172 204 258 303
#     4  10  18  32  52  79 107 128 168 219 259 291
#     4  10  19  31  54  79 100 133 172 214 245 304
#     4  10  19  35  52  77 101 133 179 210 244 299
#
# _framework density 17.844169999999998
#
# number of rings (size 3 to 8) (size 9 to 14) (size 15 to 20)
#    0.000    2.571    1.429    0.429    2.000    1.714 
#    2.571    0.714    9.429    0.000    0.000    0.000 
#    0.000    0.000    0.000    0.000    0.000    0.000 
#
# Total GULP energy -347090.696812 kJ/mol
# GULP energy per Si atom -12396.096315 kJ/mol
# Density = 1.780356 g / cm^3
# Si number density = 17.844170 Si / 1000 Ang^3
#
#
#
# Elastic Constant Matrix: (Units=GPa)
#
#
# Indices 1 2 3 4 5 6 
#
# 1 93.6857 22.5356 25.7907 0.0000 6.4636 0.0000
# 2 22.5356 44.2358 9.8100 0.0000 8.1610 0.0000
# 3 25.7907 9.8100 62.9186 0.0000 -4.6818 0.0000
# 4 0.0000 0.0000 0.0000 28.3539 0.0000 4.7408
# 5 6.4636 8.1610 -4.6818 0.0000 24.6304 0.0000
# 6 0.0000 0.0000 0.0000 4.7408 0.0000 18.0275
#
#
#
# Elastic Compliance Matrix: (Units=1/GPa)
#
#
# Indices 1 2 3 4 5 6 
#
# 1 0.013482 -0.005278 -0.004906 0.000000 -0.002722 0.000000
# 2 -0.005278 0.027414 -0.002722 0.000000 -0.008216 0.000000
# 3 -0.004906 -0.002722 0.018757 0.000000 0.005755 0.000000
# 4 0.000000 0.000000 0.000000 0.036891 0.000000 -0.009701
# 5 -0.002722 -0.008216 0.005755 0.000000 0.045131 0.000000
# 6 0.000000 0.000000 0.000000 -0.009701 0.000000 0.058022
#
#
# Mechanical properties :
#
#
# Convention : Reuss Voigt Hill
#
# Bulk Modulus (GPa) = 29.54986 35.23475 32.39230
# Shear Modulus (GPa) = 21.11579 23.71594 22.41586
#
# Velocity S-wave (km/s) = 3.44371 3.64958 3.54814
# Velocity P-wave (km/s) = 5.69281 6.12764 5.91422
#
# Compressibility (1/GPa) = 0.03384111
#
# Stress axis : x y z
#
# Youngs Moduli (GPa) = 74.17329 36.47711 53.31306
#
# Poissons Ratio (x) = 0.19253 0.26155
# Poissons Ratio (y) = 0.39150 0.14512
# Poissons Ratio (z) = 0.36389 0.09930
#
# Static dielectric constant tensor:
#      x y z
#    x 3.081040 0.000000 -0.006670 
#    y 0.000000 3.211170 0.000000 
#    z -0.006670 0.000000 3.520040 
# 
# 
# High freq. dielectric constant tensor:
#      x y z
#    x 1.659900 0.000000 -0.006710 
#    y 0.000000 1.682040 0.000000 
#    z -0.006710 0.000000 1.701830 
# 
# From -- ./inp_files/39647.got.cif
#   From: 2010.03.12/outbox.cif.g09.slc.cpg/sg14_20_cif.got.tgz:39647.got - 2010.03.31 13:35:05.
