data_PCOD8123259
_publ_section_title
;
Structure prediction by ZEFSAII (Michael W. Deem and Ramdas Pophale) SiO2 
 PCOD8123259
Probable space group: P 21/C
;
_chemical_formula_sum "Si O2"
_cell_formula_units_Z 32
_cell_length_a 7.801879
_cell_length_b 10.358696
_cell_length_c 27.950320
_cell_angle_alpha 90.000000
_cell_angle_beta 124.944199
_cell_angle_gamma 90.000000
_cell_volume 1851.618274
_symmetry_space_group_name_H-M "P 21/C"
_symmetry_group_IT_number 14
_symmetry_cell_setting 'monoclinic'
loop_
_space_group_symop_operation_xyz
x,y,z
-x,1/2+y,1/2-z
-x,-y,-z
x,1/2-y,1/2+z
loop_
_atom_site_type_symbol
_atom_site_label
_atom_site_fract_x
_atom_site_fract_y
_atom_site_fract_z
Si Si1 0.256073 0.031398 0.236347
Si Si2 0.985897 0.782662 0.313279
Si Si3 0.313265 0.594174 0.928644
Si Si4 0.275022 0.526635 0.207449
Si Si5 0.944797 0.230412 0.783105
Si Si6 0.231712 0.076310 0.502085
Si Si7 0.654312 0.875492 0.645142
Si Si8 0.794376 0.414589 0.911005
O O1 0.477636 0.014306 0.245832
O O2 0.117588 0.905366 0.203407
O O3 0.145163 0.155068 0.195103
O O4 0.281717 0.044720 0.297496
O O5 0.832778 0.905246 0.284533
O O6 0.160160 0.798713 0.382346
O O7 0.098449 0.767774 0.280377
O O8 0.237385 0.551644 0.969038
O O9 0.316551 0.466942 0.895747
O O10 0.549865 0.653442 0.970137
O O11 0.199935 0.658814 0.218662
O O12 0.210226 0.524123 0.141927
O O13 0.190207 0.253896 0.834701
O O14 0.019942 0.157629 0.454603
O O15 0.213219 0.035564 0.554225
O O16 0.412356 0.826522 0.612138
#
# Coordination Sequence:
#
# PCOD8123259 Si02
#       8
#     4   4   4   4   4   4   4   4
#     4  10  21  31  47  76 104 139 175 200 249 307
#     4  11  19  33  50  73 106 139 168 213 251 297
#     4  10  16  30  49  75 104 135 163 215 260 296
#     4  11  20  34  51  71 107 137 167 214 256 294
#     4  11  19  33  50  72 100 145 176 194 245 324
#     4   9  17  27  49  78 105 123 172 215 269 295
#     4   9  17  30  49  70 103 139 166 206 249 300
#     4   9  17  30  47  78 102 125 163 219 260 295
#
# _framework density 17.282178999999999
#
# number of rings (size 3 to 8) (size 9 to 14) (size 15 to 20)
#    0.000    2.000    3.750    1.500    0.000    0.000 
#    0.000    0.000    0.000    0.000    0.000   15.750 
#    0.000    0.000    0.000    0.000    0.000    0.000 
#
# Total GULP energy -396589.678486 kJ/mol
# GULP energy per Si atom -12393.427453 kJ/mol
# Density = 1.724284 g / cm^3
# Si number density = 17.282179 Si / 1000 Ang^3
#
#
#
# Elastic Constant Matrix: (Units=GPa)
#
#
# Indices 1 2 3 4 5 6 
#
# 1 102.8969 36.3142 50.4348 0.0000 20.3860 0.0000
# 2 36.3142 84.4557 34.0986 0.0000 15.4978 0.0000
# 3 50.4348 34.0986 79.4614 0.0000 20.0954 0.0000
# 4 0.0000 0.0000 0.0000 18.4825 0.0000 3.7986
# 5 20.3860 15.4978 20.0954 0.0000 47.6143 0.0000
# 6 0.0000 0.0000 0.0000 3.7986 0.0000 18.0983
#
#
#
# Elastic Compliance Matrix: (Units=1/GPa)
#
#
# Indices 1 2 3 4 5 6 
#
# 1 0.014950 -0.002924 -0.007676 0.000000 -0.002210 0.000000
# 2 -0.002924 0.015125 -0.004149 0.000000 -0.001920 0.000000
# 3 -0.007676 -0.004149 0.020223 0.000000 -0.003898 0.000000
# 4 0.000000 0.000000 0.000000 0.056545 0.000000 -0.011868
# 5 -0.002210 -0.001920 -0.003898 0.000000 0.024218 0.000000
# 6 0.000000 0.000000 0.000000 -0.011868 0.000000 0.057745
#
#
# Mechanical properties :
#
#
# Convention : Reuss Voigt Hill
#
# Bulk Modulus (GPa) = 48.07418 56.50103 52.28760
# Shear Modulus (GPa) = 22.19884 26.57011 24.38448
#
# Velocity S-wave (km/s) = 3.58787 3.92526 3.76035
# Velocity P-wave (km/s) = 6.71128 7.30122 7.01246
#
# Compressibility (1/GPa) = 0.02080119
#
# Stress axis : x y z
#
# Youngs Moduli (GPa) = 66.88825 66.11445 49.44921
#
# Poissons Ratio (x) = 0.19331 0.37955
# Poissons Ratio (y) = 0.19557 0.20518
# Poissons Ratio (z) = 0.51340 0.27432
#
# Static dielectric constant tensor:
#      x y z
#    x 3.699350 0.000000 0.291390 
#    y 0.000000 2.787330 0.000000 
#    z 0.291390 0.000000 3.427680 
# 
# 
# High freq. dielectric constant tensor:
#      x y z
#    x 1.699030 0.000000 0.009640 
#    y 0.000000 1.601800 0.000000 
#    z 0.009640 0.000000 1.668160 
# 
# From -- ./inp_files/79414.got.cif
#   From: 2010.03.12/outbox.cif.g09.slc.cpg/sg14_40_cif.got.tgz:79414.got - 2010.03.31 13:35:05.
