data_PCOD8123526
_publ_section_title
;
Structure prediction by ZEFSAII (Michael W. Deem and Ramdas Pophale) SiO2 
 PCOD8123526
Probable space group: P 21/C
;
_chemical_formula_sum "Si O2"
_cell_formula_units_Z 32
_cell_length_a 18.954761
_cell_length_b 13.659966
_cell_length_c 13.196874
_cell_angle_alpha 90.000000
_cell_angle_beta 29.824345
_cell_angle_gamma 90.000000
_cell_volume 1699.396377
_symmetry_space_group_name_H-M "P 21/C"
_symmetry_group_IT_number 14
_symmetry_cell_setting 'monoclinic'
loop_
_space_group_symop_operation_xyz
x,y,z
-x,1/2+y,1/2-z
-x,-y,-z
x,1/2-y,1/2+z
loop_
_atom_site_type_symbol
_atom_site_label
_atom_site_fract_x
_atom_site_fract_y
_atom_site_fract_z
Si Si1 0.549428 0.887006 0.082268
Si Si2 0.549428 0.112994 0.082268
Si Si3 0.295146 0.799921 0.296674
Si Si4 0.289203 0.111116 0.919569
Si Si5 0.295146 0.200079 0.296674
Si Si6 0.009381 0.613264 0.102512
Si Si7 0.009381 0.113264 0.602512
Si Si8 0.289203 0.611116 0.419569
O O1 0.589006 0.867030 0.149220
O O2 0.647313 0.820979 0.887366
O O3 0.385124 0.860347 0.268406
O O4 0.579087 0.000000 0.017584
O O5 0.385124 0.139653 0.268407
O O6 0.589006 0.132970 0.149220
O O7 0.647313 0.179021 0.887366
O O8 0.131483 0.829828 0.511264
O O9 0.310886 0.683926 0.298527
O O10 0.138065 0.131342 0.158561
O O11 0.310887 0.183926 0.798527
O O12 0.300023 0.000000 0.865530
O O13 0.131483 0.170172 0.511264
O O14 0.052270 0.500000 0.046155
O O15 0.000000 0.654368 1.000000
O O16 0.861935 0.131342 0.841439
#
# Coordination Sequence:
#
# PCOD8123526 Si02
#       8
#     4   4   4   4   4   4   4   4
#     4  10  20  35  55  80 105 130 171 219 253 298
#     4  10  20  35  55  80 105 130 171 219 253 298
#     4  11  19  32  55  80 102 135 172 212 256 302
#     4  10  21  35  52  77 107 136 170 211 255 306
#     4  11  19  32  55  80 102 135 172 212 256 302
#     4  10  18  32  54  79 103 131 171 217 256 296
#     4  10  18  32  54  79 103 131 171 217 256 296
#     4  10  21  35  52  77 107 136 170 211 255 306
#
# _framework density 18.830214999999999
#
# number of rings (size 3 to 8) (size 9 to 14) (size 15 to 20)
#    0.000    1.750    2.500    4.500    0.000    0.000 
#    0.000    2.500    0.000    5.250    0.000    0.000 
#    0.000    0.000    0.000    0.000    0.000    0.000 
#
# Total GULP energy -396851.106318 kJ/mol
# GULP energy per Si atom -12401.597072 kJ/mol
# Density = 1.878736 g / cm^3
# Si number density = 18.830215 Si / 1000 Ang^3
#
#
#
# Elastic Constant Matrix: (Units=GPa)
#
#
# Indices 1 2 3 4 5 6 
#
# 1 80.3810 54.3659 28.2100 0.0000 -21.1061 0.0000
# 2 54.3659 115.6447 27.6606 0.0000 10.8195 0.0000
# 3 28.2100 27.6606 38.5965 0.0000 -12.7396 0.0000
# 4 0.0000 0.0000 0.0000 25.7559 0.0000 5.2070
# 5 -21.1061 10.8195 -12.7396 0.0000 34.5485 0.0000
# 6 0.0000 0.0000 0.0000 5.2070 0.0000 35.0342
#
#
#
# Elastic Compliance Matrix: (Units=1/GPa)
#
#
# Indices 1 2 3 4 5 6 
#
# 1 0.029458 -0.014925 -0.003816 0.000000 0.021263 0.000000
# 2 -0.014925 0.019653 -0.009356 0.000000 -0.018722 0.000000
# 3 -0.003816 -0.009356 0.040534 0.000000 0.015545 0.000000
# 4 0.000000 0.000000 0.000000 0.040029 0.000000 -0.005949
# 5 0.021263 -0.018722 0.015545 0.000000 0.053530 0.000000
# 6 0.000000 0.000000 0.000000 -0.005949 0.000000 0.029428
#
#
# Mechanical properties :
#
#
# Convention : Reuss Voigt Hill
#
# Bulk Modulus (GPa) = 29.89411 50.56613 40.23012
# Shear Modulus (GPa) = 17.85874 27.36010 22.60942
#
# Velocity S-wave (km/s) = 3.08297 3.81594 3.46887
# Velocity P-wave (km/s) = 5.34630 6.80641 6.12006
#
# Compressibility (1/GPa) = 0.03345141
#
# Stress axis : x y z
#
# Youngs Moduli (GPa) = 33.94706 50.88311 24.67059
#
# Poissons Ratio (x) = 0.75943 0.09415
# Poissons Ratio (y) = 0.50666 0.23081
# Poissons Ratio (z) = 0.12955 0.47604
#
# Static dielectric constant tensor:
#      x y z
#    x 3.537590 0.000000 -0.348640 
#    y 0.000000 3.471040 0.000000 
#    z -0.348640 0.000000 3.270150 
# 
# 
# High freq. dielectric constant tensor:
#      x y z
#    x 1.730420 0.000000 -0.027860 
#    y 0.000000 1.725630 0.000000 
#    z -0.027860 0.000000 1.716300 
# 
# From -- ./inp_files/50378.got.cif
#   From: 2010.03.12/outbox.cif.g09.slc.cpg/sg14_26_cif.got.tgz:50378.got - 2010.03.31 13:35:05.
