data_PCOD8123105
_publ_section_title
;
Structure prediction by ZEFSAII (Michael W. Deem and Ramdas Pophale) SiO2 
 PCOD8123105
Probable space group: P 2/C
;
_chemical_formula_sum "Si O2"
_cell_formula_units_Z 20
_cell_length_a 12.714252
_cell_length_b 7.485067
_cell_length_c 9.597736
_cell_angle_alpha 90.000000
_cell_angle_beta 97.034507
_cell_angle_gamma 90.000000
_cell_volume 906.512551
_symmetry_space_group_name_H-M "P 2/C"
_symmetry_group_IT_number 13
_symmetry_cell_setting 'monoclinic'
loop_
_space_group_symop_operation_xyz
x,y,z
-x,y,1/2-z
-x,-y,-z
x,-y,1/2+z
loop_
_atom_site_type_symbol
_atom_site_label
_atom_site_fract_x
_atom_site_fract_y
_atom_site_fract_z
Si Si1 0.621156 0.710747 0.277917
Si Si2 0.694226 0.399235 0.092067
Si Si3 0.245832 0.067045 0.251749
Si Si4 0.108805 0.080353 0.961606
Si Si5 0.927514 0.468497 0.617027
O O1 0.500000 0.771423 0.250000
O O2 0.643132 0.568760 0.159682
O O3 0.642788 0.625782 0.432434
O O4 0.691843 0.884014 0.261825
O O5 0.674902 0.226161 0.187957
O O6 0.819308 0.423514 0.091019
O O7 0.161053 0.056684 0.362925
O O8 0.187895 0.123624 0.100937
O O9 0.092659 0.258379 0.869033
O O10 0.000000 0.000000 0.000000
O O11 0.000000 0.546330 0.750000
O O12 0.000000 0.500000 0.500000
#
# Coordination Sequence:
#
# PCOD8123105 Si02
#       5
#     4   4   4   4   4
#     4  12  28  50  75 104 140 192 247 306 363 416
#     4  12  26  48  74 105 146 186 245 299 359 433
#     4  12  25  47  69 107 146 184 241 296 353 430
#     4  12  24  42  69 103 148 190 230 284 353 431
#     4  12  24  41  68 106 144 187 232 284 357 430
#
# _framework density 22.062576
#
# number of rings (size 3 to 8) (size 9 to 14) (size 15 to 20)
#    0.000    0.000    4.000    7.200    0.000    1.600 
#    0.000    0.000    0.000    0.000    0.000    0.000 
#    0.000    0.000    0.000    0.000    0.000    0.000 
#
# Total GULP energy -248076.843118 kJ/mol
# GULP energy per Si atom -12403.842156 kJ/mol
# Density = 2.201236 g / cm^3
# Si number density = 22.062576 Si / 1000 Ang^3
#
#
#
# Elastic Constant Matrix: (Units=GPa)
#
#
# Indices 1 2 3 4 5 6 
#
# 1 110.3405 19.3387 38.5969 0.0000 9.4323 0.0000
# 2 19.3387 99.8740 8.8091 0.0000 -1.0119 0.0000
# 3 38.5969 8.8091 129.4597 0.0000 12.5633 0.0000
# 4 0.0000 0.0000 0.0000 16.4043 0.0000 -2.3989
# 5 9.4323 -1.0119 12.5633 0.0000 35.2334 0.0000
# 6 0.0000 0.0000 0.0000 -2.3989 0.0000 24.5744
#
#
#
# Elastic Compliance Matrix: (Units=1/GPa)
#
#
# Indices 1 2 3 4 5 6 
#
# 1 0.010531 -0.001808 -0.002836 0.000000 -0.001860 0.000000
# 2 -0.001808 0.010394 -0.000253 0.000000 0.000873 0.000000
# 3 -0.002836 -0.000253 0.008819 0.000000 -0.002393 0.000000
# 4 0.000000 0.000000 0.000000 0.061842 0.000000 0.006037
# 5 -0.001860 0.000873 -0.002393 0.000000 0.029758 0.000000
# 6 0.000000 0.000000 0.000000 0.006037 0.000000 0.041282
#
#
# Mechanical properties :
#
#
# Convention : Reuss Voigt Hill
#
# Bulk Modulus (GPa) = 50.12477 52.57373 51.34925
# Shear Modulus (GPa) = 27.92197 33.43773 30.67985
#
# Velocity S-wave (km/s) = 3.56136 3.89728 3.73310
# Velocity P-wave (km/s) = 6.29918 6.64325 6.47350
#
# Compressibility (1/GPa) = 0.01995021
#
# Stress axis : x y z
#
# Youngs Moduli (GPa) = 94.96003 96.21112 113.38661
#
# Poissons Ratio (x) = 0.17393 0.32158
# Poissons Ratio (y) = 0.17167 0.02868
# Poissons Ratio (z) = 0.26932 0.02434
#
# Static dielectric constant tensor:
#      x y z
#    x 4.002500 0.000000 -0.014630 
#    y 0.000000 2.012930 0.000000 
#    z -0.014630 0.000000 4.118820 
# 
# 
# High freq. dielectric constant tensor:
#      x y z
#    x 1.861900 0.000000 0.000990 
#    y 0.000000 1.885370 0.000000 
#    z 0.000990 0.000000 1.887380 
# 
# From -- ./inp_files/14947.got.cif
#   From: 2010.06.25/outbox.cif.g09.slc.cpg/sg13_8_cif.got.tgz:14947.got - 2010.06.28 04:50:58.
