data_PCOD8123471
_publ_section_title
;
Structure prediction by ZEFSAII (Michael W. Deem and Ramdas Pophale) SiO2 
 PCOD8123471
Probable space group: P 21/C
;
_chemical_formula_sum "Si O2"
_cell_formula_units_Z 28
_cell_length_a 16.803136
_cell_length_b 8.322394
_cell_length_c 13.243464
_cell_angle_alpha 90.000000
_cell_angle_beta 42.618499
_cell_angle_gamma 90.000000
_cell_volume 1254.012152
_symmetry_space_group_name_H-M "P 21/C"
_symmetry_group_IT_number 14
_symmetry_cell_setting 'monoclinic'
loop_
_space_group_symop_operation_xyz
x,y,z
-x,1/2+y,1/2-z
-x,-y,-z
x,1/2-y,1/2+z
loop_
_atom_site_type_symbol
_atom_site_label
_atom_site_fract_x
_atom_site_fract_y
_atom_site_fract_z
Si Si1 0.292086 0.720754 0.066414
Si Si2 0.474955 0.694652 0.741867
Si Si3 0.673599 0.567838 0.692178
Si Si4 0.905085 0.101163 0.384631
Si Si5 0.652358 0.641688 0.934314
Si Si6 0.847987 0.760181 0.886514
Si Si7 0.725775 0.200030 0.698763
O O1 0.166009 0.712812 0.128798
O O2 0.328692 0.543097 0.061693
O O3 0.281569 0.832068 0.174997
O O4 0.395074 0.793231 0.898790
O O5 0.566138 0.578817 0.712797
O O6 0.534797 0.814003 0.605431
O O7 0.375858 0.598195 0.767137
O O8 0.637763 0.665411 0.827585
O O9 0.787801 0.652208 0.537615
O O10 0.705978 0.386528 0.688765
O O11 0.854079 0.142624 0.543216
O O12 0.042083 0.136901 0.252922
O O13 0.889239 0.914599 0.379768
O O14 0.759673 0.750117 0.874041
#
# Coordination Sequence:
#
# PCOD8123471 Si02
#       7
#     4   4   4   4   4   4   4
#     4   9  19  35  55  79 108 147 187 220 264 328
#     4  10  18  30  54  84 110 136 176 228 268 308
#     4  10  20  36  58  81 109 147 187 224 268 325
#     4  10  21  38  58  81 110 142 182 229 276 325
#     4   9  19  35  55  79 108 147 187 220 264 328
#     4  10  21  38  58  81 110 142 182 229 276 325
#     4  10  20  36  58  81 109 147 187 224 268 325
#
# _framework density 22.328333000000001
#
# number of rings (size 3 to 8) (size 9 to 14) (size 15 to 20)
#    0.000    2.286    0.000    2.571    0.000    4.571 
#    0.000   14.286    0.000   20.571    0.000    0.000 
#    0.000    0.000    0.000    0.000    0.000    0.000 
#
# Total GULP energy -347020.176659 kJ/mol
# GULP energy per Si atom -12393.577738 kJ/mol
# Density = 2.227751 g / cm^3
# Si number density = 22.328333 Si / 1000 Ang^3
#
#
#
# Elastic Constant Matrix: (Units=GPa)
#
#
# Indices 1 2 3 4 5 6 
#
# 1 59.1948 7.3244 45.7097 0.0000 -5.1117 0.0000
# 2 7.3244 32.2341 12.8215 0.0000 -9.1860 0.0000
# 3 45.7097 12.8215 161.5067 0.0000 -10.0670 0.0000
# 4 0.0000 0.0000 0.0000 28.0316 0.0000 1.6205
# 5 -5.1117 -9.1860 -10.0670 0.0000 32.1168 0.0000
# 6 0.0000 0.0000 0.0000 1.6205 0.0000 23.4565
#
#
#
# Elastic Compliance Matrix: (Units=1/GPa)
#
#
# Indices 1 2 3 4 5 6 
#
# 1 0.021851 -0.002332 -0.005940 0.000000 0.000949 0.000000
# 2 -0.002332 0.034752 -0.001532 0.000000 0.009088 0.000000
# 3 -0.005940 -0.001532 0.008066 0.000000 0.001145 0.000000
# 4 0.000000 0.000000 0.000000 0.035817 0.000000 -0.002474
# 5 0.000949 0.009088 0.001145 0.000000 0.034245 0.000000
# 6 0.000000 0.000000 0.000000 -0.002474 0.000000 0.042803
#
#
# Mechanical properties :
#
#
# Convention : Reuss Voigt Hill
#
# Bulk Modulus (GPa) = 22.19246 42.73852 32.46549
# Shear Modulus (GPa) = 23.56679 29.19299 26.37989
#
# Velocity S-wave (km/s) = 3.25232 3.61978 3.44096
# Velocity P-wave (km/s) = 4.90552 6.05416 5.50986
#
# Compressibility (1/GPa) = 0.04506036
#
# Stress axis : x y z
#
# Youngs Moduli (GPa) = 45.76538 28.77497 123.98040
#
# Poissons Ratio (x) = 0.06710 0.73643
# Poissons Ratio (y) = 0.10672 0.18999
# Poissons Ratio (z) = 0.27184 0.04410
#
# Static dielectric constant tensor:
#      x y z
#    x 4.448570 0.000000 0.227940 
#    y 0.000000 3.637230 0.000000 
#    z 0.227940 0.000000 4.408790 
# 
# 
# High freq. dielectric constant tensor:
#      x y z
#    x 1.877280 0.000000 0.003520 
#    y 0.000000 1.855100 0.000000 
#    z 0.003520 0.000000 1.896210 
# 
# From -- ./inp_files/48557.got.cif
#   From: 2010.03.12/outbox.cif.g09.slc.cpg/sg14_25_cif.got.tgz:48557.got - 2010.03.31 13:35:05.
