data_PCOD8123717
_publ_section_title
;
Structure prediction by ZEFSAII (Michael W. Deem and Ramdas Pophale) SiO2 
 PCOD8123717
Probable space group: P 21/C
;
_chemical_formula_sum "Si O2"
_cell_formula_units_Z 32
_cell_length_a 9.979127
_cell_length_b 11.578760
_cell_length_c 14.326005
_cell_angle_alpha 90.000000
_cell_angle_beta 67.106567
_cell_angle_gamma 90.000000
_cell_volume 1524.922500
_symmetry_space_group_name_H-M "P 21/C"
_symmetry_group_IT_number 14
_symmetry_cell_setting 'monoclinic'
loop_
_space_group_symop_operation_xyz
x,y,z
-x,1/2+y,1/2-z
-x,-y,-z
x,1/2-y,1/2+z
loop_
_atom_site_type_symbol
_atom_site_label
_atom_site_fract_x
_atom_site_fract_y
_atom_site_fract_z
Si Si1 0.289480 0.990417 0.000330
Si Si2 0.255264 0.265385 0.456221
Si Si3 0.229866 0.754086 0.081241
Si Si4 0.467470 0.132580 0.533205
Si Si5 0.740647 0.188086 0.717447
Si Si6 0.447706 0.237969 0.728349
Si Si7 0.967418 0.366216 0.000989
Si Si8 0.580409 0.522035 0.334861
O O1 0.202192 0.111355 0.014172
O O2 0.405149 0.983897 0.884536
O O3 0.367862 0.988182 0.077765
O O4 0.194288 0.872345 0.031929
O O5 0.332365 0.181799 0.510611
O O6 0.367537 0.298778 0.344296
O O7 0.116988 0.202025 0.452141
O O8 0.199762 0.767955 0.199387
O O9 0.396947 0.716754 0.023174
O O10 0.123951 0.655953 0.068914
O O11 0.432371 0.138821 0.653208
O O12 0.500000 0.000000 0.500000
O O13 0.616958 0.270328 0.705989
O O14 0.880253 0.177899 0.614548
O O15 0.652877 0.066684 0.743188
O O16 0.369263 0.351528 0.709492
O O17 0.000000 0.500000 0.000000
#
# Coordination Sequence:
#
# PCOD8123717 Si02
#       8
#     4   4   4   4   4   4   4   4
#     4  10  18  39  66  92 125 168 219 285 322 378
#     4  12  25  41  68 102 132 174 235 280 331 408
#     4  11  23  46  69  96 138 178 227 279 343 409
#     4  12  24  41  67 105 140 176 225 289 336 402
#     4  11  23  41  70  97 130 187 227 270 348 409
#     4  12  22  38  69 101 130 177 226 275 339 398
#     4  12  27  48  66  98 145 185 217 280 355 410
#     4  10  18  35  64  95 128 163 221 274 327 390
#
# _framework density 20.984673999999998
#
# number of rings (size 3 to 8) (size 9 to 14) (size 15 to 20)
#    0.000    0.750    6.250    2.250    1.750    1.500 
#    6.750    0.000    0.000    0.000    0.000    0.000 
#    0.000    0.000    0.000    0.000    0.000    0.000 
#
# Total GULP energy -396691.536184 kJ/mol
# GULP energy per Si atom -12396.610506 kJ/mol
# Density = 2.093691 g / cm^3
# Si number density = 20.984674 Si / 1000 Ang^3
#
#
#
# Elastic Constant Matrix: (Units=GPa)
#
#
# Indices 1 2 3 4 5 6 
#
# 1 82.3353 16.5048 29.7980 0.0000 3.3370 0.0000
# 2 16.5048 121.3414 19.9383 0.0000 8.9661 0.0000
# 3 29.7980 19.9383 111.5528 0.0000 12.3841 0.0000
# 4 0.0000 0.0000 0.0000 22.8247 0.0000 3.2416
# 5 3.3370 8.9661 12.3841 0.0000 25.9178 0.0000
# 6 0.0000 0.0000 0.0000 3.2416 0.0000 34.9687
#
#
#
# Elastic Compliance Matrix: (Units=1/GPa)
#
#
# Indices 1 2 3 4 5 6 
#
# 1 0.013643 -0.001315 -0.003448 0.000000 0.000346 0.000000
# 2 -0.001315 0.008753 -0.000946 0.000000 -0.002407 0.000000
# 3 -0.003448 -0.000946 0.010527 0.000000 -0.004259 0.000000
# 4 0.000000 0.000000 0.000000 0.044397 0.000000 -0.004116
# 5 0.000346 -0.002407 -0.004259 0.000000 0.041407 0.000000
# 6 0.000000 0.000000 0.000000 -0.004116 0.000000 0.028978
#
#
# Mechanical properties :
#
#
# Convention : Reuss Voigt Hill
#
# Bulk Modulus (GPa) = 46.49802 49.74575 48.12188
# Shear Modulus (GPa) = 30.06781 33.34148 31.70464
#
# Velocity S-wave (km/s) = 3.78940 3.99036 3.89118
# Velocity P-wave (km/s) = 6.43057 6.70730 6.57039
#
# Compressibility (1/GPa) = 0.02150629
#
# Stress axis : x y z
#
# Youngs Moduli (GPa) = 73.29914 114.24205 94.99192
#
# Poissons Ratio (x) = 0.15020 0.32750
# Poissons Ratio (y) = 0.09637 0.08988
# Poissons Ratio (z) = 0.25271 0.10809
#
# Static dielectric constant tensor:
#      x y z
#    x 3.591880 0.000000 0.124500 
#    y 0.000000 4.145640 0.000000 
#    z 0.124500 0.000000 3.844050 
# 
# 
# High freq. dielectric constant tensor:
#      x y z
#    x 1.794790 0.000000 0.014640 
#    y 0.000000 1.834790 0.000000 
#    z 0.014640 0.000000 1.824520 
# 
# From -- ./inp_files/40276.got.cif
#   From: 2010.03.12/outbox.cif.g09.slc.cpg/sg14_21_cif.got.tgz:40276.got - 2010.03.31 13:35:05.
