data_PCOD8123011
_publ_section_title
;
Structure prediction by ZEFSAII (Michael W. Deem and Ramdas Pophale) SiO2 
 PCOD8123011
Probable space group: P 2/C
;
_chemical_formula_sum "Si O2"
_cell_formula_units_Z 20
_cell_length_a 10.436227
_cell_length_b 9.154283
_cell_length_c 11.581773
_cell_angle_alpha 90.000000
_cell_angle_beta 126.545368
_cell_angle_gamma 90.000000
_cell_volume 888.928748
_symmetry_space_group_name_H-M "P 2/C"
_symmetry_group_IT_number 13
_symmetry_cell_setting 'monoclinic'
loop_
_space_group_symop_operation_xyz
x,y,z
-x,y,1/2-z
-x,-y,-z
x,-y,1/2+z
loop_
_atom_site_type_symbol
_atom_site_label
_atom_site_fract_x
_atom_site_fract_y
_atom_site_fract_z
Si Si1 0.178317 0.749195 0.889227
Si Si2 0.636302 0.722808 0.894303
Si Si3 0.349825 0.556180 0.810542
Si Si4 0.674686 0.758340 0.293339
Si Si5 0.810497 0.930924 0.161134
O O1 0.268791 0.612477 0.883037
O O2 0.000000 0.740185 0.750000
O O3 0.253368 0.904889 0.891585
O O4 0.196132 0.735359 0.036248
O O5 0.500000 0.815839 0.750000
O O6 0.538366 0.601434 0.918109
O O7 0.733423 0.631887 0.847841
O O8 0.747366 0.826399 0.026608
O O9 0.333673 0.383000 0.792444
O O10 0.500000 0.797487 0.250000
O O11 0.743945 0.886931 0.250364
O O12 0.000000 0.923650 0.250000
#
# Coordination Sequence:
#
# PCOD8123011 Si02
#       5
#     4   4   4   4   4
#     4  11  28  45  66 102 145 180 228 284 341 413
#     4   8  20  41  72  88 135 180 217 278 339 390
#     4   9  22  43  69  95 137 174 226 285 334 398
#     4  12  26  44  74 104 133 182 238 280 345 410
#     4  11  27  45  68 102 146 181 227 283 345 409
#
# _framework density 22.498992000000001
#
# number of rings (size 3 to 8) (size 9 to 14) (size 15 to 20)
#    1.200    0.400    2.000    1.200    8.400    8.800 
#    0.000    0.000    0.000    0.000    0.000    0.000 
#    0.000    0.000    0.000    0.000    0.000    0.000 
#
# Total GULP energy -247827.632706 kJ/mol
# GULP energy per Si atom -12391.381635 kJ/mol
# Density = 2.244778 g / cm^3
# Si number density = 22.498992 Si / 1000 Ang^3
#
#
#
# Elastic Constant Matrix: (Units=GPa)
#
#
# Indices 1 2 3 4 5 6 
#
# 1 78.9602 42.4606 20.2048 0.0000 -13.7422 0.0000
# 2 42.4606 108.2472 20.0697 0.0000 -3.1257 0.0000
# 3 20.2048 20.0697 99.9025 0.0000 3.8058 0.0000
# 4 0.0000 0.0000 0.0000 41.9540 0.0000 -12.3737
# 5 -13.7422 -3.1257 3.8058 0.0000 32.5032 0.0000
# 6 0.0000 0.0000 0.0000 -12.3737 0.0000 35.2311
#
#
#
# Elastic Compliance Matrix: (Units=1/GPa)
#
#
# Indices 1 2 3 4 5 6 
#
# 1 0.018046 -0.006376 -0.002648 0.000000 0.007327 0.000000
# 2 -0.006376 0.011892 -0.001045 0.000000 -0.001430 0.000000
# 3 -0.002648 -0.001045 0.010850 0.000000 -0.002490 0.000000
# 4 0.000000 0.000000 0.000000 0.026590 0.000000 0.009339
# 5 0.007327 -0.001430 -0.002490 0.000000 0.034018 0.000000
# 6 0.000000 0.000000 0.000000 0.009339 0.000000 0.031664
#
#
# Mechanical properties :
#
#
# Convention : Reuss Voigt Hill
#
# Bulk Modulus (GPa) = 48.42666 50.28666 49.35666
# Shear Modulus (GPa) = 31.23422 35.56266 33.39844
#
# Velocity S-wave (km/s) = 3.72996 3.98003 3.85702
# Velocity P-wave (km/s) = 6.33410 6.59697 6.46687
#
# Compressibility (1/GPa) = 0.02064978
#
# Stress axis : x y z
#
# Youngs Moduli (GPa) = 55.41372 84.09254 92.16528
#
# Poissons Ratio (x) = 0.53619 0.24404
# Poissons Ratio (y) = 0.35333 0.09631
# Poissons Ratio (z) = 0.14673 0.08787
#
# Static dielectric constant tensor:
#      x y z
#    x 3.855360 0.000000 -0.159620 
#    y 0.000000 4.068690 0.000000 
#    z -0.159620 0.000000 4.046710 
# 
# 
# High freq. dielectric constant tensor:
#      x y z
#    x 1.869160 0.000000 -0.018400 
#    y 0.000000 1.886310 0.000000 
#    z -0.018400 0.000000 1.899690 
# 
# From -- ./inp_files/32761.got.cif
#   From: 2010.06.25/outbox.cif.g09.slc.cpg/sg13_17_cif.got.tgz:32761.got - 2010.06.28 04:50:58.
