data_PCOD8123486
_publ_section_title
;
Structure prediction by ZEFSAII (Michael W. Deem and Ramdas Pophale) SiO2 
 PCOD8123486
Probable space group: P 21/C
;
_chemical_formula_sum "Si O2"
_cell_formula_units_Z 32
_cell_length_a 16.975349
_cell_length_b 8.806642
_cell_length_c 20.311446
_cell_angle_alpha 90.000000
_cell_angle_beta 34.232439
_cell_angle_gamma 90.000000
_cell_volume 1708.174463
_symmetry_space_group_name_H-M "P 21/C"
_symmetry_group_IT_number 14
_symmetry_cell_setting 'monoclinic'
loop_
_space_group_symop_operation_xyz
x,y,z
-x,1/2+y,1/2-z
-x,-y,-z
x,1/2-y,1/2+z
loop_
_atom_site_type_symbol
_atom_site_label
_atom_site_fract_x
_atom_site_fract_y
_atom_site_fract_z
Si Si1 0.049935 0.895214 0.023467
Si Si2 0.339854 0.776400 0.832775
Si Si3 0.922627 0.893530 0.370743
Si Si4 0.646606 0.712000 0.121559
Si Si5 0.952962 0.951789 0.833279
Si Si6 0.340226 0.971693 0.950161
Si Si7 0.647341 0.535569 0.245025
Si Si8 0.070692 0.433645 0.886713
O O1 0.958093 0.744614 0.096257
O O2 0.037518 0.981309 0.100683
O O3 0.208146 0.858861 0.890840
O O4 0.000000 0.000000 0.000000
O O5 0.491349 0.839179 0.703806
O O6 0.326475 0.599136 0.825796
O O7 0.328206 0.811034 0.919607
O O8 0.759845 0.884616 0.502599
O O9 0.983215 0.725983 0.317998
O O10 0.930872 0.981889 0.295933
O O11 0.013181 0.981379 0.362589
O O12 0.664931 0.892262 0.100429
O O13 0.662931 0.684740 0.188672
O O14 0.797974 0.997167 0.909822
O O15 0.489740 0.976594 0.885391
O O16 0.761105 0.538788 0.224738
O O17 0.000000 0.500000 0.000000
#
# Coordination Sequence:
#
# PCOD8123486 Si02
#       8
#     4   4   4   4   4   4   4   4
#     4  11  22  35  56  84 113 141 179 225 276 327
#     4   9  17  30  50  78 109 137 174 224 268 319
#     4  11  21  37  57  81 109 147 186 226 275 328
#     4   9  17  31  52  77 106 141 179 223 264 321
#     4  10  22  38  58  79 109 146 190 227 269 328
#     4   8  18  33  52  78 107 143 181 224 270 320
#     4  10  18  31  52  82 111 140 177 222 278 324
#     4  12  21  33  55  86 116 143 178 224 281 326
#
# _framework density 18.733447999999999
#
# number of rings (size 3 to 8) (size 9 to 14) (size 15 to 20)
#    0.000    2.000    2.500    1.500    3.500    1.000 
#    0.000    0.625    0.000    0.750    0.000    0.000 
#    0.000    0.000    0.000    0.000    0.000    0.000 
#
# Total GULP energy -396465.589364 kJ/mol
# GULP energy per Si atom -12389.549668 kJ/mol
# Density = 1.869081 g / cm^3
# Si number density = 18.733448 Si / 1000 Ang^3
#
#
#
# Elastic Constant Matrix: (Units=GPa)
#
#
# Indices 1 2 3 4 5 6 
#
# 1 86.2239 34.5791 41.3469 0.0000 -16.9498 0.0000
# 2 34.5791 94.9276 23.4194 0.0000 -2.1838 0.0000
# 3 41.3469 23.4194 77.2351 0.0000 -11.6849 0.0000
# 4 0.0000 0.0000 0.0000 21.8726 0.0000 0.9687
# 5 -16.9498 -2.1838 -11.6849 0.0000 35.9587 0.0000
# 6 0.0000 0.0000 0.0000 0.9687 0.0000 27.1306
#
#
#
# Elastic Compliance Matrix: (Units=1/GPa)
#
#
# Indices 1 2 3 4 5 6 
#
# 1 0.018184 -0.004655 -0.007435 0.000000 0.005873 0.000000
# 2 -0.004655 0.012585 -0.001620 0.000000 -0.001956 0.000000
# 3 -0.007435 -0.001620 0.017746 0.000000 0.002164 0.000000
# 4 0.000000 0.000000 0.000000 0.045792 0.000000 -0.001635
# 5 0.005873 -0.001956 0.002164 0.000000 0.031162 0.000000
# 6 0.000000 0.000000 0.000000 -0.001635 0.000000 0.036917
#
#
# Mechanical properties :
#
#
# Convention : Reuss Voigt Hill
#
# Bulk Modulus (GPa) = 47.40249 50.78641 49.09445
# Shear Modulus (GPa) = 25.40179 27.59513 26.49846
#
# Velocity S-wave (km/s) = 3.68633 3.84218 3.76506
# Velocity P-wave (km/s) = 6.59373 6.84486 6.72047
#
# Compressibility (1/GPa) = 0.02109594
#
# Stress axis : x y z
#
# Youngs Moduli (GPa) = 54.99338 79.46262 56.35009
#
# Poissons Ratio (x) = 0.36986 0.41895
# Poissons Ratio (y) = 0.25597 0.09129
# Poissons Ratio (z) = 0.40886 0.12874
#
# Static dielectric constant tensor:
#      x y z
#    x 3.363360 0.000000 -0.444760 
#    y 0.000000 3.541120 0.000000 
#    z -0.444760 0.000000 3.736970 
# 
# 
# High freq. dielectric constant tensor:
#      x y z
#    x 1.695620 0.000000 -0.032600 
#    y 0.000000 1.738270 0.000000 
#    z -0.032600 0.000000 1.724630 
# 
# From -- ./inp_files/68091.got.cif
#   From: 2010.03.12/outbox.cif.g09.slc.cpg/sg14_35_cif.got.tgz:68091.got - 2010.03.31 13:35:05.
