data_PCOD8123370
_publ_section_title
;
Structure prediction by ZEFSAII (Michael W. Deem and Ramdas Pophale) SiO2 
 PCOD8123370
Probable space group: P 21/C
;
_chemical_formula_sum "Si O2"
_cell_formula_units_Z 24
_cell_length_a 23.290790
_cell_length_b 13.379235
_cell_length_c 9.624418
_cell_angle_alpha 90.000000
_cell_angle_beta 156.450042
_cell_angle_gamma 90.000000
_cell_volume 1198.283327
_symmetry_space_group_name_H-M "P 21/C"
_symmetry_group_IT_number 14
_symmetry_cell_setting 'monoclinic'
loop_
_space_group_symop_operation_xyz
x,y,z
-x,1/2+y,1/2-z
-x,-y,-z
x,1/2-y,1/2+z
loop_
_atom_site_type_symbol
_atom_site_label
_atom_site_fract_x
_atom_site_fract_y
_atom_site_fract_z
Si Si1 0.270372 0.650660 0.338697
Si Si2 0.911870 0.448119 0.678873
Si Si3 0.148431 0.187945 0.747759
Si Si4 0.357978 0.675762 0.837347
Si Si5 0.067886 0.349365 0.380629
Si Si6 0.389015 0.054835 0.156266
O O1 0.345750 0.692040 0.645050
O O2 0.333763 0.717672 0.355242
O O3 0.304686 0.532702 0.385347
O O4 0.100952 0.666368 0.973516
O O5 0.756686 0.409128 0.376850
O O6 0.893639 0.532841 0.521299
O O7 0.000000 0.500000 0.000000
O O8 0.012551 0.356253 0.857652
O O9 0.162032 0.298020 0.711184
O O10 0.117237 0.196045 0.841883
O O11 0.284947 0.118978 0.023410
O O12 0.516469 0.631328 0.228938
O O13 0.500000 0.000000 0.500000
#
# Coordination Sequence:
#
# PCOD8123370 Si02
#       6
#     4   4   4   4   4   4
#     4  11  19  38  59  84 112 151 191 235 284 333
#     4  10  17  34  57  80 106 150 192 220 265 344
#     4  11  21  35  59  86 113 148 197 233 275 336
#     4  11  22  36  61  84 113 152 191 231 284 342
#     4  11  19  35  60  85 113 149 192 239 277 327
#     4  10  22  38  59  85 113 156 192 226 278 353
#
# _framework density 20.028652000000001
#
# number of rings (size 3 to 8) (size 9 to 14) (size 15 to 20)
#    0.000    1.333    6.667    3.000    0.000    4.000 
#    0.000    3.333    0.000    0.000    0.000    0.000 
#    0.000    0.000    0.000    0.000    0.000    0.000 
#
# Total GULP energy -297414.595795 kJ/mol
# GULP energy per Si atom -12392.274825 kJ/mol
# Density = 1.998307 g / cm^3
# Si number density = 20.028652 Si / 1000 Ang^3
#
#
#
# Elastic Constant Matrix: (Units=GPa)
#
#
# Indices 1 2 3 4 5 6 
#
# 1 52.6705 5.6150 23.9141 0.0000 22.0523 0.0000
# 2 5.6150 33.2992 11.4849 0.0000 10.7156 0.0000
# 3 23.9141 11.4849 72.3180 0.0000 27.3209 0.0000
# 4 0.0000 0.0000 0.0000 39.4616 0.0000 10.2150
# 5 22.0523 10.7156 27.3209 0.0000 29.9505 0.0000
# 6 0.0000 0.0000 0.0000 10.2150 0.0000 38.5472
#
#
#
# Elastic Compliance Matrix: (Units=1/GPa)
#
#
# Indices 1 2 3 4 5 6 
#
# 1 0.027831 0.002283 -0.002313 0.000000 -0.019199 0.000000
# 2 0.002283 0.034197 -0.001417 0.000000 -0.012623 0.000000
# 3 -0.002313 -0.001417 0.021335 0.000000 -0.017253 0.000000
# 4 0.000000 0.000000 0.000000 0.027207 0.000000 -0.007210
# 5 -0.019199 -0.012623 -0.017253 0.000000 0.067778 0.000000
# 6 0.000000 0.000000 0.000000 -0.007210 0.000000 0.027853
#
#
# Mechanical properties :
#
#
# Convention : Reuss Voigt Hill
#
# Bulk Modulus (GPa) = 12.42703 26.70174 19.56439
# Shear Modulus (GPa) = 21.19383 29.41011 25.30197
#
# Velocity S-wave (km/s) = 3.25649 3.83613 3.55813
# Velocity P-wave (km/s) = 4.51195 5.74299 5.16428
#
# Compressibility (1/GPa) = 0.08046972
#
# Stress axis : x y z
#
# Youngs Moduli (GPa) = 35.93140 29.24270 46.87053
#
# Poissons Ratio (x) = -0.06675 0.10839
# Poissons Ratio (y) = -0.08202 0.06640
# Poissons Ratio (z) = 0.08309 0.04143
#
# Static dielectric constant tensor:
#      x y z
#    x 3.521440 0.000000 0.408700 
#    y 0.000000 4.584680 0.000000 
#    z 0.408700 0.000000 3.779230 
# 
# 
# High freq. dielectric constant tensor:
#      x y z
#    x 1.750530 0.000000 0.035040 
#    y 0.000000 1.797090 0.000000 
#    z 0.035040 0.000000 1.772800 
# 
# From -- ./inp_files/8603.got.cif
#   From: 2010.03.12/outbox.cif.g09.slc.cpg/sg14_5_cif.got.tgz:8603.got - 2010.03.31 13:35:05.
