data_PCOD8123066
_publ_section_title
;
Structure prediction by ZEFSAII (Michael W. Deem and Ramdas Pophale) SiO2 
 PCOD8123066
Probable space group: P 2/C
;
_chemical_formula_sum "Si O2"
_cell_formula_units_Z 20
_cell_length_a 23.958872
_cell_length_b 7.735806
_cell_length_c 9.803641
_cell_angle_alpha 90.000000
_cell_angle_beta 29.598289
_cell_angle_gamma 90.000000
_cell_volume 897.454304
_symmetry_space_group_name_H-M "P 2/C"
_symmetry_group_IT_number 13
_symmetry_cell_setting 'monoclinic'
loop_
_space_group_symop_operation_xyz
x,y,z
-x,y,1/2-z
-x,-y,-z
x,-y,1/2+z
loop_
_atom_site_type_symbol
_atom_site_label
_atom_site_fract_x
_atom_site_fract_y
_atom_site_fract_z
Si Si1 0.474507 0.874293 0.938708
Si Si2 0.870039 0.882900 0.534428
Si Si3 0.382690 0.429824 0.302544
Si Si4 0.781912 0.177634 0.525302
Si Si5 0.236631 0.448143 0.352187
O O1 0.500000 0.987116 0.750000
O O2 0.579429 0.742163 0.701095
O O3 0.351369 0.789998 0.218215
O O4 0.500000 0.000000 0.000000
O O5 0.837424 0.876142 0.763697
O O6 0.854806 0.697875 0.492145
O O7 0.000000 0.936073 0.250000
O O8 0.801183 0.031184 0.599002
O O9 0.299437 0.386133 0.355161
O O10 0.322634 0.550430 0.541525
O O11 0.500000 0.500000 0.000000
O O12 0.824427 0.365294 0.491598
#
# Coordination Sequence:
#
# PCOD8123066 Si02
#       5
#     4   4   4   4   4
#     4  12  23  39  66 103 143 184 223 276 353 427
#     4  12  29  50  74 103 138 190 247 306 360 407
#     4  12  22  43  67 101 147 185 225 280 348 433
#     4  12  26  47  73 105 144 183 241 296 352 436
#     4  12  25  46  73 104 146 187 238 291 357 428
#
# _framework density 22.285256
#
# number of rings (size 3 to 8) (size 9 to 14) (size 15 to 20)
#    0.000    0.000    6.000    3.600    2.800    3.200 
#    0.000    0.000    0.000    0.000    0.000    0.000 
#    0.000    0.000    0.000    0.000    0.000    0.000 
#
# Total GULP energy -247870.648492 kJ/mol
# GULP energy per Si atom -12393.532425 kJ/mol
# Density = 2.223453 g / cm^3
# Si number density = 22.285256 Si / 1000 Ang^3
#
#
#
# Elastic Constant Matrix: (Units=GPa)
#
#
# Indices 1 2 3 4 5 6 
#
# 1 105.7718 36.6507 42.4100 0.0000 22.0979 0.0000
# 2 36.6507 116.3905 10.6289 0.0000 3.0878 0.0000
# 3 42.4100 10.6289 92.1639 0.0000 25.3347 0.0000
# 4 0.0000 0.0000 0.0000 30.5499 0.0000 5.7580
# 5 22.0979 3.0878 25.3347 0.0000 44.3115 0.0000
# 6 0.0000 0.0000 0.0000 5.7580 0.0000 37.9942
#
#
#
# Elastic Compliance Matrix: (Units=1/GPa)
#
#
# Indices 1 2 3 4 5 6 
#
# 1 0.013404 -0.003691 -0.004717 0.000000 -0.003730 0.000000
# 2 -0.003691 0.009700 0.000308 0.000000 0.000989 0.000000
# 3 -0.004717 0.000308 0.014646 0.000000 -0.006043 0.000000
# 4 0.000000 0.000000 0.000000 0.033696 0.000000 -0.005107
# 5 -0.003730 0.000989 -0.006043 0.000000 0.027814 0.000000
# 6 0.000000 0.000000 0.000000 -0.005107 0.000000 0.027094
#
#
# Mechanical properties :
#
#
# Convention : Reuss Voigt Hill
#
# Bulk Modulus (GPa) = 46.40287 54.85615 50.62951
# Shear Modulus (GPa) = 33.39195 37.54689 35.46942
#
# Velocity S-wave (km/s) = 3.87510 4.10912 3.99383
# Velocity P-wave (km/s) = 6.39447 6.86892 6.63594
#
# Compressibility (1/GPa) = 0.02155039
#
# Stress axis : x y z
#
# Youngs Moduli (GPa) = 74.60514 103.09593 68.27633
#
# Poissons Ratio (x) = 0.38054 0.32204
# Poissons Ratio (y) = 0.27537 -0.02104
# Poissons Ratio (z) = 0.35190 -0.03176
#
# Static dielectric constant tensor:
#      x y z
#    x 4.476980 0.000000 0.312360 
#    y 0.000000 2.251560 0.000000 
#    z 0.312360 0.000000 3.869700 
# 
# 
# High freq. dielectric constant tensor:
#      x y z
#    x 1.895000 0.000000 0.026320 
#    y 0.000000 1.881260 0.000000 
#    z 0.026320 0.000000 1.878060 
# 
# From -- ./inp_files/14917.got.cif
#   From: 2010.06.25/outbox.cif.g09.slc.cpg/sg13_8_cif.got.tgz:14917.got - 2010.06.28 04:50:58.
