data_PCOD8123579
_publ_section_title
;
Structure prediction by ZEFSAII (Michael W. Deem and Ramdas Pophale) SiO2 
 PCOD8123579
Probable space group: P 21/C
;
_chemical_formula_sum "Si O2"
_cell_formula_units_Z 32
_cell_length_a 11.413647
_cell_length_b 11.860631
_cell_length_c 13.159237
_cell_angle_alpha 90.000000
_cell_angle_beta 86.050679
_cell_angle_gamma 90.000000
_cell_volume 1777.175923
_symmetry_space_group_name_H-M "P 21/C"
_symmetry_group_IT_number 14
_symmetry_cell_setting 'monoclinic'
loop_
_space_group_symop_operation_xyz
x,y,z
-x,1/2+y,1/2-z
-x,-y,-z
x,1/2-y,1/2+z
loop_
_atom_site_type_symbol
_atom_site_label
_atom_site_fract_x
_atom_site_fract_y
_atom_site_fract_z
Si Si1 0.325904 0.634249 0.335438
Si Si2 0.586572 0.918720 0.784507
Si Si3 0.160843 0.894253 0.030673
Si Si4 0.717835 0.749825 0.908093
Si Si5 0.433334 0.256427 0.894427
Si Si6 0.740332 0.896662 0.214278
Si Si7 0.666419 0.335231 0.312460
Si Si8 0.902050 0.858787 0.027899
O O1 0.463280 0.610502 0.345912
O O2 0.260738 0.641096 0.446171
O O3 0.271797 0.531140 0.273570
O O4 0.302940 0.752481 0.281672
O O5 0.687409 0.863956 0.848813
O O6 0.588899 0.867616 0.671359
O O7 0.609364 0.050873 0.771603
O O8 0.212775 0.862444 0.137130
O O9 0.039465 0.827152 0.018577
O O10 0.128709 0.025401 0.027561
O O11 0.740117 0.649428 0.828224
O O12 0.610150 0.718429 0.989149
O O13 0.834662 0.762596 0.968844
O O14 0.366337 0.150524 0.847710
O O15 0.571028 0.225890 0.890730
O O16 0.860231 0.864391 0.147965
#
# Coordination Sequence:
#
# PCOD8123579 Si02
#       8
#     4   4   4   4   4   4   4   4
#     4  10  21  35  51  78 112 135 166 217 261 310
#     4  10  19  33  53  79 106 135 174 208 256 314
#     4  10  20  35  53  77 103 136 179 215 256 304
#     4  10  18  33  57  77 101 138 173 216 258 300
#     4   9  19  32  52  82 103 132 173 212 255 311
#     4   9  18  34  54  76 105 134 171 217 260 303
#     4  11  20  34  54  77 108 142 166 211 262 310
#     4   9  19  34  55  78  99 132 184 223 244 298
#
# _framework density 18.006095999999999
#
# number of rings (size 3 to 8) (size 9 to 14) (size 15 to 20)
#    0.000    2.250    2.500    0.750    0.000    2.000 
#    2.250    1.250    0.000    0.750    0.000    0.000 
#    0.000    0.000    0.000    0.000    0.000    0.000 
#
# Total GULP energy -396781.032150 kJ/mol
# GULP energy per Si atom -12399.407255 kJ/mol
# Density = 1.796511 g / cm^3
# Si number density = 18.006096 Si / 1000 Ang^3
#
#
#
# Elastic Constant Matrix: (Units=GPa)
#
#
# Indices 1 2 3 4 5 6 
#
# 1 69.7146 23.6315 20.3955 0.0000 9.8830 0.0000
# 2 23.6315 86.7385 39.3220 0.0000 2.5377 0.0000
# 3 20.3955 39.3220 65.9888 0.0000 5.4679 0.0000
# 4 0.0000 0.0000 0.0000 21.7517 0.0000 -2.4929
# 5 9.8830 2.5377 5.4679 0.0000 19.4671 0.0000
# 6 0.0000 0.0000 0.0000 -2.4929 0.0000 18.3960
#
#
#
# Elastic Compliance Matrix: (Units=1/GPa)
#
#
# Indices 1 2 3 4 5 6 
#
# 1 0.017336 -0.003230 -0.002804 0.000000 -0.007592 0.000000
# 2 -0.003230 0.016404 -0.008944 0.000000 0.002013 0.000000
# 3 -0.002804 -0.008944 0.021640 0.000000 -0.003488 0.000000
# 4 0.000000 0.000000 0.000000 0.046699 0.000000 0.006328
# 5 -0.007592 0.002013 -0.003488 0.000000 0.055940 0.000000
# 6 0.000000 0.000000 0.000000 0.006328 0.000000 0.055217
#
#
# Mechanical properties :
#
#
# Convention : Reuss Voigt Hill
#
# Bulk Modulus (GPa) = 39.33315 43.23776 41.28546
# Shear Modulus (GPa) = 19.86757 21.19583 20.53170
#
# Velocity S-wave (km/s) = 3.32532 3.43468 3.38044
# Velocity P-wave (km/s) = 6.05272 6.30828 6.18182
#
# Compressibility (1/GPa) = 0.02542385
#
# Stress axis : x y z
#
# Youngs Moduli (GPa) = 57.68451 60.95892 46.21176
#
# Poissons Ratio (x) = 0.19687 0.12960
# Poissons Ratio (y) = 0.18629 0.41331
# Poissons Ratio (z) = 0.16178 0.54521
#
# Static dielectric constant tensor:
#      x y z
#    x 3.415770 0.000000 -0.095410 
#    y 0.000000 3.178530 0.000000 
#    z -0.095410 0.000000 3.150130 
# 
# 
# High freq. dielectric constant tensor:
#      x y z
#    x 1.693850 0.000000 -0.005220 
#    y 0.000000 1.681710 0.000000 
#    z -0.005220 0.000000 1.687640 
# 
# From -- ./inp_files/29103.got.cif
#   From: 2010.03.12/outbox.cif.g09.slc.cpg/sg14_15_cif.got.tgz:29103.got - 2010.03.31 13:35:05.
