data_PCOD8123790
_publ_section_title
;
Structure prediction by ZEFSAII (Michael W. Deem and Ramdas Pophale) SiO2 
 PCOD8123790
Probable space group: P 21/C
;
_chemical_formula_sum "Si O2"
_cell_formula_units_Z 28
_cell_length_a 21.377052
_cell_length_b 16.843527
_cell_length_c 11.677277
_cell_angle_alpha 90.000000
_cell_angle_beta 159.617396
_cell_angle_gamma 90.000000
_cell_volume 1464.401841
_symmetry_space_group_name_H-M "P 21/C"
_symmetry_group_IT_number 14
_symmetry_cell_setting 'monoclinic'
loop_
_space_group_symop_operation_xyz
x,y,z
-x,1/2+y,1/2-z
-x,-y,-z
x,1/2-y,1/2+z
loop_
_atom_site_type_symbol
_atom_site_label
_atom_site_fract_x
_atom_site_fract_y
_atom_site_fract_z
Si Si1 0.783429 0.572379 0.330996
Si Si2 0.022105 0.584157 0.360093
Si Si3 0.373577 0.564564 0.584276
Si Si4 0.902255 0.333690 0.745169
Si Si5 0.152703 0.436299 0.294261
Si Si6 0.691725 0.472451 0.783198
Si Si7 0.071119 0.847591 0.185574
O O1 0.839240 0.577895 0.558096
O O2 0.890885 0.640657 0.449637
O O3 0.839658 0.487249 0.376785
O O4 0.576285 0.588246 0.955995
O O5 0.021425 0.641616 0.467608
O O6 0.095598 0.634461 0.380141
O O7 0.823322 0.548413 0.996641
O O8 0.255564 0.625763 0.453647
O O9 0.339356 0.473481 0.568401
O O10 0.328139 0.571113 0.372575
O O11 0.861409 0.240955 0.676349
O O12 0.096433 0.353996 0.136419
O O13 0.000000 0.500000 0.000000
O O14 0.500000 0.500000 0.500000
O O15 0.773371 0.408760 0.011154
#
# Coordination Sequence:
#
# PCOD8123790 Si02
#       7
#     4   4   4   4   4   4   4
#     4  11  21  40  65  93 116 160 214 254 301 366
#     4  11  21  40  64  87 123 162 211 247 305 375
#     4  11  21  39  65  93 122 159 212 258 301 377
#     4  11  23  40  59  95 125 166 200 255 324 365
#     4  10  18  37  61  88 116 160 203 248 300 368
#     4  11  22  43  68  90 119 166 218 252 303 369
#     4  11  25  39  62  91 129 164 200 263 316 362
#
# _framework density 19.120436000000002
#
# number of rings (size 3 to 8) (size 9 to 14) (size 15 to 20)
#    0.000    1.143    4.286    6.429    4.000    0.000 
#    2.571    1.429    0.000    0.000    0.000    0.000 
#    0.000    0.000    0.000    0.000    0.000    0.000 
#
# Total GULP energy -347224.503276 kJ/mol
# GULP energy per Si atom -12400.875117 kJ/mol
# Density = 1.907692 g / cm^3
# Si number density = 19.120436 Si / 1000 Ang^3
#
#
#
# Elastic Constant Matrix: (Units=GPa)
#
#
# Indices 1 2 3 4 5 6 
#
# 1 144.7800 40.1216 61.9239 0.0000 -8.2176 0.0000
# 2 40.1216 94.9310 43.9940 0.0000 5.5547 0.0000
# 3 61.9239 43.9940 122.5141 0.0000 11.3696 0.0000
# 4 0.0000 0.0000 0.0000 14.4136 0.0000 -1.1966
# 5 -8.2176 5.5547 11.3696 0.0000 34.7456 0.0000
# 6 0.0000 0.0000 0.0000 -1.1966 0.0000 21.1513
#
#
#
# Elastic Compliance Matrix: (Units=1/GPa)
#
#
# Indices 1 2 3 4 5 6 
#
# 1 0.009674 -0.002263 -0.004458 0.000000 0.004109 0.000000
# 2 -0.002263 0.013177 -0.003447 0.000000 -0.001514 0.000000
# 3 -0.004458 -0.003447 0.012067 0.000000 -0.004452 0.000000
# 4 0.000000 0.000000 0.000000 0.069706 0.000000 0.003943
# 5 0.004109 -0.001514 -0.004452 0.000000 0.031451 0.000000
# 6 0.000000 0.000000 0.000000 0.003943 0.000000 0.047502
#
#
# Mechanical properties :
#
#
# Convention : Reuss Voigt Hill
#
# Bulk Modulus (GPa) = 68.58631 72.70045 70.64338
# Shear Modulus (GPa) = 23.94929 28.47448 26.21188
#
# Velocity S-wave (km/s) = 3.54298 3.86322 3.70656
# Velocity P-wave (km/s) = 7.25848 7.61605 7.43941
#
# Compressibility (1/GPa) = 0.01458017
#
# Stress axis : x y z
#
# Youngs Moduli (GPa) = 103.36666 75.89240 82.87119
#
# Poissons Ratio (x) = 0.17174 0.36948
# Poissons Ratio (y) = 0.23391 0.28569
# Poissons Ratio (z) = 0.46086 0.26163
#
# Static dielectric constant tensor:
#      x y z
#    x 3.739930 0.000000 -0.037560 
#    y 0.000000 3.834360 0.000000 
#    z -0.037560 0.000000 3.889190 
# 
# 
# High freq. dielectric constant tensor:
#      x y z
#    x 1.767960 0.000000 -0.005790 
#    y 0.000000 1.718260 0.000000 
#    z -0.005790 0.000000 1.740690 
# 
# From -- ./inp_files/35412.got.cif
#   From: 2010.03.12/outbox.cif.g09.slc.cpg/sg14_18_cif.got.tgz:35412.got - 2010.03.31 13:35:05.
