data_PCOD8123649
_publ_section_title
;
Structure prediction by ZEFSAII (Michael W. Deem and Ramdas Pophale) SiO2 
 PCOD8123649
Probable space group: P 21/C
;
_chemical_formula_sum "Si O2"
_cell_formula_units_Z 32
_cell_length_a 8.516704
_cell_length_b 16.278884
_cell_length_c 20.869483
_cell_angle_alpha 90.000000
_cell_angle_beta 36.728441
_cell_angle_gamma 90.000000
_cell_volume 1730.317530
_symmetry_space_group_name_H-M "P 21/C"
_symmetry_group_IT_number 14
_symmetry_cell_setting 'monoclinic'
loop_
_space_group_symop_operation_xyz
x,y,z
-x,1/2+y,1/2-z
-x,-y,-z
x,1/2-y,1/2+z
loop_
_atom_site_type_symbol
_atom_site_label
_atom_site_fract_x
_atom_site_fract_y
_atom_site_fract_z
Si Si1 0.445256 0.150693 0.346159
Si Si2 0.113200 0.841577 0.408675
Si Si3 0.757693 0.403968 0.522438
Si Si4 0.551351 0.787921 0.795468
Si Si5 0.291128 0.429977 0.404933
Si Si6 0.046611 0.345778 0.305479
Si Si7 0.468658 0.031684 0.706542
Si Si8 0.745291 0.193437 0.776099
O O1 0.407096 0.164412 0.283723
O O2 0.672129 0.209681 0.301127
O O3 0.173179 0.168934 0.469721
O O4 0.528110 0.056450 0.328654
O O5 0.306696 0.773167 0.373063
O O6 0.238660 0.929662 0.386893
O O7 0.086138 0.830954 0.341075
O O8 0.506532 0.352599 0.628958
O O9 0.687955 0.501404 0.545932
O O10 0.998622 0.392683 0.493902
O O11 0.828478 0.372543 0.428589
O O12 0.823361 0.740984 0.718879
O O13 0.361423 0.472108 0.314095
O O14 0.469400 0.353572 0.364301
O O15 0.273009 0.414249 0.226956
O O16 0.909663 0.335292 0.282578
#
# Coordination Sequence:
#
# PCOD8123649 Si02
#       8
#     4   4   4   4   4   4   4   4
#     4  11  19  35  59  82  99 140 190 223 268 311
#     4   9  19  34  56  77 107 138 178 228 269 300
#     4  10  18  34  60  82 101 139 184 226 267 304
#     4  10  19  34  56  81 105 137 181 230 261 311
#     4   9  18  35  58  81 106 133 183 231 266 304
#     4  10  22  37  51  79 120 143 170 215 275 328
#     4   9  18  36  56  82 105 136 181 232 262 315
#     4  10  22  37  50  78 118 144 171 220 266 331
#
# _framework density 18.493715999999999
#
# number of rings (size 3 to 8) (size 9 to 14) (size 15 to 20)
#    0.000    2.250    1.250    4.125    0.000    1.500 
#    2.250    0.625    0.000    0.000    0.000    0.000 
#    0.000    0.000    0.000    0.000    0.000    0.000 
#
# Total GULP energy -396771.141776 kJ/mol
# GULP energy per Si atom -12399.098180 kJ/mol
# Density = 1.845162 g / cm^3
# Si number density = 18.493716 Si / 1000 Ang^3
#
#
#
# Elastic Constant Matrix: (Units=GPa)
#
#
# Indices 1 2 3 4 5 6 
#
# 1 73.5704 28.8034 22.4386 0.0000 12.8382 0.0000
# 2 28.8034 97.1308 30.7721 0.0000 7.1500 0.0000
# 3 22.4386 30.7721 88.7350 0.0000 4.8609 0.0000
# 4 0.0000 0.0000 0.0000 -44.1162 0.0000 -50.4540
# 5 12.8382 7.1500 4.8609 0.0000 15.4080 0.0000
# 6 0.0000 0.0000 0.0000 -50.4540 0.0000 -20.0293
#
#
#
# Elastic Compliance Matrix: (Units=1/GPa)
#
#
# Indices 1 2 3 4 5 6 
#
# 1 0.017972 -0.003581 -0.002619 0.000000 -0.012487 0.000000
# 2 -0.003581 0.012549 -0.003349 0.000000 -0.001784 0.000000
# 3 -0.002619 -0.003349 0.013115 0.000000 -0.000401 0.000000
# 4 0.000000 0.000000 0.000000 0.012051 0.000000 -0.030358
# 5 -0.012487 -0.001784 -0.000401 0.000000 0.076260 0.000000
# 6 0.000000 0.000000 0.000000 -0.030358 0.000000 0.026544
#
#
# Mechanical properties :
#
#
# Convention : Reuss Voigt Hill
#
# Bulk Modulus (GPa) = 40.74997 47.05159 43.90078
# Shear Modulus (GPa) = 26.91520 2.08065 14.49793
#
# Velocity S-wave (km/s) = 3.81907 1.06184 2.80293
# Velocity P-wave (km/s) = 6.44433 5.19620 5.85363
#
# Compressibility (1/GPa) = 0.02453990
#
# Stress axis : x y z
#
# Youngs Moduli (GPa) = 55.64225 79.68491 76.24810
#
# Poissons Ratio (x) = 0.28532 0.19968
# Poissons Ratio (y) = 0.19923 0.25534
# Poissons Ratio (z) = 0.14572 0.26685
#
# Static dielectric constant tensor:
#      x y z
#    x 3.076940 0.000000 -0.032520 
#    y 0.000000 3.535650 0.000000 
#    z -0.032520 0.000000 3.428200 
# 
# 
# High freq. dielectric constant tensor:
#      x y z
#    x 1.680310 0.000000 -0.002920 
#    y 0.000000 1.728840 0.000000 
#    z -0.002920 0.000000 1.721700 
# 
# From -- ./inp_files/65838.got.cif
#   From: 2010.03.12/outbox.cif.g09.slc.cpg/sg14_33_cif.got.tgz:65838.got - 2010.03.31 13:35:05.
