data_PCOD8123232
_publ_section_title
;
Structure prediction by ZEFSAII (Michael W. Deem and Ramdas Pophale) SiO2 
 PCOD8123232
Probable space group: P 21/C
;
_chemical_formula_sum "Si O2"
_cell_formula_units_Z 28
_cell_length_a 18.356405
_cell_length_b 17.082263
_cell_length_c 5.229553
_cell_angle_alpha 90.000000
_cell_angle_beta 115.198384
_cell_angle_gamma 90.000000
_cell_volume 1483.778057
_symmetry_space_group_name_H-M "P 21/C"
_symmetry_group_IT_number 14
_symmetry_cell_setting 'monoclinic'
loop_
_space_group_symop_operation_xyz
x,y,z
-x,1/2+y,1/2-z
-x,-y,-z
x,1/2-y,1/2+z
loop_
_atom_site_type_symbol
_atom_site_label
_atom_site_fract_x
_atom_site_fract_y
_atom_site_fract_z
Si Si1 0.908307 0.051389 0.621928
Si Si2 0.904737 0.954628 0.116161
Si Si3 0.194028 0.297622 0.539043
Si Si4 0.202013 0.800940 0.535749
Si Si5 0.379249 0.700853 0.360801
Si Si6 0.450362 0.157066 0.929392
Si Si7 0.617891 0.830358 0.672580
O O1 0.863101 0.132540 0.520385
O O2 0.002586 0.070956 0.755293
O O3 0.883546 0.994574 0.353603
O O4 0.883585 0.013083 0.853663
O O5 0.850620 0.879054 0.002558
O O6 0.167921 0.256204 0.237679
O O7 0.288704 0.311853 0.686103
O O8 0.189738 0.736479 0.738176
O O9 0.291732 0.838954 0.691331
O O10 0.386662 0.730360 0.662722
O O11 0.453455 0.640892 0.427450
O O12 0.433131 0.250251 0.901460
O O13 0.408587 0.119624 0.117856
O O14 0.407277 0.119838 0.615570
#
# Coordination Sequence:
#
# PCOD8123232 Si02
#       7
#     4   4   4   4   4   4   4
#     4  10  21  43  57  77 107 143 190 207 262 343
#     4  10  23  38  61  76 103 154 180 212 261 336
#     4  12  21  33  51  86 116 129 180 229 273 301
#     4  10  21  33  56  86 111 131 173 238 277 299
#     4  10  16  25  42  72 105 128 170 205 262 305
#     4  10  14  25  41  64 104 139 160 200 267 302
#     4  10  16  25  42  67 105 135 161 213 260 298
#
# _framework density 18.870746
#
# number of rings (size 3 to 8) (size 9 to 14) (size 15 to 20)
#    0.000    1.714    5.714    1.714    0.000    1.143 
#    0.000    0.000    0.000    0.000    0.000    6.000 
#    0.000    0.000    0.000    0.000    0.000    0.000 
#
# Total GULP energy -347076.169477 kJ/mol
# GULP energy per Si atom -12395.577481 kJ/mol
# Density = 1.882780 g / cm^3
# Si number density = 18.870746 Si / 1000 Ang^3
#
#
#
# Elastic Constant Matrix: (Units=GPa)
#
#
# Indices 1 2 3 4 5 6 
#
# 1 67.7203 28.8389 37.7125 0.0000 -4.0022 0.0000
# 2 28.8389 40.8485 17.5977 0.0000 15.6072 0.0000
# 3 37.7125 17.5977 110.9534 0.0000 -20.9440 0.0000
# 4 0.0000 0.0000 0.0000 18.6271 0.0000 1.7404
# 5 -4.0022 15.6072 -20.9440 0.0000 35.4710 0.0000
# 6 0.0000 0.0000 0.0000 1.7404 0.0000 16.1394
#
#
#
# Elastic Compliance Matrix: (Units=1/GPa)
#
#
# Indices 1 2 3 4 5 6 
#
# 1 0.026252 -0.020642 -0.003799 0.000000 0.009801 0.000000
# 2 -0.020642 0.053700 -0.007203 0.000000 -0.030210 0.000000
# 3 -0.003799 -0.007203 0.013465 0.000000 0.010691 0.000000
# 4 0.000000 0.000000 0.000000 0.054232 0.000000 -0.005848
# 5 0.009801 -0.030210 0.010691 0.000000 0.048903 0.000000
# 6 0.000000 0.000000 0.000000 -0.005848 0.000000 0.062591
#
#
# Mechanical properties :
#
#
# Convention : Reuss Voigt Hill
#
# Bulk Modulus (GPa) = 33.19219 43.09115 38.14167
# Shear Modulus (GPa) = 15.03882 23.07236 19.05559
#
# Velocity S-wave (km/s) = 2.82607 3.50044 3.18118
# Velocity P-wave (km/s) = 5.31755 6.26274 5.80940
#
# Compressibility (1/GPa) = 0.03012757
#
# Stress axis : x y z
#
# Youngs Moduli (GPa) = 38.09255 18.62204 74.26886
#
# Poissons Ratio (x) = 0.38440 0.28213
# Poissons Ratio (y) = 0.78631 0.53499
# Poissons Ratio (z) = 0.14471 0.13414
#
# Static dielectric constant tensor:
#      x y z
#    x 4.305520 0.000000 -1.150880 
#    y 0.000000 2.789620 0.000000 
#    z -1.150880 0.000000 5.692780 
# 
# 
# High freq. dielectric constant tensor:
#      x y z
#    x 1.751960 0.000000 -0.011240 
#    y 0.000000 1.658470 0.000000 
#    z -0.011240 0.000000 1.765580 
# 
# From -- ./inp_files/4204.got.cif
#   From: 2010.03.12/outbox.cif.g09.slc.cpg/sg14_3_cif.got.tgz:4204.got - 2010.03.31 13:35:05.
