data_PCOD8123501
_publ_section_title
;
Structure prediction by ZEFSAII (Michael W. Deem and Ramdas Pophale) SiO2 
 PCOD8123501
Probable space group: P 21/C
;
_chemical_formula_sum "Si O2"
_cell_formula_units_Z 28
_cell_length_a 12.172286
_cell_length_b 17.064480
_cell_length_c 21.012061
_cell_angle_alpha 90.000000
_cell_angle_beta 20.144216
_cell_angle_gamma 90.000000
_cell_volume 1503.063091
_symmetry_space_group_name_H-M "P 21/C"
_symmetry_group_IT_number 14
_symmetry_cell_setting 'monoclinic'
loop_
_space_group_symop_operation_xyz
x,y,z
-x,1/2+y,1/2-z
-x,-y,-z
x,1/2-y,1/2+z
loop_
_atom_site_type_symbol
_atom_site_label
_atom_site_fract_x
_atom_site_fract_y
_atom_site_fract_z
Si Si1 0.080471 0.700804 0.702147
Si Si2 0.632219 0.627127 0.328055
Si Si3 0.806623 0.708842 0.715148
Si Si4 0.291660 0.584088 0.023794
Si Si5 0.302244 0.953746 0.757783
Si Si6 0.399443 0.848574 0.594597
Si Si7 0.754688 0.077390 0.071135
O O1 0.361198 0.640801 0.529622
O O2 0.225916 0.768738 0.667134
O O3 0.929629 0.732359 0.718651
O O4 0.780483 0.660578 0.900798
O O5 0.718109 0.704808 0.238712
O O6 0.507828 0.568050 0.341313
O O7 0.924415 0.588009 0.204927
O O8 0.064828 0.661323 0.533913
O O9 0.482346 0.658848 0.892927
O O10 0.337685 0.584487 0.074940
O O11 0.416239 0.503513 0.926804
O O12 0.242228 0.877946 0.745937
O O13 0.403138 0.925414 0.773387
O O14 0.983027 0.003910 0.936109
#
# Coordination Sequence:
#
# PCOD8123501 Si02
#       7
#     4   4   4   4   4   4   4
#     4  10  18  31  57  84 106 130 175 229 276 306
#     4  11  17  33  60  83 104 133 187 232 255 313
#     4   9  16  32  58  82 103 135 178 229 263 307
#     4  10  18  31  57  83 104 141 178 219 275 315
#     4  10  22  39  52  72 117 152 175 215 266 330
#     4  11  19  36  56  80 109 143 174 224 274 323
#     4   9  21  38  55  77 106 151 186 211 265 318
#
# _framework density 18.628627000000002
#
# number of rings (size 3 to 8) (size 9 to 14) (size 15 to 20)
#    0.000    2.000    4.286    2.143    0.000    0.571 
#    2.571    4.286    0.000    0.000    0.000    0.000 
#    0.000    0.000    0.000    0.000    0.000    0.000 
#
# Total GULP energy -347017.497501 kJ/mol
# GULP energy per Si atom -12393.482054 kJ/mol
# Density = 1.858623 g / cm^3
# Si number density = 18.628627 Si / 1000 Ang^3
#
#
#
# Elastic Constant Matrix: (Units=GPa)
#
#
# Indices 1 2 3 4 5 6 
#
# 1 93.6713 45.8411 61.5930 0.0000 5.6422 0.0000
# 2 45.8411 52.1451 25.1101 0.0000 5.0499 0.0000
# 3 61.5930 25.1101 89.3876 0.0000 -11.0244 0.0000
# 4 0.0000 0.0000 0.0000 14.1082 0.0000 -0.3152
# 5 5.6422 5.0499 -11.0244 0.0000 35.5026 0.0000
# 6 0.0000 0.0000 0.0000 -0.3152 0.0000 31.2279
#
#
#
# Elastic Compliance Matrix: (Units=1/GPa)
#
#
# Indices 1 2 3 4 5 6 
#
# 1 0.032084 -0.018872 -0.017785 0.000000 -0.007937 0.000000
# 2 -0.018872 0.034277 0.003269 0.000000 -0.000861 0.000000
# 3 -0.017785 0.003269 0.023724 0.000000 0.009728 0.000000
# 4 0.000000 0.000000 0.000000 0.070897 0.000000 0.000716
# 5 -0.007937 -0.000861 0.009728 0.000000 0.032572 0.000000
# 6 0.000000 0.000000 0.000000 0.000716 0.000000 0.032030
#
#
# Mechanical properties :
#
#
# Convention : Reuss Voigt Hill
#
# Bulk Modulus (GPa) = 42.90375 55.58806 49.24591
# Shear Modulus (GPa) = 16.65949 23.01172 19.83561
#
# Velocity S-wave (km/s) = 2.99372 3.51848 3.26665
# Velocity P-wave (km/s) = 5.91869 6.81257 6.38130
#
# Compressibility (1/GPa) = 0.02330798
#
# Stress axis : x y z
#
# Youngs Moduli (GPa) = 31.16829 29.17392 42.15197
#
# Poissons Ratio (x) = 0.55058 0.74968
# Poissons Ratio (y) = 0.58821 -0.13779
# Poissons Ratio (z) = 0.55433 -0.09537
#
# Static dielectric constant tensor:
#      x y z
#    x 3.304700 0.000000 -0.104550 
#    y 0.000000 3.322090 0.000000 
#    z -0.104550 0.000000 3.533720 
# 
# 
# High freq. dielectric constant tensor:
#      x y z
#    x 1.702330 0.000000 -0.016620 
#    y 0.000000 1.709520 0.000000 
#    z -0.016620 0.000000 1.720970 
# 
# From -- ./inp_files/18060.got.cif
#   From: 2010.03.12/outbox.cif.g09.slc.cpg/sg14_10_cif.got.tgz:18060.got - 2010.03.31 13:35:05.
