data_PCOD8123476
_publ_section_title
;
Structure prediction by ZEFSAII (Michael W. Deem and Ramdas Pophale) SiO2 
 PCOD8123476
Probable space group: P 21/C
;
_chemical_formula_sum "Si O2"
_cell_formula_units_Z 32
_cell_length_a 15.197731
_cell_length_b 5.061129
_cell_length_c 28.918171
_cell_angle_alpha 90.000000
_cell_angle_beta 62.986559
_cell_angle_gamma 90.000000
_cell_volume 1981.645383
_symmetry_space_group_name_H-M "P 21/C"
_symmetry_group_IT_number 14
_symmetry_cell_setting 'monoclinic'
loop_
_space_group_symop_operation_xyz
x,y,z
-x,1/2+y,1/2-z
-x,-y,-z
x,1/2-y,1/2+z
loop_
_atom_site_type_symbol
_atom_site_label
_atom_site_fract_x
_atom_site_fract_y
_atom_site_fract_z
Si Si1 0.574760 0.387708 0.182329
Si Si2 0.603275 0.976119 0.922323
Si Si3 0.991871 0.431296 0.280633
Si Si4 0.575185 0.238893 0.576826
Si Si5 0.218591 0.830275 0.179911
Si Si6 0.798912 0.670003 0.753542
Si Si7 0.406434 0.228914 0.980561
Si Si8 0.370088 0.110632 0.776797
O O1 0.598482 0.336103 0.123517
O O2 0.631482 0.176463 0.200048
O O3 0.457339 0.364603 0.218309
O O4 0.614873 0.675304 0.186347
O O5 0.543660 0.777642 0.901994
O O6 0.691224 0.122513 0.875646
O O7 0.526025 0.200654 0.958736
O O8 0.644340 0.816251 0.957244
O O9 0.086711 0.371456 0.290584
O O10 0.007794 0.241535 0.231921
O O11 0.883268 0.353857 0.326057
O O12 0.630098 0.508968 0.548194
O O13 0.619363 0.014327 0.532900
O O14 0.216796 0.040267 0.221881
O O15 0.229803 0.542354 0.200076
O O16 0.733562 0.646975 0.723582
#
# Coordination Sequence:
#
# PCOD8123476 Si02
#       8
#     4   4   4   4   4   4   4   4
#     4  10  20  30  42  60  86 108 153 178 208 243
#     4   9  20  28  45  65  90 113 146 173 212 259
#     4   8  16  30  42  63  87 110 141 179 206 252
#     4  10  18  31  44  58  85 122 140 173 214 254
#     4  10  19  27  48  66  87 117 147 171 209 265
#     4  10  19  31  45  63  89 119 146 172 219 249
#     4   9  20  29  43  62  90 116 141 179 210 251
#     4  10  20  30  41  62  84 113 141 190 205 239
#
# _framework density 16.148198000000001
#
# number of rings (size 3 to 8) (size 9 to 14) (size 15 to 20)
#    0.750    1.750    0.000    2.625    3.500    1.000 
#    0.000    0.000    0.000    0.000    0.000    0.000 
#    0.000    6.000    0.000    0.000    0.000    0.000 
#
# Total GULP energy -396516.116730 kJ/mol
# GULP energy per Si atom -12391.128648 kJ/mol
# Density = 1.611144 g / cm^3
# Si number density = 16.148198 Si / 1000 Ang^3
#
#
#
# Elastic Constant Matrix: (Units=GPa)
#
#
# Indices 1 2 3 4 5 6 
#
# 1 78.1067 2.0931 13.7789 0.0000 2.9386 0.0000
# 2 2.0931 60.3775 -4.8793 0.0000 -3.5508 0.0000
# 3 13.7789 -4.8793 36.2797 0.0000 5.9426 0.0000
# 4 0.0000 0.0000 0.0000 15.1829 0.0000 0.6283
# 5 2.9386 -3.5508 5.9426 0.0000 15.4300 0.0000
# 6 0.0000 0.0000 0.0000 0.6283 0.0000 13.9552
#
#
#
# Elastic Compliance Matrix: (Units=1/GPa)
#
#
# Indices 1 2 3 4 5 6 
#
# 1 0.013782 -0.000949 -0.005226 0.000000 -0.000830 0.000000
# 2 -0.000949 0.016958 0.002105 0.000000 0.003272 0.000000
# 3 -0.005226 0.002105 0.031581 0.000000 -0.010683 0.000000
# 4 0.000000 0.000000 0.000000 0.065987 0.000000 -0.002971
# 5 -0.000830 0.003272 -0.010683 0.000000 0.069835 0.000000
# 6 0.000000 0.000000 0.000000 -0.002971 0.000000 0.071792
#
#
# Mechanical properties :
#
#
# Convention : Reuss Voigt Hill
#
# Bulk Modulus (GPa) = 18.45645 21.86102 20.15873
# Shear Modulus (GPa) = 16.88428 19.83169 18.35799
#
# Velocity S-wave (km/s) = 3.23706 3.50824 3.37537
# Velocity P-wave (km/s) = 5.04238 5.47516 5.26322
#
# Compressibility (1/GPa) = 0.05418161
#
# Stress axis : x y z
#
# Youngs Moduli (GPa) = 72.56080 58.96943 31.66427
#
# Poissons Ratio (x) = 0.05596 0.16547
# Poissons Ratio (y) = 0.06885 -0.06666
# Poissons Ratio (z) = 0.37919 -0.12413
#
# Static dielectric constant tensor:
#      x y z
#    x 2.961870 0.000000 -0.044630 
#    y 0.000000 3.203380 0.000000 
#    z -0.044630 0.000000 2.733810 
# 
# 
# High freq. dielectric constant tensor:
#      x y z
#    x 1.592950 0.000000 0.006570 
#    y 0.000000 1.643870 0.000000 
#    z 0.006570 0.000000 1.579760 
# 
# From -- ./inp_files/80075.got.cif
#   From: 2010.03.12/outbox.cif.g09.slc.cpg/sg14_41_cif.got.tgz:80075.got - 2010.03.31 13:35:05.
