data_PCOD8123635
_publ_section_title
;
Structure prediction by ZEFSAII (Michael W. Deem and Ramdas Pophale) SiO2 
 PCOD8123635
Probable space group: P 21/C
;
_chemical_formula_sum "Si O2"
_cell_formula_units_Z 32
_cell_length_a 12.223983
_cell_length_b 15.178633
_cell_length_c 11.420837
_cell_angle_alpha 90.000000
_cell_angle_beta 48.231030
_cell_angle_gamma 90.000000
_cell_volume 1580.473355
_symmetry_space_group_name_H-M "P 21/C"
_symmetry_group_IT_number 14
_symmetry_cell_setting 'monoclinic'
loop_
_space_group_symop_operation_xyz
x,y,z
-x,1/2+y,1/2-z
-x,-y,-z
x,1/2-y,1/2+z
loop_
_atom_site_type_symbol
_atom_site_label
_atom_site_fract_x
_atom_site_fract_y
_atom_site_fract_z
Si Si1 0.900066 0.668713 0.623318
Si Si2 0.383919 0.632749 0.105572
Si Si3 0.205209 0.883187 0.964811
Si Si4 0.351373 0.332692 0.928324
Si Si5 0.213438 0.477611 0.132950
Si Si6 0.088261 0.434218 0.614726
Si Si7 0.735098 0.684511 0.357150
Si Si8 0.450863 0.804822 0.931343
O O1 0.800197 0.592601 0.751522
O O2 0.931712 0.643954 0.465546
O O3 0.818594 0.764348 0.690354
O O4 0.054969 0.672805 0.583649
O O5 0.273972 0.645600 0.292638
O O6 0.547980 0.631838 0.036591
O O7 0.347871 0.543747 0.061671
O O8 0.374484 0.713418 0.020589
O O9 0.314963 0.868110 0.996384
O O10 0.169295 0.986571 0.989902
O O11 0.443950 0.297862 0.755095
O O12 0.247140 0.420094 0.989065
O O13 0.257424 0.249657 0.037322
O O14 0.067035 0.535162 0.222496
O O15 0.181056 0.403103 0.661876
O O16 0.564232 0.660232 0.450171
#
# Coordination Sequence:
#
# PCOD8123635 Si02
#       8
#     4   4   4   4   4   4   4   4
#     4  10  19  35  60  88 117 147 194 249 295 332
#     4  10  18  35  61  86 111 145 194 242 289 337
#     4  10  20  36  61  89 114 147 193 251 288 336
#     4   9  20  37  54  82 117 151 191 240 290 346
#     4  10  18  34  58  89 109 144 197 246 289 337
#     4  11  20  36  61  87 117 151 199 241 289 346
#     4  10  22  36  58  81 121 163 185 231 302 357
#     4  10  22  38  54  84 123 152 194 237 293 354
#
# _framework density 20.247098000000001
#
# number of rings (size 3 to 8) (size 9 to 14) (size 15 to 20)
#    0.000    2.000    2.500    1.875    1.750    0.500 
#    4.500    0.625    2.750    0.000    0.000    0.000 
#    0.000    0.000    0.000    0.000    0.000    0.000 
#
# Total GULP energy -396481.992250 kJ/mol
# GULP energy per Si atom -12390.062258 kJ/mol
# Density = 2.020101 g / cm^3
# Si number density = 20.247098 Si / 1000 Ang^3
#
#
#
# Elastic Constant Matrix: (Units=GPa)
#
#
# Indices 1 2 3 4 5 6 
#
# 1 90.5488 31.2424 16.3817 0.0000 -12.7152 0.0000
# 2 31.2424 61.2995 39.6827 0.0000 -0.4765 0.0000
# 3 16.3817 39.6827 81.7116 0.0000 -5.5021 0.0000
# 4 0.0000 0.0000 0.0000 39.8558 0.0000 -3.6099
# 5 -12.7152 -0.4765 -5.5021 0.0000 24.4647 0.0000
# 6 0.0000 0.0000 0.0000 -3.6099 0.0000 33.2764
#
#
#
# Elastic Compliance Matrix: (Units=1/GPa)
#
#
# Indices 1 2 3 4 5 6 
#
# 1 0.014815 -0.008623 0.001751 0.000000 0.007926 0.000000
# 2 -0.008623 0.028926 -0.012776 0.000000 -0.006792 0.000000
# 3 0.001751 -0.012776 0.018415 0.000000 0.004803 0.000000
# 4 0.000000 0.000000 0.000000 0.025339 0.000000 0.002749
# 5 0.007926 -0.006792 0.004803 0.000000 0.045942 0.000000
# 6 0.000000 0.000000 0.000000 0.002749 0.000000 0.030350
#
#
# Mechanical properties :
#
#
# Convention : Reuss Voigt Hill
#
# Bulk Modulus (GPa) = 43.74370 45.35262 44.54816
# Shear Modulus (GPa) = 23.72993 29.26959 26.49976
#
# Velocity S-wave (km/s) = 3.42719 3.80625 3.62168
# Velocity P-wave (km/s) = 6.10841 6.46258 6.28799
#
# Compressibility (1/GPa) = 0.02286043
#
# Stress axis : x y z
#
# Youngs Moduli (GPa) = 67.49871 34.57072 54.30271
#
# Poissons Ratio (x) = 0.29810 -0.09509
# Poissons Ratio (y) = 0.58203 0.69379
# Poissons Ratio (z) = -0.11820 0.44169
#
# Static dielectric constant tensor:
#      x y z
#    x 3.857630 0.000000 -0.250090 
#    y 0.000000 3.647940 0.000000 
#    z -0.250090 0.000000 3.616960 
# 
# 
# High freq. dielectric constant tensor:
#      x y z
#    x 1.783580 0.000000 -0.024360 
#    y 0.000000 1.775230 0.000000 
#    z -0.024360 0.000000 1.785240 
# 
# From -- ./inp_files/30007.got.cif
#   From: 2010.03.12/outbox.cif.g09.slc.cpg/sg14_16_cif.got.tgz:30007.got - 2010.03.31 13:35:05.
