data_PCOD8123360
_publ_section_title
;
Structure prediction by ZEFSAII (Michael W. Deem and Ramdas Pophale) SiO2 
 PCOD8123360
Probable space group: P 21/C
;
_chemical_formula_sum "Si O2"
_cell_formula_units_Z 28
_cell_length_a 13.804148
_cell_length_b 11.667444
_cell_length_c 9.809163
_cell_angle_alpha 90.000000
_cell_angle_beta 122.177174
_cell_angle_gamma 90.000000
_cell_volume 1337.197956
_symmetry_space_group_name_H-M "P 21/C"
_symmetry_group_IT_number 14
_symmetry_cell_setting 'monoclinic'
loop_
_space_group_symop_operation_xyz
x,y,z
-x,1/2+y,1/2-z
-x,-y,-z
x,1/2-y,1/2+z
loop_
_atom_site_type_symbol
_atom_site_label
_atom_site_fract_x
_atom_site_fract_y
_atom_site_fract_z
Si Si1 0.461412 0.218414 0.416168
Si Si2 0.361138 0.597100 0.517067
Si Si3 0.654223 0.841830 0.946944
Si Si4 0.661977 0.098487 0.687566
Si Si5 0.837154 0.222045 0.238907
Si Si6 0.046801 0.666564 0.437293
Si Si7 0.829104 0.570635 0.395058
O O1 0.541274 0.330679 0.483386
O O2 0.355333 0.249178 0.438067
O O3 0.424346 0.201305 0.234908
O O4 0.535634 0.109533 0.526935
O O5 0.394465 0.464290 0.540428
O O6 0.339730 0.642676 0.656307
O O7 0.243514 0.611008 0.340582
O O8 0.786208 0.855367 0.993633
O O9 0.752137 0.168888 0.662319
O O10 0.710033 0.966104 0.725649
O O11 0.905607 0.231952 0.430841
O O12 0.936516 0.217950 0.199587
O O13 0.112258 0.546687 0.510564
O O14 0.912132 0.645631 0.363364
#
# Coordination Sequence:
#
# PCOD8123360 Si02
#       7
#     4   4   4   4   4   4   4
#     4  11  22  36  59  89 116 159 199 240 295 342
#     4  10  19  37  57  88 113 157 194 242 292 352
#     4  11  22  38  59  82 125 153 198 244 289 353
#     4   9  18  35  58  85 112 151 203 237 278 361
#     4  10  17  33  60  89 107 147 200 238 291 346
#     4  10  19  35  62  84 113 151 199 245 292 346
#     4   9  20  37  56  83 113 161 190 238 298 345
#
# _framework density 20.939306999999999
#
# number of rings (size 3 to 8) (size 9 to 14) (size 15 to 20)
#    0.000    2.000    5.714    0.429    0.000    3.429 
#    0.000    0.000    3.143    7.714    0.000    0.000 
#    0.000    0.000    0.000    0.000    0.000    0.000 
#
# Total GULP energy -346910.065957 kJ/mol
# GULP energy per Si atom -12389.645213 kJ/mol
# Density = 2.089165 g / cm^3
# Si number density = 20.939307 Si / 1000 Ang^3
#
#
#
# Elastic Constant Matrix: (Units=GPa)
#
#
# Indices 1 2 3 4 5 6 
#
# 1 101.4895 26.4380 11.9824 0.0000 -13.7344 0.0000
# 2 26.4380 59.5346 20.7272 0.0000 -11.2161 0.0000
# 3 11.9824 20.7272 56.0265 0.0000 0.3436 0.0000
# 4 0.0000 0.0000 0.0000 20.2821 0.0000 -6.0092
# 5 -13.7344 -11.2161 0.3436 0.0000 19.5421 0.0000
# 6 0.0000 0.0000 0.0000 -6.0092 0.0000 37.3951
#
#
#
# Elastic Compliance Matrix: (Units=1/GPa)
#
#
# Indices 1 2 3 4 5 6 
#
# 1 0.011786 -0.003641 -0.001212 0.000000 0.006215 0.000000
# 2 -0.003641 0.023209 -0.007874 0.000000 0.010900 0.000000
# 3 -0.001212 -0.007874 0.021056 0.000000 -0.005741 0.000000
# 4 0.000000 0.000000 0.000000 0.051769 0.000000 0.008319
# 5 0.006215 0.010900 -0.005741 0.000000 0.061896 0.000000
# 6 0.000000 0.000000 0.000000 0.008319 0.000000 0.028078
#
#
# Mechanical properties :
#
#
# Convention : Reuss Voigt Hill
#
# Bulk Modulus (GPa) = 32.68338 37.26065 34.97201
# Shear Modulus (GPa) = 21.41804 25.97074 23.69439
#
# Velocity S-wave (km/s) = 3.20169 3.52559 3.36754
# Velocity P-wave (km/s) = 5.41390 5.86569 5.64431
#
# Compressibility (1/GPa) = 0.03059659
#
# Stress axis : x y z
#
# Youngs Moduli (GPa) = 84.84757 43.08684 47.49198
#
# Poissons Ratio (x) = 0.15688 0.05755
# Poissons Ratio (y) = 0.30894 0.37397
# Poissons Ratio (z) = 0.10281 0.33928
#
# Static dielectric constant tensor:
#      x y z
#    x 4.140080 0.000000 0.001610 
#    y 0.000000 3.649370 0.000000 
#    z 0.001610 0.000000 3.542280 
# 
# 
# High freq. dielectric constant tensor:
#      x y z
#    x 1.838000 0.000000 -0.004610 
#    y 0.000000 1.799110 0.000000 
#    z -0.004610 0.000000 1.790290 
# 
# From -- ./inp_files/15865.got.cif
#   From: 2010.03.12/outbox.cif.g09.slc.cpg/sg14_8_cif.got.tgz:15865.got - 2010.03.31 13:35:05.
