data_PCOD8123704
_publ_section_title
;
Structure prediction by ZEFSAII (Michael W. Deem and Ramdas Pophale) SiO2 
 PCOD8123704
Probable space group: P 21/C
;
_chemical_formula_sum "Si O2"
_cell_formula_units_Z 32
_cell_length_a 8.885719
_cell_length_b 19.190584
_cell_length_c 8.785846
_cell_angle_alpha 90.000000
_cell_angle_beta 80.784228
_cell_angle_gamma 90.000000
_cell_volume 1478.843035
_symmetry_space_group_name_H-M "P 21/C"
_symmetry_group_IT_number 14
_symmetry_cell_setting 'monoclinic'
loop_
_space_group_symop_operation_xyz
x,y,z
-x,1/2+y,1/2-z
-x,-y,-z
x,1/2-y,1/2+z
loop_
_atom_site_type_symbol
_atom_site_label
_atom_site_fract_x
_atom_site_fract_y
_atom_site_fract_z
Si Si1 0.161708 0.786771 0.563925
Si Si2 0.714276 0.369123 0.489162
Si Si3 0.047621 0.274688 0.631340
Si Si4 0.725555 0.070906 0.550265
Si Si5 0.189591 0.171255 0.813429
Si Si6 0.965929 0.442501 0.255762
Si Si7 0.236156 0.529709 0.279710
Si Si8 0.539610 0.914771 0.179026
O O1 0.247532 0.711464 0.551035
O O2 0.275530 0.847336 0.495064
O O3 0.087886 0.805953 0.740346
O O4 0.029030 0.785222 0.459237
O O5 0.732588 0.391966 0.662375
O O6 0.545345 0.389780 0.460212
O O7 0.833677 0.420735 0.391276
O O8 0.173790 0.244314 0.726960
O O9 0.124611 0.328332 0.498940
O O10 0.704851 0.024736 0.403320
O O11 0.580788 0.058075 0.679029
O O12 0.884335 0.047665 0.605035
O O13 0.094854 0.116721 0.728192
O O14 0.367675 0.153228 0.780671
O O15 0.054190 0.511701 0.302811
O O16 0.334453 0.475472 0.367667
#
# Coordination Sequence:
#
# PCOD8123704 Si02
#       8
#     4   4   4   4   4   4   4   4
#     4  11  20  36  63  96 116 151 206 261 310 348
#     4  11  21  40  64  90 124 159 208 259 302 362
#     4  10  18  35  61  85 125 153 200 250 311 356
#     4  11  22  39  64  91 126 161 202 263 304 362
#     4  10  20  37  59  86 122 164 192 245 305 370
#     4  10  20  38  59  89 123 156 202 256 303 345
#     4  11  23  38  63  89 119 165 217 241 303 374
#     4  10  24  41  57  82 132 167 198 246 315 356
#
# _framework density 21.638538
#
# number of rings (size 3 to 8) (size 9 to 14) (size 15 to 20)
#    0.000    1.500    3.750    3.000    0.000    1.000 
#    0.000    2.500    2.750    0.000    0.000    0.000 
#    0.000    0.000    0.000    0.000    0.000    0.000 
#
# Total GULP energy -396466.742933 kJ/mol
# GULP energy per Si atom -12389.585717 kJ/mol
# Density = 2.158929 g / cm^3
# Si number density = 21.638538 Si / 1000 Ang^3
#
#
#
# Elastic Constant Matrix: (Units=GPa)
#
#
# Indices 1 2 3 4 5 6 
#
# 1 126.4617 35.8892 26.9130 0.0000 22.7483 0.0000
# 2 35.8892 59.4350 3.6395 0.0000 13.8055 0.0000
# 3 26.9130 3.6395 68.8409 0.0000 20.4911 0.0000
# 4 0.0000 0.0000 0.0000 27.4830 0.0000 0.1418
# 5 22.7483 13.8055 20.4911 0.0000 27.3682 0.0000
# 6 0.0000 0.0000 0.0000 0.1418 0.0000 30.3748
#
#
#
# Elastic Compliance Matrix: (Units=1/GPa)
#
#
# Indices 1 2 3 4 5 6 
#
# 1 0.010754 -0.005343 -0.002655 0.000000 -0.004256 0.000000
# 2 -0.005343 0.022022 0.003743 0.000000 -0.009471 0.000000
# 3 -0.002655 0.003743 0.019651 0.000000 -0.014394 0.000000
# 4 0.000000 0.000000 0.000000 0.036387 0.000000 -0.000170
# 5 -0.004256 -0.009471 -0.014394 0.000000 0.055631 0.000000
# 6 0.000000 0.000000 0.000000 -0.000170 0.000000 0.032923
#
#
# Mechanical properties :
#
#
# Convention : Reuss Voigt Hill
#
# Bulk Modulus (GPa) = 22.76946 43.06900 32.91923
# Shear Modulus (GPa) = 24.93562 29.59827 27.26694
#
# Velocity S-wave (km/s) = 3.39834 3.70246 3.55365
# Velocity P-wave (km/s) = 5.09350 6.18261 5.66429
#
# Compressibility (1/GPa) = 0.04391848
#
# Stress axis : x y z
#
# Youngs Moduli (GPa) = 92.98509 45.40939 50.88805
#
# Poissons Ratio (x) = 0.24261 0.13511
# Poissons Ratio (y) = 0.49680 -0.19050
# Poissons Ratio (z) = 0.24688 -0.16999
#
# Static dielectric constant tensor:
#      x y z
#    x 3.966720 0.000000 0.313800 
#    y 0.000000 3.678040 0.000000 
#    z 0.313800 0.000000 4.043280 
# 
# 
# High freq. dielectric constant tensor:
#      x y z
#    x 1.844390 0.000000 0.018640 
#    y 0.000000 1.832030 0.000000 
#    z 0.018640 0.000000 1.851730 
# 
# From -- ./inp_files/10195.got.cif
#   From: 2010.03.12/outbox.cif.g09.slc.cpg/sg14_6_cif.got.tgz:10195.got - 2010.03.31 13:35:05.
