data_PCOD8123987
_publ_section_title
;
Structure prediction by ZEFSAII (Michael W. Deem and Ramdas Pophale) SiO2 
 PCOD8123987
Probable space group: P 21/C
;
_chemical_formula_sum "Si O2"
_cell_formula_units_Z 24
_cell_length_a 11.835960
_cell_length_b 9.300821
_cell_length_c 26.220885
_cell_angle_alpha 90.000000
_cell_angle_beta 158.566885
_cell_angle_gamma 90.000000
_cell_volume 1054.771298
_symmetry_space_group_name_H-M "P 21/C"
_symmetry_group_IT_number 14
_symmetry_cell_setting 'monoclinic'
loop_
_space_group_symop_operation_xyz
x,y,z
-x,1/2+y,1/2-z
-x,-y,-z
x,1/2-y,1/2+z
loop_
_atom_site_type_symbol
_atom_site_label
_atom_site_fract_x
_atom_site_fract_y
_atom_site_fract_z
Si Si1 0.347762 0.044470 0.591120
Si Si2 0.485367 0.361010 0.304166
Si Si3 0.168211 0.734438 0.961802
Si Si4 0.261063 0.602951 0.832599
Si Si5 0.315422 0.874022 0.676461
Si Si6 0.335863 0.204430 0.408201
O O1 0.634539 0.122963 0.683223
O O2 0.054881 0.147009 0.479644
O O3 0.232973 0.930354 0.501413
O O4 0.444886 0.963632 0.682874
O O5 0.767199 0.337918 0.462045
O O6 0.549477 0.287110 0.274655
O O7 0.432950 0.532792 0.274620
O O8 0.194443 0.270951 0.205538
O O9 0.382022 0.780063 0.004304
O O10 0.207005 0.437620 0.826006
O O11 0.938163 0.682234 0.703405
O O12 0.535668 0.669860 0.981859
#
# Coordination Sequence:
#
# PCOD8123987 Si02
#       6
#     4   4   4   4   4   4
#     4   8  17  35  53  72 107 148 171 204 272 330
#     4  10  19  33  54  76 102 139 176 215 261 315
#     4   9  18  34  54  74 104 143 174 207 268 330
#     4  10  21  37  58  82 111 146 184 226 275 327
#     4   9  18  33  53  76 105 138 174 215 263 316
#     4  10  21  38  58  82 111 145 185 228 273 327
#
# _framework density 22.753747000000001
#
# number of rings (size 3 to 8) (size 9 to 14) (size 15 to 20)
#    0.000    2.667    0.000    2.000    0.000    4.000 
#    0.000    1.667    0.000    0.000    0.000    0.000 
#    0.000    0.000    0.000    0.000    0.000    0.000 
#
# Total GULP energy -297357.534177 kJ/mol
# GULP energy per Si atom -12389.897257 kJ/mol
# Density = 2.270196 g / cm^3
# Si number density = 22.753747 Si / 1000 Ang^3
#
#
#
# Elastic Constant Matrix: (Units=GPa)
#
#
# Indices 1 2 3 4 5 6 
#
# 1 88.5624 0.1675 4.3949 0.0000 24.4934 0.0000
# 2 0.1675 34.7964 -5.8045 0.0000 10.7953 0.0000
# 3 4.3949 -5.8045 30.5102 0.0000 11.2809 0.0000
# 4 0.0000 0.0000 0.0000 28.5007 0.0000 6.7693
# 5 24.4934 10.7953 11.2809 0.0000 33.6355 0.0000
# 6 0.0000 0.0000 0.0000 6.7693 0.0000 22.2034
#
#
#
# Elastic Compliance Matrix: (Units=1/GPa)
#
#
# Indices 1 2 3 4 5 6 
#
# 1 0.014867 0.004799 0.003817 0.000000 -0.013647 0.000000
# 2 0.004799 0.037253 0.013823 0.000000 -0.020087 0.000000
# 3 0.003817 0.013823 0.042836 0.000000 -0.021583 0.000000
# 4 0.000000 0.000000 0.000000 0.037826 0.000000 -0.011532
# 5 -0.013647 -0.020087 -0.021583 0.000000 0.053354 0.000000
# 6 0.000000 0.000000 0.000000 -0.011532 0.000000 0.048554
#
#
# Mechanical properties :
#
#
# Convention : Reuss Voigt Hill
#
# Bulk Modulus (GPa) = 7.15129 16.82054 11.98592
# Shear Modulus (GPa) = 21.14854 27.20867 24.17860
#
# Velocity S-wave (km/s) = 3.05200 3.46177 3.26332
# Velocity P-wave (km/s) = 3.94580 4.83600 4.41340
#
# Compressibility (1/GPa) = 0.13983491
#
# Stress axis : x y z
#
# Youngs Moduli (GPa) = 67.26202 26.84331 23.34490
#
# Poissons Ratio (x) = -0.12882 -0.08911
# Poissons Ratio (y) = -0.32279 -0.32270
# Poissons Ratio (z) = -0.25675 -0.37106
#
# Static dielectric constant tensor:
#      x y z
#    x 4.436640 0.000000 0.354310 
#    y 0.000000 4.011360 0.000000 
#    z 0.354310 0.000000 3.877990 
# 
# 
# High freq. dielectric constant tensor:
#      x y z
#    x 1.899860 0.000000 0.016090 
#    y 0.000000 1.870200 0.000000 
#    z 0.016090 0.000000 1.885300 
# 
# From -- ./inp_files/12505.got.cif
#   From: 2010.03.12/outbox.cif.g09.slc.cpg/sg14_7_cif.got.tgz:12505.got - 2010.03.31 13:35:05.
