data_PCOD8123389
_publ_section_title
;
Structure prediction by ZEFSAII (Michael W. Deem and Ramdas Pophale) SiO2 
 PCOD8123389
Probable space group: P 21/C
;
_chemical_formula_sum "Si O2"
_cell_formula_units_Z 28
_cell_length_a 15.229764
_cell_length_b 9.034101
_cell_length_c 20.550610
_cell_angle_alpha 90.000000
_cell_angle_beta 28.901042
_cell_angle_gamma 90.000000
_cell_volume 1366.526646
_symmetry_space_group_name_H-M "P 21/C"
_symmetry_group_IT_number 14
_symmetry_cell_setting 'monoclinic'
loop_
_space_group_symop_operation_xyz
x,y,z
-x,1/2+y,1/2-z
-x,-y,-z
x,1/2-y,1/2+z
loop_
_atom_site_type_symbol
_atom_site_label
_atom_site_fract_x
_atom_site_fract_y
_atom_site_fract_z
Si Si1 0.294311 0.860198 0.411008
Si Si2 0.105600 0.296763 0.862414
Si Si3 0.775862 0.496118 0.773333
Si Si4 0.069767 0.119827 0.006027
Si Si5 0.477943 0.411659 0.580743
Si Si6 0.596056 0.472630 0.642177
Si Si7 0.605777 0.414229 0.010977
O O1 0.374227 0.695288 0.353700
O O2 0.405658 0.970187 0.293186
O O3 0.302004 0.917661 0.479452
O O4 0.086219 0.873254 0.525117
O O5 0.266322 0.407762 0.738510
O O6 0.117469 0.148133 0.811046
O O7 0.121667 0.263516 0.929768
O O8 0.900328 0.359779 0.666041
O O9 0.579926 0.489912 0.864928
O O10 0.749804 0.484508 0.867659
O O11 0.244759 0.074267 0.933507
O O12 0.000000 0.000000 0.000000
O O13 0.500000 0.500000 0.500000
O O14 0.591542 0.484662 0.566380
O O15 0.551983 0.247553 0.520139
#
# Coordination Sequence:
#
# PCOD8123389 Si02
#       7
#     4   4   4   4   4   4   4
#     4  11  22  39  62  92 125 163 206 265 312 377
#     4  10  21  39  63  87 127 159 206 260 316 366
#     4   9  17  35  61  88 111 158 207 256 299 363
#     4  10  17  34  64  91 112 154 208 256 296 362
#     4  10  23  42  56  85 130 165 192 257 326 375
#     4  11  22  40  64  90 124 163 210 258 315 374
#     4   9  20  36  60  87 122 156 207 255 307 367
#
# _framework density 20.489902000000001
#
# number of rings (size 3 to 8) (size 9 to 14) (size 15 to 20)
#    0.000    2.000    2.857    3.429    0.000    2.857 
#    5.143    1.429    0.000    0.000    0.000    0.000 
#    0.000    0.000    0.000    0.000    0.000    0.000 
#
# Total GULP energy -347149.439373 kJ/mol
# GULP energy per Si atom -12398.194263 kJ/mol
# Density = 2.044327 g / cm^3
# Si number density = 20.489902 Si / 1000 Ang^3
#
#
#
# Elastic Constant Matrix: (Units=GPa)
#
#
# Indices 1 2 3 4 5 6 
#
# 1 136.0040 37.7344 59.6683 0.0000 -5.5761 0.0000
# 2 37.7344 35.0164 36.6309 0.0000 3.3479 0.0000
# 3 59.6683 36.6309 155.3247 0.0000 -1.7260 0.0000
# 4 0.0000 0.0000 0.0000 42.0663 0.0000 5.4975
# 5 -5.5761 3.3479 -1.7260 0.0000 29.2030 0.0000
# 6 0.0000 0.0000 0.0000 5.4975 0.0000 30.2140
#
#
#
# Elastic Compliance Matrix: (Units=1/GPa)
#
#
# Indices 1 2 3 4 5 6 
#
# 1 0.011178 -0.010487 -0.001785 0.000000 0.003231 0.000000
# 2 -0.010487 0.048458 -0.007488 0.000000 -0.008000 0.000000
# 3 -0.001785 -0.007488 0.008901 0.000000 0.001044 0.000000
# 4 0.000000 0.000000 0.000000 0.024351 0.000000 -0.004431
# 5 0.003231 -0.008000 0.001044 0.000000 0.035839 0.000000
# 6 0.000000 0.000000 0.000000 -0.004431 0.000000 0.033903
#
#
# Mechanical properties :
#
#
# Convention : Reuss Voigt Hill
#
# Bulk Modulus (GPa) = 34.46340 66.04582 50.25461
# Shear Modulus (GPa) = 23.60456 33.11745 28.36100
#
# Velocity S-wave (km/s) = 3.39781 4.02466 3.72445
# Velocity P-wave (km/s) = 5.67888 7.34170 6.56316
#
# Compressibility (1/GPa) = 0.02901629
#
# Stress axis : x y z
#
# Youngs Moduli (GPa) = 89.46133 20.63650 112.34262
#
# Poissons Ratio (x) = 0.21642 0.20051
# Poissons Ratio (y) = 0.93822 0.84124
# Poissons Ratio (z) = 0.15967 0.15453
#
# Static dielectric constant tensor:
#      x y z
#    x 3.736530 0.000000 0.108220 
#    y 0.000000 3.546240 0.000000 
#    z 0.108220 0.000000 4.046500 
# 
# 
# High freq. dielectric constant tensor:
#      x y z
#    x 1.802460 0.000000 0.000830 
#    y 0.000000 1.769340 0.000000 
#    z 0.000830 0.000000 1.814960 
# 
# From -- ./inp_files/68316.got.cif
#   From: 2010.03.12/outbox.cif.g09.slc.cpg/sg14_35_cif.got.tgz:68316.got - 2010.03.31 13:35:05.
