data_PCOD8123064
_publ_section_title
;
Structure prediction by ZEFSAII (Michael W. Deem and Ramdas Pophale) SiO2 
 PCOD8123064
Probable space group: P 2/C
;
_chemical_formula_sum "Si O2"
_cell_formula_units_Z 28
_cell_length_a 32.149101
_cell_length_b 8.544194
_cell_length_c 31.730346
_cell_angle_alpha 90.000000
_cell_angle_beta 170.742614
_cell_angle_gamma 90.000000
_cell_volume 1402.133152
_symmetry_space_group_name_H-M "P 2/C"
_symmetry_group_IT_number 13
_symmetry_cell_setting 'monoclinic'
loop_
_space_group_symop_operation_xyz
x,y,z
-x,y,1/2-z
-x,-y,-z
x,-y,1/2+z
loop_
_atom_site_type_symbol
_atom_site_label
_atom_site_fract_x
_atom_site_fract_y
_atom_site_fract_z
Si Si1 0.000016 0.480166 0.122804
Si Si2 0.000000 0.716354 0.750000
Si Si3 0.500010 0.965065 0.628138
Si Si4 0.500000 0.502220 0.250000
Si Si5 0.000008 0.852529 0.656915
Si Si6 0.499981 0.139278 0.033495
Si Si7 0.000006 0.358846 0.967199
Si Si8 0.499984 0.621974 0.837689
O O1 0.251670 0.531971 0.398513
O O2 0.000026 0.293159 0.124803
O O3 0.999992 0.551498 0.076708
O O4 0.748370 0.531965 0.895217
O O5 0.747956 0.611387 0.497959
O O6 0.999986 0.818073 0.706997
O O7 0.499973 0.950332 0.577824
O O8 0.500030 0.795716 0.647271
O O9 0.250177 0.049957 0.395569
O O10 0.749865 0.049953 0.895248
O O11 0.500016 0.380534 0.212211
O O12 0.250467 0.249594 0.778288
O O13 0.749498 0.249603 0.277323
O O14 0.500000 0.000000 0.000000
O O15 0.000000 0.500000 0.000000
#
# Coordination Sequence:
#
# PCOD8123064 Si02
#       8
#     4   2   4   2   4   4   4   4
#     4  12  23  45  69  99 134 183 226 270 332 404
#     4  12  24  44  64 102 136 168 234 288 328 382
#     4  12  26  45  67 100 140 179 221 276 345 403
#     4  12  22  42  70  98 128 176 230 280 332 394
#     4  12  26  42  71  97 137 182 223 277 338 405
#     4  12  27  47  70 101 141 180 220 282 345 405
#     4  12  26  46  72 105 137 173 231 287 325 404
#     4  12  23  44  70  96 131 181 224 275 333 399
#
# _framework density 19.969571999999999
#
# number of rings (size 3 to 8) (size 9 to 14) (size 15 to 20)
#    0.000    0.000    5.714    4.286    4.000    1.143 
#    0.000    0.000    0.000    0.000    0.000    0.000 
#    0.000    0.000    0.000    0.000    0.000    0.000 
#
# Total GULP energy -347224.142151 kJ/mol
# GULP energy per Si atom -12400.862220 kJ/mol
# Density = 1.992412 g / cm^3
# Si number density = 19.969572 Si / 1000 Ang^3
#
#
#
# Elastic Constant Matrix: (Units=GPa)
#
#
# Indices 1 2 3 4 5 6 
#
# 1 300.6043 258.0798 190.0332 0.0000 -5.2666 0.0000
# 2 258.0798 452.9884 289.3013 0.0000 4.1490 0.0000
# 3 190.0332 289.3013 340.0750 0.0000 10.5132 0.0000
# 4 0.0000 0.0000 0.0000 58.3477 0.0000 -0.6030
# 5 -5.2666 4.1490 10.5132 0.0000 37.4423 0.0000
# 6 0.0000 0.0000 0.0000 -0.6030 0.0000 62.8367
#
#
#
# Elastic Compliance Matrix: (Units=1/GPa)
#
#
# Indices 1 2 3 4 5 6 
#
# 1 0.006787 -0.003125 -0.001184 0.000000 0.001634 0.000000
# 2 -0.003125 0.006287 -0.003598 0.000000 -0.000126 0.000000
# 3 -0.001184 -0.003598 0.006715 0.000000 -0.001653 0.000000
# 4 0.000000 0.000000 0.000000 0.017140 0.000000 0.000164
# 5 0.001634 -0.000126 -0.001653 0.000000 0.027416 0.000000
# 6 0.000000 0.000000 0.000000 0.000164 0.000000 0.015916
#
#
# Mechanical properties :
#
#
# Convention : Reuss Voigt Hill
#
# Bulk Modulus (GPa) = 251.70285 285.38847 268.54566
# Shear Modulus (GPa) = 51.33366 55.47557 53.40462
#
# Velocity S-wave (km/s) = 5.07560 5.27640 5.17697
# Velocity P-wave (km/s) = 12.67540 13.42916 13.05772
#
# Compressibility (1/GPa) = 0.00397294
#
# Stress axis : x y z
#
# Youngs Moduli (GPa) = 147.33333 159.04706 148.92951
#
# Poissons Ratio (x) = 0.49709 0.17640
# Poissons Ratio (y) = 0.46048 0.53590
# Poissons Ratio (z) = 0.17451 0.57230
#
# Static dielectric constant tensor:
#      x y z
#    x 3.932200 0.000000 0.018890 
#    y 0.000000 3.710280 0.000000 
#    z 0.018890 0.000000 4.074040 
# 
# 
# High freq. dielectric constant tensor:
#      x y z
#    x 1.798910 0.000000 0.001440 
#    y 0.000000 1.795760 0.000000 
#    z 0.001440 0.000000 1.809800 
# 
# From -- ./inp_files/97985.got.cif
#   From: 2010.06.25/outbox.cif.g09.slc.cpg/sg13_49_cif.got.tgz:97985.got - 2010.06.28 04:50:58.
