data_PCOD8123903
_publ_section_title
;
Structure prediction by ZEFSAII (Michael W. Deem and Ramdas Pophale) SiO2 
 PCOD8123903
Probable space group: P 21/C
;
_chemical_formula_sum "Si O2"
_cell_formula_units_Z 32
_cell_length_a 18.781196
_cell_length_b 18.906811
_cell_length_c 9.334568
_cell_angle_alpha 90.000000
_cell_angle_beta 28.006407
_cell_angle_gamma 90.000000
_cell_volume 1556.454274
_symmetry_space_group_name_H-M "P 21/C"
_symmetry_group_IT_number 14
_symmetry_cell_setting 'monoclinic'
loop_
_space_group_symop_operation_xyz
x,y,z
-x,1/2+y,1/2-z
-x,-y,-z
x,1/2-y,1/2+z
loop_
_atom_site_type_symbol
_atom_site_label
_atom_site_fract_x
_atom_site_fract_y
_atom_site_fract_z
Si Si1 0.978667 0.251663 0.796067
Si Si2 0.184959 0.889888 0.482547
Si Si3 0.483909 0.965047 0.875757
Si Si4 0.190670 0.283662 0.668459
Si Si5 0.971772 0.991258 0.383181
Si Si6 0.071891 0.608804 0.482415
Si Si7 0.271537 0.368746 0.982128
Si Si8 0.669073 0.905936 0.928996
O O1 0.110154 0.288998 0.657270
O O2 0.058621 0.212620 0.521295
O O3 0.851586 0.307030 0.972298
O O4 0.893325 0.189122 0.031788
O O5 0.187281 0.909451 0.648088
O O6 0.046859 0.931563 0.652170
O O7 0.343139 0.910011 0.127167
O O8 0.636498 0.920472 0.571787
O O9 0.500000 0.000000 0.000000
O O10 0.456446 0.032128 0.815162
O O11 0.281461 0.210560 0.525420
O O12 0.308775 0.349158 0.482107
O O13 0.820964 0.947859 0.628025
O O14 0.000000 0.000000 0.500000
O O15 0.097364 0.946777 0.068367
O O16 0.901671 0.605401 0.719317
O O17 0.358791 0.366397 0.673218
#
# Coordination Sequence:
#
# PCOD8123903 Si02
#       8
#     4   4   4   4   4   4   4   4
#     4  11  20  33  57  88 116 142 184 246 288 338
#     4  11  21  34  57  87 109 151 187 243 289 330
#     4   9  20  37  57  79 114 151 196 230 280 346
#     4  11  17  33  59  85 113 144 192 235 290 343
#     4  10  19  31  51  82 114 147 181 230 292 342
#     4  10  20  36  56  86 116 140 197 238 282 343
#     4   9  17  33  57  83 104 150 193 233 271 348
#     4   9  17  33  52  81 107 144 187 231 272 339
#
# _framework density 20.559550000000002
#
# number of rings (size 3 to 8) (size 9 to 14) (size 15 to 20)
#    0.000    2.000    6.250    1.875    0.000    0.000 
#    0.000    2.500    0.000    0.750    9.750    2.625 
#    0.000    0.000    0.000    0.000    0.000    0.000 
#
# Total GULP energy -396472.852858 kJ/mol
# GULP energy per Si atom -12389.776652 kJ/mol
# Density = 2.051276 g / cm^3
# Si number density = 20.559550 Si / 1000 Ang^3
#
#
#
# Elastic Constant Matrix: (Units=GPa)
#
#
# Indices 1 2 3 4 5 6 
#
# 1 51.8400 18.0233 8.9580 0.0000 11.1831 0.0000
# 2 18.0233 78.7270 13.6025 0.0000 -5.5168 0.0000
# 3 8.9580 13.6025 30.2091 0.0000 7.5116 0.0000
# 4 0.0000 0.0000 0.0000 25.9663 0.0000 3.0814
# 5 11.1831 -5.5168 7.5116 0.0000 25.7140 0.0000
# 6 0.0000 0.0000 0.0000 3.0814 0.0000 49.3781
#
#
#
# Elastic Compliance Matrix: (Units=1/GPa)
#
#
# Indices 1 2 3 4 5 6 
#
# 1 0.024105 -0.006030 -0.001622 0.000000 -0.011303 0.000000
# 2 -0.006030 0.015943 -0.007433 0.000000 0.008214 0.000000
# 3 -0.001622 -0.007433 0.040062 0.000000 -0.012592 0.000000
# 4 0.000000 0.000000 0.000000 0.038799 0.000000 -0.002421
# 5 -0.011303 0.008214 -0.012592 0.000000 0.049246 0.000000
# 6 0.000000 0.000000 0.000000 -0.002421 0.000000 0.020403
#
#
# Mechanical properties :
#
#
# Convention : Reuss Voigt Hill
#
# Bulk Modulus (GPa) = 20.02450 26.88263 23.45356
# Shear Modulus (GPa) = 21.24275 28.22448 24.73362
#
# Velocity S-wave (km/s) = 3.21788 3.70917 3.47223
# Velocity P-wave (km/s) = 4.85461 5.60784 5.24476
#
# Compressibility (1/GPa) = 0.04993882
#
# Stress axis : x y z
#
# Youngs Moduli (GPa) = 41.48441 62.72510 24.96157
#
# Poissons Ratio (x) = 0.37826 0.04049
# Poissons Ratio (y) = 0.25017 0.18554
# Poissons Ratio (z) = 0.06729 0.46623
#
# Static dielectric constant tensor:
#      x y z
#    x 3.405790 0.000000 -0.131340 
#    y 0.000000 4.256680 0.000000 
#    z -0.131340 0.000000 3.368780 
# 
# 
# High freq. dielectric constant tensor:
#      x y z
#    x 1.783040 0.000000 0.010220 
#    y 0.000000 1.822960 0.000000 
#    z 0.010220 0.000000 1.750950 
# 
# From -- ./inp_files/19205.got.cif
#   From: 2010.03.12/outbox.cif.g09.slc.cpg/sg14_10_cif.got.tgz:19205.got - 2010.03.31 13:35:05.
