data_PCOD8123815
_publ_section_title
;
Structure prediction by ZEFSAII (Michael W. Deem and Ramdas Pophale) SiO2 
 PCOD8123815
Probable space group: P 21/C
;
_chemical_formula_sum "Si O2"
_cell_formula_units_Z 28
_cell_length_a 9.103635
_cell_length_b 12.123895
_cell_length_c 13.940336
_cell_angle_alpha 90.000000
_cell_angle_beta 110.737398
_cell_angle_gamma 90.000000
_cell_volume 1438.933860
_symmetry_space_group_name_H-M "P 21/C"
_symmetry_group_IT_number 14
_symmetry_cell_setting 'monoclinic'
loop_
_space_group_symop_operation_xyz
x,y,z
-x,1/2+y,1/2-z
-x,-y,-z
x,1/2-y,1/2+z
loop_
_atom_site_type_symbol
_atom_site_label
_atom_site_fract_x
_atom_site_fract_y
_atom_site_fract_z
Si Si1 0.823150 0.942232 0.045009
Si Si2 0.113535 0.661758 0.682099
Si Si3 0.685595 0.900724 0.499239
Si Si4 0.670739 0.377224 0.088718
Si Si5 0.843032 0.738825 0.398857
Si Si6 0.198412 0.691676 0.499237
Si Si7 0.203666 0.238631 0.826048
O O1 0.741566 0.881071 0.118250
O O2 0.013942 0.939004 0.107896
O O3 0.781066 0.868944 0.941140
O O4 0.763231 0.065564 0.020307
O O5 0.224440 0.619993 0.791588
O O6 0.216591 0.711919 0.618298
O O7 0.984448 0.749530 0.692428
O O8 0.507673 0.895083 0.419416
O O9 0.803447 0.849749 0.448633
O O10 0.699543 0.836177 0.602813
O O11 0.731212 0.027034 0.531230
O O12 0.677813 0.263213 0.031738
O O13 0.759248 0.750936 0.277253
O O14 0.028252 0.731843 0.425393
#
# Coordination Sequence:
#
# PCOD8123815 Si02
#       7
#     4   4   4   4   4   4   4
#     4   8  19  33  59  94 107 140 192 248 282 325
#     4   9  19  35  60  88 107 149 196 228 292 329
#     4  10  24  41  55  82 123 154 190 227 302 336
#     4  11  24  39  56  84 120 158 185 242 280 351
#     4  10  18  38  61  85 112 150 191 237 288 339
#     4  11  19  37  59  92 112 141 201 242 281 334
#     4   9  19  36  62  85 110 152 191 234 284 343
#
# _framework density 19.458849000000001
#
# number of rings (size 3 to 8) (size 9 to 14) (size 15 to 20)
#    0.857    1.429    2.857    1.714    4.000    1.714 
#    2.571    2.857    0.000    0.000    0.000    0.000 
#    0.000    0.000    0.000    0.000    0.000    0.000 
#
# Total GULP energy -346967.337948 kJ/mol
# GULP energy per Si atom -12391.690641 kJ/mol
# Density = 1.941456 g / cm^3
# Si number density = 19.458849 Si / 1000 Ang^3
#
#
#
# Elastic Constant Matrix: (Units=GPa)
#
#
# Indices 1 2 3 4 5 6 
#
# 1 18.9667 23.9153 21.0413 0.0000 -0.3189 0.0000
# 2 23.9153 115.1706 47.9521 0.0000 -10.4939 0.0000
# 3 21.0413 47.9521 137.0990 0.0000 -17.2835 0.0000
# 4 0.0000 0.0000 0.0000 13.2399 0.0000 3.8876
# 5 -0.3189 -10.4939 -17.2835 0.0000 28.0185 0.0000
# 6 0.0000 0.0000 0.0000 3.8876 0.0000 18.2736
#
#
#
# Elastic Compliance Matrix: (Units=1/GPa)
#
#
# Indices 1 2 3 4 5 6 
#
# 1 0.079483 -0.013805 -0.008575 0.000000 -0.009555 0.000000
# 2 -0.013805 0.012640 -0.001871 0.000000 0.003423 0.000000
# 3 -0.008575 -0.001871 0.009936 0.000000 0.005331 0.000000
# 4 0.000000 0.000000 0.000000 0.080562 0.000000 -0.017139
# 5 -0.009555 0.003423 0.005331 0.000000 0.040153 0.000000
# 6 0.000000 0.000000 0.000000 -0.017139 0.000000 0.058370
#
#
# Mechanical properties :
#
#
# Convention : Reuss Voigt Hill
#
# Bulk Modulus (GPa) = 18.67127 50.78374 34.72750
# Shear Modulus (GPa) = 14.38855 23.79490 19.09173
#
# Velocity S-wave (km/s) = 2.72220 3.50070 3.13570
# Velocity P-wave (km/s) = 4.41550 6.51878 5.56737
#
# Compressibility (1/GPa) = 0.05355822
#
# Stress axis : x y z
#
# Youngs Moduli (GPa) = 12.58130 79.11243 100.63995
#
# Poissons Ratio (x) = 1.09216 0.86296
# Poissons Ratio (y) = 0.17369 0.18828
# Poissons Ratio (z) = 0.10788 0.14800
#
# Static dielectric constant tensor:
#      x y z
#    x 3.155090 0.000000 -0.071200 
#    y 0.000000 3.399140 0.000000 
#    z -0.071200 0.000000 3.565920 
# 
# 
# High freq. dielectric constant tensor:
#      x y z
#    x 1.721300 0.000000 -0.008930 
#    y 0.000000 1.745370 0.000000 
#    z -0.008930 0.000000 1.765520 
# 
# From -- ./inp_files/40125.got.cif
#   From: 2010.03.12/outbox.cif.g09.slc.cpg/sg14_21_cif.got.tgz:40125.got - 2010.03.31 13:35:05.
