data_PCOD8123587
_publ_section_title
;
Structure prediction by ZEFSAII (Michael W. Deem and Ramdas Pophale) SiO2 
 PCOD8123587
Probable space group: P 21/C
;
_chemical_formula_sum "Si O2"
_cell_formula_units_Z 28
_cell_length_a 25.244526
_cell_length_b 7.789654
_cell_length_c 21.405763
_cell_angle_alpha 90.000000
_cell_angle_beta 160.370375
_cell_angle_gamma 90.000000
_cell_volume 1414.086688
_symmetry_space_group_name_H-M "P 21/C"
_symmetry_group_IT_number 14
_symmetry_cell_setting 'monoclinic'
loop_
_space_group_symop_operation_xyz
x,y,z
-x,1/2+y,1/2-z
-x,-y,-z
x,1/2-y,1/2+z
loop_
_atom_site_type_symbol
_atom_site_label
_atom_site_fract_x
_atom_site_fract_y
_atom_site_fract_z
Si Si1 0.183587 0.553443 0.128017
Si Si2 0.140226 0.689550 0.759718
Si Si3 0.091988 0.266562 0.107430
Si Si4 0.345079 0.489610 0.908046
Si Si5 0.326675 0.625472 0.752536
Si Si6 0.998514 0.610144 0.316748
Si Si7 0.965609 0.498449 0.784513
O O1 0.209357 0.414566 0.210833
O O2 0.334251 0.677081 0.286370
O O3 0.030225 0.667076 0.977076
O O4 0.135883 0.472234 0.008029
O O5 0.306003 0.658222 0.906363
O O6 0.154736 0.874877 0.809974
O O7 0.000434 0.682709 0.553238
O O8 0.112743 0.537565 0.778997
O O9 0.204014 0.139438 0.270186
O O10 0.326803 0.505359 0.813236
O O11 0.518923 0.418348 0.117335
O O12 0.172050 0.599851 0.539668
O O13 0.020576 0.573317 0.268770
O O14 0.918954 0.799407 0.234267
#
# Coordination Sequence:
#
# PCOD8123587 Si02
#       7
#     4   4   4   4   4   4   4
#     4   9  19  34  55  87 112 139 190 243 278 335
#     4  11  20  35  59  84 111 146 192 239 284 336
#     4  10  18  33  58  85 111 143 186 238 287 328
#     4  11  20  33  55  82 115 152 177 224 293 345
#     4  10  21  34  53  82 117 149 182 223 287 345
#     4  11  20  38  60  83 111 146 197 244 278 340
#     4  10  21  34  60  86 106 144 193 244 284 325
#
# _framework density 19.800768000000001
#
# number of rings (size 3 to 8) (size 9 to 14) (size 15 to 20)
#    0.000    1.714    4.286    2.143    0.000    0.571 
#    0.000    0.000    6.286    0.000    0.000    0.000 
#    0.000    0.000    0.000    0.000    0.000    0.000 
#
# Total GULP energy -346928.380750 kJ/mol
# GULP energy per Si atom -12390.299313 kJ/mol
# Density = 1.975570 g / cm^3
# Si number density = 19.800768 Si / 1000 Ang^3
#
#
#
# Elastic Constant Matrix: (Units=GPa)
#
#
# Indices 1 2 3 4 5 6 
#
# 1 88.9310 30.7914 33.4432 0.0000 -4.8257 0.0000
# 2 30.7914 111.0946 33.2973 0.0000 9.2023 0.0000
# 3 33.4432 33.2973 56.3895 0.0000 11.4214 0.0000
# 4 0.0000 0.0000 0.0000 23.2664 0.0000 7.6750
# 5 -4.8257 9.2023 11.4214 0.0000 25.9845 0.0000
# 6 0.0000 0.0000 0.0000 7.6750 0.0000 41.1561
#
#
#
# Elastic Compliance Matrix: (Units=1/GPa)
#
#
# Indices 1 2 3 4 5 6 
#
# 1 0.016190 -0.002175 -0.009970 0.000000 0.008159 0.000000
# 2 -0.002175 0.011260 -0.004906 0.000000 -0.002235 0.000000
# 3 -0.009970 -0.004906 0.029163 0.000000 -0.012933 0.000000
# 4 0.000000 0.000000 0.000000 0.045798 0.000000 -0.008541
# 5 0.008159 -0.002235 -0.012933 0.000000 0.046476 0.000000
# 6 0.000000 0.000000 0.000000 -0.008541 0.000000 0.025890
#
#
# Mechanical properties :
#
#
# Convention : Reuss Voigt Hill
#
# Bulk Modulus (GPa) = 44.42372 50.16432 47.29402
# Shear Modulus (GPa) = 23.10722 28.67362 25.89042
#
# Velocity S-wave (km/s) = 3.41982 3.80953 3.61992
# Velocity P-wave (km/s) = 6.17071 6.68876 6.43495
#
# Compressibility (1/GPa) = 0.02251050
#
# Stress axis : x y z
#
# Youngs Moduli (GPa) = 61.76740 88.81200 34.28963
#
# Poissons Ratio (x) = 0.19315 0.34187
# Poissons Ratio (y) = 0.13433 0.16823
# Poissons Ratio (z) = 0.61583 0.43573
#
# Static dielectric constant tensor:
#      x y z
#    x 3.740540 0.000000 -0.036940 
#    y 0.000000 3.982470 0.000000 
#    z -0.036940 0.000000 3.205780 
# 
# 
# High freq. dielectric constant tensor:
#      x y z
#    x 1.780820 0.000000 -0.006270 
#    y 0.000000 1.787850 0.000000 
#    z -0.006270 0.000000 1.710160 
# 
# From -- ./inp_files/70185.got.cif
#   From: 2010.03.12/outbox.cif.g09.slc.cpg/sg14_36_cif.got.tgz:70185.got - 2010.03.31 13:35:05.
