data_PCOD8123908
_publ_section_title
;
Structure prediction by ZEFSAII (Michael W. Deem and Ramdas Pophale) SiO2 
 PCOD8123908
Probable space group: P 21/C
;
_chemical_formula_sum "Si O2"
_cell_formula_units_Z 32
_cell_length_a 7.470849
_cell_length_b 23.846622
_cell_length_c 11.442941
_cell_angle_alpha 90.000000
_cell_angle_beta 43.284428
_cell_angle_gamma 90.000000
_cell_volume 1397.713949
_symmetry_space_group_name_H-M "P 21/C"
_symmetry_group_IT_number 14
_symmetry_cell_setting 'monoclinic'
loop_
_space_group_symop_operation_xyz
x,y,z
-x,1/2+y,1/2-z
-x,-y,-z
x,1/2-y,1/2+z
loop_
_atom_site_type_symbol
_atom_site_label
_atom_site_fract_x
_atom_site_fract_y
_atom_site_fract_z
Si Si1 0.746827 0.554779 0.994184
Si Si2 0.286016 0.570834 0.027327
Si Si3 0.347463 0.139161 0.789159
Si Si4 0.999944 0.639439 0.337709
Si Si5 0.088689 0.621507 0.675969
Si Si6 0.921142 0.237100 0.700561
Si Si7 0.600007 0.759878 0.691284
Si Si8 0.545443 0.122836 0.189114
O O1 0.796402 0.488776 0.986786
O O2 0.016273 0.584464 0.823824
O O3 0.515643 0.565767 0.012759
O O4 0.671973 0.580804 0.155944
O O5 0.032640 0.596635 0.214044
O O6 0.375210 0.610867 0.876854
O O7 0.332779 0.205383 0.762464
O O8 0.135219 0.108330 0.811639
O O9 0.277142 0.131501 0.961451
O O10 0.024669 0.701577 0.269314
O O11 0.225080 0.630501 0.326004
O O12 0.107453 0.687896 0.691409
O O13 0.352511 0.600385 0.485178
O O14 0.655260 0.239844 0.755700
O O15 0.166864 0.221918 0.504042
O O16 0.559924 0.814735 0.789220
#
# Coordination Sequence:
#
# PCOD8123908 Si02
#       8
#     4   4   4   4   4   4   4   4
#     4   9  17  31  47  77 110 137 180 229 272 314
#     4   9  17  29  52  73 104 147 178 221 274 324
#     4   9  19  32  50  77 107 138 180 224 270 323
#     4   8  17  31  44  73 108 135 171 225 266 311
#     4  10  19  31  53  79 105 144 181 223 273 327
#     4  10  20  34  55  79 114 147 177 225 277 325
#     4  10  20  36  53  79 116 146 176 229 274 325
#     4   9  17  30  48  73 107 136 175 223 268 314
#
# _framework density 22.894527
#
# number of rings (size 3 to 8) (size 9 to 14) (size 15 to 20)
#    0.000    2.750    1.250    0.750    3.500    1.000 
#    0.000    5.000    0.000    0.750    0.000    4.375 
#    0.000    0.000    0.000    0.000    0.000    0.000 
#
# Total GULP energy -396504.844889 kJ/mol
# GULP energy per Si atom -12390.776403 kJ/mol
# Density = 2.284242 g / cm^3
# Si number density = 22.894527 Si / 1000 Ang^3
#
#
#
# Elastic Constant Matrix: (Units=GPa)
#
#
# Indices 1 2 3 4 5 6 
#
# 1 -3.9489 -37.6690 -18.1619 0.0000 -6.9862 0.0000
# 2 -37.6690 111.8355 56.7615 0.0000 7.3634 0.0000
# 3 -18.1619 56.7615 175.7189 0.0000 -4.6326 0.0000
# 4 0.0000 0.0000 0.0000 38.8402 0.0000 1.4863
# 5 -6.9862 7.3634 -4.6326 0.0000 14.3590 0.0000
# 6 0.0000 0.0000 0.0000 1.4863 0.0000 19.5769
#
#
#
# Elastic Compliance Matrix: (Units=1/GPa)
#
#
# Indices 1 2 3 4 5 6 
#
# 1 -0.055181 -0.017031 -0.000685 0.000000 -0.018335 0.000000
# 2 -0.017031 0.006109 -0.004069 0.000000 -0.012732 0.000000
# 3 -0.000685 -0.004069 0.007041 0.000000 0.004025 0.000000
# 4 0.000000 0.000000 0.000000 0.025822 0.000000 -0.001960
# 5 -0.018335 -0.012732 0.004025 0.000000 0.068550 0.000000
# 6 0.000000 0.000000 0.000000 -0.001960 0.000000 0.051229
#
#
# Mechanical properties :
#
#
# Convention : Reuss Voigt Hill
#
# Bulk Modulus (GPa) = -11.68174 31.71853 10.01839
# Shear Modulus (GPa) = 42.15631 33.40019 37.77825
#
# Velocity S-wave (km/s) = 4.29572 3.82366 4.06655
# Velocity P-wave (km/s) = 4.41484 5.77738 5.14145
#
# Compressibility (1/GPa) = -0.08560366
#
# Stress axis : x y z
#
# Youngs Moduli (GPa) = -18.12210 163.70052 142.03202
#
# Poissons Ratio (x) = 2.78805 0.09732
# Poissons Ratio (y) = -0.30865 0.57796
# Poissons Ratio (z) = -0.01242 0.66614
#
# Static dielectric constant tensor:
#      x y z
#    x 3.498160 0.000000 -0.165530 
#    y 0.000000 4.134880 0.000000 
#    z -0.165530 0.000000 4.514320 
# 
# 
# High freq. dielectric constant tensor:
#      x y z
#    x 1.858680 0.000000 -0.009180 
#    y 0.000000 1.891980 0.000000 
#    z -0.009180 0.000000 1.918940 
# 
# From -- ./inp_files/27008.got.cif
#   From: 2010.03.12/outbox.cif.g09.slc.cpg/sg14_14_cif.got.tgz:27008.got - 2010.03.31 13:35:05.
