data_PCOD8123423
_publ_section_title
;
Structure prediction by ZEFSAII (Michael W. Deem and Ramdas Pophale) SiO2 
 PCOD8123423
Probable space group: P 21/C
;
_chemical_formula_sum "Si O2"
_cell_formula_units_Z 28
_cell_length_a 9.205800
_cell_length_b 9.309905
_cell_length_c 19.178478
_cell_angle_alpha 90.000000
_cell_angle_beta 132.338374
_cell_angle_gamma 90.000000
_cell_volume 1214.985893
_symmetry_space_group_name_H-M "P 21/C"
_symmetry_group_IT_number 14
_symmetry_cell_setting 'monoclinic'
loop_
_space_group_symop_operation_xyz
x,y,z
-x,1/2+y,1/2-z
-x,-y,-z
x,1/2-y,1/2+z
loop_
_atom_site_type_symbol
_atom_site_label
_atom_site_fract_x
_atom_site_fract_y
_atom_site_fract_z
Si Si1 0.072050 0.657930 0.003176
Si Si2 0.812155 0.599714 0.446183
Si Si3 0.724301 0.753318 0.701586
Si Si4 0.737060 0.420650 0.210628
Si Si5 0.171969 0.755714 0.389327
Si Si6 0.810275 0.572713 0.601725
Si Si7 0.381528 0.654549 0.683092
O O1 0.196854 0.663511 0.971596
O O2 0.871037 0.750409 0.928507
O O3 0.209733 0.732291 0.106295
O O4 0.000000 0.500000 0.000000
O O5 0.755573 0.632375 0.507898
O O6 0.646207 0.511346 0.351317
O O7 0.000000 0.500000 0.500000
O O8 0.685423 0.661696 0.618409
O O9 0.589897 0.700318 0.720916
O O10 0.946347 0.732397 0.795684
O O11 0.674717 0.918520 0.671323
O O12 0.699405 0.332994 0.127946
O O13 0.602496 0.350839 0.227711
O O14 0.958765 0.411910 0.310211
O O15 0.250918 0.593884 0.417668
#
# Coordination Sequence:
#
# PCOD8123423 Si02
#       7
#     4   4   4   4   4   4   4
#     4  11  23  38  66  93 121 166 220 252 302 382
#     4  10  17  37  65  86 117 160 210 246 303 369
#     4  10  24  37  63  95 123 154 207 261 311 362
#     4  10  21  38  63  86 128 161 203 253 309 371
#     4  10  21  40  61  91 122 166 206 251 309 378
#     4  10  18  38  63  88 113 165 203 245 301 384
#     4  11  22  42  64  91 126 165 208 263 311 370
#
# _framework density 23.045535999999998
#
# number of rings (size 3 to 8) (size 9 to 14) (size 15 to 20)
#    0.000    1.714    5.714    0.857    2.000    5.143 
#    0.000    2.143    0.000    0.000    0.000    0.000 
#    0.000    0.000    0.000    0.000    0.000    0.000 
#
# Total GULP energy -347157.152994 kJ/mol
# GULP energy per Si atom -12398.469750 kJ/mol
# Density = 2.299308 g / cm^3
# Si number density = 23.045536 Si / 1000 Ang^3
#
#
#
# Elastic Constant Matrix: (Units=GPa)
#
#
# Indices 1 2 3 4 5 6 
#
# 1 163.4940 72.2974 29.6282 0.0000 -51.3950 0.0000
# 2 72.2974 128.9683 22.7348 0.0000 -29.3712 0.0000
# 3 29.6282 22.7348 37.6063 0.0000 -32.5472 0.0000
# 4 0.0000 0.0000 0.0000 17.9664 0.0000 -13.7589
# 5 -51.3950 -29.3712 -32.5472 0.0000 47.4019 0.0000
# 6 0.0000 0.0000 0.0000 -13.7589 0.0000 39.1237
#
#
#
# Elastic Compliance Matrix: (Units=1/GPa)
#
#
# Indices 1 2 3 4 5 6 
#
# 1 0.011095 -0.004163 0.004817 0.000000 0.012757 0.000000
# 2 -0.004163 0.010625 -0.003333 0.000000 -0.000219 0.000000
# 3 0.004817 -0.003333 0.067884 0.000000 0.049768 0.000000
# 4 0.000000 0.000000 0.000000 0.076174 0.000000 0.026789
# 5 0.012757 -0.000219 0.049768 0.000000 0.068964 0.000000
# 6 0.000000 0.000000 0.000000 0.026789 0.000000 0.034981
#
#
# Mechanical properties :
#
#
# Convention : Reuss Voigt Hill
#
# Bulk Modulus (GPa) = 11.87011 64.37660 38.12336
# Shear Modulus (GPa) = 16.49273 34.59230 25.54252
#
# Velocity S-wave (km/s) = 2.67808 3.87853 3.33280
# Velocity P-wave (km/s) = 3.83728 6.93199 5.60255
#
# Compressibility (1/GPa) = 0.08424520
#
# Stress axis : x y z
#
# Youngs Moduli (GPa) = 90.13225 94.11351 14.73103
#
# Poissons Ratio (x) = 0.39183 -0.07095
# Poissons Ratio (y) = 0.37526 0.04909
# Poissons Ratio (z) = -0.43413 0.31365
#
# Static dielectric constant tensor:
#      x y z
#    x 4.211320 0.000000 -0.330640 
#    y 0.000000 4.627300 0.000000 
#    z -0.330640 0.000000 3.974660 
# 
# 
# High freq. dielectric constant tensor:
#      x y z
#    x 1.917280 0.000000 -0.020580 
#    y 0.000000 1.908040 0.000000 
#    z -0.020580 0.000000 1.887200 
# 
# From -- ./inp_files/65013.got.cif
#   From: 2010.03.12/outbox.cif.g09.slc.cpg/sg14_33_cif.got.tgz:65013.got - 2010.03.31 13:35:05.
