data_PCOD8123692
_publ_section_title
;
Structure prediction by ZEFSAII (Michael W. Deem and Ramdas Pophale) SiO2 
 PCOD8123692
Probable space group: P 21/C
;
_chemical_formula_sum "Si O2"
_cell_formula_units_Z 28
_cell_length_a 10.533947
_cell_length_b 4.947705
_cell_length_c 36.383545
_cell_angle_alpha 90.000000
_cell_angle_beta 57.050258
_cell_angle_gamma 90.000000
_cell_volume 1591.250285
_symmetry_space_group_name_H-M "P 21/C"
_symmetry_group_IT_number 14
_symmetry_cell_setting 'monoclinic'
loop_
_space_group_symop_operation_xyz
x,y,z
-x,1/2+y,1/2-z
-x,-y,-z
x,1/2-y,1/2+z
loop_
_atom_site_type_symbol
_atom_site_label
_atom_site_fract_x
_atom_site_fract_y
_atom_site_fract_z
Si Si1 0.726351 0.944140 0.362566
Si Si2 0.048440 0.215411 0.221673
Si Si3 0.603655 0.540431 0.063927
Si Si4 0.035651 0.032761 0.070932
Si Si5 0.896926 0.021159 0.859478
Si Si6 0.912349 0.965322 0.551534
Si Si7 0.628128 0.458654 0.509853
O O1 0.784364 0.846287 0.312663
O O2 0.759021 0.696427 0.385811
O O3 0.550403 0.009424 0.388913
O O4 0.826702 0.192524 0.360517
O O5 0.941402 0.463276 0.251588
O O6 0.993380 0.088239 0.191016
O O7 0.735465 0.484283 0.072491
O O8 0.615008 0.343653 0.027285
O O9 0.612021 0.841765 0.046820
O O10 0.979794 0.334485 0.071387
O O11 0.007624 0.965643 0.118154
O O12 0.933784 0.837913 0.062231
O O13 0.211421 0.996536 0.034660
O O14 0.000000 0.000000 0.500000
O O15 0.500000 0.500000 0.500000
#
# Coordination Sequence:
#
# PCOD8123692 Si02
#       7
#     4   4   4   4   4   4   4
#     4  10  20  35  55  84 119 133 177 223 285 329
#     4  10  18  35  59  86 115 137 164 213 294 363
#     4  12  23  37  52  78 111 150 194 231 259 323
#     4  12  22  38  54  78 111 153 196 236 266 310
#     4  10  21  35  57  85 119 133 179 227 283 333
#     4  12  23  39  54  73 107 163 205 232 254 308
#     4  12  23  34  55  75 110 152 189 223 289 311
#
# _framework density 17.596223999999999
#
# number of rings (size 3 to 8) (size 9 to 14) (size 15 to 20)
#    0.857    0.000    4.286    5.143    0.000    0.000 
#    0.000    0.000    0.000    0.000    0.000    4.000 
#    0.000    0.000    0.000    0.000    0.000    0.000 
#
# Total GULP energy -347049.035822 kJ/mol
# GULP energy per Si atom -12394.608422 kJ/mol
# Density = 1.755617 g / cm^3
# Si number density = 17.596224 Si / 1000 Ang^3
#
#
#
# Elastic Constant Matrix: (Units=GPa)
#
#
# Indices 1 2 3 4 5 6 
#
# 1 85.0420 13.3971 37.1709 0.0000 9.8719 0.0000
# 2 13.3971 81.9658 20.0549 0.0000 2.6036 0.0000
# 3 37.1709 20.0549 95.1940 0.0000 0.4557 0.0000
# 4 0.0000 0.0000 0.0000 21.2368 0.0000 6.1540
# 5 9.8719 2.6036 0.4557 0.0000 12.9747 0.0000
# 6 0.0000 0.0000 0.0000 6.1540 0.0000 27.5316
#
#
#
# Elastic Compliance Matrix: (Units=1/GPa)
#
#
# Indices 1 2 3 4 5 6 
#
# 1 0.015846 -0.000757 -0.005972 0.000000 -0.011695 0.000000
# 2 -0.000757 0.012980 -0.002430 0.000000 -0.001943 0.000000
# 3 -0.005972 -0.002430 0.013327 0.000000 0.004563 0.000000
# 4 0.000000 0.000000 0.000000 0.050349 0.000000 -0.011254
# 5 -0.011695 -0.001943 0.004563 0.000000 0.086201 0.000000
# 6 0.000000 0.000000 0.000000 -0.011254 0.000000 0.038837
#
#
# Mechanical properties :
#
#
# Convention : Reuss Voigt Hill
#
# Bulk Modulus (GPa) = 41.95459 44.82750 43.39105
# Shear Modulus (GPa) = 20.50829 25.12055 22.81442
#
# Velocity S-wave (km/s) = 3.41764 3.78247 3.60467
# Velocity P-wave (km/s) = 6.28239 6.67885 6.48365
#
# Compressibility (1/GPa) = 0.02383529
#
# Stress axis : x y z
#
# Youngs Moduli (GPa) = 63.10712 77.04064 75.03694
#
# Poissons Ratio (x) = 0.05835 0.44812
# Poissons Ratio (y) = 0.04779 0.18231
# Poissons Ratio (z) = 0.37687 0.18717
#
# Static dielectric constant tensor:
#      x y z
#    x 3.168000 0.000000 -0.020400 
#    y 0.000000 3.615960 0.000000 
#    z -0.020400 0.000000 3.244440 
# 
# 
# High freq. dielectric constant tensor:
#      x y z
#    x 1.646960 0.000000 0.000830 
#    y 0.000000 1.711000 0.000000 
#    z 0.000830 0.000000 1.666300 
# 
# From -- ./inp_files/79019.got.cif
#   From: 2010.03.12/outbox.cif.g09.slc.cpg/sg14_40_cif.got.tgz:79019.got - 2010.03.31 13:35:05.
