data_PCOD8123405
_publ_section_title
;
Structure prediction by ZEFSAII (Michael W. Deem and Ramdas Pophale) SiO2 
 PCOD8123405
Probable space group: P 21/C
;
_chemical_formula_sum "Si O2"
_cell_formula_units_Z 28
_cell_length_a 9.841326
_cell_length_b 19.743870
_cell_length_c 7.679387
_cell_angle_alpha 90.000000
_cell_angle_beta 82.977307
_cell_angle_gamma 90.000000
_cell_volume 1480.955505
_symmetry_space_group_name_H-M "P 21/C"
_symmetry_group_IT_number 14
_symmetry_cell_setting 'monoclinic'
loop_
_space_group_symop_operation_xyz
x,y,z
-x,1/2+y,1/2-z
-x,-y,-z
x,1/2-y,1/2+z
loop_
_atom_site_type_symbol
_atom_site_label
_atom_site_fract_x
_atom_site_fract_y
_atom_site_fract_z
Si Si1 0.001043 0.846760 0.619226
Si Si2 0.525040 0.405717 0.329882
Si Si3 0.720802 0.413811 0.993028
Si Si4 0.716885 0.828120 0.269555
Si Si5 0.232904 0.435893 0.946152
Si Si6 0.127762 0.226501 0.058171
Si Si7 0.483516 0.558720 0.278723
O O1 0.908166 0.914187 0.623097
O O2 0.954279 0.793309 0.482736
O O3 0.977879 0.815351 0.811219
O O4 0.160536 0.861309 0.570477
O O5 0.661473 0.396078 0.193438
O O6 0.429538 0.341362 0.297853
O O7 0.455203 0.477920 0.290940
O O8 0.557208 0.406079 0.531708
O O9 0.785014 0.488092 0.986291
O O10 0.604480 0.408729 0.863015
O O11 0.742353 0.891008 0.389056
O O12 0.733429 0.755154 0.366181
O O13 0.831231 0.824571 0.100977
O O14 0.357022 0.427668 0.788658
#
# Coordination Sequence:
#
# PCOD8123405 Si02
#       7
#     4   4   4   4   4   4   4
#     4  10  21  38  59  77 115 149 197 232 282 333
#     4  10  19  34  60  85 116 150 179 231 283 348
#     4  11  20  37  56  91 123 145 175 237 302 341
#     4  10  17  36  59  80 107 143 203 235 273 328
#     4  10  18  35  62  85 114 150 184 237 283 346
#     4   9  21  37  57  77 104 161 198 236 271 326
#     4  10  19  34  59  89 120 144 180 220 300 343
#
# _framework density 18.906711000000001
#
# number of rings (size 3 to 8) (size 9 to 14) (size 15 to 20)
#    0.000    2.000    2.857    2.143    0.000    0.000 
#    7.714    2.143    0.000    0.000    0.000    0.000 
#    0.000    0.000    0.000    0.000    0.000    0.000 
#
# Total GULP energy -347061.463691 kJ/mol
# GULP energy per Si atom -12395.052275 kJ/mol
# Density = 1.886368 g / cm^3
# Si number density = 18.906711 Si / 1000 Ang^3
#
#
#
# Elastic Constant Matrix: (Units=GPa)
#
#
# Indices 1 2 3 4 5 6 
#
# 1 71.4480 17.4597 33.3911 0.0000 -11.2165 0.0000
# 2 17.4597 51.2064 39.8116 0.0000 -13.7442 0.0000
# 3 33.3911 39.8116 140.8870 0.0000 -8.3289 0.0000
# 4 0.0000 0.0000 0.0000 24.8312 0.0000 -10.8094
# 5 -11.2165 -13.7442 -8.3289 0.0000 22.6656 0.0000
# 6 0.0000 0.0000 0.0000 -10.8094 0.0000 24.1350
#
#
#
# Elastic Compliance Matrix: (Units=1/GPa)
#
#
# Indices 1 2 3 4 5 6 
#
# 1 0.016844 -0.001618 -0.003169 0.000000 0.006190 0.000000
# 2 -0.001618 0.029477 -0.007091 0.000000 0.014468 0.000000
# 3 -0.003169 -0.007091 0.009717 0.000000 -0.002297 0.000000
# 4 0.000000 0.000000 0.000000 0.050025 0.000000 0.022405
# 5 0.006190 0.014468 -0.002297 0.000000 0.055112 0.000000
# 6 0.000000 0.000000 0.000000 0.022405 0.000000 0.051468
#
#
# Mechanical properties :
#
#
# Convention : Reuss Voigt Hill
#
# Bulk Modulus (GPa) = 30.97670 49.42958 40.20314
# Shear Modulus (GPa) = 20.22983 25.85161 23.04072
#
# Velocity S-wave (km/s) = 3.27461 3.70175 3.49471
# Velocity P-wave (km/s) = 5.54229 6.66868 6.13140
#
# Compressibility (1/GPa) = 0.03228233
#
# Stress axis : x y z
#
# Youngs Moduli (GPa) = 59.36686 33.92520 102.91427
#
# Poissons Ratio (x) = 0.05489 0.32614
# Poissons Ratio (y) = 0.09606 0.72973
# Poissons Ratio (z) = 0.18814 0.24055
#
# Static dielectric constant tensor:
#      x y z
#    x 3.283180 0.000000 0.086020 
#    y 0.000000 3.415790 0.000000 
#    z 0.086020 0.000000 3.639310 
# 
# 
# High freq. dielectric constant tensor:
#      x y z
#    x 1.709500 0.000000 0.003160 
#    y 0.000000 1.721290 0.000000 
#    z 0.003160 0.000000 1.750810 
# 
# From -- ./inp_files/9890.got.cif
#   From: 2010.03.12/outbox.cif.g09.slc.cpg/sg14_5_cif.got.tgz:9890.got - 2010.03.31 13:35:05.
