data_PCOD8123005
_publ_section_title
;
Structure prediction by ZEFSAII (Michael W. Deem and Ramdas Pophale) SiO2 
 PCOD8123005
Probable space group: P 2/C
;
_chemical_formula_sum "Si O2"
_cell_formula_units_Z 16
_cell_length_a 8.963962
_cell_length_b 4.905513
_cell_length_c 17.652593
_cell_angle_alpha 90.000000
_cell_angle_beta 128.414315
_cell_angle_gamma 90.000000
_cell_volume 608.209423
_symmetry_space_group_name_H-M "P 2/C"
_symmetry_group_IT_number 13
_symmetry_cell_setting 'monoclinic'
loop_
_space_group_symop_operation_xyz
x,y,z
-x,y,1/2-z
-x,-y,-z
x,-y,1/2+z
loop_
_atom_site_type_symbol
_atom_site_label
_atom_site_fract_x
_atom_site_fract_y
_atom_site_fract_z
Si Si1 0.595927 0.669112 0.642482
Si Si2 0.265639 0.054350 0.103207
Si Si3 0.131291 0.551781 0.147681
Si Si4 0.740547 0.682317 0.529106
O O1 0.765105 0.540069 0.743433
O O2 0.681613 0.799843 0.592825
O O3 0.440845 0.442838 0.570735
O O4 0.493434 0.899090 0.662528
O O5 0.214750 0.848460 0.154835
O O6 0.172611 0.348559 0.090133
O O7 0.181941 0.935566 0.997325
O O8 0.905098 0.545771 0.091630
#
# Coordination Sequence:
#
# PCOD8123005 Si02
#       4
#     4   4   4   4
#     4  11  27  47  76 106 151 189 243 299 364 434
#     4  12  26  48  71 110 140 192 244 299 355 431
#     4  12  28  47  76 106 148 190 245 298 361 433
#     4  11  26  50  72 109 146 195 239 298 368 431
#
# _framework density 26.306725
#
# number of rings (size 3 to 8) (size 9 to 14) (size 15 to 20)
#    0.000    0.500    2.500    3.750   10.500    0.000 
#    0.000    2.500    0.000    0.000    0.000    0.000 
#    0.000    0.000    0.000    0.000    0.000    0.000 
#
# Total GULP energy -198407.317419 kJ/mol
# GULP energy per Si atom -12400.457339 kJ/mol
# Density = 2.624685 g / cm^3
# Si number density = 26.306725 Si / 1000 Ang^3
#
#
#
# Elastic Constant Matrix: (Units=GPa)
#
#
# Indices 1 2 3 4 5 6 
#
# 1 78.6810 3.2242 27.3152 0.0000 -6.4654 0.0000
# 2 3.2242 76.2039 -2.2305 0.0000 0.6150 0.0000
# 3 27.3152 -2.2305 93.4412 0.0000 7.5241 0.0000
# 4 0.0000 0.0000 0.0000 30.7252 0.0000 2.2634
# 5 -6.4654 0.6150 7.5241 0.0000 43.5411 0.0000
# 6 0.0000 0.0000 0.0000 2.2634 0.0000 25.0747
#
#
#
# Elastic Compliance Matrix: (Units=1/GPa)
#
#
# Indices 1 2 3 4 5 6 
#
# 1 0.014549 -0.000771 -0.004509 0.000000 0.002950 0.000000
# 2 -0.000771 0.013175 0.000572 0.000000 -0.000399 0.000000
# 3 -0.004509 0.000572 0.012259 0.000000 -0.002796 0.000000
# 4 0.000000 0.000000 0.000000 0.032764 0.000000 -0.002958
# 5 0.002950 -0.000399 -0.002796 0.000000 0.023894 0.000000
# 6 0.000000 0.000000 0.000000 -0.002958 0.000000 0.040148
#
#
# Mechanical properties :
#
#
# Convention : Reuss Voigt Hill
#
# Bulk Modulus (GPa) = 32.71541 33.88266 33.29903
# Shear Modulus (GPa) = 31.97047 34.53603 33.25325
#
# Velocity S-wave (km/s) = 3.48989 3.62722 3.55922
# Velocity P-wave (km/s) = 5.35745 5.51816 5.43840
#
# Compressibility (1/GPa) = 0.03056664
#
# Stress axis : x y z
#
# Youngs Moduli (GPa) = 68.73340 75.89967 81.57401
#
# Poissons Ratio (x) = 0.05855 0.36782
# Poissons Ratio (y) = 0.05302 -0.04667
# Poissons Ratio (z) = 0.30992 -0.04343
#
# Static dielectric constant tensor:
#      x y z
#    x 5.201800 0.000000 -0.106200 
#    y 0.000000 4.506700 0.000000 
#    z -0.106200 0.000000 4.543490 
# 
# 
# High freq. dielectric constant tensor:
#      x y z
#    x 2.070930 0.000000 -0.001760 
#    y 0.000000 2.039200 0.000000 
#    z -0.001760 0.000000 2.056630 
# 
# From -- ./inp_files/62178.got.cif
#   From: 2010.06.25/outbox.cif.g09.slc.cpg/sg13_32_cif.got.tgz:62178.got - 2010.06.28 04:50:58.
