data_PCOD8123544
_publ_section_title
;
Structure prediction by ZEFSAII (Michael W. Deem and Ramdas Pophale) SiO2 
 PCOD8123544
Probable space group: P 21/C
;
_chemical_formula_sum "Si O2"
_cell_formula_units_Z 20
_cell_length_a 24.806094
_cell_length_b 6.887332
_cell_length_c 5.343965
_cell_angle_alpha 90.000000
_cell_angle_beta 63.955912
_cell_angle_gamma 90.000000
_cell_volume 820.294964
_symmetry_space_group_name_H-M "P 21/C"
_symmetry_group_IT_number 14
_symmetry_cell_setting 'monoclinic'
loop_
_space_group_symop_operation_xyz
x,y,z
-x,1/2+y,1/2-z
-x,-y,-z
x,1/2-y,1/2+z
loop_
_atom_site_type_symbol
_atom_site_label
_atom_site_fract_x
_atom_site_fract_y
_atom_site_fract_z
Si Si1 0.256758 0.627937 0.959426
Si Si2 0.929499 0.472545 0.150635
Si Si3 0.620431 0.539900 0.235247
Si Si4 0.570448 0.975129 0.336594
Si Si5 0.120734 0.535848 0.247116
O O1 0.264157 0.718918 0.669059
O O2 0.307354 0.461425 0.887729
O O3 0.192219 0.530099 0.113433
O O4 0.907797 0.250287 0.202798
O O5 0.904384 0.573699 0.455007
O O6 0.901246 0.573009 0.960467
O O7 0.000000 0.500000 0.000000
O O8 0.592936 0.753617 0.270277
O O9 0.592078 0.426460 0.532286
O O10 0.601054 0.427994 0.019143
O O11 0.500000 0.000000 0.500000
#
# Coordination Sequence:
#
# PCOD8123544 Si02
#       5
#     4   4   4   4   4
#     4  12  21  40  62  92 129 162 214 261 311 387
#     4  10  18  32  56  81 115 151 199 245 295 364
#     4  10  23  40  65  94 117 166 212 252 317 378
#     4  10  21  45  66  86 127 161 205 262 316 377
#     4  10  19  35  55  84 112 157 202 243 312 354
#
# _framework density 24.381474999999998
#
# number of rings (size 3 to 8) (size 9 to 14) (size 15 to 20)
#    0.000    1.600    4.000    2.400    0.000    0.000 
#   21.600    0.000    0.000   28.800    0.000    0.000 
#    0.000    0.000    0.000    0.000    0.000    0.000 
#
# Total GULP energy -247797.566382 kJ/mol
# GULP energy per Si atom -12389.878319 kJ/mol
# Density = 2.432598 g / cm^3
# Si number density = 24.381475 Si / 1000 Ang^3
#
#
#
# Elastic Constant Matrix: (Units=GPa)
#
#
# Indices 1 2 3 4 5 6 
#
# 1 219.5626 13.1526 80.0592 0.0000 -5.9862 0.0000
# 2 13.1526 50.9936 -9.7128 0.0000 -18.6653 0.0000
# 3 80.0592 -9.7128 177.9311 0.0000 37.3352 0.0000
# 4 0.0000 0.0000 0.0000 -1.6921 0.0000 -36.4747
# 5 -5.9862 -18.6653 37.3352 0.0000 90.4180 0.0000
# 6 0.0000 0.0000 0.0000 -36.4747 0.0000 43.3710
#
#
#
# Elastic Compliance Matrix: (Units=1/GPa)
#
#
# Indices 1 2 3 4 5 6 
#
# 1 0.005757 -0.001581 -0.002943 0.000000 0.001270 0.000000
# 2 -0.001581 0.021658 0.001070 0.000000 0.003925 0.000000
# 3 -0.002943 0.001070 0.007661 0.000000 -0.003137 0.000000
# 4 0.000000 0.000000 0.000000 -0.030896 0.000000 -0.025983
# 5 0.001270 0.003925 -0.003137 0.000000 0.013249 0.000000
# 6 0.000000 0.000000 0.000000 -0.025983 0.000000 0.001205
#
#
# Mechanical properties :
#
#
# Convention : Reuss Voigt Hill
#
# Bulk Modulus (GPa) = 35.50009 68.38725 51.94367
# Shear Modulus (GPa) = 143.13283 50.75195 96.94239
#
# Velocity S-wave (km/s) = 7.67027 4.56738 6.31245
# Velocity P-wave (km/s) = 9.64551 7.47826 8.63019
#
# Compressibility (1/GPa) = 0.02816894
#
# Stress axis : x y z
#
# Youngs Moduli (GPa) = 173.70261 46.17169 130.52944
#
# Poissons Ratio (x) = 0.07298 0.38416
# Poissons Ratio (y) = 0.27454 -0.13966
# Poissons Ratio (z) = 0.51123 -0.04940
#
# Static dielectric constant tensor:
#      x y z
#    x 3.570670 0.000000 -1.228540 
#    y 0.000000 3.672880 0.000000 
#    z -1.228540 0.000000 2.472610 
# 
# 
# High freq. dielectric constant tensor:
#      x y z
#    x 1.988600 0.000000 0.021630 
#    y 0.000000 1.929780 0.000000 
#    z 0.021630 0.000000 2.006160 
# 
# From -- ./inp_files/4320.got.cif
#   From: 2010.03.12/outbox.cif.g09.slc.cpg/sg14_3_cif.got.tgz:4320.got - 2010.03.31 13:35:05.
