data_PCOD8123322
_publ_section_title
;
Structure prediction by ZEFSAII (Michael W. Deem and Ramdas Pophale) SiO2 
 PCOD8123322
Probable space group: P 21/C
;
_chemical_formula_sum "Si O2"
_cell_formula_units_Z 32
_cell_length_a 12.816085
_cell_length_b 10.095609
_cell_length_c 12.870771
_cell_angle_alpha 90.000000
_cell_angle_beta 80.312796
_cell_angle_gamma 90.000000
_cell_volume 1641.554544
_symmetry_space_group_name_H-M "P 21/C"
_symmetry_group_IT_number 14
_symmetry_cell_setting 'monoclinic'
loop_
_space_group_symop_operation_xyz
x,y,z
-x,1/2+y,1/2-z
-x,-y,-z
x,1/2-y,1/2+z
loop_
_atom_site_type_symbol
_atom_site_label
_atom_site_fract_x
_atom_site_fract_y
_atom_site_fract_z
Si Si1 0.110085 0.040359 0.279510
Si Si2 0.042105 0.647827 0.474774
Si Si3 0.155757 0.177445 0.465443
Si Si4 0.207888 0.674833 0.621098
Si Si5 0.882031 0.092673 0.250436
Si Si6 0.376177 0.009045 0.007851
Si Si7 0.258592 0.242220 0.141887
Si Si8 0.275678 0.396101 0.326965
O O1 0.149972 0.047006 0.393467
O O2 0.159534 0.165852 0.210487
O O3 0.982118 0.042403 0.300920
O O4 0.151814 0.907507 0.221391
O O5 0.146813 0.662354 0.524174
O O6 0.069224 0.679723 0.351049
O O7 0.000000 0.500000 0.500000
O O8 0.959410 0.758224 0.521884
O O9 0.201812 0.150826 0.573316
O O10 0.238476 0.283272 0.409912
O O11 0.202470 0.825269 0.664878
O O12 0.324769 0.619868 0.573603
O O13 0.823955 0.973332 0.202630
O O14 0.336585 0.140641 0.072585
O O15 0.351720 0.013237 0.886817
O O16 0.500000 0.000000 0.000000
O O17 0.327246 0.324378 0.216442
#
# Coordination Sequence:
#
# PCOD8123322 Si02
#       8
#     4   4   4   4   4   4   4   4
#     4  10  19  30  52  81 115 157 183 219 270 337
#     4  12  17  31  52  75 112 156 188 219 268 336
#     4  10  17  31  53  80 115 151 190 220 265 334
#     4  11  22  37  51  83 116 147 195 233 279 339
#     4  12  21  31  55  82 120 155 183 225 280 342
#     4  10  21  43  66  81 103 147 199 243 292 340
#     4   9  19  35  58  85 112 141 191 239 268 336
#     4  10  20  36  57  85 110 149 187 231 289 332
#
# _framework density 19.493717
#
# number of rings (size 3 to 8) (size 9 to 14) (size 15 to 20)
#    0.000    1.500    6.250    0.750    1.750    0.000 
#    4.500    1.250    0.000    0.750    0.000    0.000 
#    0.000    0.000    0.000    0.000    0.000    0.000 
#
# Total GULP energy -396478.378508 kJ/mol
# GULP energy per Si atom -12389.949328 kJ/mol
# Density = 1.944935 g / cm^3
# Si number density = 19.493717 Si / 1000 Ang^3
#
#
#
# Elastic Constant Matrix: (Units=GPa)
#
#
# Indices 1 2 3 4 5 6 
#
# 1 99.4687 10.3593 30.8403 0.0000 2.7795 0.0000
# 2 10.3593 24.8849 10.5315 0.0000 1.1675 0.0000
# 3 30.8403 10.5315 74.4115 0.0000 9.2164 0.0000
# 4 0.0000 0.0000 0.0000 25.8470 0.0000 -2.2829
# 5 2.7795 1.1675 9.2164 0.0000 20.4925 0.0000
# 6 0.0000 0.0000 0.0000 -2.2829 0.0000 13.7768
#
#
#
# Elastic Compliance Matrix: (Units=1/GPa)
#
#
# Indices 1 2 3 4 5 6 
#
# 1 0.011751 -0.003007 -0.004520 0.000000 0.000610 0.000000
# 2 -0.003007 0.043517 -0.004931 0.000000 0.000146 0.000000
# 3 -0.004520 -0.004931 0.016837 0.000000 -0.006678 0.000000
# 4 0.000000 0.000000 0.000000 0.039264 0.000000 0.006506
# 5 0.000610 0.000146 -0.006678 0.000000 0.051711 0.000000
# 6 0.000000 0.000000 0.000000 0.006506 0.000000 0.073664
#
#
# Mechanical properties :
#
#
# Convention : Reuss Voigt Hill
#
# Bulk Modulus (GPa) = 21.19162 33.58082 27.38622
# Shear Modulus (GPa) = 18.02517 21.82553 19.92535
#
# Velocity S-wave (km/s) = 3.04413 3.34970 3.20056
# Velocity P-wave (km/s) = 4.82185 5.67667 5.26663
#
# Compressibility (1/GPa) = 0.04718846
#
# Stress axis : x y z
#
# Youngs Moduli (GPa) = 85.09850 22.97962 59.39218
#
# Poissons Ratio (x) = 0.06911 0.26847
# Poissons Ratio (y) = 0.25593 0.29284
# Poissons Ratio (z) = 0.38467 0.11330
#
# Static dielectric constant tensor:
#      x y z
#    x 3.130110 0.000000 0.127180 
#    y 0.000000 3.430380 0.000000 
#    z 0.127180 0.000000 4.022880 
# 
# 
# High freq. dielectric constant tensor:
#      x y z
#    x 1.710030 0.000000 0.011980 
#    y 0.000000 1.739990 0.000000 
#    z 0.011980 0.000000 1.783410 
# 
# From -- ./inp_files/29105.got.cif
#   From: 2010.03.12/outbox.cif.g09.slc.cpg/sg14_15_cif.got.tgz:29105.got - 2010.03.31 13:35:05.
