data_PCOD8123925
_publ_section_title
;
Structure prediction by ZEFSAII (Michael W. Deem and Ramdas Pophale) SiO2 
 PCOD8123925
Probable space group: P 21/C
;
_chemical_formula_sum "Si O2"
_cell_formula_units_Z 32
_cell_length_a 5.078580
_cell_length_b 13.044134
_cell_length_c 23.312467
_cell_angle_alpha 90.000000
_cell_angle_beta 102.583514
_cell_angle_gamma 90.000000
_cell_volume 1507.254103
_symmetry_space_group_name_H-M "P 21/C"
_symmetry_group_IT_number 14
_symmetry_cell_setting 'monoclinic'
loop_
_space_group_symop_operation_xyz
x,y,z
-x,1/2+y,1/2-z
-x,-y,-z
x,1/2-y,1/2+z
loop_
_atom_site_type_symbol
_atom_site_label
_atom_site_fract_x
_atom_site_fract_y
_atom_site_fract_z
Si Si1 0.197779 0.613409 0.751590
Si Si2 0.013567 0.236159 0.067246
Si Si3 0.872156 0.318140 0.816433
Si Si4 0.694595 0.613424 0.248411
Si Si5 0.239265 0.181847 0.683564
Si Si6 0.605504 0.889908 0.066957
Si Si7 0.120939 0.736155 0.567249
Si Si8 0.471578 0.889905 0.933044
O O1 0.164615 0.696920 0.699775
O O2 0.225495 0.499993 0.725492
O O3 0.460984 0.637946 0.801721
O O4 0.942157 0.616047 0.781771
O O5 0.131829 0.326980 0.112837
O O6 0.235462 0.146573 0.072470
O O7 0.759273 0.193325 0.091718
O O8 0.933885 0.278506 0.999998
O O9 0.621403 0.383932 0.781762
O O10 0.906144 0.326973 0.887159
O O11 0.142487 0.362043 0.801724
O O12 0.765110 0.696935 0.300225
O O13 0.424183 0.806679 0.091721
O O14 0.909494 0.853432 0.072470
O O15 0.599235 0.000002 0.099227
O O16 0.447167 0.903869 0.000001
#
# Coordination Sequence:
#
# PCOD8123925 Si02
#       8
#     4   4   4   4   4   4   4   4
#     4  10  21  38  59  80 107 142 180 229 272 307
#     4  10  19  32  51  75 108 143 171 215 271 318
#     4  10  21  37  57  84 109 138 185 221 264 329
#     4  10  21  38  59  80 107 142 180 229 272 307
#     4  10  21  37  57  84 109 138 185 221 264 329
#     4   9  17  28  43  68 103 142 178 208 252 318
#     4  10  19  32  51  75 108 143 171 215 271 318
#     4   9  17  28  43  68 103 142 178 208 252 318
#
# _framework density 21.230661999999999
#
# number of rings (size 3 to 8) (size 9 to 14) (size 15 to 20)
#    0.000    2.250    0.000    3.000    0.000    5.000 
#    0.000    0.000    0.000    4.500    0.000    0.000 
#    0.000    0.000    0.000    0.000    0.000    0.000 
#
# Total GULP energy -396689.731911 kJ/mol
# GULP energy per Si atom -12396.554122 kJ/mol
# Density = 2.118234 g / cm^3
# Si number density = 21.230662 Si / 1000 Ang^3
#
#
#
# Elastic Constant Matrix: (Units=GPa)
#
#
# Indices 1 2 3 4 5 6 
#
# 1 81.6401 -2.2467 4.5167 0.0000 1.7534 0.0000
# 2 -2.2467 60.7702 -3.2008 0.0000 0.0437 0.0000
# 3 4.5167 -3.2008 71.5325 0.0000 -1.3063 0.0000
# 4 0.0000 0.0000 0.0000 11.3493 0.0000 0.3530
# 5 1.7534 0.0437 -1.3063 0.0000 19.0902 0.0000
# 6 0.0000 0.0000 0.0000 0.3530 0.0000 19.2541
#
#
#
# Elastic Compliance Matrix: (Units=1/GPa)
#
#
# Indices 1 2 3 4 5 6 
#
# 1 0.012329 0.000415 -0.000782 0.000000 -0.001187 0.000000
# 2 0.000415 0.016508 0.000712 0.000000 -0.000027 0.000000
# 3 -0.000782 0.000712 0.014080 0.000000 0.001034 0.000000
# 4 0.000000 0.000000 0.000000 0.088162 0.000000 -0.001616
# 5 -0.001187 -0.000027 0.001034 0.000000 0.052563 0.000000
# 6 0.000000 0.000000 0.000000 -0.001616 0.000000 0.051967
#
#
# Mechanical properties :
#
#
# Convention : Reuss Voigt Hill
#
# Bulk Modulus (GPa) = 22.93111 23.56458 23.24784
# Shear Modulus (GPa) = 20.04389 24.26363 22.15376
#
# Velocity S-wave (km/s) = 3.07596 3.38429 3.23380
# Velocity P-wave (km/s) = 4.84146 5.13757 4.99171
#
# Compressibility (1/GPa) = 0.04360888
#
# Stress axis : x y z
#
# Youngs Moduli (GPa) = 81.10931 60.57551 71.02407
#
# Poissons Ratio (x) = -0.02517 0.05551
# Poissons Ratio (y) = -0.03370 -0.05057
# Poissons Ratio (z) = 0.06339 -0.04313
#
# Static dielectric constant tensor:
#      x y z
#    x 3.949540 0.000000 0.011420 
#    y 0.000000 3.535970 0.000000 
#    z 0.011420 0.000000 3.693600 
# 
# 
# High freq. dielectric constant tensor:
#      x y z
#    x 1.854610 0.000000 0.001700 
#    y 0.000000 1.789910 0.000000 
#    z 0.001700 0.000000 1.816530 
# 
# From -- ./inp_files/71319.got.cif
#   From: 2010.03.12/outbox.cif.g09.slc.cpg/sg14_36_cif.got.tgz:71319.got - 2010.03.31 13:35:05.
