data_PCOD8123134
_publ_section_title
;
Structure prediction by ZEFSAII (Michael W. Deem and Ramdas Pophale) SiO2 
 PCOD8123134
Probable space group: P 2/C
;
_chemical_formula_sum "Si O2"
_cell_formula_units_Z 20
_cell_length_a 8.636437
_cell_length_b 10.674919
_cell_length_c 15.479233
_cell_angle_alpha 90.000000
_cell_angle_beta 36.979515
_cell_angle_gamma 90.000000
_cell_volume 858.431268
_symmetry_space_group_name_H-M "P 2/C"
_symmetry_group_IT_number 13
_symmetry_cell_setting 'monoclinic'
loop_
_space_group_symop_operation_xyz
x,y,z
-x,y,1/2-z
-x,-y,-z
x,-y,1/2+z
loop_
_atom_site_type_symbol
_atom_site_label
_atom_site_fract_x
_atom_site_fract_y
_atom_site_fract_z
Si Si1 0.120584 0.248365 0.016083
Si Si2 0.780336 0.481221 0.415861
Si Si3 0.294827 0.107577 0.210275
Si Si4 0.500000 0.924436 0.250000
Si Si5 0.177994 0.749065 0.026950
Si Si6 0.000000 0.074448 0.750000
O O1 0.232816 0.380322 0.000345
O O2 0.966647 0.187046 0.163605
O O3 0.359044 0.162065 0.882896
O O4 0.920475 0.259919 0.026500
O O5 0.500000 0.500000 0.500000
O O6 0.863133 0.612442 0.417832
O O7 0.000000 0.439914 0.250000
O O8 0.306333 0.017960 0.288640
O O9 0.252520 0.015462 0.146651
O O10 0.529012 0.203841 0.096644
O O11 0.009078 0.843305 0.159344
#
# Coordination Sequence:
#
# PCOD8123134 Si02
#       6
#     4   4   4   2   4   2
#     4  12  27  48  75 106 150 201 248 308 379 451
#     4  12  30  51  77 108 150 197 262 318 373 448
#     4  12  25  46  75 112 152 192 247 307 381 456
#     4  12  24  46  76 110 150 190 246 306 372 468
#     4  12  25  50  74 107 150 199 250 309 378 452
#     4  12  26  42  76 114 154 192 244 314 378 450
#
# _framework density 23.298311000000002
#
# number of rings (size 3 to 8) (size 9 to 14) (size 15 to 20)
#    0.000    0.000    5.000    4.200    9.800    0.000 
#    3.600    0.000    0.000    0.000    0.000    0.000 
#    0.000    0.000    0.000    0.000    0.000    0.000 
#
# Total GULP energy -247961.564130 kJ/mol
# GULP energy per Si atom -12398.078207 kJ/mol
# Density = 2.324528 g / cm^3
# Si number density = 23.298311 Si / 1000 Ang^3
#
#
#
# Elastic Constant Matrix: (Units=GPa)
#
#
# Indices 1 2 3 4 5 6 
#
# 1 72.7516 56.3042 -1.0520 0.0000 -5.8993 0.0000
# 2 56.3042 131.3234 27.0020 0.0000 -0.5924 0.0000
# 3 -1.0520 27.0020 106.1519 0.0000 -7.5477 0.0000
# 4 0.0000 0.0000 0.0000 42.5258 0.0000 16.5681
# 5 -5.8993 -0.5924 -7.5477 0.0000 33.4967 0.0000
# 6 0.0000 0.0000 0.0000 16.5681 0.0000 92.8271
#
#
#
# Elastic Compliance Matrix: (Units=1/GPa)
#
#
# Indices 1 2 3 4 5 6 
#
# 1 0.021876 -0.009990 0.003069 0.000000 0.004367 0.000000
# 2 -0.009990 0.012601 -0.003469 0.000000 -0.002318 0.000000
# 3 0.003069 -0.003469 0.010536 0.000000 0.002853 0.000000
# 4 0.000000 0.000000 0.000000 0.025273 0.000000 -0.004511
# 5 0.004367 -0.002318 0.002853 0.000000 0.031225 0.000000
# 6 0.000000 0.000000 0.000000 -0.004511 0.000000 0.011578
#
#
# Mechanical properties :
#
#
# Convention : Reuss Voigt Hill
#
# Bulk Modulus (GPa) = 41.26945 52.74837 47.00891
# Shear Modulus (GPa) = 35.22449 48.96810 42.09629
#
# Velocity S-wave (km/s) = 3.89252 4.58950 4.25530
# Velocity P-wave (km/s) = 6.16070 7.12561 6.66065
#
# Compressibility (1/GPa) = 0.02423100
#
# Stress axis : x y z
#
# Youngs Moduli (GPa) = 45.71288 79.35912 94.91093
#
# Poissons Ratio (x) = 0.79282 -0.29124
# Poissons Ratio (y) = 0.45669 0.32926
# Poissons Ratio (z) = -0.14027 0.27531
#
# Static dielectric constant tensor:
#      x y z
#    x 4.391380 0.000000 -0.001950 
#    y 0.000000 4.504010 0.000000 
#    z -0.001950 0.000000 4.011490 
# 
# 
# High freq. dielectric constant tensor:
#      x y z
#    x 1.936590 0.000000 -0.004940 
#    y 0.000000 1.942240 0.000000 
#    z -0.004940 0.000000 1.912210 
# 
# From -- ./inp_files/64420.got.cif
#   From: 2010.06.25/outbox.cif.g09.slc.cpg/sg13_33_cif.got.tgz:64420.got - 2010.06.28 04:50:58.
