data_PCOD8123010
_publ_section_title
;
Structure prediction by ZEFSAII (Michael W. Deem and Ramdas Pophale) SiO2 
 PCOD8123010
Probable space group: P 2/C
;
_chemical_formula_sum "Si O2"
_cell_formula_units_Z 12
_cell_length_a 17.618385
_cell_length_b 4.954655
_cell_length_c 14.095717
_cell_angle_alpha 90.000000
_cell_angle_beta 158.057916
_cell_angle_gamma 90.000000
_cell_volume 459.784121
_symmetry_space_group_name_H-M "P 2/C"
_symmetry_group_IT_number 13
_symmetry_cell_setting 'monoclinic'
loop_
_space_group_symop_operation_xyz
x,y,z
-x,y,1/2-z
-x,-y,-z
x,-y,1/2+z
loop_
_atom_site_type_symbol
_atom_site_label
_atom_site_fract_x
_atom_site_fract_y
_atom_site_fract_z
Si Si1 0.729527 0.907305 0.779427
Si Si2 0.723928 0.753084 0.982446
Si Si3 0.104477 0.737080 0.719429
O O1 0.500000 0.000000 0.500000
O O2 0.754003 0.742323 0.904839
O O3 0.801558 0.713254 0.777284
O O4 0.869880 0.174311 0.942894
O O5 0.500000 0.655351 0.750000
O O6 0.884677 0.553534 0.218267
O O7 0.763202 0.053048 0.065889
#
# Coordination Sequence:
#
# PCOD8123010 Si02
#       3
#     4   4   4
#     4  11  26  52  80 114 155 207 256 323 382 462
#     4  12  26  50  79 114 157 205 254 321 387 458
#     4  11  28  51  76 115 154 203 259 314 388 459
#
# _framework density 26.099202999999999
#
# number of rings (size 3 to 8) (size 9 to 14) (size 15 to 20)
#    0.000    0.667    3.333    2.000    0.000   14.667 
#    0.000    0.000    0.000    0.000    0.000    0.000 
#    0.000    0.000    0.000    0.000    0.000    0.000 
#
# Total GULP energy -148917.146271 kJ/mol
# GULP energy per Si atom -12409.762189 kJ/mol
# Density = 2.603980 g / cm^3
# Si number density = 26.099203 Si / 1000 Ang^3
#
#
#
# Elastic Constant Matrix: (Units=GPa)
#
#
# Indices 1 2 3 4 5 6 
#
# 1 253.6590 53.6259 90.0274 0.0000 -24.6835 0.0000
# 2 53.6259 78.8269 13.0200 0.0000 -21.3854 0.0000
# 3 90.0274 13.0200 133.1067 0.0000 0.5112 0.0000
# 4 0.0000 0.0000 0.0000 44.2435 0.0000 -19.3894
# 5 -24.6835 -21.3854 0.5112 0.0000 70.1435 0.0000
# 6 0.0000 0.0000 0.0000 -19.3894 0.0000 25.3281
#
#
#
# Elastic Compliance Matrix: (Units=1/GPa)
#
#
# Indices 1 2 3 4 5 6 
#
# 1 0.006084 -0.003185 -0.003808 0.000000 0.001198 0.000000
# 2 -0.003185 0.015751 0.000599 0.000000 0.003677 0.000000
# 3 -0.003808 0.000599 0.010034 0.000000 -0.001230 0.000000
# 4 0.000000 0.000000 0.000000 0.034013 0.000000 0.026038
# 5 0.001198 0.003677 -0.001230 0.000000 0.015808 0.000000
# 6 0.000000 0.000000 0.000000 0.026038 0.000000 0.059415
#
#
# Mechanical properties :
#
#
# Convention : Reuss Voigt Hill
#
# Bulk Modulus (GPa) = 52.40420 86.54881 69.47651
# Shear Modulus (GPa) = 31.20084 48.53766 39.86925
#
# Velocity S-wave (km/s) = 3.46131 4.31715 3.91270
# Velocity P-wave (km/s) = 6.00805 7.62127 6.86223
#
# Compressibility (1/GPa) = 0.01908244
#
# Stress axis : x y z
#
# Youngs Moduli (GPa) = 164.37768 63.48695 99.65868
#
# Poissons Ratio (x) = 0.20219 0.37947
# Poissons Ratio (y) = 0.52351 -0.05972
# Poissons Ratio (z) = 0.62590 -0.03804
#
# Static dielectric constant tensor:
#      x y z
#    x 5.174450 0.000000 -0.064850 
#    y 0.000000 4.216620 0.000000 
#    z -0.064850 0.000000 5.107330 
# 
# 
# High freq. dielectric constant tensor:
#      x y z
#    x 2.070630 0.000000 -0.001360 
#    y 0.000000 2.030250 0.000000 
#    z -0.001360 0.000000 2.068940 
# 
# From -- ./inp_files/45020.got.cif
#   From: 2010.06.25/outbox.cif.g09.slc.cpg/sg13_23_cif.got.tgz:45020.got - 2010.06.28 04:50:58.
