data_PCOD8123472
_publ_section_title
;
Structure prediction by ZEFSAII (Michael W. Deem and Ramdas Pophale) SiO2 
 PCOD8123472
Probable space group: P 21/C
;
_chemical_formula_sum "Si O2"
_cell_formula_units_Z 24
_cell_length_a 11.913426
_cell_length_b 8.841528
_cell_length_c 16.817513
_cell_angle_alpha 90.000000
_cell_angle_beta 132.012474
_cell_angle_gamma 90.000000
_cell_volume 1316.176327
_symmetry_space_group_name_H-M "P 21/C"
_symmetry_group_IT_number 14
_symmetry_cell_setting 'monoclinic'
loop_
_space_group_symop_operation_xyz
x,y,z
-x,1/2+y,1/2-z
-x,-y,-z
x,1/2-y,1/2+z
loop_
_atom_site_type_symbol
_atom_site_label
_atom_site_fract_x
_atom_site_fract_y
_atom_site_fract_z
Si Si1 0.328875 0.882500 0.492806
Si Si2 0.823661 0.987784 0.428156
Si Si3 0.428996 0.667924 0.271529
Si Si4 0.676471 0.764580 0.768529
Si Si5 0.647750 0.461337 0.166639
Si Si6 0.481417 0.921073 0.075372
O O1 0.216654 0.965449 0.500818
O O2 0.266107 0.920234 0.374275
O O3 0.341926 0.699287 0.508869
O O4 0.495849 0.947430 0.577473
O O5 0.733023 0.095378 0.325172
O O6 0.781216 0.814076 0.385036
O O7 0.000000 0.000000 0.500000
O O8 0.509786 0.709920 0.227707
O O9 0.396046 0.811573 0.308640
O O10 0.543144 0.553707 0.371261
O O11 0.641191 0.658746 0.675184
O O12 0.746506 0.924224 0.769780
O O13 0.500000 0.000000 0.000000
#
# Coordination Sequence:
#
# PCOD8123472 Si02
#       6
#     4   4   4   4   4   4
#     4  10  19  34  55  86 116 148 184 248 293 346
#     4  11  23  39  56  82 121 159 190 239 305 355
#     4  11  18  34  59  87 114 147 196 244 283 346
#     4  10  20  34  56  86 110 149 197 242 283 348
#     4  10  18  32  59  85 110 139 200 245 286 331
#     4  10  18  30  54  89 112 139 191 242 289 338
#
# _framework density 18.234639000000001
#
# number of rings (size 3 to 8) (size 9 to 14) (size 15 to 20)
#    0.000    1.667    6.667    1.000    0.000    0.000 
#    0.000    2.500    0.000    0.000    0.000    0.000 
#    0.000    0.000    0.000    0.000    0.000    0.000 
#
# Total GULP energy -297357.820995 kJ/mol
# GULP energy per Si atom -12389.909208 kJ/mol
# Density = 1.819314 g / cm^3
# Si number density = 18.234639 Si / 1000 Ang^3
#
#
#
# Elastic Constant Matrix: (Units=GPa)
#
#
# Indices 1 2 3 4 5 6 
#
# 1 76.6478 47.8869 49.6487 0.0000 -22.2643 0.0000
# 2 47.8869 143.7820 52.1464 0.0000 -21.2407 0.0000
# 3 49.6487 52.1464 68.5918 0.0000 -17.9299 0.0000
# 4 0.0000 0.0000 0.0000 24.2729 0.0000 -14.2525
# 5 -22.2643 -21.2407 -17.9299 0.0000 37.3485 0.0000
# 6 0.0000 0.0000 0.0000 -14.2525 0.0000 25.0275
#
#
#
# Elastic Compliance Matrix: (Units=1/GPa)
#
#
# Indices 1 2 3 4 5 6 
#
# 1 0.026703 -0.002081 -0.015888 0.000000 0.007107 0.000000
# 2 -0.002081 0.009931 -0.005593 0.000000 0.001722 0.000000
# 3 -0.015888 -0.005593 0.030902 0.000000 0.002183 0.000000
# 4 0.000000 0.000000 0.000000 0.061895 0.000000 0.035247
# 5 0.007107 0.001722 0.002183 0.000000 0.033039 0.000000
# 6 0.000000 0.000000 0.000000 0.035247 0.000000 0.060028
#
#
# Mechanical properties :
#
#
# Convention : Reuss Voigt Hill
#
# Bulk Modulus (GPa) = 48.99444 65.37618 57.18531
# Shear Modulus (GPa) = 18.08787 26.61910 22.35349
#
# Velocity S-wave (km/s) = 3.15294 3.82489 3.50506
# Velocity P-wave (km/s) = 6.33892 7.44560 6.91444
#
# Compressibility (1/GPa) = 0.02041048
#
# Stress axis : x y z
#
# Youngs Moduli (GPa) = 37.44872 100.69323 32.35985
#
# Poissons Ratio (x) = 0.20957 0.51415
# Poissons Ratio (y) = 0.07794 0.18100
# Poissons Ratio (z) = 0.59500 0.56323
#
# Static dielectric constant tensor:
#      x y z
#    x 3.216330 0.000000 -0.629360 
#    y 0.000000 4.010910 0.000000 
#    z -0.629360 0.000000 3.445120 
# 
# 
# High freq. dielectric constant tensor:
#      x y z
#    x 1.665500 0.000000 -0.052970 
#    y 0.000000 1.731850 0.000000 
#    z -0.052970 0.000000 1.686420 
# 
# From -- ./inp_files/56968.got.cif
#   From: 2010.03.12/outbox.cif.g09.slc.cpg/sg14_29_cif.got.tgz:56968.got - 2010.03.31 13:35:05.
