data_PCOD8123138
_publ_section_title
;
Structure prediction by ZEFSAII (Michael W. Deem and Ramdas Pophale) SiO2 
 PCOD8123138
Probable space group: P 2/C
;
_chemical_formula_sum "Si O2"
_cell_formula_units_Z 20
_cell_length_a 11.755861
_cell_length_b 13.012704
_cell_length_c 7.603830
_cell_angle_alpha 90.000000
_cell_angle_beta 48.920415
_cell_angle_gamma 90.000000
_cell_volume 876.817334
_symmetry_space_group_name_H-M "P 2/C"
_symmetry_group_IT_number 13
_symmetry_cell_setting 'monoclinic'
loop_
_space_group_symop_operation_xyz
x,y,z
-x,y,1/2-z
-x,-y,-z
x,-y,1/2+z
loop_
_atom_site_type_symbol
_atom_site_label
_atom_site_fract_x
_atom_site_fract_y
_atom_site_fract_z
Si Si1 0.232553 0.900171 0.867599
Si Si2 0.919033 0.602169 0.014073
Si Si3 0.173514 0.123498 0.046774
Si Si4 0.000000 0.255809 0.750000
Si Si5 0.500000 0.212903 0.250000
Si Si6 0.377751 0.695631 0.218798
O O1 0.270310 0.887718 0.624998
O O2 0.373754 0.871285 0.840708
O O3 0.110281 0.816402 0.034402
O O4 0.172298 0.015330 0.948600
O O5 0.000000 0.638149 0.750000
O O6 0.736166 0.595862 0.164203
O O7 0.000000 0.500000 0.000000
O O8 0.925677 0.678198 0.172292
O O9 0.000000 0.157739 0.250000
O O10 0.262841 0.208341 0.846339
O O11 0.467264 0.289737 0.445399
O O12 0.500000 0.684869 0.250000
#
# Coordination Sequence:
#
# PCOD8123138 Si02
#       6
#     4   4   4   2   2   4
#     4  12  25  41  70 106 155 204 248 299 359 432
#     4  12  27  51  84 109 139 189 251 312 374 440
#     4  12  25  43  69 111 153 204 259 300 346 434
#     4  12  24  48  74 106 148 192 252 306 358 440
#     4  12  26  44  68 106 156 204 238 296 376 434
#     4  12  26  48  75 109 152 195 242 304 372 444
#
# _framework density 22.809767999999998
#
# number of rings (size 3 to 8) (size 9 to 14) (size 15 to 20)
#    0.000    0.000    6.000    4.800    1.400    1.600 
#    0.000    1.000    2.200    0.000    0.000    0.000 
#    0.000    0.000    0.000    0.000    0.000    0.000 
#
# Total GULP energy -247854.502080 kJ/mol
# GULP energy per Si atom -12392.725104 kJ/mol
# Density = 2.275785 g / cm^3
# Si number density = 22.809768 Si / 1000 Ang^3
#
#
#
# Elastic Constant Matrix: (Units=GPa)
#
#
# Indices 1 2 3 4 5 6 
#
# 1 137.3712 29.5894 33.2670 0.0000 -2.8538 0.0000
# 2 29.5894 98.1989 16.8142 0.0000 -7.5018 0.0000
# 3 33.2670 16.8142 103.7591 0.0000 12.0951 0.0000
# 4 0.0000 0.0000 0.0000 17.3604 0.0000 -6.4624
# 5 -2.8538 -7.5018 12.0951 0.0000 53.9551 0.0000
# 6 0.0000 0.0000 0.0000 -6.4624 0.0000 40.0973
#
#
#
# Elastic Compliance Matrix: (Units=1/GPa)
#
#
# Indices 1 2 3 4 5 6 
#
# 1 0.008319 -0.002039 -0.002418 0.000000 0.000699 0.000000
# 2 -0.002039 0.011164 -0.001359 0.000000 0.001749 0.000000
# 3 -0.002418 -0.001359 0.010957 0.000000 -0.002773 0.000000
# 4 0.000000 0.000000 0.000000 0.061279 0.000000 0.009876
# 5 0.000699 0.001749 -0.002773 0.000000 0.019436 0.000000
# 6 0.000000 0.000000 0.000000 0.009876 0.000000 0.026531
#
#
# Mechanical properties :
#
#
# Convention : Reuss Voigt Hill
#
# Bulk Modulus (GPa) = 53.17345 55.40784 54.29064
# Shear Modulus (GPa) = 32.13627 39.59311 35.86469
#
# Velocity S-wave (km/s) = 3.75758 4.17081 3.96957
# Velocity P-wave (km/s) = 6.49524 6.89480 6.69800
#
# Compressibility (1/GPa) = 0.01880638
#
# Stress axis : x y z
#
# Youngs Moduli (GPa) = 120.20803 89.57174 91.26980
#
# Poissons Ratio (x) = 0.18266 0.22071
# Poissons Ratio (y) = 0.24513 0.12406
# Poissons Ratio (z) = 0.29068 0.12175
#
# Static dielectric constant tensor:
#      x y z
#    x 4.445260 0.000000 0.121760 
#    y 0.000000 4.027900 0.000000 
#    z 0.121760 0.000000 4.332410 
# 
# 
# High freq. dielectric constant tensor:
#      x y z
#    x 1.927180 0.000000 0.011200 
#    y 0.000000 1.883750 0.000000 
#    z 0.011200 0.000000 1.910150 
# 
# From -- ./inp_files/15757.got.cif
#   From: 2010.06.25/outbox.cif.g09.slc.cpg/sg13_8_cif.got.tgz:15757.got - 2010.06.28 04:50:58.
