data_PCOD8123455
_publ_section_title
;
Structure prediction by ZEFSAII (Michael W. Deem and Ramdas Pophale) SiO2 
 PCOD8123455
Probable space group: P 21/C
;
_chemical_formula_sum "Si O2"
_cell_formula_units_Z 28
_cell_length_a 15.176068
_cell_length_b 4.925539
_cell_length_c 23.163969
_cell_angle_alpha 90.000000
_cell_angle_beta 112.828332
_cell_angle_gamma 90.000000
_cell_volume 1595.886940
_symmetry_space_group_name_H-M "P 21/C"
_symmetry_group_IT_number 14
_symmetry_cell_setting 'monoclinic'
loop_
_space_group_symop_operation_xyz
x,y,z
-x,1/2+y,1/2-z
-x,-y,-z
x,1/2-y,1/2+z
loop_
_atom_site_type_symbol
_atom_site_label
_atom_site_fract_x
_atom_site_fract_y
_atom_site_fract_z
Si Si1 0.700025 0.414604 0.257381
Si Si2 0.125177 0.237574 0.537945
Si Si3 0.874304 0.985821 0.724459
Si Si4 0.070675 0.521942 0.330643
Si Si5 0.922377 0.265880 0.540891
Si Si6 0.497773 0.526758 0.212293
Si Si7 0.705683 0.588729 0.838036
O O1 0.771883 0.536855 0.228584
O O2 0.592244 0.419589 0.201868
O O3 0.697449 0.609811 0.311674
O O4 0.728473 0.120974 0.290991
O O5 0.140101 0.540478 0.517308
O O6 0.211745 0.100180 0.593783
O O7 0.035384 0.267392 0.557784
O O8 0.108445 0.044114 0.477925
O O9 0.890204 0.778248 0.674987
O O10 0.956368 0.949415 0.793689
O O11 0.876585 0.288788 0.701547
O O12 0.098262 0.623126 0.400790
O O13 0.510040 0.842951 0.231275
O O14 0.394591 0.488783 0.154824
#
# Coordination Sequence:
#
# PCOD8123455 Si02
#       7
#     4   4   4   4   4   4   4
#     4  10  18  30  48  71  98 122 149 188 230 279
#     4  10  20  31  48  70  90 124 158 182 232 278
#     4  10  20  31  48  69  89 123 158 182 231 276
#     4  10  20  33  46  66  94 121 155 195 223 265
#     4  10  20  33  46  66  95 121 155 195 223 266
#     4   8  16  28  44  68  95 120 145 182 233 278
#     4  10  18  30  48  71  98 122 149 187 230 280
#
# _framework density 17.545103000000001
#
# number of rings (size 3 to 8) (size 9 to 14) (size 15 to 20)
#    0.000    2.286    0.000    3.429    0.000    4.571 
#    0.000    0.000    0.000    0.000    0.000    6.000 
#    0.000    0.000    0.000    0.000    0.000    0.000 
#
# Total GULP energy -346890.470593 kJ/mol
# GULP energy per Si atom -12388.945378 kJ/mol
# Density = 1.750517 g / cm^3
# Si number density = 17.545103 Si / 1000 Ang^3
#
#
#
# Elastic Constant Matrix: (Units=GPa)
#
#
# Indices 1 2 3 4 5 6 
#
# 1 115.6936 12.5188 33.0735 0.0000 4.4710 0.0000
# 2 12.5188 71.0872 5.4382 0.0000 3.1404 0.0000
# 3 33.0735 5.4382 54.8043 0.0000 4.7106 0.0000
# 4 0.0000 0.0000 0.0000 13.4000 0.0000 2.8004
# 5 4.4710 3.1404 4.7106 0.0000 12.9212 0.0000
# 6 0.0000 0.0000 0.0000 2.8004 0.0000 18.9766
#
#
#
# Elastic Compliance Matrix: (Units=1/GPa)
#
#
# Indices 1 2 3 4 5 6 
#
# 1 0.010594 -0.001346 -0.006166 0.000000 -0.001091 0.000000
# 2 -0.001346 0.014461 -0.000372 0.000000 -0.002913 0.000000
# 3 -0.006166 -0.000372 0.022519 0.000000 -0.005986 0.000000
# 4 0.000000 0.000000 0.000000 0.077001 0.000000 -0.011363
# 5 -0.001091 -0.002913 -0.005986 0.000000 0.080660 0.000000
# 6 0.000000 0.000000 0.000000 -0.011363 0.000000 0.054373
#
#
# Mechanical properties :
#
#
# Convention : Reuss Voigt Hill
#
# Bulk Modulus (GPa) = 31.44037 38.18290 34.81164
# Shear Modulus (GPa) = 17.48374 21.76320 19.62347
#
# Velocity S-wave (km/s) = 3.16017 3.52577 3.34796
# Velocity P-wave (km/s) = 5.59233 6.19554 5.90165
#
# Compressibility (1/GPa) = 0.03180624
#
# Stress axis : x y z
#
# Youngs Moduli (GPa) = 94.39335 69.14946 44.40649
#
# Poissons Ratio (x) = 0.09306 0.27381
# Poissons Ratio (y) = 0.12703 0.01654
# Poissons Ratio (z) = 0.58203 0.02576
#
# Static dielectric constant tensor:
#      x y z
#    x 3.351500 0.000000 0.270670 
#    y 0.000000 3.513400 0.000000 
#    z 0.270670 0.000000 2.870970 
# 
# 
# High freq. dielectric constant tensor:
#      x y z
#    x 1.666940 0.000000 0.015310 
#    y 0.000000 1.707420 0.000000 
#    z 0.015310 0.000000 1.629030 
# 
# From -- ./inp_files/67737.got.cif
#   From: 2010.03.12/outbox.cif.g09.slc.cpg/sg14_34_cif.got.tgz:67737.got - 2010.03.31 13:35:05.
