data_PCOD8123989
_publ_section_title
;
Structure prediction by ZEFSAII (Michael W. Deem and Ramdas Pophale) SiO2 
 PCOD8123989
Probable space group: P 21/C
;
_chemical_formula_sum "Si O2"
_cell_formula_units_Z 24
_cell_length_a 12.346175
_cell_length_b 19.095983
_cell_length_c 8.796215
_cell_angle_alpha 90.000000
_cell_angle_beta 36.365472
_cell_angle_gamma 90.000000
_cell_volume 1229.635630
_symmetry_space_group_name_H-M "P 21/C"
_symmetry_group_IT_number 14
_symmetry_cell_setting 'monoclinic'
loop_
_space_group_symop_operation_xyz
x,y,z
-x,1/2+y,1/2-z
-x,-y,-z
x,1/2-y,1/2+z
loop_
_atom_site_type_symbol
_atom_site_label
_atom_site_fract_x
_atom_site_fract_y
_atom_site_fract_z
Si Si1 0.443824 0.581835 0.211628
Si Si2 0.396096 0.838319 0.478934
Si Si3 0.410239 0.196444 0.263226
Si Si4 0.297093 0.060739 0.837491
Si Si5 0.158270 0.263932 0.793604
Si Si6 0.018663 0.841108 0.773800
O O1 0.339944 0.634376 0.211298
O O2 0.488313 0.623158 0.316632
O O3 0.316418 0.515137 0.395977
O O4 0.630940 0.553782 0.918761
O O5 0.439237 0.756159 0.437454
O O6 0.579199 0.879772 0.216812
O O7 0.234365 0.854784 0.543183
O O8 0.290248 0.214947 0.546178
O O9 0.282838 0.186764 0.260016
O O10 0.087870 0.085673 0.079994
O O11 0.025082 0.311689 0.843860
O O12 0.035916 0.214153 0.035833
#
# Coordination Sequence:
#
# PCOD8123989 Si02
#       6
#     4   4   4   4   4   4
#     4   9  18  35  56  81 104 146 177 217 266 322
#     4  10  20  32  60  79 108 135 186 220 264 314
#     4  11  17  36  56  80 107 142 178 223 266 316
#     4   9  18  37  53  78 111 141 179 216 267 318
#     4  10  19  33  54  77 111 138 173 227 270 307
#     4  11  21  33  55  83 108 141 176 226 271 311
#
# _framework density 19.517976000000001
#
# number of rings (size 3 to 8) (size 9 to 14) (size 15 to 20)
#    1.000    1.000    6.667    0.000    2.333    0.667 
#    0.000    0.833    0.000    1.000    0.000    0.000 
#    0.000    0.000    0.000    0.000    0.000    0.000 
#
# Total GULP energy -297487.789818 kJ/mol
# GULP energy per Si atom -12395.324576 kJ/mol
# Density = 1.947355 g / cm^3
# Si number density = 19.517976 Si / 1000 Ang^3
#
#
#
# Elastic Constant Matrix: (Units=GPa)
#
#
# Indices 1 2 3 4 5 6 
#
# 1 115.5952 11.9154 22.4434 0.0000 -5.2157 0.0000
# 2 11.9154 57.8791 4.1847 0.0000 1.6493 0.0000
# 3 22.4434 4.1847 26.9071 0.0000 -6.7962 0.0000
# 4 0.0000 0.0000 0.0000 17.0925 0.0000 6.4997
# 5 -5.2157 1.6493 -6.7962 0.0000 32.2942 0.0000
# 6 0.0000 0.0000 0.0000 6.4997 0.0000 25.2805
#
#
#
# Elastic Compliance Matrix: (Units=1/GPa)
#
#
# Indices 1 2 3 4 5 6 
#
# 1 0.010456 -0.001538 -0.008487 0.000000 -0.000019 0.000000
# 2 -0.001538 0.017774 -0.001873 0.000000 -0.001550 0.000000
# 3 -0.008487 -0.001873 0.046696 0.000000 0.008552 0.000000
# 4 0.000000 0.000000 0.000000 0.064845 0.000000 -0.016672
# 5 -0.000019 -0.001550 0.008552 0.000000 0.032841 0.000000
# 6 0.000000 0.000000 0.000000 -0.016672 0.000000 0.043842
#
#
# Mechanical properties :
#
#
# Convention : Reuss Voigt Hill
#
# Bulk Modulus (GPa) = 19.55837 30.82983 25.19410
# Shear Modulus (GPa) = 19.43303 25.72263 22.57783
#
# Velocity S-wave (km/s) = 3.15881 3.63422 3.40482
# Velocity P-wave (km/s) = 4.83183 5.78273 5.32853
#
# Compressibility (1/GPa) = 0.05112899
#
# Stress axis : x y z
#
# Youngs Moduli (GPa) = 95.63456 56.26298 21.41533
#
# Poissons Ratio (x) = 0.08656 0.18176
# Poissons Ratio (y) = 0.14713 0.04010
# Poissons Ratio (z) = 0.81168 0.10536
#
# Static dielectric constant tensor:
#      x y z
#    x 3.539810 0.000000 -0.029670 
#    y 0.000000 3.420080 0.000000 
#    z -0.029670 0.000000 3.127360 
# 
# 
# High freq. dielectric constant tensor:
#      x y z
#    x 1.755460 0.000000 -0.007460 
#    y 0.000000 1.748000 0.000000 
#    z -0.007460 0.000000 1.719150 
# 
# From -- ./inp_files/10465.got.cif
#   From: 2010.03.12/outbox.cif.g09.slc.cpg/sg14_6_cif.got.tgz:10465.got - 2010.03.31 13:35:05.
