data_PCOD8123349
_publ_section_title
;
Structure prediction by ZEFSAII (Michael W. Deem and Ramdas Pophale) SiO2 
 PCOD8123349
Probable space group: P 21/C
;
_chemical_formula_sum "Si O2"
_cell_formula_units_Z 32
_cell_length_a 14.089111
_cell_length_b 15.851389
_cell_length_c 19.397185
_cell_angle_alpha 90.000000
_cell_angle_beta 21.938094
_cell_angle_gamma 90.000000
_cell_volume 1618.459446
_symmetry_space_group_name_H-M "P 21/C"
_symmetry_group_IT_number 14
_symmetry_cell_setting 'monoclinic'
loop_
_space_group_symop_operation_xyz
x,y,z
-x,1/2+y,1/2-z
-x,-y,-z
x,1/2-y,1/2+z
loop_
_atom_site_type_symbol
_atom_site_label
_atom_site_fract_x
_atom_site_fract_y
_atom_site_fract_z
Si Si1 0.540507 0.684416 0.967939
Si Si2 0.602514 0.955195 0.535195
Si Si3 0.713618 0.508877 0.108292
Si Si4 0.707803 0.519829 0.265547
Si Si5 0.205032 0.065146 0.946325
Si Si6 0.588135 0.874882 0.970626
Si Si7 0.135736 0.417084 0.344073
Si Si8 0.936660 0.400223 0.762709
O O1 0.548480 0.631063 0.032614
O O2 0.507415 0.779112 0.015249
O O3 0.794454 0.662800 0.751649
O O4 0.301173 0.662987 0.080323
O O5 0.664069 0.933105 0.573991
O O6 0.355941 0.012558 0.691527
O O7 0.839557 0.003957 0.339932
O O8 0.668495 0.552433 0.213419
O O9 0.512279 0.431656 0.239475
O O10 0.997279 0.474124 0.913900
O O11 0.595730 0.424685 0.351768
O O12 0.555200 0.582213 0.418045
O O13 0.105562 0.111985 0.944113
O O14 0.093892 0.112404 0.086744
O O15 0.121705 0.965422 0.004659
O O16 0.880632 0.876127 0.797533
#
# Coordination Sequence:
#
# PCOD8123349 Si02
#       8
#     4   4   4   4   4   4   4   4
#     4  11  22  38  60  93 123 153 198 259 298 351
#     4  10  18  35  64  90 115 154 196 249 303 351
#     4  10  20  35  66  84 112 154 210 241 287 367
#     4  10  22  42  61  82 115 165 206 242 292 366
#     4  10  17  32  63  91 115 157 194 238 299 364
#     4  11  24  41  62  85 119 163 206 244 301 361
#     4   9  18  33  59  91 119 148 193 245 303 356
#     4  11  19  39  61  89 120 156 200 245 298 363
#
# _framework density 19.771888000000001
#
# number of rings (size 3 to 8) (size 9 to 14) (size 15 to 20)
#    0.000    1.750    5.000    0.750    0.000    1.000 
#    2.250    3.750    0.000    0.000    0.000    0.000 
#    0.000    0.000    0.000    0.000    0.000    0.000 
#
# Total GULP energy -396570.192395 kJ/mol
# GULP energy per Si atom -12392.818512 kJ/mol
# Density = 1.972689 g / cm^3
# Si number density = 19.771888 Si / 1000 Ang^3
#
#
#
# Elastic Constant Matrix: (Units=GPa)
#
#
# Indices 1 2 3 4 5 6 
#
# 1 112.6906 32.3658 23.8310 0.0000 13.8857 0.0000
# 2 32.3658 96.4175 24.2549 0.0000 3.5330 0.0000
# 3 23.8310 24.2549 75.4370 0.0000 0.7966 0.0000
# 4 0.0000 0.0000 0.0000 12.3734 0.0000 -0.1623
# 5 13.8857 3.5330 0.7966 0.0000 44.3677 0.0000
# 6 0.0000 0.0000 0.0000 -0.1623 0.0000 15.0661
#
#
#
# Elastic Compliance Matrix: (Units=1/GPa)
#
#
# Indices 1 2 3 4 5 6 
#
# 1 0.010569 -0.002834 -0.002396 0.000000 -0.003039 0.000000
# 2 -0.002834 0.012075 -0.002987 0.000000 -0.000021 0.000000
# 3 -0.002396 -0.002987 0.014966 0.000000 0.000719 0.000000
# 4 0.000000 0.000000 0.000000 0.080830 0.000000 0.000871
# 5 -0.003039 -0.000021 0.000719 0.000000 0.023479 0.000000
# 6 0.000000 0.000000 0.000000 0.000871 0.000000 0.066384
#
#
# Mechanical properties :
#
#
# Convention : Reuss Voigt Hill
#
# Bulk Modulus (GPa) = 47.22137 49.49429 48.35783
# Shear Modulus (GPa) = 21.57096 27.96767 24.76932
#
# Velocity S-wave (km/s) = 3.30660 3.76509 3.54327
# Velocity P-wave (km/s) = 6.20589 6.63236 6.42266
#
# Compressibility (1/GPa) = 0.02117685
#
# Stress axis : x y z
#
# Youngs Moduli (GPa) = 94.61809 82.81578 66.81968
#
# Poissons Ratio (x) = 0.23468 0.16007
# Poissons Ratio (y) = 0.26813 0.19959
# Poissons Ratio (z) = 0.22666 0.24737
#
# Static dielectric constant tensor:
#      x y z
#    x 3.969000 0.000000 0.083210 
#    y 0.000000 3.001620 0.000000 
#    z 0.083210 0.000000 3.867010 
# 
# 
# High freq. dielectric constant tensor:
#      x y z
#    x 1.793920 0.000000 0.007130 
#    y 0.000000 1.695360 0.000000 
#    z 0.007130 0.000000 1.784980 
# 
# From -- ./inp_files/68699.got.cif
#   From: 2010.03.12/outbox.cif.g09.slc.cpg/sg14_35_cif.got.tgz:68699.got - 2010.03.31 13:35:05.
