data_PCOD8123479
_publ_section_title
;
Structure prediction by ZEFSAII (Michael W. Deem and Ramdas Pophale) SiO2 
 PCOD8123479
Probable space group: P 21/C
;
_chemical_formula_sum "Si O2"
_cell_formula_units_Z 32
_cell_length_a 14.785246
_cell_length_b 5.426309
_cell_length_c 24.094303
_cell_angle_alpha 90.000000
_cell_angle_beta 115.069051
_cell_angle_gamma 90.000000
_cell_volume 1750.970005
_symmetry_space_group_name_H-M "P 21/C"
_symmetry_group_IT_number 14
_symmetry_cell_setting 'monoclinic'
loop_
_space_group_symop_operation_xyz
x,y,z
-x,1/2+y,1/2-z
-x,-y,-z
x,1/2-y,1/2+z
loop_
_atom_site_type_symbol
_atom_site_label
_atom_site_fract_x
_atom_site_fract_y
_atom_site_fract_z
Si Si1 0.697018 0.420861 0.735024
Si Si2 0.131679 0.682748 0.774774
Si Si3 0.723446 0.385373 0.354044
Si Si4 0.013593 0.039627 0.333675
Si Si5 0.933265 0.740152 0.544725
Si Si6 0.128443 0.757849 0.521804
Si Si7 0.511153 0.948964 0.787093
Si Si8 0.153295 0.199008 0.187945
O O1 0.753180 0.274508 0.700053
O O2 0.707075 0.283598 0.796446
O O3 0.579185 0.449686 0.690931
O O4 0.751201 0.680427 0.756876
O O5 0.110913 0.592621 0.832089
O O6 0.109416 0.487730 0.720995
O O7 0.053039 0.895485 0.737760
O O8 0.766727 0.235884 0.417423
O O9 0.618204 0.510479 0.344058
O O10 0.808273 0.585923 0.359987
O O11 0.940416 0.871499 0.353021
O O12 0.049686 0.256295 0.383990
O O13 0.873357 0.487976 0.517063
O O14 0.038353 0.743163 0.541397
O O15 0.872525 0.989714 0.513670
O O16 0.486624 0.179540 0.740479
#
# Coordination Sequence:
#
# PCOD8123479 Si02
#       8
#     4   4   4   4   4   4   4   4
#     4   9  19  32  49  78 104 139 166 216 266 324
#     4  10  20  32  51  73 105 135 179 212 266 325
#     4  10  20  32  54  74 107 139 175 212 267 318
#     4  11  21  33  50  77 100 146 175 221 260 315
#     4  10  23  35  53  70 109 137 188 217 257 309
#     4  10  22  36  50  77 100 147 179 220 258 309
#     4  10  19  33  52  79 107 138 172 213 268 326
#     4  10  18  31  49  72 106 134 169 211 259 320
#
# _framework density 18.275585
#
# number of rings (size 3 to 8) (size 9 to 14) (size 15 to 20)
#    0.000    2.000    2.500    2.250    8.750    0.000 
#    0.000    0.000    0.000    0.000    0.000    1.750 
#    0.000    0.000    0.000    0.000    0.000    0.000 
#
# Total GULP energy -396525.482441 kJ/mol
# GULP energy per Si atom -12391.421326 kJ/mol
# Density = 1.823399 g / cm^3
# Si number density = 18.275585 Si / 1000 Ang^3
#
#
#
# Elastic Constant Matrix: (Units=GPa)
#
#
# Indices 1 2 3 4 5 6 
#
# 1 110.3155 23.8218 32.9119 0.0000 7.5135 0.0000
# 2 23.8218 80.6929 13.8191 0.0000 3.2065 0.0000
# 3 32.9119 13.8191 54.0543 0.0000 4.9278 0.0000
# 4 0.0000 0.0000 0.0000 18.5607 0.0000 0.0961
# 5 7.5135 3.2065 4.9278 0.0000 17.1702 0.0000
# 6 0.0000 0.0000 0.0000 0.0961 0.0000 20.3071
#
#
#
# Elastic Compliance Matrix: (Units=1/GPa)
#
#
# Indices 1 2 3 4 5 6 
#
# 1 0.011604 -0.002245 -0.006230 0.000000 -0.002871 0.000000
# 2 -0.002245 0.013432 -0.001980 0.000000 -0.000958 0.000000
# 3 -0.006230 -0.001980 0.023122 0.000000 -0.003540 0.000000
# 4 0.000000 0.000000 0.000000 0.053878 0.000000 -0.000255
# 5 -0.002871 -0.000958 -0.003540 0.000000 0.060692 0.000000
# 6 0.000000 0.000000 0.000000 -0.000255 0.000000 0.049245
#
#
# Mechanical properties :
#
#
# Convention : Reuss Voigt Hill
#
# Bulk Modulus (GPa) = 36.69787 42.90757 39.80272
# Shear Modulus (GPa) = 20.66417 22.84160 21.75289
#
# Velocity S-wave (km/s) = 3.36623 3.53915 3.45377
# Velocity P-wave (km/s) = 5.93570 6.34270 6.14257
#
# Compressibility (1/GPa) = 0.02724954
#
# Stress axis : x y z
#
# Youngs Moduli (GPa) = 86.17951 74.44637 43.24926
#
# Poissons Ratio (x) = 0.16711 0.26942
# Poissons Ratio (y) = 0.19345 0.08563
# Poissons Ratio (z) = 0.53686 0.14740
#
# Static dielectric constant tensor:
#      x y z
#    x 3.576570 0.000000 0.158510 
#    y 0.000000 3.681170 0.000000 
#    z 0.158510 0.000000 2.931160 
# 
# 
# High freq. dielectric constant tensor:
#      x y z
#    x 1.694250 0.000000 0.008500 
#    y 0.000000 1.727650 0.000000 
#    z 0.008500 0.000000 1.653520 
# 
# From -- ./inp_files/73505.got.cif
#   From: 2010.03.12/outbox.cif.g09.slc.cpg/sg14_37_cif.got.tgz:73505.got - 2010.03.31 13:35:05.
