data_PCOD8123867
_publ_section_title
;
Structure prediction by ZEFSAII (Michael W. Deem and Ramdas Pophale) SiO2 
 PCOD8123867
Probable space group: P 21/C
;
_chemical_formula_sum "Si O2"
_cell_formula_units_Z 24
_cell_length_a 9.009458
_cell_length_b 14.360049
_cell_length_c 15.203262
_cell_angle_alpha 90.000000
_cell_angle_beta 142.945810
_cell_angle_gamma 90.000000
_cell_volume 1185.219924
_symmetry_space_group_name_H-M "P 21/C"
_symmetry_group_IT_number 14
_symmetry_cell_setting 'monoclinic'
loop_
_space_group_symop_operation_xyz
x,y,z
-x,1/2+y,1/2-z
-x,-y,-z
x,1/2-y,1/2+z
loop_
_atom_site_type_symbol
_atom_site_label
_atom_site_fract_x
_atom_site_fract_y
_atom_site_fract_z
Si Si1 0.257039 0.534051 0.585387
Si Si2 0.569562 0.149668 0.190678
Si Si3 0.382797 0.152764 0.637329
Si Si4 0.933036 0.100948 0.504998
Si Si5 0.242709 0.008111 0.428208
Si Si6 0.743326 0.437609 0.607009
O O1 0.415384 0.442604 0.639102
O O2 0.371669 0.599651 0.715024
O O3 0.230889 0.594121 0.482636
O O4 0.000000 0.500000 0.500000
O O5 0.413296 0.243224 0.117220
O O6 0.766206 0.160649 0.360893
O O7 0.701592 0.145269 0.157405
O O8 0.256281 0.098348 0.496714
O O9 0.195112 0.154955 0.632545
O O10 0.798723 0.087123 0.534989
O O11 0.000000 0.000000 0.500000
O O12 0.003785 0.012478 0.252314
O O13 0.500000 0.000000 0.500000
O O14 0.500000 0.500000 0.500000
#
# Coordination Sequence:
#
# PCOD8123867 Si02
#       6
#     4   4   4   4   4   4
#     4  11  23  40  63  99 132 167 215 280 338 390
#     4  11  22  41  66  92 128 176 223 270 330 401
#     4  11  23  41  68  92 127 179 223 268 337 401
#     4  10  18  41  67  85 123 175 221 265 331 392
#     4  11  21  41  70  96 127 176 225 275 335 406
#     4  10  21  40  65  92 129 168 217 277 334 388
#
# _framework density 20.249407000000001
#
# number of rings (size 3 to 8) (size 9 to 14) (size 15 to 20)
#    0.000    1.333    6.667    2.000    2.333    0.000 
#    3.000    0.000    0.000    0.000    0.000    0.000 
#    0.000    0.000    0.000    0.000    0.000    0.000 
#
# Total GULP energy -297345.422946 kJ/mol
# GULP energy per Si atom -12389.392623 kJ/mol
# Density = 2.020332 g / cm^3
# Si number density = 20.249407 Si / 1000 Ang^3
#
#
#
# Elastic Constant Matrix: (Units=GPa)
#
#
# Indices 1 2 3 4 5 6 
#
# 1 136.6586 25.6911 29.5903 0.0000 16.1189 0.0000
# 2 25.6911 72.3607 14.2468 0.0000 -1.4021 0.0000
# 3 29.5903 14.2468 112.1443 0.0000 9.1981 0.0000
# 4 0.0000 0.0000 0.0000 22.9813 0.0000 7.3970
# 5 16.1189 -1.4021 9.1981 0.0000 37.6941 0.0000
# 6 0.0000 0.0000 0.0000 7.3970 0.0000 26.7512
#
#
#
# Elastic Compliance Matrix: (Units=1/GPa)
#
#
# Indices 1 2 3 4 5 6 
#
# 1 0.008596 -0.002795 -0.001636 0.000000 -0.003381 0.000000
# 2 -0.002795 0.015119 -0.001354 0.000000 0.002088 0.000000
# 3 -0.001636 -0.001354 0.009661 0.000000 -0.001708 0.000000
# 4 0.000000 0.000000 0.000000 0.047765 0.000000 -0.013207
# 5 -0.003381 0.002088 -0.001708 0.000000 0.028470 0.000000
# 6 0.000000 0.000000 0.000000 -0.013207 0.000000 0.041034
#
#
# Mechanical properties :
#
#
# Convention : Reuss Voigt Hill
#
# Bulk Modulus (GPa) = 45.86104 51.13557 48.49830
# Shear Modulus (GPa) = 29.50143 34.26100 31.88122
#
# Velocity S-wave (km/s) = 3.82108 4.11780 3.97221
# Velocity P-wave (km/s) = 6.49344 6.92214 6.71122
#
# Compressibility (1/GPa) = 0.02180500
#
# Stress axis : x y z
#
# Youngs Moduli (GPa) = 116.33385 66.14078 103.51042
#
# Poissons Ratio (x) = 0.18489 0.16931
# Poissons Ratio (y) = 0.32520 0.14020
# Poissons Ratio (z) = 0.19029 0.08958
#
# Static dielectric constant tensor:
#      x y z
#    x 4.366390 0.000000 -0.048980 
#    y 0.000000 3.471550 0.000000 
#    z -0.048980 0.000000 4.177750 
# 
# 
# High freq. dielectric constant tensor:
#      x y z
#    x 1.805100 0.000000 0.009620 
#    y 0.000000 1.748470 0.000000 
#    z 0.009620 0.000000 1.804370 
# 
# From -- ./inp_files/41328.got.cif
#   From: 2010.03.12/outbox.cif.g09.slc.cpg/sg14_21_cif.got.tgz:41328.got - 2010.03.31 13:35:05.
