data_PCOD8123054
_publ_section_title
;
Structure prediction by ZEFSAII (Michael W. Deem and Ramdas Pophale) SiO2 
 PCOD8123054
Probable space group: P 2/C
;
_chemical_formula_sum "Si O2"
_cell_formula_units_Z 22
_cell_length_a 7.429856
_cell_length_b 9.091618
_cell_length_c 17.353889
_cell_angle_alpha 90.000000
_cell_angle_beta 46.196172
_cell_angle_gamma 90.000000
_cell_volume 846.025614
_symmetry_space_group_name_H-M "P 2/C"
_symmetry_group_IT_number 13
_symmetry_cell_setting 'monoclinic'
loop_
_space_group_symop_operation_xyz
x,y,z
-x,y,1/2-z
-x,-y,-z
x,-y,1/2+z
loop_
_atom_site_type_symbol
_atom_site_label
_atom_site_fract_x
_atom_site_fract_y
_atom_site_fract_z
Si Si1 0.000000 0.483019 0.250000
Si Si2 0.093930 0.929669 0.339559
Si Si3 0.119006 0.258580 0.333977
Si Si4 0.326000 0.285055 0.588699
Si Si5 0.381590 0.083625 0.900697
Si Si6 0.622466 0.245522 0.091693
O O1 0.967063 0.387528 0.337623
O O2 0.246708 0.585810 0.171558
O O3 0.349377 0.937385 0.217066
O O4 0.171263 0.866436 0.401379
O O5 0.905528 0.827591 0.349390
O O6 0.984788 0.098092 0.378906
O O7 0.354974 0.240837 0.208748
O O8 0.187256 0.308016 0.400518
O O9 0.580439 0.208771 0.544979
O O10 0.378068 0.343657 0.485902
O O11 0.302677 0.922366 0.957757
#
# Coordination Sequence:
#
# PCOD8123054 Si02
#       6
#     2   4   4   4   4   4
#     4  12  26  38  62  94 128 174 208 248 324 370
#     4   9  19  38  66  87 126 162 206 260 311 363
#     4   9  22  44  60  87 126 173 209 246 311 390
#     4  12  22  39  65 101 123 156 211 272 311 368
#     4   9  18  37  61  97 120 156 202 263 317 363
#     4   9  21  42  67  87 123 165 213 257 314 369
#
# _framework density 26.00394
#
# number of rings (size 3 to 8) (size 9 to 14) (size 15 to 20)
#    0.000    2.182    1.818    2.727    5.091    4.364 
#    9.818    0.000    0.000    0.000    0.000    0.000 
#    0.000    0.000    0.000    0.000    0.000    0.000 
#
# Total GULP energy -272639.791993 kJ/mol
# GULP energy per Si atom -12392.717818 kJ/mol
# Density = 2.594475 g / cm^3
# Si number density = 26.003940 Si / 1000 Ang^3
#
#
#
# Elastic Constant Matrix: (Units=GPa)
#
#
# Indices 1 2 3 4 5 6 
#
# 1 112.1545 52.2652 21.2328 0.0000 29.4320 0.0000
# 2 52.2652 84.4251 24.5785 0.0000 17.0401 0.0000
# 3 21.2328 24.5785 77.3300 0.0000 36.6054 0.0000
# 4 0.0000 0.0000 0.0000 39.8481 0.0000 3.1984
# 5 29.4320 17.0401 36.6054 0.0000 39.5724 0.0000
# 6 0.0000 0.0000 0.0000 3.1984 0.0000 21.1866
#
#
#
# Elastic Compliance Matrix: (Units=1/GPa)
#
#
# Indices 1 2 3 4 5 6 
#
# 1 0.014854 -0.008050 0.003680 0.000000 -0.010985 0.000000
# 2 -0.008050 0.017643 -0.004688 0.000000 0.002726 0.000000
# 3 0.003680 -0.004688 0.024463 0.000000 -0.023347 0.000000
# 4 0.000000 0.000000 0.000000 0.025403 0.000000 -0.003835
# 5 -0.010985 0.002726 -0.023347 0.000000 0.053863 0.000000
# 6 0.000000 0.000000 0.000000 -0.003835 0.000000 0.047779
#
#
# Mechanical properties :
#
#
# Convention : Reuss Voigt Hill
#
# Bulk Modulus (GPa) = 25.74354 52.22916 38.98635
# Shear Modulus (GPa) = 23.24861 31.84362 27.54612
#
# Velocity S-wave (km/s) = 2.99330 3.50318 3.25823
# Velocity P-wave (km/s) = 4.67630 6.04084 5.40183
#
# Compressibility (1/GPa) = 0.03884470
#
# Stress axis : x y z
#
# Youngs Moduli (GPa) = 67.32394 56.68109 40.87833
#
# Poissons Ratio (x) = 0.45626 -0.15044
# Poissons Ratio (y) = 0.54193 0.19163
# Poissons Ratio (z) = -0.24776 0.26571
#
# Static dielectric constant tensor:
#      x y z
#    x 4.855420 0.000000 0.180830 
#    y 0.000000 4.878610 0.000000 
#    z 0.180830 0.000000 5.124900 
# 
# 
# High freq. dielectric constant tensor:
#      x y z
#    x 2.037010 0.000000 -0.008140 
#    y 0.000000 1.998260 0.000000 
#    z -0.008140 0.000000 2.080280 
# 
# From -- ./inp_files/63242.got.cif
#   From: 2010.06.25/outbox.cif.g09.slc.cpg/sg13_32_cif.got.tgz:63242.got - 2010.06.28 04:50:58.
