data_PCOD8123554
_publ_section_title
;
Structure prediction by ZEFSAII (Michael W. Deem and Ramdas Pophale) SiO2 
 PCOD8123554
Probable space group: P 21/C
;
_chemical_formula_sum "Si O2"
_cell_formula_units_Z 32
_cell_length_a 13.668612
_cell_length_b 9.005529
_cell_length_c 19.497175
_cell_angle_alpha 90.000000
_cell_angle_beta 135.496967
_cell_angle_gamma 90.000000
_cell_volume 1682.249966
_symmetry_space_group_name_H-M "P 21/C"
_symmetry_group_IT_number 14
_symmetry_cell_setting 'monoclinic'
loop_
_space_group_symop_operation_xyz
x,y,z
-x,1/2+y,1/2-z
-x,-y,-z
x,1/2-y,1/2+z
loop_
_atom_site_type_symbol
_atom_site_label
_atom_site_fract_x
_atom_site_fract_y
_atom_site_fract_z
Si Si1 0.517265 0.595099 0.919768
Si Si2 0.396777 0.623335 0.642293
Si Si3 0.269073 0.046203 0.877977
Si Si4 0.842369 0.812034 0.764975
Si Si5 0.269073 0.546203 0.891096
Si Si6 0.482733 0.904900 0.902501
Si Si7 0.396775 0.123335 0.254483
Si Si8 0.157632 0.687966 0.422606
O O1 0.409473 0.616052 0.929147
O O2 0.499998 0.749999 0.868929
O O3 0.483158 0.452525 0.858096
O O4 0.675927 0.574504 0.025729
O O5 0.483160 0.547473 0.625064
O O6 0.500002 0.750000 0.724469
O O7 0.355562 0.500001 0.677781
O O8 0.256682 0.693035 0.539325
O O9 0.180266 0.172200 0.796151
O O10 0.324072 0.925496 0.849801
O O11 0.177472 0.964460 0.889926
O O12 0.409473 0.116052 0.980326
O O13 0.743321 0.806966 0.782645
O O14 0.000001 0.807135 0.871427
O O15 0.822528 0.964460 0.712454
O O16 0.180266 0.672200 0.884115
#
# Coordination Sequence:
#
# PCOD8123554 Si02
#       8
#     4   4   4   4   4   4   4   4
#     4  10  18  32  58  86 112 144 189 243 281 334
#     4  11  23  39  60  85 110 153 203 243 283 332
#     4  10  19  32  56  86 118 148 186 227 291 347
#     4  11  22  37  58  87 122 156 186 230 291 353
#     4  10  19  32  56  86 118 148 186 227 291 347
#     4  10  18  32  58  86 112 144 189 243 281 334
#     4  11  23  39  60  85 110 153 203 243 283 332
#     4  11  22  37  58  87 122 156 186 230 291 353
#
# _framework density 19.022143
#
# number of rings (size 3 to 8) (size 9 to 14) (size 15 to 20)
#    0.000    1.500    5.000    1.500    0.000    0.500 
#    0.000    0.000    0.000    0.750    0.000    0.000 
#    0.000    0.000    0.000    0.000    0.000    0.000 
#
# Total GULP energy -396675.633855 kJ/mol
# GULP energy per Si atom -12396.113558 kJ/mol
# Density = 1.897885 g / cm^3
# Si number density = 19.022143 Si / 1000 Ang^3
#
#
#
# Elastic Constant Matrix: (Units=GPa)
#
#
# Indices 1 2 3 4 5 6 
#
# 1 72.0147 25.3843 46.6020 0.0000 12.1785 0.0000
# 2 25.3843 94.5716 26.6732 0.0000 8.5382 0.0000
# 3 46.6020 26.6732 76.0593 0.0000 14.6209 0.0000
# 4 0.0000 0.0000 0.0000 25.8597 0.0000 -4.2095
# 5 12.1785 8.5382 14.6209 0.0000 29.8055 0.0000
# 6 0.0000 0.0000 0.0000 -4.2095 0.0000 26.4954
#
#
#
# Elastic Compliance Matrix: (Units=1/GPa)
#
#
# Indices 1 2 3 4 5 6 
#
# 1 0.023698 -0.002413 -0.013189 0.000000 -0.002522 0.000000
# 2 -0.002413 0.012040 -0.002507 0.000000 -0.001233 0.000000
# 3 -0.013189 -0.002507 0.023113 0.000000 -0.005231 0.000000
# 4 0.000000 0.000000 0.000000 0.039697 0.000000 0.006307
# 5 -0.002522 -0.001233 -0.005231 0.000000 0.037501 0.000000
# 6 0.000000 0.000000 0.000000 0.006307 0.000000 0.038744
#
#
# Mechanical properties :
#
#
# Convention : Reuss Voigt Hill
#
# Bulk Modulus (GPa) = 44.18185 48.88498 46.53341
# Shear Modulus (GPa) = 22.87756 26.03119 24.45437
#
# Velocity S-wave (km/s) = 3.47173 3.70329 3.58938
# Velocity P-wave (km/s) = 6.27276 6.63631 6.45709
#
# Compressibility (1/GPa) = 0.02263373
#
# Stress axis : x y z
#
# Youngs Moduli (GPa) = 42.19790 83.05585 43.26566
#
# Poissons Ratio (x) = 0.20045 0.57062
# Poissons Ratio (y) = 0.10184 0.10845
# Poissons Ratio (z) = 0.55653 0.20818
#
# Static dielectric constant tensor:
#      x y z
#    x 3.267840 0.000000 0.032970 
#    y 0.000000 3.594960 0.000000 
#    z 0.032970 0.000000 3.272800 
# 
# 
# High freq. dielectric constant tensor:
#      x y z
#    x 1.716330 0.000000 0.001060 
#    y 0.000000 1.755100 0.000000 
#    z 0.001060 0.000000 1.716490 
# 
# From -- ./inp_files/67012.got.cif
#   From: 2010.03.12/outbox.cif.g09.slc.cpg/sg14_34_cif.got.tgz:67012.got - 2010.03.31 13:35:05.
