data_PCOD8123313
_publ_section_title
;
Structure prediction by ZEFSAII (Michael W. Deem and Ramdas Pophale) SiO2 
 PCOD8123313
Probable space group: P 21/C
;
_chemical_formula_sum "Si O2"
_cell_formula_units_Z 32
_cell_length_a 13.252139
_cell_length_b 22.224730
_cell_length_c 9.229917
_cell_angle_alpha 90.000000
_cell_angle_beta 45.665868
_cell_angle_gamma 90.000000
_cell_volume 1944.438711
_symmetry_space_group_name_H-M "P 21/C"
_symmetry_group_IT_number 14
_symmetry_cell_setting 'monoclinic'
loop_
_space_group_symop_operation_xyz
x,y,z
-x,1/2+y,1/2-z
-x,-y,-z
x,1/2-y,1/2+z
loop_
_atom_site_type_symbol
_atom_site_label
_atom_site_fract_x
_atom_site_fract_y
_atom_site_fract_z
Si Si1 0.235326 0.181592 0.949363
Si Si2 0.658564 0.943326 0.248982
Si Si3 0.981690 0.630562 0.140898
Si Si4 0.791753 0.976898 0.839920
Si Si5 0.249316 0.199487 0.254879
Si Si6 0.612897 0.995162 0.589234
Si Si7 0.737230 0.420828 0.192088
Si Si8 0.437277 0.405615 0.612213
O O1 0.325768 0.128181 0.788475
O O2 0.234630 0.235310 0.836988
O O3 0.304222 0.203464 0.032672
O O4 0.076113 0.157281 0.146914
O O5 0.498393 0.960055 0.371546
O O6 0.694526 0.960206 0.379017
O O7 0.764453 0.980893 0.039585
O O8 0.933476 0.561020 0.170389
O O9 0.907321 0.669122 0.086518
O O10 0.151667 0.632196 0.959697
O O11 0.656240 0.941501 0.910592
O O12 0.804210 0.042765 0.759966
O O13 0.361216 0.157454 0.228788
O O14 0.724175 0.034371 0.568664
O O15 0.539543 0.945952 0.768077
O O16 0.588402 0.392185 0.387288
#
# Coordination Sequence:
#
# PCOD8123313 Si02
#       8
#     4   4   4   4   4   4   4   4
#     4   9  19  35  54  68  96 131 182 206 243 291
#     4  10  17  32  46  79 107 132 160 214 254 293
#     4   8  19  30  52  70  98 130 166 200 250 287
#     4   9  15  31  47  73 102 135 159 192 239 307
#     4   9  19  35  55  69  93 132 176 216 241 291
#     4  10  19  26  52  77 112 134 153 201 275 301
#     4  11  16  30  51  75 102 132 161 202 244 319
#     4  10  17  30  52  80  97 132 175 199 249 305
#
# _framework density 16.457191999999999
#
# number of rings (size 3 to 8) (size 9 to 14) (size 15 to 20)
#    0.750    1.750    3.750    1.125    1.750    0.000 
#    0.000    2.500    8.250    0.000    0.000    0.000 
#    0.000    0.000    0.000    0.000    0.000    0.000 
#
# Total GULP energy -396502.213854 kJ/mol
# GULP energy per Si atom -12390.694183 kJ/mol
# Density = 1.641973 g / cm^3
# Si number density = 16.457192 Si / 1000 Ang^3
#
#
#
# Elastic Constant Matrix: (Units=GPa)
#
#
# Indices 1 2 3 4 5 6 
#
# 1 55.7365 34.6006 44.1293 0.0000 -1.0907 0.0000
# 2 34.6006 93.9818 51.0355 0.0000 0.3665 0.0000
# 3 44.1293 51.0355 90.9588 0.0000 -1.4857 0.0000
# 4 0.0000 0.0000 0.0000 25.7738 0.0000 7.5410
# 5 -1.0907 0.3665 -1.4857 0.0000 27.3466 0.0000
# 6 0.0000 0.0000 0.0000 7.5410 0.0000 20.9557
#
#
#
# Elastic Compliance Matrix: (Units=1/GPa)
#
#
# Indices 1 2 3 4 5 6 
#
# 1 0.030456 -0.004598 -0.012186 0.000000 0.000614 0.000000
# 2 -0.004598 0.016009 -0.006765 0.000000 -0.000765 0.000000
# 3 -0.012186 -0.006765 0.020714 0.000000 0.000730 0.000000
# 4 0.000000 0.000000 0.000000 0.043365 0.000000 -0.015605
# 5 0.000614 -0.000765 0.000730 0.000000 0.036642 0.000000
# 6 0.000000 0.000000 0.000000 -0.015605 0.000000 0.053335
#
#
# Mechanical properties :
#
#
# Convention : Reuss Voigt Hill
#
# Bulk Modulus (GPa) = 49.79516 55.57865 52.68691
# Shear Modulus (GPa) = 19.66082 22.20935 20.93508
#
# Velocity S-wave (km/s) = 3.46014 3.67757 3.57051
# Velocity P-wave (km/s) = 6.80342 7.20261 7.00586
#
# Compressibility (1/GPa) = 0.02008227
#
# Stress axis : x y z
#
# Youngs Moduli (GPa) = 32.83392 62.46327 48.27718
#
# Poissons Ratio (x) = 0.28718 0.58833
# Poissons Ratio (y) = 0.15096 0.32657
# Poissons Ratio (z) = 0.40013 0.42254
#
# Static dielectric constant tensor:
#      x y z
#    x 2.927030 0.000000 0.141550 
#    y 0.000000 2.925180 0.000000 
#    z 0.141550 0.000000 3.063970 
# 
# 
# High freq. dielectric constant tensor:
#      x y z
#    x 1.609070 0.000000 0.007720 
#    y 0.000000 1.612320 0.000000 
#    z 0.007720 0.000000 1.628530 
# 
# From -- ./inp_files/16960.got.cif
#   From: 2010.03.12/outbox.cif.g09.slc.cpg/sg14_9_cif.got.tgz:16960.got - 2010.03.31 13:35:05.
