data_PCOD8123033
_publ_section_title
;
Structure prediction by ZEFSAII (Michael W. Deem and Ramdas Pophale) SiO2 
 PCOD8123033
Probable space group: P 2/C
;
_chemical_formula_sum "Si O2"
_cell_formula_units_Z 28
_cell_length_a 22.498007
_cell_length_b 8.824145
_cell_length_c 19.689695
_cell_angle_alpha 90.000000
_cell_angle_beta 18.602923
_cell_angle_gamma 90.000000
_cell_volume 1246.972236
_symmetry_space_group_name_H-M "P 2/C"
_symmetry_group_IT_number 13
_symmetry_cell_setting 'monoclinic'
loop_
_space_group_symop_operation_xyz
x,y,z
-x,y,1/2-z
-x,-y,-z
x,-y,1/2+z
loop_
_atom_site_type_symbol
_atom_site_label
_atom_site_fract_x
_atom_site_fract_y
_atom_site_fract_z
Si Si1 0.348174 0.330684 0.502014
Si Si2 0.628055 0.512765 0.797151
Si Si3 0.129932 0.808781 0.766846
Si Si4 0.773066 0.221762 0.575923
Si Si5 0.028459 0.346973 0.509937
Si Si6 0.293216 0.604856 0.483306
Si Si7 0.532271 0.003726 0.639328
O O1 0.501892 0.438113 0.370679
O O2 0.292338 0.419910 0.491961
O O3 0.461060 0.177308 0.366902
O O4 0.161421 0.298419 0.747189
O O5 0.698721 0.342333 0.710490
O O6 0.801624 0.627938 0.620932
O O7 0.500000 0.500000 0.000000
O O8 0.081856 0.783808 0.897980
O O9 0.214973 0.656368 0.641390
O O10 0.274981 0.944461 0.602875
O O11 0.955299 0.855669 0.909675
O O12 0.820169 0.320613 0.456544
O O13 0.637314 0.077509 0.718288
O O14 0.000000 0.500000 0.500000
O O15 0.500000 0.669645 0.250000
O O16 0.500000 0.064167 0.750000
#
# Coordination Sequence:
#
# PCOD8123033 Si02
#       7
#     4   4   4   4   4   4   4
#     4  12  26  44  67 102 140 174 221 289 336 397
#     4  12  22  41  73 101 133 173 234 283 325 398
#     4  12  23  44  71  95 135 176 228 277 329 406
#     4  12  23  40  71 101 126 183 227 270 340 405
#     4  12  23  43  70 102 130 174 228 286 333 379
#     4  12  20  40  69  99 125 171 231 274 329 388
#     4  12  27  45  65  98 146 180 214 272 349 411
#
# _framework density 22.45439
#
# number of rings (size 3 to 8) (size 9 to 14) (size 15 to 20)
#    0.000    0.000    8.571    1.714    0.000    1.714 
#    0.000    5.000    3.143    0.000    0.000    0.000 
#    0.000    0.000    0.000    0.000    0.000    0.000 
#
# Total GULP energy -347098.984722 kJ/mol
# GULP energy per Si atom -12396.392312 kJ/mol
# Density = 2.240328 g / cm^3
# Si number density = 22.454390 Si / 1000 Ang^3
#
#
#
# Elastic Constant Matrix: (Units=GPa)
#
#
# Indices 1 2 3 4 5 6 
#
# 1 63.0725 12.1791 27.2761 0.0000 -12.0422 0.0000
# 2 12.1791 103.6972 16.7134 0.0000 -13.5835 0.0000
# 3 27.2761 16.7134 116.0080 0.0000 -19.2588 0.0000
# 4 0.0000 0.0000 0.0000 31.2721 0.0000 6.2610
# 5 -12.0422 -13.5835 -19.2588 0.0000 41.6731 0.0000
# 6 0.0000 0.0000 0.0000 6.2610 0.0000 14.9461
#
#
#
# Elastic Compliance Matrix: (Units=1/GPa)
#
#
# Indices 1 2 3 4 5 6 
#
# 1 0.018245 -0.001140 -0.003587 0.000000 0.003243 0.000000
# 2 -0.001140 0.010249 -0.000768 0.000000 0.002657 0.000000
# 3 -0.003587 -0.000768 0.010138 0.000000 0.003399 0.000000
# 4 0.000000 0.000000 0.000000 0.034905 0.000000 -0.014622
# 5 0.003243 0.002657 0.003399 0.000000 0.027370 0.000000
# 6 0.000000 0.000000 0.000000 -0.014622 0.000000 0.073032
#
#
# Mechanical properties :
#
#
# Convention : Reuss Voigt Hill
#
# Bulk Modulus (GPa) = 36.17519 43.90165 40.03842
# Shear Modulus (GPa) = 25.75407 32.68551 29.21979
#
# Velocity S-wave (km/s) = 3.39034 3.81942 3.61126
# Velocity P-wave (km/s) = 5.60993 6.24857 5.93784
#
# Compressibility (1/GPa) = 0.02764325
#
# Stress axis : x y z
#
# Youngs Moduli (GPa) = 54.80830 97.57005 98.63556
#
# Poissons Ratio (x) = 0.11122 0.35384
# Poissons Ratio (y) = 0.06248 0.07571
# Poissons Ratio (z) = 0.19661 0.07489
#
# Static dielectric constant tensor:
#      x y z
#    x 4.064060 0.000000 0.016200 
#    y 0.000000 17.244160 0.000000 
#    z 0.016200 0.000000 4.397310 
# 
# 
# High freq. dielectric constant tensor:
#      x y z
#    x 1.877410 0.000000 0.001880 
#    y 0.000000 1.866860 0.000000 
#    z 0.001880 0.000000 1.906630 
# 
# From -- ./inp_files/82135.got.cif
#   From: 2010.06.25/outbox.cif.g09.slc.cpg/sg13_42_cif.got.tgz:82135.got - 2010.06.28 04:50:58.
