data_PCOD8123691
_publ_section_title
;
Structure prediction by ZEFSAII (Michael W. Deem and Ramdas Pophale) SiO2 
 PCOD8123691
Probable space group: P 21/C
;
_chemical_formula_sum "Si O2"
_cell_formula_units_Z 32
_cell_length_a 27.002847
_cell_length_b 12.773915
_cell_length_c 15.116224
_cell_angle_alpha 90.000000
_cell_angle_beta 161.659415
_cell_angle_gamma 90.000000
_cell_volume 1640.684937
_symmetry_space_group_name_H-M "P 21/C"
_symmetry_group_IT_number 14
_symmetry_cell_setting 'monoclinic'
loop_
_space_group_symop_operation_xyz
x,y,z
-x,1/2+y,1/2-z
-x,-y,-z
x,1/2-y,1/2+z
loop_
_atom_site_type_symbol
_atom_site_label
_atom_site_fract_x
_atom_site_fract_y
_atom_site_fract_z
Si Si1 0.695119 0.677827 0.710412
Si Si2 0.364352 0.484130 0.971666
Si Si3 0.599280 0.308326 0.357331
Si Si4 0.369173 0.798322 0.403472
Si Si5 0.134445 0.191442 0.128081
Si Si6 0.437925 0.968554 0.784897
Si Si7 0.674465 0.694017 0.870357
Si Si8 0.225315 0.791523 0.492359
O O1 0.544115 0.741887 0.423054
O O2 0.831601 0.700350 0.869395
O O3 0.625928 0.559157 0.596363
O O4 0.753751 0.711107 0.908466
O O5 0.344056 0.576484 0.866853
O O6 0.221732 0.401294 0.722213
O O7 0.535598 0.427421 0.255728
O O8 0.353918 0.541340 0.048121
O O9 0.655105 0.266466 0.547309
O O10 0.740097 0.295718 0.525257
O O11 0.547554 0.784624 0.671676
O O12 0.241827 0.759488 0.116821
O O13 0.195526 0.197906 0.332430
O O14 0.951170 0.167254 0.819735
O O15 0.344429 0.888940 0.689780
O O16 0.422597 0.085101 0.796647
#
# Coordination Sequence:
#
# PCOD8123691 Si02
#       8
#     4   4   4   4   4   4   4   4
#     4  10  18  35  59  86 114 151 197 250 287 351
#     4  10  20  37  65  86 121 159 200 244 301 354
#     4  10  20  38  59  91 118 151 201 250 291 349
#     4  12  20  38  64  92 115 158 205 248 297 351
#     4  10  23  41  54  88 127 157 196 246 303 356
#     4  10  18  36  62  89 114 146 212 249 290 346
#     4  11  20  34  65  90 110 158 204 249 300 343
#     4  11  24  38  58  88 126 156 199 250 300 358
#
# _framework density 19.504048000000001
#
# number of rings (size 3 to 8) (size 9 to 14) (size 15 to 20)
#    0.000    1.500    8.750    0.375    0.000    3.500 
#    2.250    0.000    0.000    3.000    0.000    0.000 
#    0.000    0.000    0.000    0.000    0.000    0.000 
#
# Total GULP energy -396588.973939 kJ/mol
# GULP energy per Si atom -12393.405436 kJ/mol
# Density = 1.945966 g / cm^3
# Si number density = 19.504048 Si / 1000 Ang^3
#
#
#
# Elastic Constant Matrix: (Units=GPa)
#
#
# Indices 1 2 3 4 5 6 
#
# 1 111.3015 38.1455 33.0504 0.0000 -21.6000 0.0000
# 2 38.1455 70.7574 28.9254 0.0000 -1.8038 0.0000
# 3 33.0504 28.9254 77.6995 0.0000 -5.0777 0.0000
# 4 0.0000 0.0000 0.0000 15.6395 0.0000 -5.2534
# 5 -21.6000 -1.8038 -5.0777 0.0000 33.0183 0.0000
# 6 0.0000 0.0000 0.0000 -5.2534 0.0000 25.8395
#
#
#
# Elastic Compliance Matrix: (Units=1/GPa)
#
#
# Indices 1 2 3 4 5 6 
#
# 1 0.013422 -0.005793 -0.003030 0.000000 0.007998 0.000000
# 2 -0.005793 0.019170 -0.004901 0.000000 -0.003496 0.000000
# 3 -0.003030 -0.004901 0.015997 0.000000 0.000210 0.000000
# 4 0.000000 0.000000 0.000000 0.068627 0.000000 0.013953
# 5 0.007998 -0.003496 0.000210 0.000000 0.035360 0.000000
# 6 0.000000 0.000000 0.000000 0.013953 0.000000 0.041537
#
#
# Mechanical properties :
#
#
# Convention : Reuss Voigt Hill
#
# Bulk Modulus (GPa) = 47.30055 51.11119 49.20587
# Shear Modulus (GPa) = 21.87144 25.54194 23.70669
#
# Velocity S-wave (km/s) = 3.35233 3.62273 3.49015
# Velocity P-wave (km/s) = 6.26805 6.61522 6.44398
#
# Compressibility (1/GPa) = 0.02114140
#
# Stress axis : x y z
#
# Youngs Moduli (GPa) = 74.50494 52.16399 62.51160
#
# Poissons Ratio (x) = 0.30220 0.18940
# Poissons Ratio (y) = 0.43163 0.30636
# Poissons Ratio (z) = 0.22573 0.25565
#
# Static dielectric constant tensor:
#      x y z
#    x 4.019710 0.000000 -0.064550 
#    y 0.000000 3.821500 0.000000 
#    z -0.064550 0.000000 3.303470 
# 
# 
# High freq. dielectric constant tensor:
#      x y z
#    x 1.767780 0.000000 -0.024090 
#    y 0.000000 1.750020 0.000000 
#    z -0.024090 0.000000 1.728380 
# 
# From -- ./inp_files/52056.got.cif
#   From: 2010.03.12/outbox.cif.g09.slc.cpg/sg14_27_cif.got.tgz:52056.got - 2010.03.31 13:35:05.
