data_PCOD8123162
_publ_section_title
;
Structure prediction by ZEFSAII (Michael W. Deem and Ramdas Pophale) SiO2 
 PCOD8123162
Probable space group: P 2/C
;
_chemical_formula_sum "Si O2"
_cell_formula_units_Z 20
_cell_length_a 23.918388
_cell_length_b 6.637724
_cell_length_c 11.638077
_cell_angle_alpha 90.000000
_cell_angle_beta 151.876016
_cell_angle_gamma 90.000000
_cell_volume 870.972588
_symmetry_space_group_name_H-M "P 2/C"
_symmetry_group_IT_number 13
_symmetry_cell_setting 'monoclinic'
loop_
_space_group_symop_operation_xyz
x,y,z
-x,y,1/2-z
-x,-y,-z
x,-y,1/2+z
loop_
_atom_site_type_symbol
_atom_site_label
_atom_site_fract_x
_atom_site_fract_y
_atom_site_fract_z
Si Si1 0.114274 0.591494 0.148899
Si Si2 0.201280 0.882110 0.496755
Si Si3 0.000000 0.132915 0.250000
Si Si4 0.403765 0.978378 0.228936
Si Si5 0.322884 0.348375 0.418656
Si Si6 0.500000 0.320642 0.250000
O O1 0.175479 0.701701 0.364747
O O2 0.202835 0.421028 0.263250
O O3 0.079470 0.733706 0.978916
O O4 0.000000 0.500000 0.000000
O O5 0.284665 0.801602 0.749237
O O6 0.276102 0.040714 0.558172
O O7 0.083240 0.988356 0.326516
O O8 0.500000 0.000000 0.500000
O O9 0.420107 0.184250 0.187670
O O10 0.409798 0.778851 0.161490
O O11 0.400370 0.535499 0.510034
#
# Coordination Sequence:
#
# PCOD8123162 Si02
#       6
#     4   4   2   4   4   2
#     4  12  25  46  72 106 146 194 242 301 365 428
#     4  12  25  46  73 106 147 192 238 302 366 425
#     4  12  26  46  74 110 150 188 252 298 356 446
#     4  12  27  46  74 105 148 192 238 304 368 429
#     4  12  27  46  73 110 144 189 248 297 358 444
#     4  12  26  48  70 110 144 188 248 296 364 436
#
# _framework density 22.962835999999999
#
# number of rings (size 3 to 8) (size 9 to 14) (size 15 to 20)
#    0.000    0.000    2.000    8.400    5.600    1.600 
#    0.000    0.000    0.000    0.000    0.000    0.000 
#    0.000    0.000    0.000    0.000    0.000    0.000 
#
# Total GULP energy -247963.421217 kJ/mol
# GULP energy per Si atom -12398.171061 kJ/mol
# Density = 2.291057 g / cm^3
# Si number density = 22.962836 Si / 1000 Ang^3
#
#
#
# Elastic Constant Matrix: (Units=GPa)
#
#
# Indices 1 2 3 4 5 6 
#
# 1 130.8167 41.7516 19.0041 0.0000 18.3379 0.0000
# 2 41.7516 103.3134 30.4117 0.0000 -2.3042 0.0000
# 3 19.0041 30.4117 98.3593 0.0000 -15.8454 0.0000
# 4 0.0000 0.0000 0.0000 46.7990 0.0000 29.3703
# 5 18.3379 -2.3042 -15.8454 0.0000 51.6250 0.0000
# 6 0.0000 0.0000 0.0000 29.3703 0.0000 7.6267
#
#
#
# Elastic Compliance Matrix: (Units=1/GPa)
#
#
# Indices 1 2 3 4 5 6 
#
# 1 0.009529 -0.003531 -0.001389 0.000000 -0.003969 0.000000
# 2 -0.003531 0.011972 -0.002873 0.000000 0.000907 0.000000
# 3 -0.001389 -0.002873 0.011975 0.000000 0.004040 0.000000
# 4 0.000000 0.000000 0.000000 -0.015082 0.000000 0.058079
# 5 -0.003969 0.000907 0.004040 0.000000 0.022061 0.000000
# 6 0.000000 0.000000 0.000000 0.058079 0.000000 -0.092545
#
#
# Mechanical properties :
#
#
# Convention : Reuss Voigt Hill
#
# Bulk Modulus (GPa) = 55.89747 57.20267 56.55007
# Shear Modulus (GPa) = -163.71820 37.29828 -63.20996
#
# Velocity S-wave (km/s) = -8.45292 4.03462 -5.25232
# Velocity P-wave (km/s) = 8.41865 6.83149 3.47882
#
# Compressibility (1/GPa) = 0.01788990
#
# Stress axis : x y z
#
# Youngs Moduli (GPa) = 104.94001 83.52686 83.51073
#
# Poissons Ratio (x) = 0.29491 0.11598
# Poissons Ratio (y) = 0.37051 0.23997
# Poissons Ratio (z) = 0.14575 0.24001
#
# Static dielectric constant tensor:
#      x y z
#    x 4.739450 0.000000 -0.013860 
#    y 0.000000 4.152620 0.000000 
#    z -0.013860 0.000000 3.932300 
# 
# 
# High freq. dielectric constant tensor:
#      x y z
#    x 1.930340 0.000000 0.013560 
#    y 0.000000 1.913900 0.000000 
#    z 0.013560 0.000000 1.919520 
# 
# From -- ./inp_files/39765.got.cif
#   From: 2010.06.25/outbox.cif.g09.slc.cpg/sg13_20_cif.got.tgz:39765.got - 2010.06.28 04:50:58.
