data_PCOD8123551
_publ_section_title
;
Structure prediction by ZEFSAII (Michael W. Deem and Ramdas Pophale) SiO2 
 PCOD8123551
Probable space group: P 21/C
;
_chemical_formula_sum "Si O2"
_cell_formula_units_Z 32
_cell_length_a 11.956126
_cell_length_b 17.058257
_cell_length_c 13.117168
_cell_angle_alpha 90.000000
_cell_angle_beta 144.392462
_cell_angle_gamma 90.000000
_cell_volume 1557.613673
_symmetry_space_group_name_H-M "P 21/C"
_symmetry_group_IT_number 14
_symmetry_cell_setting 'monoclinic'
loop_
_space_group_symop_operation_xyz
x,y,z
-x,1/2+y,1/2-z
-x,-y,-z
x,1/2-y,1/2+z
loop_
_atom_site_type_symbol
_atom_site_label
_atom_site_fract_x
_atom_site_fract_y
_atom_site_fract_z
Si Si1 0.639661 0.156024 0.947903
Si Si2 0.565171 0.956773 0.713127
Si Si3 0.830768 0.880474 0.755986
Si Si4 0.561268 0.873090 0.391701
Si Si5 0.299669 0.726103 0.837909
Si Si6 0.077326 0.744671 0.982678
Si Si7 0.865115 0.007966 0.085387
Si Si8 0.846424 0.109182 0.602598
O O1 0.601233 0.206291 0.020156
O O2 0.777445 0.203091 0.974925
O O3 0.735709 0.072529 0.049550
O O4 0.445201 0.144194 0.735299
O O5 0.638205 0.906564 0.671664
O O6 0.354325 0.926118 0.588565
O O7 0.556567 0.047313 0.674894
O O8 0.721505 0.948574 0.919978
O O9 0.779012 0.878940 0.595724
O O10 0.879615 0.793789 0.833017
O O11 0.000963 0.944110 0.896244
O O12 0.465814 0.805886 0.389194
O O13 0.139616 0.765178 0.646202
O O14 0.193670 0.660006 0.826150
O O15 0.057567 0.659982 0.916125
O O16 0.000039 0.958780 0.260800
#
# Coordination Sequence:
#
# PCOD8123551 Si02
#       8
#     4   4   4   4   4   4   4   4
#     4   8  19  35  54  78 111 155 181 229 286 332
#     4  11  20  33  58  90 115 148 185 233 299 335
#     4  11  18  34  55  88 118 146 178 240 292 335
#     4  10  18  32  57  86 112 146 188 233 282 347
#     4  10  18  37  55  76 115 150 186 230 280 337
#     4   9  21  35  54  80 116 151 187 236 279 333
#     4  10  20  34  55  83 115 146 188 233 281 341
#     4  11  20  37  57  85 113 151 188 234 287 334
#
# _framework density 20.544248
#
# number of rings (size 3 to 8) (size 9 to 14) (size 15 to 20)
#    0.000    2.000    2.500    3.000    0.000    0.000 
#    6.750    3.125    0.000    3.000    0.000    0.000 
#    0.000    0.000    0.000    0.000    0.000    0.000 
#
# Total GULP energy -396614.243535 kJ/mol
# GULP energy per Si atom -12394.195110 kJ/mol
# Density = 2.049749 g / cm^3
# Si number density = 20.544248 Si / 1000 Ang^3
#
#
#
# Elastic Constant Matrix: (Units=GPa)
#
#
# Indices 1 2 3 4 5 6 
#
# 1 36.1337 35.0753 35.0497 0.0000 -13.7752 0.0000
# 2 35.0753 110.2085 64.6545 0.0000 -13.1715 0.0000
# 3 35.0497 64.6545 156.7709 0.0000 -12.1827 0.0000
# 4 0.0000 0.0000 0.0000 32.1235 0.0000 -8.5174
# 5 -13.7752 -13.1715 -12.1827 0.0000 20.0077 0.0000
# 6 0.0000 0.0000 0.0000 -8.5174 0.0000 20.0278
#
#
#
# Elastic Compliance Matrix: (Units=1/GPa)
#
#
# Indices 1 2 3 4 5 6 
#
# 1 0.053380 -0.010599 -0.005510 0.000000 0.026419 0.000000
# 2 -0.010599 0.014595 -0.003642 0.000000 0.000093 0.000000
# 3 -0.005510 -0.003642 0.009060 0.000000 -0.000675 0.000000
# 4 0.000000 0.000000 0.000000 0.035086 0.000000 0.014921
# 5 0.026419 0.000093 -0.000675 0.000000 0.067821 0.000000
# 6 0.000000 0.000000 0.000000 0.014921 0.000000 0.056276
#
#
# Mechanical properties :
#
#
# Convention : Reuss Voigt Hill
#
# Bulk Modulus (GPa) = 26.64346 63.63025 45.13685
# Shear Modulus (GPa) = 17.34714 25.65404 21.50059
#
# Velocity S-wave (km/s) = 2.90897 3.53756 3.23855
# Velocity P-wave (km/s) = 4.92745 6.90835 6.00021
#
# Compressibility (1/GPa) = 0.03753267
#
# Stress axis : x y z
#
# Youngs Moduli (GPa) = 18.73361 68.51755 110.37100
#
# Poissons Ratio (x) = 0.72620 0.60816
# Poissons Ratio (y) = 0.19855 0.40200
# Poissons Ratio (z) = 0.10323 0.24956
#
# Static dielectric constant tensor:
#      x y z
#    x 3.160120 0.000000 -0.146640 
#    y 0.000000 3.838950 0.000000 
#    z -0.146640 0.000000 4.149140 
# 
# 
# High freq. dielectric constant tensor:
#      x y z
#    x 1.738900 0.000000 -0.005530 
#    y 0.000000 1.802120 0.000000 
#    z -0.005530 0.000000 1.824110 
# 
# From -- ./inp_files/47526.got.cif
#   From: 2010.03.12/outbox.cif.g09.slc.cpg/sg14_24_cif.got.tgz:47526.got - 2010.03.31 13:35:05.
