data_PCOD8123452
_publ_section_title
;
Structure prediction by ZEFSAII (Michael W. Deem and Ramdas Pophale) SiO2 
 PCOD8123452
Probable space group: P 21/C
;
_chemical_formula_sum "Si O2"
_cell_formula_units_Z 32
_cell_length_a 9.650725
_cell_length_b 20.204275
_cell_length_c 18.894154
_cell_angle_alpha 90.000000
_cell_angle_beta 29.559855
_cell_angle_gamma 90.000000
_cell_volume 1817.483219
_symmetry_space_group_name_H-M "P 21/C"
_symmetry_group_IT_number 14
_symmetry_cell_setting 'monoclinic'
loop_
_space_group_symop_operation_xyz
x,y,z
-x,1/2+y,1/2-z
-x,-y,-z
x,1/2-y,1/2+z
loop_
_atom_site_type_symbol
_atom_site_label
_atom_site_fract_x
_atom_site_fract_y
_atom_site_fract_z
Si Si1 0.953112 0.871545 0.456339
Si Si2 0.506478 0.644838 0.647136
Si Si3 0.313188 0.669893 0.393337
Si Si4 0.622499 0.472706 0.211091
Si Si5 0.194584 0.436750 0.593990
Si Si6 0.627567 0.080667 0.269862
Si Si7 0.217381 0.249830 0.383484
Si Si8 0.535524 0.555128 0.382095
O O1 0.636600 0.886441 0.571727
O O2 0.953311 0.813088 0.512834
O O3 0.161932 0.852136 0.298558
O O4 0.079179 0.937147 0.441012
O O5 0.586903 0.585801 0.667312
O O6 0.622622 0.624190 0.519001
O O7 0.631783 0.714243 0.617093
O O8 0.275322 0.627198 0.338151
O O9 0.549971 0.726728 0.276696
O O10 0.397833 0.624814 0.422011
O O11 0.015783 0.702218 0.547014
O O12 0.466811 0.508362 0.215751
O O13 0.683549 0.524264 0.247533
O O14 0.294007 0.507404 0.520049
O O15 0.226296 0.433587 0.664405
O O16 0.869990 0.426900 0.719339
#
# Coordination Sequence:
#
# PCOD8123452 Si02
#       8
#     4   4   4   4   4   4   4   4
#     4   9  19  31  48  78 110 130 162 218 262 300
#     4   9  18  30  51  74 105 130 166 210 254 299
#     4  10  20  32  56  76 105 132 173 215 254 303
#     4   8  17  32  50  77 104 128 163 214 266 295
#     4  10  19  34  55  77 102 136 175 211 254 308
#     4  10  18  29  55  82  97 132 172 217 259 305
#     4  11  18  33  52  81 101 137 171 211 255 301
#     4   9  20  34  55  75 104 138 171 215 258 302
#
# _framework density 17.606763999999998
#
# number of rings (size 3 to 8) (size 9 to 14) (size 15 to 20)
#    0.750    1.750    2.500    0.375    1.750    1.500 
#    0.000    0.625    8.250    0.000    0.000    0.000 
#    0.000    0.000    0.000    0.000    0.000    0.000 
#
# Total GULP energy -396523.705802 kJ/mol
# GULP energy per Si atom -12391.365806 kJ/mol
# Density = 1.756669 g / cm^3
# Si number density = 17.606764 Si / 1000 Ang^3
#
#
#
# Elastic Constant Matrix: (Units=GPa)
#
#
# Indices 1 2 3 4 5 6 
#
# 1 92.9598 38.4006 41.5757 0.0000 -20.0041 0.0000
# 2 38.4006 83.9586 29.7492 0.0000 -10.6430 0.0000
# 3 41.5757 29.7492 84.9634 0.0000 -21.6468 0.0000
# 4 0.0000 0.0000 0.0000 29.8622 0.0000 -5.5024
# 5 -20.0041 -10.6430 -21.6468 0.0000 22.7586 0.0000
# 6 0.0000 0.0000 0.0000 -5.5024 0.0000 20.0920
#
#
#
# Elastic Compliance Matrix: (Units=1/GPa)
#
#
# Indices 1 2 3 4 5 6 
#
# 1 0.016462 -0.005000 -0.004242 0.000000 0.008097 0.000000
# 2 -0.005000 0.015218 -0.002888 0.000000 -0.000025 0.000000
# 3 -0.004242 -0.002888 0.017901 0.000000 0.011947 0.000000
# 4 0.000000 0.000000 0.000000 0.035267 0.000000 0.009658
# 5 0.008097 -0.000025 0.011947 0.000000 0.062408 0.000000
# 6 0.000000 0.000000 0.000000 0.009658 0.000000 0.052416
#
#
# Mechanical properties :
#
#
# Convention : Reuss Voigt Hill
#
# Bulk Modulus (GPa) = 39.49398 53.48143 46.48771
# Shear Modulus (GPa) = 21.51727 24.68630 23.10179
#
# Velocity S-wave (km/s) = 3.49965 3.74851 3.62622
# Velocity P-wave (km/s) = 6.22976 7.01260 6.63274
#
# Compressibility (1/GPa) = 0.02532031
#
# Stress axis : x y z
#
# Youngs Moduli (GPa) = 60.74460 65.71317 55.86410
#
# Poissons Ratio (x) = 0.32857 0.23698
# Poissons Ratio (y) = 0.30372 0.16134
# Poissons Ratio (z) = 0.25768 0.18979
#
# Static dielectric constant tensor:
#      x y z
#    x 2.818330 0.000000 -0.067140 
#    y 0.000000 3.451460 0.000000 
#    z -0.067140 0.000000 3.290870 
# 
# 
# High freq. dielectric constant tensor:
#      x y z
#    x 1.623480 0.000000 -0.012280 
#    y 0.000000 1.692210 0.000000 
#    z -0.012280 0.000000 1.683170 
# 
# From -- ./inp_files/66063.got.cif
#   From: 2010.03.12/outbox.cif.g09.slc.cpg/sg14_34_cif.got.tgz:66063.got - 2010.03.31 13:35:05.
