data_PCOD8123498
_publ_section_title
;
Structure prediction by ZEFSAII (Michael W. Deem and Ramdas Pophale) SiO2 
 PCOD8123498
Probable space group: P 21/C
;
_chemical_formula_sum "Si O2"
_cell_formula_units_Z 32
_cell_length_a 9.138271
_cell_length_b 22.644620
_cell_length_c 8.955413
_cell_angle_alpha 90.000000
_cell_angle_beta 61.187055
_cell_angle_gamma 90.000000
_cell_volume 1623.741365
_symmetry_space_group_name_H-M "P 21/C"
_symmetry_group_IT_number 14
_symmetry_cell_setting 'monoclinic'
loop_
_space_group_symop_operation_xyz
x,y,z
-x,1/2+y,1/2-z
-x,-y,-z
x,1/2-y,1/2+z
loop_
_atom_site_type_symbol
_atom_site_label
_atom_site_fract_x
_atom_site_fract_y
_atom_site_fract_z
Si Si1 0.152508 0.613497 0.304650
Si Si2 0.254527 0.516942 0.046652
Si Si3 0.782570 0.877316 0.956691
Si Si4 0.359330 0.577061 0.471509
Si Si5 0.290040 0.021945 0.225477
Si Si6 0.400676 0.081639 0.659028
Si Si7 0.534329 0.805612 0.903133
Si Si8 0.527928 0.313327 0.903521
O O1 0.140891 0.568658 0.170200
O O2 0.216863 0.576438 0.415484
O O3 0.279892 0.666987 0.211649
O O4 0.967581 0.639648 0.424156
O O5 0.266000 0.464187 0.160719
O O6 0.182815 0.487980 0.929329
O O7 0.428933 0.545734 0.908345
O O8 0.802372 0.933255 0.838554
O O9 0.707962 0.822147 0.900429
O O10 0.659894 0.894087 0.152112
O O11 0.526563 0.547305 0.321131
O O12 0.297997 0.541694 0.644137
O O13 0.398609 0.643623 0.505357
O O14 0.420447 0.136164 0.536153
O O15 0.559862 0.800303 0.712199
O O16 0.465702 0.744385 0.998323
#
# Coordination Sequence:
#
# PCOD8123498 Si02
#       8
#     4   4   4   4   4   4   4   4
#     4  10  22  37  55  83 116 144 182 235 285 328
#     4  10  18  32  54  82 113 150 191 225 265 330
#     4  11  22  36  56  84 116 146 182 234 286 328
#     4   9  18  34  54  80 111 149 189 224 267 333
#     4  10  18  31  55  82 113 152 190 223 266 329
#     4  10  19  33  57  82 109 150 192 225 268 329
#     4  10  20  37  60  81 106 143 188 226 271 334
#     4  10  21  40  63  81 104 145 190 228 272 336
#
# _framework density 19.707571000000002
#
# number of rings (size 3 to 8) (size 9 to 14) (size 15 to 20)
#    0.000    2.000    0.000    7.500    0.000    3.500 
#    0.000    6.250    0.000    0.000    0.000    0.000 
#    0.000    0.000    0.000    0.000    0.000    0.000 
#
# Total GULP energy -396739.597578 kJ/mol
# GULP energy per Si atom -12398.112424 kJ/mol
# Density = 1.966272 g / cm^3
# Si number density = 19.707571 Si / 1000 Ang^3
#
#
#
# Elastic Constant Matrix: (Units=GPa)
#
#
# Indices 1 2 3 4 5 6 
#
# 1 92.0570 17.4960 40.4298 0.0000 3.1127 0.0000
# 2 17.4960 104.3254 32.6649 0.0000 9.9178 0.0000
# 3 40.4298 32.6649 74.2072 0.0000 21.1816 0.0000
# 4 0.0000 0.0000 0.0000 31.6394 0.0000 13.7125
# 5 3.1127 9.9178 21.1816 0.0000 29.1426 0.0000
# 6 0.0000 0.0000 0.0000 13.7125 0.0000 16.2065
#
#
#
# Elastic Compliance Matrix: (Units=1/GPa)
#
#
# Indices 1 2 3 4 5 6 
#
# 1 0.014935 0.000014 -0.009699 0.000000 0.005449 0.000000
# 2 0.000014 0.011120 -0.004822 0.000000 -0.000281 0.000000
# 3 -0.009699 -0.004822 0.025385 0.000000 -0.015773 0.000000
# 4 0.000000 0.000000 0.000000 0.049907 0.000000 -0.042227
# 5 0.005449 -0.000281 -0.015773 0.000000 0.045292 0.000000
# 6 0.000000 0.000000 0.000000 -0.042227 0.000000 0.097432
#
#
# Mechanical properties :
#
#
# Convention : Reuss Voigt Hill
#
# Bulk Modulus (GPa) = 44.59106 50.19678 47.39392
# Shear Modulus (GPa) = 17.82146 27.39764 22.60955
#
# Velocity S-wave (km/s) = 3.01041 3.73260 3.39079
# Velocity P-wave (km/s) = 5.89567 6.64097 6.27939
#
# Compressibility (1/GPa) = 0.02242602
#
# Stress axis : x y z
#
# Youngs Moduli (GPa) = 66.95474 89.93134 39.39361
#
# Poissons Ratio (x) = -0.00125 0.38207
# Poissons Ratio (y) = -0.00093 0.18996
# Poissons Ratio (z) = 0.64938 0.43366
#
# Static dielectric constant tensor:
#      x y z
#    x 3.420130 0.000000 0.262160 
#    y 0.000000 3.589370 0.000000 
#    z 0.262160 0.000000 3.537350 
# 
# 
# High freq. dielectric constant tensor:
#      x y z
#    x 1.752880 0.000000 0.027150 
#    y 0.000000 1.763680 0.000000 
#    z 0.027150 0.000000 1.763600 
# 
# From -- ./inp_files/10790.got.cif
#   From: 2010.03.12/outbox.cif.g09.slc.cpg/sg14_6_cif.got.tgz:10790.got - 2010.03.31 13:35:05.
