data_PCOD8123684
_publ_section_title
;
Structure prediction by ZEFSAII (Michael W. Deem and Ramdas Pophale) SiO2 
 PCOD8123684
Probable space group: P 21/C
;
_chemical_formula_sum "Si O2"
_cell_formula_units_Z 20
_cell_length_a 11.335103
_cell_length_b 14.774614
_cell_length_c 5.276573
_cell_angle_alpha 90.000000
_cell_angle_beta 89.803460
_cell_angle_gamma 90.000000
_cell_volume 883.671829
_symmetry_space_group_name_H-M "P 21/C"
_symmetry_group_IT_number 14
_symmetry_cell_setting 'monoclinic'
loop_
_space_group_symop_operation_xyz
x,y,z
-x,1/2+y,1/2-z
-x,-y,-z
x,1/2-y,1/2+z
loop_
_atom_site_type_symbol
_atom_site_label
_atom_site_fract_x
_atom_site_fract_y
_atom_site_fract_z
Si Si1 0.086887 0.598497 0.749104
Si Si2 0.309180 0.346941 0.740889
Si Si3 0.590548 0.645580 0.759791
Si Si4 0.330099 0.808729 0.275888
Si Si5 0.952888 0.885903 0.750093
O O1 0.224141 0.621124 0.747462
O O2 0.077154 0.491321 0.749226
O O3 0.026906 0.641056 0.498885
O O4 0.025178 0.641186 0.998073
O O5 0.375028 0.251150 0.731713
O O6 0.349733 0.401048 0.487516
O O7 0.169155 0.330925 0.747564
O O8 0.354070 0.401420 0.989482
O O9 0.450216 0.633938 0.752441
O O10 0.324072 0.764407 0.552690
#
# Coordination Sequence:
#
# PCOD8123684 Si02
#       5
#     4   4   4   4   4
#     4  10  23  40  60  85 115 158 190 239 289 336
#     4  10  18  35  58  80 111 155 178 234 289 329
#     4  10  19  35  56  82 116 146 185 235 286 328
#     4  12  21  40  60  83 121 152 189 237 290 343
#     4  10  21  42  60  82 121 149 196 239 284 346
#
# _framework density 22.632835
#
# number of rings (size 3 to 8) (size 9 to 14) (size 15 to 20)
#    0.000    1.600    4.000    2.400    0.000    0.000 
#   21.600    2.000    0.000    0.000    0.000    0.000 
#    0.000    0.000    0.000    0.000    0.000    0.000 
#
# Total GULP energy -247990.701376 kJ/mol
# GULP energy per Si atom -12399.535069 kJ/mol
# Density = 2.258132 g / cm^3
# Si number density = 22.632835 Si / 1000 Ang^3
#
#
#
# Elastic Constant Matrix: (Units=GPa)
#
#
# Indices 1 2 3 4 5 6 
#
# 1 196.2115 9.4298 71.5361 0.0000 6.0169 0.0000
# 2 9.4298 5.2073 4.1708 0.0000 -0.0543 0.0000
# 3 71.5361 4.1708 224.4885 0.0000 -0.7789 0.0000
# 4 0.0000 0.0000 0.0000 5.5882 0.0000 0.9987
# 5 6.0169 -0.0543 -0.7789 0.0000 47.1132 0.0000
# 6 0.0000 0.0000 0.0000 0.9987 0.0000 17.3520
#
#
#
# Elastic Compliance Matrix: (Units=1/GPa)
#
#
# Indices 1 2 3 4 5 6 
#
# 1 0.006259 -0.009890 -0.001814 0.000000 -0.000841 0.000000
# 2 -0.009890 0.210569 -0.000755 0.000000 0.001493 0.000000
# 3 -0.001814 -0.000755 0.005048 0.000000 0.000314 0.000000
# 4 0.000000 0.000000 0.000000 0.180807 0.000000 -0.010406
# 5 -0.000841 0.001493 0.000314 0.000000 0.021340 0.000000
# 6 0.000000 0.000000 0.000000 -0.010406 0.000000 0.058229
#
#
# Mechanical properties :
#
#
# Convention : Reuss Voigt Hill
#
# Bulk Modulus (GPa) = 5.07725 66.24231 35.65978
# Shear Modulus (GPa) = 8.72872 36.72873 22.72873
#
# Velocity S-wave (km/s) = 1.96597 4.03278 3.17241
# Velocity P-wave (km/s) = 2.72058 7.14256 5.40452
#
# Compressibility (1/GPa) = 0.19695687
#
# Stress axis : x y z
#
# Youngs Moduli (GPa) = 159.77346 4.74904 198.11267
#
# Poissons Ratio (x) = 0.04697 0.35930
# Poissons Ratio (y) = 1.58019 0.14965
# Poissons Ratio (z) = 0.28977 0.00359
#
# Static dielectric constant tensor:
#      x y z
#    x 4.249450 0.000000 -0.350770 
#    y 0.000000 3.303740 0.000000 
#    z -0.350770 0.000000 8.372760 
# 
# 
# High freq. dielectric constant tensor:
#      x y z
#    x 1.908450 0.000000 -0.001300 
#    y 0.000000 1.830260 0.000000 
#    z -0.001300 0.000000 1.929910 
# 
# From -- ./inp_files/1177.got.cif
#   From: 2010.03.12/outbox.cif.g09.slc.cpg/sg14_1_cif.got.tgz:1177.got - 2010.03.31 13:35:05.
