data_PCOD8123098
_publ_section_title
;
Structure prediction by ZEFSAII (Michael W. Deem and Ramdas Pophale) SiO2 
 PCOD8123098
Probable space group: P 2/C
;
_chemical_formula_sum "Si O2"
_cell_formula_units_Z 30
_cell_length_a 8.241486
_cell_length_b 14.445806
_cell_length_c 11.116434
_cell_angle_alpha 90.000000
_cell_angle_beta 71.212488
_cell_angle_gamma 90.000000
_cell_volume 1252.951065
_symmetry_space_group_name_H-M "P 2/C"
_symmetry_group_IT_number 13
_symmetry_cell_setting 'monoclinic'
loop_
_space_group_symop_operation_xyz
x,y,z
-x,y,1/2-z
-x,-y,-z
x,-y,1/2+z
loop_
_atom_site_type_symbol
_atom_site_label
_atom_site_fract_x
_atom_site_fract_y
_atom_site_fract_z
Si Si1 0.671265 0.153462 0.940141
Si Si2 0.775686 0.728614 0.619052
Si Si3 0.295738 0.808537 0.613218
Si Si4 0.318165 0.511029 0.104186
Si Si5 0.858511 0.355451 0.479653
Si Si6 0.900681 0.983918 0.897287
Si Si7 0.808919 0.303533 0.762175
Si Si8 0.500000 0.403022 0.250000
O O1 0.732766 0.047969 0.923401
O O2 0.691154 0.210659 0.808844
O O3 0.802004 0.208783 0.995943
O O4 0.481842 0.152420 0.038393
O O5 0.736517 0.799836 0.736975
O O6 0.610441 0.662582 0.634456
O O7 0.946727 0.669317 0.598385
O O8 0.271955 0.706872 0.565502
O O9 0.156677 0.877179 0.587569
O O10 0.257100 0.616155 0.132406
O O11 0.349532 0.463245 0.225445
O O12 0.500000 0.500000 0.000000
O O13 0.173061 0.460310 0.058205
O O14 0.800315 0.342300 0.630170
O O15 0.000000 0.005755 0.750000
O O16 0.000000 0.000000 0.000000
O O17 0.000000 0.275252 0.750000
#
# Coordination Sequence:
#
# PCOD8123098 Si02
#       8
#     4   4   4   4   4   4   4   2
#     4  12  25  49  74 108 149 192 238 306 371 442
#     4  12  23  45  76 106 146 193 246 301 370 435
#     4  12  25  46  76 112 143 192 246 301 368 442
#     4  12  27  46  68 105 144 196 246 303 363 437
#     4  12  26  46  76 104 147 191 252 304 369 443
#     4  12  28  49  78 113 150 194 248 307 377 452
#     4  12  28  46  72 106 147 195 243 304 373 435
#     4  12  24  44  70 102 146 190 244 306 358 426
#
# _framework density 23.943473999999998
#
# number of rings (size 3 to 8) (size 9 to 14) (size 15 to 20)
#    0.000    0.000    4.000    6.000    3.733    2.133 
#    0.000    1.333    0.000    0.000    0.000    0.000 
#    0.000    0.000    0.000    0.000    0.000    0.000 
#
# Total GULP energy -372017.430544 kJ/mol
# GULP energy per Si atom -12400.581018 kJ/mol
# Density = 2.388898 g / cm^3
# Si number density = 23.943474 Si / 1000 Ang^3
#
#
#
# Elastic Constant Matrix: (Units=GPa)
#
#
# Indices 1 2 3 4 5 6 
#
# 1 92.6229 5.3861 23.5835 0.0000 -17.5844 0.0000
# 2 5.3861 75.0884 5.8475 0.0000 -10.6994 0.0000
# 3 23.5835 5.8475 110.3005 0.0000 -10.4831 0.0000
# 4 0.0000 0.0000 0.0000 22.3097 0.0000 -3.9884
# 5 -17.5844 -10.6994 -10.4831 0.0000 45.8276 0.0000
# 6 0.0000 0.0000 0.0000 -3.9884 0.0000 32.9223
#
#
#
# Elastic Compliance Matrix: (Units=1/GPa)
#
#
# Indices 1 2 3 4 5 6 
#
# 1 0.012147 -0.000111 -0.002199 0.000000 0.004132 0.000000
# 2 -0.000111 0.013797 -0.000415 0.000000 0.003084 0.000000
# 3 -0.002199 -0.000415 0.009679 0.000000 0.001274 0.000000
# 4 0.000000 0.000000 0.000000 0.045816 0.000000 0.005550
# 5 0.004132 0.003084 0.001274 0.000000 0.024418 0.000000
# 6 0.000000 0.000000 0.000000 0.005550 0.000000 0.031047
#
#
# Mechanical properties :
#
#
# Convention : Reuss Voigt Hill
#
# Bulk Modulus (GPa) = 33.14025 38.62735 35.88380
# Shear Modulus (GPa) = 32.80590 36.42489 34.61540
#
# Velocity S-wave (km/s) = 3.70556 3.90460 3.80638
# Velocity P-wave (km/s) = 5.67268 6.04116 5.85982
#
# Compressibility (1/GPa) = 0.03017479
#
# Stress axis : x y z
#
# Youngs Moduli (GPa) = 82.32346 72.47791 103.31361
#
# Poissons Ratio (x) = 0.00807 0.22714
# Poissons Ratio (y) = 0.00917 0.04283
# Poissons Ratio (z) = 0.18100 0.03005
#
# Static dielectric constant tensor:
#      x y z
#    x 3.265700 0.000000 -0.730870 
#    y 0.000000 4.856190 0.000000 
#    z -0.730870 0.000000 3.891470 
# 
# 
# High freq. dielectric constant tensor:
#      x y z
#    x 1.948820 0.000000 -0.007540 
#    y 0.000000 1.953080 0.000000 
#    z -0.007540 0.000000 1.964280 
# 
# From -- ./inp_files/30379.got.cif
#   From: 2010.06.25/outbox.cif.g09.slc.cpg/sg13_16_cif.got.tgz:30379.got - 2010.06.28 04:50:58.
