data_PCOD8123814
_publ_section_title
;
Structure prediction by ZEFSAII (Michael W. Deem and Ramdas Pophale) SiO2 
 PCOD8123814
Probable space group: P 21/C
;
_chemical_formula_sum "Si O2"
_cell_formula_units_Z 32
_cell_length_a 11.671807
_cell_length_b 9.656892
_cell_length_c 18.832252
_cell_angle_alpha 90.000000
_cell_angle_beta 50.206445
_cell_angle_gamma 90.000000
_cell_volume 1630.947367
_symmetry_space_group_name_H-M "P 21/C"
_symmetry_group_IT_number 14
_symmetry_cell_setting 'monoclinic'
loop_
_space_group_symop_operation_xyz
x,y,z
-x,1/2+y,1/2-z
-x,-y,-z
x,1/2-y,1/2+z
loop_
_atom_site_type_symbol
_atom_site_label
_atom_site_fract_x
_atom_site_fract_y
_atom_site_fract_z
Si Si1 0.169126 0.364585 0.895120
Si Si2 0.748849 0.255974 0.748541
Si Si3 0.677008 0.744457 0.905006
Si Si4 0.840327 0.542445 0.254891
Si Si5 0.825851 0.463464 0.832192
Si Si6 0.415544 0.174075 0.403612
Si Si7 0.150603 0.819447 0.443146
Si Si8 0.617875 0.366393 0.036942
O O1 0.209325 0.376120 0.796347
O O2 0.302535 0.289791 0.884318
O O3 0.151885 0.516050 0.934901
O O4 0.016624 0.277259 0.966939
O O5 0.822652 0.387881 0.757602
O O6 0.570770 0.258978 0.819514
O O7 0.807677 0.260286 0.644980
O O8 0.800303 0.118378 0.768632
O O9 0.752292 0.890527 0.855585
O O10 0.793717 0.625713 0.835490
O O11 0.523832 0.728914 0.922317
O O12 0.649355 0.744544 0.999962
O O13 0.017288 0.557612 0.191787
O O14 0.695493 0.397135 0.931200
O O15 0.436720 0.009783 0.406239
O O16 0.270850 0.781076 0.456075
#
# Coordination Sequence:
#
# PCOD8123814 Si02
#       8
#     4   4   4   4   4   4   4   4
#     4   9  19  36  55  83 112 149 193 234 275 337
#     4  11  22  37  58  90 115 149 188 241 291 336
#     4  11  22  37  60  87 111 156 189 234 291 341
#     4  11  24  36  59  87 121 149 189 241 292 339
#     4  11  20  40  61  85 113 150 201 240 275 341
#     4  10  20  36  58  83 115 149 193 235 278 347
#     4   9  19  33  60  82 110 147 194 237 277 326
#     4  10  18  38  61  81 111 153 198 236 275 341
#
# _framework density 19.620498000000001
#
# number of rings (size 3 to 8) (size 9 to 14) (size 15 to 20)
#    0.000    1.750    3.750    1.500    8.750    0.500 
#    0.000    0.000    0.000    0.750    0.000    0.000 
#    0.000    0.000    0.000    0.000    0.000    0.000 
#
# Total GULP energy -396910.003567 kJ/mol
# GULP energy per Si atom -12403.437611 kJ/mol
# Density = 1.957584 g / cm^3
# Si number density = 19.620498 Si / 1000 Ang^3
#
#
#
# Elastic Constant Matrix: (Units=GPa)
#
#
# Indices 1 2 3 4 5 6 
#
# 1 122.7828 6.1581 20.0365 0.0000 -12.3544 0.0000
# 2 6.1581 16.3549 11.7479 0.0000 -3.7021 0.0000
# 3 20.0365 11.7479 60.2138 0.0000 -15.1613 0.0000
# 4 0.0000 0.0000 0.0000 28.1463 0.0000 5.2669
# 5 -12.3544 -3.7021 -15.1613 0.0000 33.3588 0.0000
# 6 0.0000 0.0000 0.0000 5.2669 0.0000 17.5972
#
#
#
# Elastic Compliance Matrix: (Units=1/GPa)
#
#
# Indices 1 2 3 4 5 6 
#
# 1 0.008772 -0.001290 -0.002129 0.000000 0.002138 0.000000
# 2 -0.001290 0.071394 -0.013128 0.000000 0.001479 0.000000
# 3 -0.002129 -0.013128 0.021807 0.000000 0.007666 0.000000
# 4 0.000000 0.000000 0.000000 0.037637 0.000000 -0.011265
# 5 0.002138 0.001479 0.007666 0.000000 0.034417 0.000000
# 6 0.000000 0.000000 0.000000 -0.011265 0.000000 0.060199
#
#
# Mechanical properties :
#
#
# Convention : Reuss Voigt Hill
#
# Bulk Modulus (GPa) = 14.51788 30.58185 22.54987
# Shear Modulus (GPa) = 17.22485 26.58105 21.90295
#
# Velocity S-wave (km/s) = 2.96615 3.68470 3.34478
# Velocity P-wave (km/s) = 4.37563 5.80717 5.14147
#
# Compressibility (1/GPa) = 0.06888056
#
# Stress axis : x y z
#
# Youngs Moduli (GPa) = 114.00340 14.00678 45.85603
#
# Poissons Ratio (x) = 0.01806 0.09762
# Poissons Ratio (y) = 0.14702 0.60198
# Poissons Ratio (z) = 0.24270 0.18388
#
# Static dielectric constant tensor:
#      x y z
#    x 3.850220 0.000000 -0.086330 
#    y 0.000000 3.158010 0.000000 
#    z -0.086330 0.000000 3.474350 
# 
# 
# High freq. dielectric constant tensor:
#      x y z
#    x 1.786170 0.000000 -0.007670 
#    y 0.000000 1.718610 0.000000 
#    z -0.007670 0.000000 1.764340 
# 
# From -- ./inp_files/67260.got.cif
#   From: 2010.03.12/outbox.cif.g09.slc.cpg/sg14_34_cif.got.tgz:67260.got - 2010.03.31 13:35:05.
