data_PCOD8123726
_publ_section_title
;
Structure prediction by ZEFSAII (Michael W. Deem and Ramdas Pophale) SiO2 
 PCOD8123726
Probable space group: P 21/C
;
_chemical_formula_sum "Si O2"
_cell_formula_units_Z 24
_cell_length_a 16.652262
_cell_length_b 7.116348
_cell_length_c 21.624678
_cell_angle_alpha 90.000000
_cell_angle_beta 149.358643
_cell_angle_gamma 90.000000
_cell_volume 1306.059044
_symmetry_space_group_name_H-M "P 21/C"
_symmetry_group_IT_number 14
_symmetry_cell_setting 'monoclinic'
loop_
_space_group_symop_operation_xyz
x,y,z
-x,1/2+y,1/2-z
-x,-y,-z
x,1/2-y,1/2+z
loop_
_atom_site_type_symbol
_atom_site_label
_atom_site_fract_x
_atom_site_fract_y
_atom_site_fract_z
Si Si1 0.999548 0.164327 0.923707
Si Si2 0.974262 0.241715 0.541285
Si Si3 0.854503 0.528655 0.053049
Si Si4 0.355116 0.084805 0.473727
Si Si5 0.820381 0.608707 0.720035
Si Si6 0.673813 0.277127 0.145203
O O1 0.827519 0.144231 0.780384
O O2 0.120796 0.263461 0.957797
O O3 0.070834 0.960839 0.983575
O O4 0.987417 0.297631 0.976747
O O5 0.140899 0.193301 0.685785
O O6 0.836040 0.121020 0.483833
O O7 0.702807 0.531976 0.996034
O O8 0.014379 0.474516 0.197448
O O9 0.235672 0.229325 0.362526
O O10 0.525333 0.183834 0.591751
O O11 0.361379 0.888895 0.441267
O O12 0.690231 0.444284 0.640506
#
# Coordination Sequence:
#
# PCOD8123726 Si02
#       6
#     4   4   4   4   4   4
#     4  10  18  36  57  77 102 139 180 219 261 308
#     4   9  19  33  59  79 100 132 186 220 259 306
#     4   9  21  30  55  80 104 134 173 228 251 308
#     4  11  21  35  50  80 113 136 178 207 276 320
#     4   9  20  32  54  82 100 140 173 224 257 311
#     4  10  21  34  54  74 109 147 166 215 267 326
#
# _framework density 18.375893000000001
#
# number of rings (size 3 to 8) (size 9 to 14) (size 15 to 20)
#    1.000    1.333    1.667    1.000    4.667    1.333 
#    0.000    0.000    7.333    0.000    0.000    0.000 
#    0.000    0.000    0.000    0.000    0.000    0.000 
#
# Total GULP energy -297399.640123 kJ/mol
# GULP energy per Si atom -12391.651672 kJ/mol
# Density = 1.833407 g / cm^3
# Si number density = 18.375893 Si / 1000 Ang^3
#
#
#
# Elastic Constant Matrix: (Units=GPa)
#
#
# Indices 1 2 3 4 5 6 
#
# 1 123.9452 27.3143 23.1943 0.0000 15.2452 0.0000
# 2 27.3143 75.2669 2.4418 0.0000 5.5378 0.0000
# 3 23.1943 2.4418 21.4490 0.0000 1.3000 0.0000
# 4 0.0000 0.0000 0.0000 21.5094 0.0000 -5.1682
# 5 15.2452 5.5378 1.3000 0.0000 23.3013 0.0000
# 6 0.0000 0.0000 0.0000 -5.1682 0.0000 22.9455
#
#
#
# Elastic Compliance Matrix: (Units=1/GPa)
#
#
# Indices 1 2 3 4 5 6 
#
# 1 0.011853 -0.003450 -0.012045 0.000000 -0.006263 0.000000
# 2 -0.003450 0.014566 0.002153 0.000000 -0.001325 0.000000
# 3 -0.012045 0.002153 0.059155 0.000000 0.004068 0.000000
# 4 0.000000 0.000000 0.000000 0.049151 0.000000 0.011071
# 5 -0.006263 -0.001325 0.004068 0.000000 0.047102 0.000000
# 6 0.000000 0.000000 0.000000 0.011071 0.000000 0.046075
#
#
# Mechanical properties :
#
#
# Convention : Reuss Voigt Hill
#
# Bulk Modulus (GPa) = 16.98088 36.28467 26.63278
# Shear Modulus (GPa) = 18.23385 24.73196 21.48290
#
# Velocity S-wave (km/s) = 3.15345 3.67262 3.42289
# Velocity P-wave (km/s) = 4.74551 6.14596 5.49057
#
# Compressibility (1/GPa) = 0.05888976
#
# Stress axis : x y z
#
# Youngs Moduli (GPa) = 84.36947 68.65493 16.90462
#
# Poissons Ratio (x) = 0.23684 0.20361
# Poissons Ratio (y) = 0.29105 -0.03639
# Poissons Ratio (z) = 1.01621 -0.14778
#
# Static dielectric constant tensor:
#      x y z
#    x 3.168070 0.000000 -0.060790 
#    y 0.000000 3.478700 0.000000 
#    z -0.060790 0.000000 3.108450 
# 
# 
# High freq. dielectric constant tensor:
#      x y z
#    x 1.692800 0.000000 -0.009000 
#    y 0.000000 1.732920 0.000000 
#    z -0.009000 0.000000 1.678450 
# 
# From -- ./inp_files/74110.got.cif
#   From: 2010.03.12/outbox.cif.g09.slc.cpg/sg14_38_cif.got.tgz:74110.got - 2010.03.31 13:35:05.
