data_PCOD8123364
_publ_section_title
;
Structure prediction by ZEFSAII (Michael W. Deem and Ramdas Pophale) SiO2 
 PCOD8123364
Probable space group: P 21/C
;
_chemical_formula_sum "Si O2"
_cell_formula_units_Z 32
_cell_length_a 9.927568
_cell_length_b 17.737159
_cell_length_c 19.647507
_cell_angle_alpha 90.000000
_cell_angle_beta 150.536368
_cell_angle_gamma 90.000000
_cell_volume 1701.710227
_symmetry_space_group_name_H-M "P 21/C"
_symmetry_group_IT_number 14
_symmetry_cell_setting 'monoclinic'
loop_
_space_group_symop_operation_xyz
x,y,z
-x,1/2+y,1/2-z
-x,-y,-z
x,1/2-y,1/2+z
loop_
_atom_site_type_symbol
_atom_site_label
_atom_site_fract_x
_atom_site_fract_y
_atom_site_fract_z
Si Si1 0.172359 0.338604 0.869405
Si Si2 0.768297 0.839328 0.108549
Si Si3 0.608281 0.174537 0.177681
Si Si4 0.870194 0.675570 0.299928
Si Si5 0.672378 0.081483 0.829353
Si Si6 0.363351 0.852631 0.329186
Si Si7 0.481963 0.682491 0.614229
Si Si8 0.721327 0.910952 0.863278
O O1 0.131378 0.366490 0.773960
O O2 0.912176 0.357310 0.801612
O O3 0.213431 0.250029 0.880879
O O4 0.429826 0.376908 0.019823
O O5 0.575028 0.863552 0.961587
O O6 0.636747 0.864829 0.122703
O O7 0.066211 0.874957 0.227610
O O8 0.606778 0.264592 0.174937
O O9 0.497482 0.147005 0.201567
O O10 0.776392 0.610571 0.309772
O O11 0.176693 0.705014 0.453461
O O12 0.653429 0.743348 0.208547
O O13 0.560640 0.102865 0.705836
O O14 0.601318 0.994934 0.813733
O O15 0.526270 0.131294 0.822479
O O16 0.997693 0.095510 0.970872
#
# Coordination Sequence:
#
# PCOD8123364 Si02
#       8
#     4   4   4   4   4   4   4   4
#     4   9  19  31  54  83 111 134 172 231 273 315
#     4   9  17  31  54  83 107 135 177 226 266 319
#     4  10  17  34  55  83 106 138 181 222 270 315
#     4  10  20  36  57  85 109 141 176 223 275 319
#     4  10  21  38  54  79 109 148 185 223 264 318
#     4  10  19  34  57  82 109 139 182 221 271 322
#     4  10  20  35  58  84 111 137 179 224 273 320
#     4  10  21  37  57  76 110 147 187 223 262 319
#
# _framework density 18.804611999999999
#
# number of rings (size 3 to 8) (size 9 to 14) (size 15 to 20)
#    0.000    2.250    2.500    0.750    5.250    0.000 
#    2.250    3.125    0.000    0.000    0.000    0.000 
#    0.000    0.000    0.000    0.000    0.000    0.000 
#
# Total GULP energy -396755.509337 kJ/mol
# GULP energy per Si atom -12398.609667 kJ/mol
# Density = 1.876181 g / cm^3
# Si number density = 18.804612 Si / 1000 Ang^3
#
#
#
# Elastic Constant Matrix: (Units=GPa)
#
#
# Indices 1 2 3 4 5 6 
#
# 1 120.6137 26.7665 42.6796 0.0000 -0.1195 0.0000
# 2 26.7665 42.6552 17.3843 0.0000 3.5848 0.0000
# 3 42.6796 17.3843 105.8467 0.0000 1.8858 0.0000
# 4 0.0000 0.0000 0.0000 15.3737 0.0000 0.6372
# 5 -0.1195 3.5848 1.8858 0.0000 33.2016 0.0000
# 6 0.0000 0.0000 0.0000 0.6372 0.0000 9.2514
#
#
#
# Elastic Compliance Matrix: (Units=1/GPa)
#
#
# Indices 1 2 3 4 5 6 
#
# 1 0.010706 -0.005382 -0.003448 0.000000 0.000815 0.000000
# 2 -0.005382 0.028037 -0.002383 0.000000 -0.002911 0.000000
# 3 -0.003448 -0.002383 0.011236 0.000000 -0.000393 0.000000
# 4 0.000000 0.000000 0.000000 0.065232 0.000000 -0.004493
# 5 0.000815 -0.002911 -0.000393 0.000000 0.030459 0.000000
# 6 0.000000 0.000000 0.000000 -0.004493 0.000000 0.108401
#
#
# Mechanical properties :
#
#
# Convention : Reuss Voigt Hill
#
# Bulk Modulus (GPa) = 36.29152 49.19738 42.74445
# Shear Modulus (GPa) = 17.50211 23.71769 20.60990
#
# Velocity S-wave (km/s) = 3.05410 3.55529 3.31418
# Velocity P-wave (km/s) = 5.63719 6.56297 6.11762
#
# Compressibility (1/GPa) = 0.02755465
#
# Stress axis : x y z
#
# Youngs Moduli (GPa) = 93.40624 35.66770 88.99872
#
# Poissons Ratio (x) = 0.19195 0.30682
# Poissons Ratio (y) = 0.50267 0.21208
# Poissons Ratio (z) = 0.32202 0.08499
#
# Static dielectric constant tensor:
#      x y z
#    x 3.646850 0.000000 -0.018420 
#    y 0.000000 2.971710 0.000000 
#    z -0.018420 0.000000 3.635450 
# 
# 
# High freq. dielectric constant tensor:
#      x y z
#    x 1.748150 0.000000 -0.003430 
#    y 0.000000 1.682830 0.000000 
#    z -0.003430 0.000000 1.732260 
# 
# From -- ./inp_files/56112.got.cif
#   From: 2010.03.12/outbox.cif.g09.slc.cpg/sg14_29_cif.got.tgz:56112.got - 2010.03.31 13:35:05.
