data_PCOD8123521
_publ_section_title
;
Structure prediction by ZEFSAII (Michael W. Deem and Ramdas Pophale) SiO2 
 PCOD8123521
Probable space group: P 21/C
;
_chemical_formula_sum "Si O2"
_cell_formula_units_Z 28
_cell_length_a 13.468458
_cell_length_b 8.038050
_cell_length_c 20.855187
_cell_angle_alpha 90.000000
_cell_angle_beta 35.345878
_cell_angle_gamma 90.000000
_cell_volume 1306.153574
_symmetry_space_group_name_H-M "P 21/C"
_symmetry_group_IT_number 14
_symmetry_cell_setting 'monoclinic'
loop_
_space_group_symop_operation_xyz
x,y,z
-x,1/2+y,1/2-z
-x,-y,-z
x,1/2-y,1/2+z
loop_
_atom_site_type_symbol
_atom_site_label
_atom_site_fract_x
_atom_site_fract_y
_atom_site_fract_z
Si Si1 0.670625 0.991730 0.784411
Si Si2 0.501538 0.664896 0.874970
Si Si3 0.091223 0.779645 0.274094
Si Si4 0.849497 0.080876 0.384237
Si Si5 0.673371 0.198361 0.666013
Si Si6 0.991761 0.797407 0.576860
Si Si7 0.814099 0.030569 0.171466
O O1 0.539206 0.853247 0.880419
O O2 0.823491 0.908396 0.662870
O O3 0.744137 0.096525 0.806022
O O4 0.588638 0.109492 0.772780
O O5 0.459439 0.685336 0.821858
O O6 0.672445 0.554651 0.792968
O O7 0.354289 0.578897 0.994670
O O8 0.113313 0.650110 0.205469
O O9 0.081188 0.673653 0.345142
O O10 0.920810 0.892309 0.354468
O O11 0.938968 0.207461 0.386458
O O12 0.711643 0.390038 0.665460
O O13 0.859205 0.124790 0.546220
O O14 0.948495 0.609198 0.577262
#
# Coordination Sequence:
#
# PCOD8123521 Si02
#       7
#     4   4   4   4   4   4   4
#     4   9  19  34  53  79 110 141 176 220 266 316
#     4  10  21  36  54  79 111 143 177 222 273 321
#     4  10  21  38  58  78 105 141 182 226 272 325
#     4  10  21  38  58  79 104 140 184 228 272 325
#     4  10  18  32  53  80 109 144 181 214 257 315
#     4   9  18  33  54  79 110 144 179 217 262 316
#     4  10  20  35  54  81 113 144 178 222 271 318
#
# _framework density 21.436989000000001
#
# number of rings (size 3 to 8) (size 9 to 14) (size 15 to 20)
#    0.000    2.286    0.000    2.571    0.000    2.286 
#    0.000   10.000    0.000    0.000    0.000    0.000 
#    0.000    0.000    0.000    0.000    0.000    0.000 
#
# Total GULP energy -347044.717227 kJ/mol
# GULP energy per Si atom -12394.454187 kJ/mol
# Density = 2.138820 g / cm^3
# Si number density = 21.436989 Si / 1000 Ang^3
#
#
#
# Elastic Constant Matrix: (Units=GPa)
#
#
# Indices 1 2 3 4 5 6 
#
# 1 52.4469 24.7912 6.6189 0.0000 0.9121 0.0000
# 2 24.7912 86.1539 10.8087 0.0000 -5.7170 0.0000
# 3 6.6189 10.8087 50.2515 0.0000 -10.1530 0.0000
# 4 0.0000 0.0000 0.0000 23.8462 0.0000 -4.7970
# 5 0.9121 -5.7170 -10.1530 0.0000 25.3329 0.0000
# 6 0.0000 0.0000 0.0000 -4.7970 0.0000 42.6597
#
#
#
# Elastic Compliance Matrix: (Units=1/GPa)
#
#
# Indices 1 2 3 4 5 6 
#
# 1 0.022417 -0.006381 -0.002213 0.000000 -0.003134 0.000000
# 2 -0.006381 0.013822 -0.001584 0.000000 0.002714 0.000000
# 3 -0.002213 -0.001584 0.022280 0.000000 0.008652 0.000000
# 4 0.000000 0.000000 0.000000 0.042906 0.000000 0.004825
# 5 -0.003134 0.002714 0.008652 0.000000 0.043667 0.000000
# 6 0.000000 0.000000 0.000000 0.004825 0.000000 0.023984
#
#
# Mechanical properties :
#
#
# Convention : Reuss Voigt Hill
#
# Bulk Modulus (GPa) = 26.20389 30.36555 28.28472
# Shear Modulus (GPa) = 24.73361 28.14332 26.43847
#
# Velocity S-wave (km/s) = 3.40042 3.62724 3.51566
# Velocity P-wave (km/s) = 5.25998 5.63368 5.45003
#
# Compressibility (1/GPa) = 0.03816227
#
# Stress axis : x y z
#
# Youngs Moduli (GPa) = 44.60913 72.34788 44.88281
#
# Poissons Ratio (x) = 0.46164 0.09935
# Poissons Ratio (y) = 0.28464 0.07110
# Poissons Ratio (z) = 0.09874 0.11461
#
# Static dielectric constant tensor:
#      x y z
#    x 3.782740 0.000000 -0.145470 
#    y 0.000000 3.955850 0.000000 
#    z -0.145470 0.000000 3.533860 
# 
# 
# High freq. dielectric constant tensor:
#      x y z
#    x 1.838010 0.000000 -0.007010 
#    y 0.000000 1.845450 0.000000 
#    z -0.007010 0.000000 1.810680 
# 
# From -- ./inp_files/66984.got.cif
#   From: 2010.03.12/outbox.cif.g09.slc.cpg/sg14_34_cif.got.tgz:66984.got - 2010.03.31 13:35:05.
