data_PCOD8123055
_publ_section_title
;
Structure prediction by ZEFSAII (Michael W. Deem and Ramdas Pophale) SiO2 
 PCOD8123055
Probable space group: P 2/C
;
_chemical_formula_sum "Si O2"
_cell_formula_units_Z 12
_cell_length_a 15.229261
_cell_length_b 4.741554
_cell_length_c 21.056239
_cell_angle_alpha 90.000000
_cell_angle_beta 161.364748
_cell_angle_gamma 90.000000
_cell_volume 485.857367
_symmetry_space_group_name_H-M "P 2/C"
_symmetry_group_IT_number 13
_symmetry_cell_setting 'monoclinic'
loop_
_space_group_symop_operation_xyz
x,y,z
-x,y,1/2-z
-x,-y,-z
x,-y,1/2+z
loop_
_atom_site_type_symbol
_atom_site_label
_atom_site_fract_x
_atom_site_fract_y
_atom_site_fract_z
Si Si1 0.485767 0.241562 0.173339
Si Si2 0.042093 0.031300 0.440466
Si Si3 0.667935 0.464928 0.678795
O O1 0.500000 0.423608 0.250000
O O2 0.764419 0.042204 0.365157
O O3 0.473684 0.442049 0.104329
O O4 0.213453 0.044637 0.993036
O O5 0.754348 0.859098 0.244553
O O6 0.953011 0.357386 0.375668
O O7 0.500000 0.500000 0.500000
#
# Coordination Sequence:
#
# PCOD8123055 Si02
#       3
#     4   4   4
#     4   8  22  41  67  91 126 171 221 257 317 376
#     4   9  23  40  64  89 129 166 218 254 319 381
#     4  12  22  40  63  97 128 166 205 270 322 380
#
# _framework density 24.698608
#
# number of rings (size 3 to 8) (size 9 to 14) (size 15 to 20)
#    2.000    0.000    0.000    3.000    0.000    9.333 
#    0.000    3.333    0.000    0.000    0.000    0.000 
#    0.000    0.000    0.000    0.000    0.000    0.000 
#
# Total GULP energy -148677.586112 kJ/mol
# GULP energy per Si atom -12389.798843 kJ/mol
# Density = 2.464239 g / cm^3
# Si number density = 24.698608 Si / 1000 Ang^3
#
#
#
# Elastic Constant Matrix: (Units=GPa)
#
#
# Indices 1 2 3 4 5 6 
#
# 1 135.5225 8.9706 26.1467 0.0000 -18.9460 0.0000
# 2 8.9706 43.3562 9.0567 0.0000 -1.8771 0.0000
# 3 26.1467 9.0567 60.8058 0.0000 -17.6659 0.0000
# 4 0.0000 0.0000 0.0000 24.6341 0.0000 -5.7609
# 5 -18.9460 -1.8771 -17.6659 0.0000 40.0036 0.0000
# 6 0.0000 0.0000 0.0000 -5.7609 0.0000 19.8535
#
#
#
# Elastic Compliance Matrix: (Units=1/GPa)
#
#
# Indices 1 2 3 4 5 6 
#
# 1 0.008340 -0.001057 -0.002633 0.000000 0.002737 0.000000
# 2 -0.001057 0.023949 -0.003363 0.000000 -0.000862 0.000000
# 3 -0.002633 -0.003363 0.020272 0.000000 0.007547 0.000000
# 4 0.000000 0.000000 0.000000 0.043549 0.000000 0.012637
# 5 0.002737 -0.000862 0.007547 0.000000 0.029586 0.000000
# 6 0.000000 0.000000 0.000000 0.012637 0.000000 0.054036
#
#
# Mechanical properties :
#
#
# Convention : Reuss Voigt Hill
#
# Bulk Modulus (GPa) = 26.00552 36.44807 31.22679
# Shear Modulus (GPa) = 24.19480 29.93226 27.06353
#
# Velocity S-wave (km/s) = 3.13325 3.48501 3.31380
# Velocity P-wave (km/s) = 4.86227 5.56623 5.22612
#
# Compressibility (1/GPa) = 0.03845338
#
# Stress axis : x y z
#
# Youngs Moduli (GPa) = 119.91089 41.75610 49.32980
#
# Poissons Ratio (x) = 0.04413 0.12990
# Poissons Ratio (y) = 0.12673 0.16589
# Poissons Ratio (z) = 0.31577 0.14042
#
# Static dielectric constant tensor:
#      x y z
#    x 4.367090 0.000000 0.307280 
#    y 0.000000 4.006930 0.000000 
#    z 0.307280 0.000000 4.107620 
# 
# 
# High freq. dielectric constant tensor:
#      x y z
#    x 1.990300 0.000000 0.028970 
#    y 0.000000 1.965730 0.000000 
#    z 0.028970 0.000000 1.959940 
# 
# From -- ./inp_files/27003.got.cif
#   From: 2010.06.25/outbox.cif.g09.slc.cpg/sg13_14_cif.got.tgz:27003.got - 2010.06.28 04:50:58.
