data_PCOD8123397
_publ_section_title
;
Structure prediction by ZEFSAII (Michael W. Deem and Ramdas Pophale) SiO2 
 PCOD8123397
Probable space group: P 21/C
;
_chemical_formula_sum "Si O2"
_cell_formula_units_Z 32
_cell_length_a 11.513838
_cell_length_b 14.690223
_cell_length_c 14.759956
_cell_angle_alpha 90.000000
_cell_angle_beta 141.666808
_cell_angle_gamma 90.000000
_cell_volume 1548.420188
_symmetry_space_group_name_H-M "P 21/C"
_symmetry_group_IT_number 14
_symmetry_cell_setting 'monoclinic'
loop_
_space_group_symop_operation_xyz
x,y,z
-x,1/2+y,1/2-z
-x,-y,-z
x,1/2-y,1/2+z
loop_
_atom_site_type_symbol
_atom_site_label
_atom_site_fract_x
_atom_site_fract_y
_atom_site_fract_z
Si Si1 0.383011 0.942128 0.699254
Si Si2 0.701205 0.942442 0.680969
Si Si3 0.921574 0.292826 0.291053
Si Si4 0.258667 0.330454 0.632525
Si Si5 0.890965 0.446711 0.138024
Si Si6 0.314234 0.364102 0.144662
Si Si7 0.914857 0.403602 0.836988
Si Si8 0.456460 0.625309 0.885328
O O1 0.572047 0.885043 0.809699
O O2 0.270212 0.936226 0.535437
O O3 0.264826 0.899325 0.709084
O O4 0.428248 0.048655 0.752545
O O5 0.817146 0.883229 0.824779
O O6 0.549164 0.875286 0.541998
O O7 0.827419 0.990274 0.682877
O O8 0.591470 0.020410 0.670421
O O9 0.942858 0.347004 0.208910
O O10 0.917487 0.184107 0.271078
O O11 0.730537 0.315425 0.227050
O O12 0.092598 0.321115 0.459736
O O13 0.328587 0.230020 0.709087
O O14 0.072361 0.500335 0.209567
O O15 0.393274 0.336687 0.093655
O O16 0.099861 0.397600 0.012113
#
# Coordination Sequence:
#
# PCOD8123397 Si02
#       8
#     4   4   4   4   4   4   4   4
#     4  11  20  41  65  85 113 158 206 236 283 352
#     4  10  18  35  61  84 108 144 204 236 283 338
#     4  10  23  37  56  91 123 151 191 241 310 336
#     4  11  22  36  55  92 123 149 185 251 300 345
#     4  10  20  40  65  84 112 159 200 243 277 353
#     4  10  19  36  58  85 114 152 195 236 294 340
#     4  10  21  40  59  89 116 156 200 245 282 349
#     4  10  17  35  61  80 108 152 194 243 273 349
#
# _framework density 20.666226000000002
#
# number of rings (size 3 to 8) (size 9 to 14) (size 15 to 20)
#    0.000    1.750    3.750    3.750    0.000    2.000 
#    6.750    3.125    0.000    0.000    0.000    0.000 
#    0.000    0.000    0.000    0.000    0.000    0.000 
#
# Total GULP energy -396527.240374 kJ/mol
# GULP energy per Si atom -12391.476262 kJ/mol
# Density = 2.061919 g / cm^3
# Si number density = 20.666226 Si / 1000 Ang^3
#
#
#
# Elastic Constant Matrix: (Units=GPa)
#
#
# Indices 1 2 3 4 5 6 
#
# 1 75.0263 5.4528 3.5687 0.0000 3.7594 0.0000
# 2 5.4528 83.4258 7.3821 0.0000 -8.3077 0.0000
# 3 3.5687 7.3821 37.5041 0.0000 3.5218 0.0000
# 4 0.0000 0.0000 0.0000 24.6419 0.0000 -1.6732
# 5 3.7594 -8.3077 3.5218 0.0000 28.9178 0.0000
# 6 0.0000 0.0000 0.0000 -1.6732 0.0000 24.6187
#
#
#
# Elastic Compliance Matrix: (Units=1/GPa)
#
#
# Indices 1 2 3 4 5 6 
#
# 1 0.013541 -0.000997 -0.000910 0.000000 -0.001936 0.000000
# 2 -0.000997 0.012709 -0.002794 0.000000 0.004121 0.000000
# 3 -0.000910 -0.002794 0.027681 0.000000 -0.004055 0.000000
# 4 0.000000 0.000000 0.000000 0.040769 0.000000 0.002771
# 5 -0.001936 0.004121 -0.004055 0.000000 0.036510 0.000000
# 6 0.000000 0.000000 0.000000 0.002771 0.000000 0.040808
#
#
# Mechanical properties :
#
#
# Convention : Reuss Voigt Hill
#
# Bulk Modulus (GPa) = 22.45724 25.41815 23.93769
# Shear Modulus (GPa) = 25.47566 27.60585 26.54075
#
# Velocity S-wave (km/s) = 3.51482 3.65882 3.58754
# Velocity P-wave (km/s) = 5.23089 5.49321 5.36365
#
# Compressibility (1/GPa) = 0.04452907
#
# Stress axis : x y z
#
# Youngs Moduli (GPa) = 73.84728 78.68132 36.12569
#
# Poissons Ratio (x) = 0.07847 0.03289
# Poissons Ratio (y) = 0.07365 0.10093
# Poissons Ratio (z) = 0.06723 0.21982
#
# Static dielectric constant tensor:
#      x y z
#    x 3.746940 0.000000 0.046100 
#    y 0.000000 4.170620 0.000000 
#    z 0.046100 0.000000 3.385640 
# 
# 
# High freq. dielectric constant tensor:
#      x y z
#    x 1.813280 0.000000 0.010250 
#    y 0.000000 1.820840 0.000000 
#    z 0.010250 0.000000 1.761090 
# 
# From -- ./inp_files/45133.got.cif
#   From: 2010.03.12/outbox.cif.g09.slc.cpg/sg14_23_cif.got.tgz:45133.got - 2010.03.31 13:35:05.
