data_PCOD8123865
_publ_section_title
;
Structure prediction by ZEFSAII (Michael W. Deem and Ramdas Pophale) SiO2 
 PCOD8123865
Probable space group: P 21/C
;
_chemical_formula_sum "Si O2"
_cell_formula_units_Z 24
_cell_length_a 10.164777
_cell_length_b 9.634163
_cell_length_c 17.168600
_cell_angle_alpha 90.000000
_cell_angle_beta 136.069181
_cell_angle_gamma 90.000000
_cell_volume 1166.472030
_symmetry_space_group_name_H-M "P 21/C"
_symmetry_group_IT_number 14
_symmetry_cell_setting 'monoclinic'
loop_
_space_group_symop_operation_xyz
x,y,z
-x,1/2+y,1/2-z
-x,-y,-z
x,1/2-y,1/2+z
loop_
_atom_site_type_symbol
_atom_site_label
_atom_site_fract_x
_atom_site_fract_y
_atom_site_fract_z
Si Si1 0.273038 0.586168 0.232868
Si Si2 0.976511 0.331199 0.327312
Si Si3 0.665408 0.807610 0.922589
Si Si4 0.011853 0.343519 0.160619
Si Si5 0.207054 0.999595 0.547615
Si Si6 0.123359 0.071085 0.119423
O O1 0.092336 0.686531 0.166104
O O2 0.453169 0.646247 0.357630
O O3 0.204820 0.434560 0.233704
O O4 0.331752 0.579709 0.166220
O O5 0.836211 0.454949 0.296907
O O6 0.187822 0.363750 0.449721
O O7 0.974454 0.316454 0.234536
O O8 0.689411 0.643138 0.926471
O O9 0.693629 0.874174 0.848680
O O10 0.024407 0.199796 0.119824
O O11 0.822553 0.418405 0.046058
O O12 0.000000 0.000000 0.500000
O O13 0.000000 0.000000 0.000000
#
# Coordination Sequence:
#
# PCOD8123865 Si02
#       6
#     4   4   4   4   4   4
#     4  11  23  40  69  93 124 176 214 262 326 383
#     4  11  23  40  65  96 132 167 217 268 326 392
#     4  11  22  40  65  95 128 160 224 268 311 388
#     4  11  21  42  67  88 131 177 203 264 339 381
#     4  10  18  41  66  87 119 175 212 254 323 385
#     4  10  21  37  62  97 122 166 222 265 306 380
#
# _framework density 20.574860999999999
#
# number of rings (size 3 to 8) (size 9 to 14) (size 15 to 20)
#    0.000    1.333    6.667    2.000    2.333    0.667 
#    0.000    2.500    0.000    0.000    0.000    0.000 
#    0.000    0.000    0.000    0.000    0.000    0.000 
#
# Total GULP energy -297361.107240 kJ/mol
# GULP energy per Si atom -12390.046135 kJ/mol
# Density = 2.052803 g / cm^3
# Si number density = 20.574861 Si / 1000 Ang^3
#
#
#
# Elastic Constant Matrix: (Units=GPa)
#
#
# Indices 1 2 3 4 5 6 
#
# 1 65.1939 46.1289 35.7227 0.0000 -24.2870 0.0000
# 2 46.1289 132.0686 37.8907 0.0000 -16.6153 0.0000
# 3 35.7227 37.8907 81.5347 0.0000 -14.2649 0.0000
# 4 0.0000 0.0000 0.0000 24.9321 0.0000 -5.8743
# 5 -24.2870 -16.6153 -14.2649 0.0000 32.2846 0.0000
# 6 0.0000 0.0000 0.0000 -5.8743 0.0000 13.5607
#
#
#
# Elastic Compliance Matrix: (Units=1/GPa)
#
#
# Indices 1 2 3 4 5 6 
#
# 1 0.029710 -0.006279 -0.007320 0.000000 0.015885 0.000000
# 2 -0.006279 0.010327 -0.002108 0.000000 -0.000340 0.000000
# 3 -0.007320 -0.002108 0.016580 0.000000 0.000734 0.000000
# 4 0.000000 0.000000 0.000000 0.044668 0.000000 0.019349
# 5 0.015885 -0.000340 0.000734 0.000000 0.043074 0.000000
# 6 0.000000 0.000000 0.000000 0.019349 0.000000 0.082124
#
#
# Mechanical properties :
#
#
# Convention : Reuss Voigt Hill
#
# Bulk Modulus (GPa) = 39.67618 57.58686 48.63152
# Shear Modulus (GPa) = 18.77611 24.75913 21.76762
#
# Velocity S-wave (km/s) = 3.02416 3.47272 3.25618
# Velocity P-wave (km/s) = 5.61425 6.64300 6.15017
#
# Compressibility (1/GPa) = 0.02520404
#
# Stress axis : x y z
#
# Youngs Moduli (GPa) = 33.65892 96.83602 60.31455
#
# Poissons Ratio (x) = 0.60799 0.44150
# Poissons Ratio (y) = 0.21133 0.12712
# Poissons Ratio (z) = 0.24638 0.20410
#
# Static dielectric constant tensor:
#      x y z
#    x 3.579900 0.000000 -0.235160 
#    y 0.000000 3.937230 0.000000 
#    z -0.235160 0.000000 3.944760 
# 
# 
# High freq. dielectric constant tensor:
#      x y z
#    x 1.776500 0.000000 -0.018010 
#    y 0.000000 1.818640 0.000000 
#    z -0.018010 0.000000 1.795940 
# 
# From -- ./inp_files/66924.got.cif
#   From: 2010.03.12/outbox.cif.g09.slc.cpg/sg14_34_cif.got.tgz:66924.got - 2010.03.31 13:35:05.
