data_PCOD8123616
_publ_section_title
;
Structure prediction by ZEFSAII (Michael W. Deem and Ramdas Pophale) SiO2 
 PCOD8123616
Probable space group: P 21/C
;
_chemical_formula_sum "Si O2"
_cell_formula_units_Z 32
_cell_length_a 19.244812
_cell_length_b 13.252575
_cell_length_c 11.570002
_cell_angle_alpha 90.000000
_cell_angle_beta 24.444822
_cell_angle_gamma 90.000000
_cell_volume 1221.111764
_symmetry_space_group_name_H-M "P 21/C"
_symmetry_group_IT_number 14
_symmetry_cell_setting 'monoclinic'
loop_
_space_group_symop_operation_xyz
x,y,z
-x,1/2+y,1/2-z
-x,-y,-z
x,1/2-y,1/2+z
loop_
_atom_site_type_symbol
_atom_site_label
_atom_site_fract_x
_atom_site_fract_y
_atom_site_fract_z
Si Si1 0.153024 0.613274 0.113673
Si Si2 0.787749 0.189780 0.863892
Si Si3 0.811459 0.960860 0.213662
Si Si4 0.727348 0.000134 0.083374
Si Si5 0.385514 0.941909 0.069519
Si Si6 0.942668 0.826739 0.720604
Si Si7 0.477679 0.902876 0.297136
Si Si8 0.642744 0.701746 0.120685
O O1 0.018990 0.543086 0.390172
O O2 0.050110 0.680372 0.175689
O O3 0.265251 0.697304 0.014996
O O4 0.278716 0.543558 0.847889
O O5 0.689806 0.131487 0.912580
O O6 0.970384 0.207880 0.530389
O O7 0.770759 0.118359 0.001840
O O8 0.732555 0.971804 0.208077
O O9 0.722998 0.058492 0.414963
O O10 0.738176 0.856957 0.373396
O O11 0.548146 0.964016 0.302520
O O12 0.879903 0.940424 0.790016
O O13 0.420975 0.053907 0.967020
O O14 0.555515 0.879056 0.838374
O O15 0.779587 0.758296 0.990568
O O16 0.508079 0.782939 0.268361
#
# Coordination Sequence:
#
# PCOD8123616 Si02
#       8
#     4   4   4   4   4   4   4   4
#     4  10  20  35  55  83 114 151 182 233 276 336
#     4  10  18  34  56  82 116 147 187 230 290 325
#     4  10  19  33  53  84 112 140 189 229 277 339
#     4   9  18  30  55  89 108 138 187 248 280 326
#     4   9  21  37  54  85 117 145 190 239 278 339
#     4   9  18  34  55  81 115 146 183 230 292 334
#     4   9  19  35  57  81 113 150 181 240 294 319
#     4  10  19  36  57  81 115 151 181 237 288 332
#
# _framework density 26.205627
#
# number of rings (size 3 to 8) (size 9 to 14) (size 15 to 20)
#    0.000    2.500    1.250    0.750    1.750    3.000 
#    9.000    0.000    0.000    8.250    0.000    0.000 
#    0.000    0.000    0.000    0.000    0.000    0.000 
#
# Total GULP energy -396441.881337 kJ/mol
# GULP energy per Si atom -12388.808792 kJ/mol
# Density = 2.614598 g / cm^3
# Si number density = 26.205627 Si / 1000 Ang^3
#
#
#
# Elastic Constant Matrix: (Units=GPa)
#
#
# Indices 1 2 3 4 5 6 
#
# 1 85.8806 15.8291 17.6707 0.0000 -3.6719 0.0000
# 2 15.8291 107.2974 6.0018 0.0000 20.6079 0.0000
# 3 17.6707 6.0018 105.1943 0.0000 19.3278 0.0000
# 4 0.0000 0.0000 0.0000 20.4903 0.0000 4.4395
# 5 -3.6719 20.6079 19.3278 0.0000 41.3116 0.0000
# 6 0.0000 0.0000 0.0000 4.4395 0.0000 26.9781
#
#
#
# Elastic Compliance Matrix: (Units=1/GPa)
#
#
# Indices 1 2 3 4 5 6 
#
# 1 0.012796 -0.002430 -0.002672 0.000000 0.003599 0.000000
# 2 -0.002430 0.010783 0.000898 0.000000 -0.006015 0.000000
# 3 -0.002672 0.000898 0.010973 0.000000 -0.005819 0.000000
# 4 0.000000 0.000000 0.000000 0.050608 0.000000 -0.008328
# 5 0.003599 -0.006015 -0.005819 0.000000 0.030249 0.000000
# 6 0.000000 0.000000 0.000000 -0.008328 0.000000 0.038438
#
#
# Mechanical properties :
#
#
# Convention : Reuss Voigt Hill
#
# Bulk Modulus (GPa) = 38.24839 41.93060 40.08950
# Shear Modulus (GPa) = 29.24505 35.01405 32.12955
#
# Velocity S-wave (km/s) = 3.34426 3.65927 3.50531
# Velocity P-wave (km/s) = 5.43500 5.82143 5.63153
#
# Compressibility (1/GPa) = 0.02614489
#
# Stress axis : x y z
#
# Youngs Moduli (GPa) = 78.15197 92.73518 91.13240
#
# Poissons Ratio (x) = 0.22530 0.24352
# Poissons Ratio (y) = 0.18987 -0.08185
# Poissons Ratio (z) = 0.20883 -0.08329
#
# Static dielectric constant tensor:
#      x y z
#    x 5.032170 0.000000 -0.229620 
#    y 0.000000 5.045150 0.000000 
#    z -0.229620 0.000000 5.284120 
# 
# 
# High freq. dielectric constant tensor:
#      x y z
#    x 2.073540 0.000000 -0.016900 
#    y 0.000000 2.058880 0.000000 
#    z -0.016900 0.000000 2.059300 
# 
# From -- ./inp_files/52085.got.cif
#   From: 2010.03.12/outbox.cif.g09.slc.cpg/sg14_27_cif.got.tgz:52085.got - 2010.03.31 13:35:05.
