data_PCOD8123869
_publ_section_title
;
Structure prediction by ZEFSAII (Michael W. Deem and Ramdas Pophale) SiO2 
 PCOD8123869
Probable space group: P 21/C
;
_chemical_formula_sum "Si O2"
_cell_formula_units_Z 28
_cell_length_a 9.200101
_cell_length_b 8.375779
_cell_length_c 20.581117
_cell_angle_alpha 90.000000
_cell_angle_beta 55.751618
_cell_angle_gamma 90.000000
_cell_volume 1310.946932
_symmetry_space_group_name_H-M "P 21/C"
_symmetry_group_IT_number 14
_symmetry_cell_setting 'monoclinic'
loop_
_space_group_symop_operation_xyz
x,y,z
-x,1/2+y,1/2-z
-x,-y,-z
x,1/2-y,1/2+z
loop_
_atom_site_type_symbol
_atom_site_label
_atom_site_fract_x
_atom_site_fract_y
_atom_site_fract_z
Si Si1 0.012403 0.974572 0.835097
Si Si2 0.298863 0.991987 0.532115
Si Si3 0.844945 0.336295 0.486522
Si Si4 0.026798 0.122604 0.696118
Si Si5 0.145656 0.366753 0.952472
Si Si6 0.336051 0.612231 0.338941
Si Si7 0.683942 0.038719 0.704824
O O1 0.939768 0.807906 0.826494
O O2 0.202748 0.956160 0.819332
O O3 0.868619 0.040364 0.921831
O O4 0.032438 0.100329 0.771807
O O5 0.254710 0.820633 0.513148
O O6 0.500000 0.000000 0.500000
O O7 0.181348 0.018364 0.625373
O O8 0.261454 0.133918 0.489026
O O9 0.731571 0.419625 0.571203
O O10 0.039346 0.297329 0.467721
O O11 0.841029 0.064758 0.715352
O O12 0.265632 0.402757 0.859917
O O13 0.000000 0.500000 0.000000
O O14 0.361786 0.800981 0.322664
O O15 0.518327 0.519501 0.287432
#
# Coordination Sequence:
#
# PCOD8123869 Si02
#       7
#     4   4   4   4   4   4   4
#     4  11  26  44  69  96 135 178 225 279 344 404
#     4  11  23  40  72  99 133 175 222 272 339 407
#     4  11  22  47  69  99 133 181 226 281 333 400
#     4  11  24  46  63  98 136 176 221 280 349 400
#     4  10  18  41  72  89 132 177 221 261 335 391
#     4  11  25  42  68 102 131 173 236 271 333 403
#     4  11  23  42  66  99 133 177 220 280 329 402
#
# _framework density 21.358605000000001
#
# number of rings (size 3 to 8) (size 9 to 14) (size 15 to 20)
#    0.000    1.143    5.714    2.143    4.000    1.143 
#    0.000    1.429    0.000    0.000    0.000    0.000 
#    0.000    0.000    0.000    0.000    0.000    0.000 
#
# Total GULP energy -347325.718167 kJ/mol
# GULP energy per Si atom -12404.489935 kJ/mol
# Density = 2.130999 g / cm^3
# Si number density = 21.358605 Si / 1000 Ang^3
#
#
#
# Elastic Constant Matrix: (Units=GPa)
#
#
# Indices 1 2 3 4 5 6 
#
# 1 111.7932 38.1453 71.5064 0.0000 -6.7706 0.0000
# 2 38.1453 53.9948 65.7113 0.0000 -6.3616 0.0000
# 3 71.5064 65.7113 194.5636 0.0000 14.1274 0.0000
# 4 0.0000 0.0000 0.0000 43.1117 0.0000 3.4776
# 5 -6.7706 -6.3616 14.1274 0.0000 33.2991 0.0000
# 6 0.0000 0.0000 0.0000 3.4776 0.0000 29.8711
#
#
#
# Elastic Compliance Matrix: (Units=1/GPa)
#
#
# Indices 1 2 3 4 5 6 
#
# 1 0.012887 -0.004548 -0.003433 0.000000 0.003208 0.000000
# 2 -0.004548 0.037369 -0.011763 0.000000 0.011205 0.000000
# 3 -0.003433 -0.011763 0.010925 0.000000 -0.007580 0.000000
# 4 0.000000 0.000000 0.000000 0.023415 0.000000 -0.002726
# 5 0.003208 0.011205 -0.007580 0.000000 0.036040 0.000000
# 6 0.000000 0.000000 0.000000 -0.002726 0.000000 0.033795
#
#
# Mechanical properties :
#
#
# Convention : Reuss Voigt Hill
#
# Bulk Modulus (GPa) = 46.09947 79.00862 62.55404
# Shear Modulus (GPa) = 24.85708 33.58894 29.22301
#
# Velocity S-wave (km/s) = 3.41515 3.96993 3.70294
# Velocity P-wave (km/s) = 6.09765 7.62139 6.90170
#
# Compressibility (1/GPa) = 0.02169222
#
# Stress axis : x y z
#
# Youngs Moduli (GPa) = 77.59600 26.76017 91.53638
#
# Poissons Ratio (x) = 0.12171 0.31426
# Poissons Ratio (y) = 0.35293 1.07673
# Poissons Ratio (z) = 0.26640 0.31478
#
# Static dielectric constant tensor:
#      x y z
#    x 1.631650 0.000000 -2.555320 
#    y 0.000000 3.928650 0.000000 
#    z -2.555320 0.000000 0.796200 
# 
# 
# High freq. dielectric constant tensor:
#      x y z
#    x 1.827100 0.000000 0.008530 
#    y 0.000000 1.837370 0.000000 
#    z 0.008530 0.000000 1.849420 
# 
# From -- ./inp_files/64950.got.cif
#   From: 2010.03.12/outbox.cif.g09.slc.cpg/sg14_33_cif.got.tgz:64950.got - 2010.03.31 13:35:05.
