data_PCOD8123761
_publ_section_title
;
Structure prediction by ZEFSAII (Michael W. Deem and Ramdas Pophale) SiO2 
 PCOD8123761
Probable space group: P 21/C
;
_chemical_formula_sum "Si O2"
_cell_formula_units_Z 32
_cell_length_a 21.948375
_cell_length_b 15.126853
_cell_length_c 15.305261
_cell_angle_alpha 90.000000
_cell_angle_beta 161.629693
_cell_angle_gamma 90.000000
_cell_volume 1601.470704
_symmetry_space_group_name_H-M "P 21/C"
_symmetry_group_IT_number 14
_symmetry_cell_setting 'monoclinic'
loop_
_space_group_symop_operation_xyz
x,y,z
-x,1/2+y,1/2-z
-x,-y,-z
x,1/2-y,1/2+z
loop_
_atom_site_type_symbol
_atom_site_label
_atom_site_fract_x
_atom_site_fract_y
_atom_site_fract_z
Si Si1 0.298746 0.093529 0.669392
Si Si2 0.229930 0.964914 0.224943
Si Si3 0.590871 0.673525 0.851239
Si Si4 0.928561 0.858158 0.925873
Si Si5 0.150466 0.584789 0.428263
Si Si6 0.508140 0.412491 0.624814
Si Si7 0.754639 0.264325 0.034318
Si Si8 0.572177 0.989315 0.810778
O O1 0.347016 0.172285 0.666375
O O2 0.074511 0.070733 0.364865
O O3 0.407450 0.005028 0.790974
O O4 0.365057 0.125431 0.855828
O O5 0.427771 0.942769 0.545472
O O6 0.173495 0.068677 0.151494
O O7 0.264355 0.936352 0.172179
O O8 0.057897 0.906954 0.030134
O O9 0.412030 0.739381 0.622401
O O10 0.539324 0.574457 0.806810
O O11 0.770259 0.700554 0.158037
O O12 0.051427 0.790658 0.151222
O O13 0.199760 0.684052 0.467807
O O14 0.224050 0.515179 0.455335
O O15 0.390483 0.424748 0.555926
O O16 0.684567 0.345205 0.879126
#
# Coordination Sequence:
#
# PCOD8123761 Si02
#       8
#     4   4   4   4   4   4   4   4
#     4  10  21  40  62  79 115 160 198 234 284 357
#     4  10  18  36  65  87 111 151 200 246 280 346
#     4   9  20  38  57  83 117 152 187 241 294 344
#     4  10  19  36  65  84 110 160 201 232 296 350
#     4  11  22  35  58  92 121 145 189 251 294 333
#     4  10  21  40  61  80 113 163 198 230 287 358
#     4  11  23  36  57  87 123 151 190 246 298 346
#     4   9  19  37  59  86 114 147 192 237 287 341
#
# _framework density 19.981632999999999
#
# number of rings (size 3 to 8) (size 9 to 14) (size 15 to 20)
#    0.000    2.000    2.500    1.125    1.750    1.500 
#    0.000    2.500    0.000    0.000    0.000    0.000 
#    0.000    0.000    0.000    0.000    0.000    0.000 
#
# Total GULP energy -396808.994419 kJ/mol
# GULP energy per Si atom -12400.281076 kJ/mol
# Density = 1.993615 g / cm^3
# Si number density = 19.981633 Si / 1000 Ang^3
#
#
#
# Elastic Constant Matrix: (Units=GPa)
#
#
# Indices 1 2 3 4 5 6 
#
# 1 134.3821 32.5415 53.1165 0.0000 -24.9336 0.0000
# 2 32.5415 50.8530 16.3759 0.0000 -15.9102 0.0000
# 3 53.1165 16.3759 93.3761 0.0000 -24.4495 0.0000
# 4 0.0000 0.0000 0.0000 15.5081 0.0000 -1.8057
# 5 -24.9336 -15.9102 -24.4495 0.0000 38.1571 0.0000
# 6 0.0000 0.0000 0.0000 -1.8057 0.0000 21.0869
#
#
#
# Elastic Compliance Matrix: (Units=1/GPa)
#
#
# Indices 1 2 3 4 5 6 
#
# 1 0.010879 -0.004775 -0.004820 0.000000 0.002030 0.000000
# 2 -0.004775 0.024965 0.000296 0.000000 0.007479 0.000000
# 3 -0.004820 0.000296 0.015148 0.000000 0.006680 0.000000
# 4 0.000000 0.000000 0.000000 0.065132 0.000000 0.005577
# 5 0.002030 0.007479 0.006680 0.000000 0.034933 0.000000
# 6 0.000000 0.000000 0.000000 0.005577 0.000000 0.047900
#
#
# Mechanical properties :
#
#
# Convention : Reuss Voigt Hill
#
# Bulk Modulus (GPa) = 30.86831 53.63102 42.24966
# Shear Modulus (GPa) = 21.89594 26.72224 24.30909
#
# Velocity S-wave (km/s) = 3.31388 3.66093 3.49172
# Velocity P-wave (km/s) = 5.48856 6.69091 6.11934
#
# Compressibility (1/GPa) = 0.03239568
#
# Stress axis : x y z
#
# Youngs Moduli (GPa) = 91.91650 40.05685 66.01362
#
# Poissons Ratio (x) = 0.19126 0.31818
# Poissons Ratio (y) = 0.43888 -0.01956
# Poissons Ratio (z) = 0.44302 -0.01187
#
# Static dielectric constant tensor:
#      x y z
#    x 3.907890 0.000000 -0.176280 
#    y 0.000000 3.394650 0.000000 
#    z -0.176280 0.000000 3.669660 
# 
# 
# High freq. dielectric constant tensor:
#      x y z
#    x 1.783760 0.000000 -0.007640 
#    y 0.000000 1.758980 0.000000 
#    z -0.007640 0.000000 1.779850 
# 
# From -- ./inp_files/50695.got.cif
#   From: 2010.03.12/outbox.cif.g09.slc.cpg/sg14_26_cif.got.tgz:50695.got - 2010.03.31 13:35:05.
