data_PCOD8123624
_publ_section_title
;
Structure prediction by ZEFSAII (Michael W. Deem and Ramdas Pophale) SiO2 
 PCOD8123624
Probable space group: P 21/C
;
_chemical_formula_sum "Si O2"
_cell_formula_units_Z 32
_cell_length_a 13.210632
_cell_length_b 11.949559
_cell_length_c 22.339264
_cell_angle_alpha 90.000000
_cell_angle_beta 27.568136
_cell_angle_gamma 90.000000
_cell_volume 1632.076867
_symmetry_space_group_name_H-M "P 21/C"
_symmetry_group_IT_number 14
_symmetry_cell_setting 'monoclinic'
loop_
_space_group_symop_operation_xyz
x,y,z
-x,1/2+y,1/2-z
-x,-y,-z
x,1/2-y,1/2+z
loop_
_atom_site_type_symbol
_atom_site_label
_atom_site_fract_x
_atom_site_fract_y
_atom_site_fract_z
Si Si1 0.242876 0.650030 0.804924
Si Si2 0.753140 0.982577 0.296784
Si Si3 0.119253 0.032518 0.561403
Si Si4 0.299269 0.620706 0.063564
Si Si5 0.515706 0.926437 0.797214
Si Si6 0.846404 0.330388 0.431784
Si Si7 0.576221 0.116534 0.287218
Si Si8 0.018205 0.167880 0.441606
O O1 0.412327 0.555474 0.737657
O O2 0.374967 0.758421 0.716788
O O3 0.100332 0.607857 0.822637
O O4 0.074746 0.690983 0.944211
O O5 0.744121 0.092450 0.344288
O O6 0.730230 0.027702 0.241022
O O7 0.554554 0.897440 0.414768
O O8 0.979873 0.917098 0.186777
O O9 0.327590 0.106441 0.438024
O O10 0.144755 0.967621 0.609967
O O11 0.094555 0.947338 0.519144
O O12 0.231695 0.746441 0.080235
O O13 0.389125 0.904435 0.801411
O O14 0.720356 0.842143 0.693441
O O15 0.360245 0.898795 0.934751
O O16 0.959436 0.266138 0.427085
#
# Coordination Sequence:
#
# PCOD8123624 Si02
#       8
#     4   4   4   4   4   4   4   4
#     4  11  20  33  55  85 118 157 193 233 284 353
#     4  10  23  41  59  89 114 152 204 238 284 352
#     4   9  18  36  56  78 108 154 200 230 281 349
#     4   9  21  43  66  78 111 160 200 240 286 347
#     4  11  21  35  55  88 121 152 195 235 285 361
#     4  11  22  37  62  90 118 151 192 247 296 336
#     4  11  21  34  56  84 122 152 183 242 295 341
#     4  10  18  34  57  81 114 161 193 218 285 367
#
# _framework density 19.606919000000001
#
# number of rings (size 3 to 8) (size 9 to 14) (size 15 to 20)
#    0.000    1.750    3.750    1.500    0.000    3.500 
#    0.000    2.500    0.000    8.250    0.000    0.000 
#    0.000    0.000    0.000    0.000    0.000    0.000 
#
# Total GULP energy -396818.733801 kJ/mol
# GULP energy per Si atom -12400.585431 kJ/mol
# Density = 1.956229 g / cm^3
# Si number density = 19.606919 Si / 1000 Ang^3
#
#
#
# Elastic Constant Matrix: (Units=GPa)
#
#
# Indices 1 2 3 4 5 6 
#
# 1 74.6126 20.1886 39.5496 0.0000 -7.5994 0.0000
# 2 20.1886 89.2360 54.2658 0.0000 -8.0772 0.0000
# 3 39.5496 54.2658 95.7653 0.0000 -8.7402 0.0000
# 4 0.0000 0.0000 0.0000 27.6480 0.0000 -5.1423
# 5 -7.5994 -8.0772 -8.7402 0.0000 19.0341 0.0000
# 6 0.0000 0.0000 0.0000 -5.1423 0.0000 27.8591
#
#
#
# Elastic Compliance Matrix: (Units=1/GPa)
#
#
# Indices 1 2 3 4 5 6 
#
# 1 0.017464 0.000876 -0.007346 0.000000 0.003971 0.000000
# 2 0.000876 0.017300 -0.009877 0.000000 0.003156 0.000000
# 3 -0.007346 -0.009877 0.019228 0.000000 0.001705 0.000000
# 4 0.000000 0.000000 0.000000 0.037455 0.000000 0.006913
# 5 0.003971 0.003156 0.001705 0.000000 0.056245 0.000000
# 6 0.000000 0.000000 0.000000 0.006913 0.000000 0.037171
#
#
# Mechanical properties :
#
#
# Convention : Reuss Voigt Hill
#
# Bulk Modulus (GPa) = 46.95288 54.18021 50.56654
# Shear Modulus (GPa) = 22.25618 24.61557 23.43587
#
# Velocity S-wave (km/s) = 3.37281 3.54708 3.46104
# Velocity P-wave (km/s) = 6.25834 6.66850 6.46667
#
# Compressibility (1/GPa) = 0.02129795
#
# Stress axis : x y z
#
# Youngs Moduli (GPa) = 57.26057 57.80359 52.00639
#
# Poissons Ratio (x) = -0.05062 0.38205
# Poissons Ratio (y) = -0.05015 0.51365
# Poissons Ratio (z) = 0.42065 0.57091
#
# Static dielectric constant tensor:
#      x y z
#    x 3.746440 0.000000 -0.177700 
#    y 0.000000 3.480420 0.000000 
#    z -0.177700 0.000000 3.340300 
# 
# 
# High freq. dielectric constant tensor:
#      x y z
#    x 1.766180 0.000000 -0.014120 
#    y 0.000000 1.756940 0.000000 
#    z -0.014120 0.000000 1.748000 
# 
# From -- ./inp_files/67402.got.cif
#   From: 2010.03.12/outbox.cif.g09.slc.cpg/sg14_34_cif.got.tgz:67402.got - 2010.03.31 13:35:05.
