data_PCOD8123018
_publ_section_title
;
Structure prediction by ZEFSAII (Michael W. Deem and Ramdas Pophale) SiO2 
 PCOD8123018
Probable space group: P 2/C
;
_chemical_formula_sum "Si O2"
_cell_formula_units_Z 20
_cell_length_a 9.371319
_cell_length_b 5.235637
_cell_length_c 17.592933
_cell_angle_alpha 90.000000
_cell_angle_beta 84.442842
_cell_angle_gamma 90.000000
_cell_volume 859.137233
_symmetry_space_group_name_H-M "P 2/C"
_symmetry_group_IT_number 13
_symmetry_cell_setting 'monoclinic'
loop_
_space_group_symop_operation_xyz
x,y,z
-x,y,1/2-z
-x,-y,-z
x,-y,1/2+z
loop_
_atom_site_type_symbol
_atom_site_label
_atom_site_fract_x
_atom_site_fract_y
_atom_site_fract_z
Si Si1 0.779205 0.852544 0.673798
Si Si2 0.425747 0.200333 0.448254
Si Si3 0.169033 0.629897 0.239229
Si Si4 0.975665 0.752928 0.952455
Si Si5 0.294508 0.511860 0.579554
O O1 0.652713 0.918985 0.620688
O O2 0.743757 0.608748 0.728625
O O3 0.925346 0.767881 0.626063
O O4 0.798054 0.106697 0.720955
O O5 0.302585 0.344861 0.502095
O O6 0.546102 0.391577 0.409381
O O7 0.500000 0.000000 0.500000
O O8 0.228600 0.659248 0.150565
O O9 0.000000 0.574782 0.250000
O O10 0.811609 0.749156 0.931444
O O11 0.000000 0.500000 0.000000
O O12 0.000000 0.000000 0.000000
#
# Coordination Sequence:
#
# PCOD8123018 Si02
#       5
#     4   4   4   4   4
#     4  12  27  48  78 110 148 198 249 307 382 448
#     4  11  27  50  77 108 150 200 259 310 372 454
#     4  12  28  49  75 112 154 194 247 312 381 452
#     4  12  24  43  78 112 142 191 258 315 368 438
#     4  11  27  48  74 110 153 201 248 321 376 454
#
# _framework density 23.279170000000001
#
# number of rings (size 3 to 8) (size 9 to 14) (size 15 to 20)
#    0.000    0.400    4.000    3.000    8.400    0.800 
#    0.000    0.000    0.000    0.000    0.000    0.000 
#    0.000    0.000    0.000    0.000    0.000    0.000 
#
# Total GULP energy -248060.478227 kJ/mol
# GULP energy per Si atom -12403.023911 kJ/mol
# Density = 2.322619 g / cm^3
# Si number density = 23.279170 Si / 1000 Ang^3
#
#
#
# Elastic Constant Matrix: (Units=GPa)
#
#
# Indices 1 2 3 4 5 6 
#
# 1 112.8749 38.9629 68.6412 0.0000 2.0181 0.0000
# 2 38.9629 164.4411 65.5529 0.0000 11.0338 0.0000
# 3 68.6412 65.5529 138.2546 0.0000 -3.6814 0.0000
# 4 0.0000 0.0000 0.0000 56.1026 0.0000 14.9458
# 5 2.0181 11.0338 -3.6814 0.0000 44.3326 0.0000
# 6 0.0000 0.0000 0.0000 14.9458 0.0000 25.6181
#
#
#
# Elastic Compliance Matrix: (Units=1/GPa)
#
#
# Indices 1 2 3 4 5 6 
#
# 1 0.012781 -0.000523 -0.006123 0.000000 -0.000960 0.000000
# 2 -0.000523 0.007733 -0.003465 0.000000 -0.002189 0.000000
# 3 -0.006123 -0.003465 0.011973 0.000000 0.002135 0.000000
# 4 0.000000 0.000000 0.000000 0.021105 0.000000 -0.012313
# 5 -0.000960 -0.002189 0.002135 0.000000 0.023323 0.000000
# 6 0.000000 0.000000 0.000000 -0.012313 0.000000 0.046218
#
#
# Mechanical properties :
#
#
# Convention : Reuss Voigt Hill
#
# Bulk Modulus (GPa) = 81.53761 84.65386 83.09573
# Shear Modulus (GPa) = 33.91144 41.37155 37.64150
#
# Velocity S-wave (km/s) = 3.82085 4.22025 4.02551
# Velocity P-wave (km/s) = 7.38697 7.75828 7.57490
#
# Compressibility (1/GPa) = 0.01226428
#
# Stress axis : x y z
#
# Youngs Moduli (GPa) = 78.24414 129.30866 83.52168
#
# Poissons Ratio (x) = 0.06762 0.51140
# Poissons Ratio (y) = 0.04092 0.28944
# Poissons Ratio (z) = 0.47908 0.44811
#
# Static dielectric constant tensor:
#      x y z
#    x 4.467300 0.000000 -0.048290 
#    y 0.000000 4.168120 0.000000 
#    z -0.048290 0.000000 4.255610 
# 
# 
# High freq. dielectric constant tensor:
#      x y z
#    x 1.930420 0.000000 -0.001120 
#    y 0.000000 1.922950 0.000000 
#    z -0.001120 0.000000 1.931140 
# 
# From -- ./inp_files/62385.got.cif
#   From: 2010.06.25/outbox.cif.g09.slc.cpg/sg13_32_cif.got.tgz:62385.got - 2010.06.28 04:50:58.
