data_PCOD8123828
_publ_section_title
;
Structure prediction by ZEFSAII (Michael W. Deem and Ramdas Pophale) SiO2 
 PCOD8123828
Probable space group: P 21/C
;
_chemical_formula_sum "Si O2"
_cell_formula_units_Z 32
_cell_length_a 25.182436
_cell_length_b 13.954890
_cell_length_c 9.141501
_cell_angle_alpha 90.000000
_cell_angle_beta 152.900816
_cell_angle_gamma 90.000000
_cell_volume 1463.392336
_symmetry_space_group_name_H-M "P 21/C"
_symmetry_group_IT_number 14
_symmetry_cell_setting 'monoclinic'
loop_
_space_group_symop_operation_xyz
x,y,z
-x,1/2+y,1/2-z
-x,-y,-z
x,1/2-y,1/2+z
loop_
_atom_site_type_symbol
_atom_site_label
_atom_site_fract_x
_atom_site_fract_y
_atom_site_fract_z
Si Si1 0.654374 0.559500 0.774725
Si Si2 0.352380 0.651072 0.302261
Si Si3 0.157187 0.332799 0.918680
Si Si4 0.072113 0.875438 0.778695
Si Si5 0.814531 0.637633 0.679538
Si Si6 0.710882 0.493762 0.226310
Si Si7 0.434643 0.820719 0.684726
Si Si8 0.097863 0.705425 0.648016
O O1 0.610216 0.460241 0.592261
O O2 0.568394 0.646218 0.522955
O O3 0.783081 0.584377 0.031511
O O4 0.652799 0.547309 0.945890
O O5 0.429367 0.716058 0.599035
O O6 0.373662 0.688549 0.191354
O O7 0.214617 0.657976 0.999921
O O8 0.190840 0.231178 0.933449
O O9 0.017557 0.348562 0.572250
O O10 0.209516 0.336284 0.211205
O O11 0.092742 0.817419 0.678706
O O12 0.940300 0.913795 0.468806
O O13 0.158236 0.965106 0.001450
O O14 0.096687 0.799831 0.969763
O O15 0.716504 0.563750 0.380227
O O16 0.637398 0.398840 0.087743
#
# Coordination Sequence:
#
# PCOD8123828 Si02
#       8
#     4   4   4   4   4   4   4   4
#     4  11  25  43  63  94 125 170 213 256 317 373
#     4  11  21  43  66  91 126 160 213 260 318 370
#     4  10  23  40  61  92 130 164 212 255 316 374
#     4  10  19  36  60  96 126 163 206 253 317 375
#     4  10  22  38  61  91 128 168 203 258 312 376
#     4  11  20  40  62  89 128 164 210 254 315 375
#     4  11  25  42  67  92 123 169 212 265 311 371
#     4  10  18  38  63  91 126 165 204 257 316 368
#
# _framework density 21.866997999999999
#
# number of rings (size 3 to 8) (size 9 to 14) (size 15 to 20)
#    0.000    1.500    3.750    2.625    0.000    5.500 
#    2.250    1.250    0.000    0.000    0.000    0.000 
#    0.000    0.000    0.000    0.000    0.000    0.000 
#
# Total GULP energy -396815.108552 kJ/mol
# GULP energy per Si atom -12400.472142 kJ/mol
# Density = 2.181723 g / cm^3
# Si number density = 21.866998 Si / 1000 Ang^3
#
#
#
# Elastic Constant Matrix: (Units=GPa)
#
#
# Indices 1 2 3 4 5 6 
#
# 1 49.7429 14.5224 19.3771 0.0000 6.0107 0.0000
# 2 14.5224 67.4264 43.4000 0.0000 -0.6682 0.0000
# 3 19.3771 43.4000 92.5135 0.0000 1.9344 0.0000
# 4 0.0000 0.0000 0.0000 49.1828 0.0000 -2.0693
# 5 6.0107 -0.6682 1.9344 0.0000 23.6139 0.0000
# 6 0.0000 0.0000 0.0000 -2.0693 0.0000 29.4218
#
#
#
# Elastic Compliance Matrix: (Units=1/GPa)
#
#
# Indices 1 2 3 4 5 6 
#
# 1 0.022918 -0.002834 -0.003353 0.000000 -0.005639 0.000000
# 2 -0.002834 0.021645 -0.009605 0.000000 0.002121 0.000000
# 3 -0.003353 -0.009605 0.016033 0.000000 -0.000732 0.000000
# 4 0.000000 0.000000 0.000000 0.020393 0.000000 0.001434
# 5 -0.005639 0.002121 -0.000732 0.000000 0.043903 0.000000
# 6 0.000000 0.000000 0.000000 0.001434 0.000000 0.034089
#
#
# Mechanical properties :
#
#
# Convention : Reuss Voigt Hill
#
# Bulk Modulus (GPa) = 34.46806 40.47575 37.47190
# Shear Modulus (GPa) = 24.97073 29.26925 27.11999
#
# Velocity S-wave (km/s) = 3.38292 3.66254 3.52550
# Velocity P-wave (km/s) = 5.57276 6.03620 5.80911
#
# Compressibility (1/GPa) = 0.02901237
#
# Stress axis : x y z
#
# Youngs Moduli (GPa) = 43.63332 46.20089 62.37301
#
# Poissons Ratio (x) = 0.13093 0.20913
# Poissons Ratio (y) = 0.12365 0.59907
# Poissons Ratio (z) = 0.14630 0.44375
#
# Static dielectric constant tensor:
#      x y z
#    x 3.830400 0.000000 0.065690 
#    y 0.000000 3.734100 0.000000 
#    z 0.065690 0.000000 4.026850 
# 
# 
# High freq. dielectric constant tensor:
#      x y z
#    x 1.845010 0.000000 0.005310 
#    y 0.000000 1.846150 0.000000 
#    z 0.005310 0.000000 1.865020 
# 
# From -- ./inp_files/19556.got.cif
#   From: 2010.03.12/outbox.cif.g09.slc.cpg/sg14_10_cif.got.tgz:19556.got - 2010.03.31 13:35:05.
