data_PCOD8123920
_publ_section_title
;
Structure prediction by ZEFSAII (Michael W. Deem and Ramdas Pophale) SiO2 
 PCOD8123920
Probable space group: P 21/C
;
_chemical_formula_sum "Si O2"
_cell_formula_units_Z 28
_cell_length_a 21.035643
_cell_length_b 9.607911
_cell_length_c 9.023448
_cell_angle_alpha 90.000000
_cell_angle_beta 52.067063
_cell_angle_gamma 90.000000
_cell_volume 1438.421277
_symmetry_space_group_name_H-M "P 21/C"
_symmetry_group_IT_number 14
_symmetry_cell_setting 'monoclinic'
loop_
_space_group_symop_operation_xyz
x,y,z
-x,1/2+y,1/2-z
-x,-y,-z
x,1/2-y,1/2+z
loop_
_atom_site_type_symbol
_atom_site_label
_atom_site_fract_x
_atom_site_fract_y
_atom_site_fract_z
Si Si1 0.947895 0.116080 0.241684
Si Si2 0.225402 0.580111 0.955769
Si Si3 0.075562 0.597508 0.562789
Si Si4 0.247293 0.649374 0.255144
Si Si5 0.389567 0.001921 0.168519
Si Si6 0.491529 0.006055 0.756266
Si Si7 0.582133 0.171523 0.386757
O O1 0.866541 0.026411 0.398394
O O2 0.942797 0.270994 0.309369
O O3 0.956411 0.133942 0.054212
O O4 0.024940 0.034234 0.197075
O O5 0.227471 0.691741 0.821924
O O6 0.293584 0.464193 0.817831
O O7 0.254413 0.648708 0.068006
O O8 0.171005 0.558375 0.423664
O O9 0.330991 0.597854 0.207339
O O10 0.434691 0.056914 0.251226
O O11 0.406353 0.836027 0.133397
O O12 0.426200 0.070547 0.966785
O O13 0.520203 0.127899 0.605210
O O14 0.451211 0.880132 0.723026
#
# Coordination Sequence:
#
# PCOD8123920 Si02
#       7
#     4   4   4   4   4   4   4
#     4   9  18  33  54  80 108 137 172 214 259 308
#     4   9  17  29  49  75  98 126 165 212 257 297
#     4   9  18  33  54  80 108 137 172 214 259 308
#     4   9  17  29  49  75  98 126 165 212 257 297
#     4  10  19  32  49  71 100 127 163 215 246 295
#     4  10  20  30  48  74  92 128 164 196 262 296
#     4  10  19  32  49  71 100 127 163 215 246 295
#
# _framework density 19.465786000000001
#
# number of rings (size 3 to 8) (size 9 to 14) (size 15 to 20)
#    0.000    2.571    1.429    0.857    6.000    0.571 
#    0.000    0.000    0.000   10.286    0.000    0.000 
#    0.000    0.000    0.000    0.000    0.000    0.000 
#
# Total GULP energy -346935.392222 kJ/mol
# GULP energy per Si atom -12390.549722 kJ/mol
# Density = 1.942148 g / cm^3
# Si number density = 19.465786 Si / 1000 Ang^3
#
#
#
# Elastic Constant Matrix: (Units=GPa)
#
#
# Indices 1 2 3 4 5 6 
#
# 1 92.4256 15.7227 34.0595 0.0000 -9.7880 0.0000
# 2 15.7227 26.0483 7.0119 0.0000 0.2506 0.0000
# 3 34.0595 7.0119 83.0651 0.0000 -0.9375 0.0000
# 4 0.0000 0.0000 0.0000 25.0562 0.0000 -3.6587
# 5 -9.7880 0.2506 -0.9375 0.0000 31.2000 0.0000
# 6 0.0000 0.0000 0.0000 -3.6587 0.0000 26.1272
#
#
#
# Elastic Compliance Matrix: (Units=1/GPa)
#
#
# Indices 1 2 3 4 5 6 
#
# 1 0.014485 -0.007368 -0.005267 0.000000 0.004445 0.000000
# 2 -0.007368 0.043036 -0.000642 0.000000 -0.002676 0.000000
# 3 -0.005267 -0.000642 0.014239 0.000000 -0.001219 0.000000
# 4 0.000000 0.000000 0.000000 0.040743 0.000000 0.005705
# 5 0.004445 -0.002676 -0.001219 0.000000 0.033431 0.000000
# 6 0.000000 0.000000 0.000000 0.005705 0.000000 0.039073
#
#
# Mechanical properties :
#
#
# Convention : Reuss Voigt Hill
#
# Bulk Modulus (GPa) = 22.12112 35.01413 28.56762
# Shear Modulus (GPa) = 22.06253 26.12636 24.09444
#
# Velocity S-wave (km/s) = 3.37025 3.66754 3.52203
# Velocity P-wave (km/s) = 5.15108 5.99675 5.58993
#
# Compressibility (1/GPa) = 0.04520567
#
# Stress axis : x y z
#
# Youngs Moduli (GPa) = 69.03918 23.23639 70.23042
#
# Poissons Ratio (x) = 0.17120 0.36991
# Poissons Ratio (y) = 0.50866 0.04509
# Poissons Ratio (z) = 0.36363 0.01492
#
# Static dielectric constant tensor:
#      x y z
#    x 3.935560 0.000000 -0.287740 
#    y 0.000000 3.007770 0.000000 
#    z -0.287740 0.000000 3.995060 
# 
# 
# High freq. dielectric constant tensor:
#      x y z
#    x 1.765180 0.000000 -0.004400 
#    y 0.000000 1.688700 0.000000 
#    z -0.004400 0.000000 1.782440 
# 
# From -- ./inp_files/18857.got.cif
#   From: 2010.03.12/outbox.cif.g09.slc.cpg/sg14_10_cif.got.tgz:18857.got - 2010.03.31 13:35:05.
