data_PCOD8123760
_publ_section_title
;
Structure prediction by ZEFSAII (Michael W. Deem and Ramdas Pophale) SiO2 
 PCOD8123760
Probable space group: P 21/C
;
_chemical_formula_sum "Si O2"
_cell_formula_units_Z 32
_cell_length_a 8.853277
_cell_length_b 12.054389
_cell_length_c 30.659570
_cell_angle_alpha 90.000000
_cell_angle_beta 150.355260
_cell_angle_gamma 90.000000
_cell_volume 1618.406357
_symmetry_space_group_name_H-M "P 21/C"
_symmetry_group_IT_number 14
_symmetry_cell_setting 'monoclinic'
loop_
_space_group_symop_operation_xyz
x,y,z
-x,1/2+y,1/2-z
-x,-y,-z
x,1/2-y,1/2+z
loop_
_atom_site_type_symbol
_atom_site_label
_atom_site_fract_x
_atom_site_fract_y
_atom_site_fract_z
Si Si1 0.369278 0.876208 0.591048
Si Si2 0.373091 0.771043 0.171000
Si Si3 0.358785 0.261763 0.417826
Si Si4 0.355773 0.126142 0.592340
Si Si5 0.637685 0.996081 0.860013
Si Si6 0.648279 0.227008 0.236766
Si Si7 0.674087 0.018033 0.970766
Si Si8 0.652123 0.774822 0.987812
O O1 0.508740 0.809471 0.667456
O O2 0.473453 0.822472 0.571975
O O3 0.006615 0.875224 0.500837
O O4 0.491336 0.002080 0.624249
O O5 0.460681 0.725362 0.240385
O O6 0.501895 0.896266 0.199347
O O7 0.013725 0.777533 0.073113
O O8 0.464889 0.387756 0.438905
O O9 0.440016 0.227388 0.487937
O O10 0.999337 0.258138 0.319422
O O11 0.452424 0.182528 0.661716
O O12 0.490650 0.195200 0.585108
O O13 0.406195 0.895175 0.795721
O O14 0.660891 0.029718 0.915862
O O15 0.973772 0.964686 0.925941
O O16 0.535374 0.900566 0.951660
#
# Coordination Sequence:
#
# PCOD8123760 Si02
#       8
#     4   4   4   4   4   4   4   4
#     4  10  21  40  62  79 112 159 197 229 273 347
#     4   9  20  37  58  86 114 149 192 236 283 335
#     4  11  22  36  57  87 123 146 179 244 300 330
#     4  10  21  40  61  81 111 157 201 227 270 351
#     4  10  19  36  65  85 107 153 200 235 274 341
#     4  11  23  36  57  88 121 146 182 244 298 334
#     4  10  18  36  65  86 108 148 201 238 272 340
#     4   9  19  37  59  86 114 148 190 235 284 335
#
# _framework density 19.772538000000001
#
# number of rings (size 3 to 8) (size 9 to 14) (size 15 to 20)
#    0.000    2.000    2.500    1.125    1.750    1.500 
#    0.000    2.500    0.000    0.000    0.000    0.000 
#    0.000    0.000    0.000    0.000    0.000    0.000 
#
# Total GULP energy -396825.078131 kJ/mol
# GULP energy per Si atom -12400.783692 kJ/mol
# Density = 1.972753 g / cm^3
# Si number density = 19.772538 Si / 1000 Ang^3
#
#
#
# Elastic Constant Matrix: (Units=GPa)
#
#
# Indices 1 2 3 4 5 6 
#
# 1 94.5328 49.7698 15.6053 0.0000 -18.4694 0.0000
# 2 49.7698 151.6004 31.9885 0.0000 -8.7145 0.0000
# 3 15.6053 31.9885 47.8122 0.0000 -11.9596 0.0000
# 4 0.0000 0.0000 0.0000 19.5162 0.0000 -2.4767
# 5 -18.4694 -8.7145 -11.9596 0.0000 23.2556 0.0000
# 6 0.0000 0.0000 0.0000 -2.4767 0.0000 25.1630
#
#
#
# Elastic Compliance Matrix: (Units=1/GPa)
#
#
# Indices 1 2 3 4 5 6 
#
# 1 0.014838 -0.004425 0.000746 0.000000 0.010510 0.000000
# 2 -0.004425 0.009001 -0.005295 0.000000 -0.002864 0.000000
# 3 0.000746 -0.005295 0.027389 0.000000 0.012694 0.000000
# 4 0.000000 0.000000 0.000000 0.051888 0.000000 0.005107
# 5 0.010510 -0.002864 0.012694 0.000000 0.056802 0.000000
# 6 0.000000 0.000000 0.000000 0.005107 0.000000 0.040244
#
#
# Mechanical properties :
#
#
# Convention : Reuss Voigt Hill
#
# Bulk Modulus (GPa) = 30.04558 54.29695 42.17126
# Shear Modulus (GPa) = 21.81484 26.69244 24.25364
#
# Velocity S-wave (km/s) = 3.32518 3.67819 3.50613
# Velocity P-wave (km/s) = 5.47458 6.74975 6.14533
#
# Compressibility (1/GPa) = 0.03328277
#
# Stress axis : x y z
#
# Youngs Moduli (GPa) = 67.39452 111.09359 36.51089
#
# Poissons Ratio (x) = 0.49154 -0.02725
# Poissons Ratio (y) = 0.29819 0.19331
# Poissons Ratio (z) = -0.05029 0.58819
#
# Static dielectric constant tensor:
#      x y z
#    x 3.650480 0.000000 -0.208920 
#    y 0.000000 3.830310 0.000000 
#    z -0.208920 0.000000 3.354060 
# 
# 
# High freq. dielectric constant tensor:
#      x y z
#    x 1.770130 0.000000 -0.020830 
#    y 0.000000 1.782400 0.000000 
#    z -0.020830 0.000000 1.745210 
# 
# From -- ./inp_files/79623.got.cif
#   From: 2010.03.12/outbox.cif.g09.slc.cpg/sg14_40_cif.got.tgz:79623.got - 2010.03.31 13:35:05.
