data_PCOD8123007
_publ_section_title
;
Structure prediction by ZEFSAII (Michael W. Deem and Ramdas Pophale) SiO2 
 PCOD8123007
Probable space group: P 2/C
;
_chemical_formula_sum "Si O2"
_cell_formula_units_Z 22
_cell_length_a 13.926507
_cell_length_b 5.360091
_cell_length_c 22.744669
_cell_angle_alpha 90.000000
_cell_angle_beta 30.612020
_cell_angle_gamma 90.000000
_cell_volume 864.571919
_symmetry_space_group_name_H-M "P 2/C"
_symmetry_group_IT_number 13
_symmetry_cell_setting 'monoclinic'
loop_
_space_group_symop_operation_xyz
x,y,z
-x,y,1/2-z
-x,-y,-z
x,-y,1/2+z
loop_
_atom_site_type_symbol
_atom_site_label
_atom_site_fract_x
_atom_site_fract_y
_atom_site_fract_z
Si Si1 0.985016 0.946143 0.076118
Si Si2 0.763606 0.563057 0.703428
Si Si3 0.500000 0.422860 0.750000
Si Si4 0.787910 0.409471 0.381174
Si Si5 0.470784 0.248156 0.077330
Si Si6 0.663499 0.129836 0.553824
O O1 0.874185 0.184093 0.161048
O O2 0.890308 0.682205 0.138945
O O3 0.000000 0.000000 0.000000
O O4 0.189734 0.926269 0.998301
O O5 0.669441 0.589628 0.687685
O O6 0.602839 0.536083 0.838618
O O7 0.567230 0.255199 0.660520
O O8 0.687734 0.207729 0.389898
O O9 0.664685 0.663407 0.444000
O O10 0.000000 0.469820 0.250000
O O11 0.786347 0.315386 0.448882
O O12 0.502901 0.000339 0.098839
#
# Coordination Sequence:
#
# PCOD8123007 Si02
#       6
#     4   4   2   4   4   4
#     4  12  28  45  77 114 162 205 268 319 401 479
#     4  12  27  49  75 114 159 209 261 331 396 481
#     4  12  26  46  80 112 162 208 266 324 418 476
#     4  11  26  51  76 116 151 212 271 335 397 476
#     4  11  27  47  83 108 161 203 278 324 412 466
#     4  12  27  49  77 116 157 214 262 339 401 485
#
# _framework density 25.446121000000002
#
# number of rings (size 3 to 8) (size 9 to 14) (size 15 to 20)
#    0.000    0.364    3.636    3.273    7.636    1.455 
#    3.273    0.000    0.000    0.000    0.000    0.000 
#    0.000    0.000    0.000    0.000    0.000    0.000 
#
# Total GULP energy -272790.932034 kJ/mol
# GULP energy per Si atom -12399.587820 kJ/mol
# Density = 2.538820 g / cm^3
# Si number density = 25.446121 Si / 1000 Ang^3
#
#
#
# Elastic Constant Matrix: (Units=GPa)
#
#
# Indices 1 2 3 4 5 6 
#
# 1 127.3939 9.8988 33.8447 0.0000 6.4313 0.0000
# 2 9.8988 86.1571 25.7154 0.0000 6.0425 0.0000
# 3 33.8447 25.7154 152.5806 0.0000 18.7884 0.0000
# 4 0.0000 0.0000 0.0000 24.1365 0.0000 3.9195
# 5 6.4313 6.0425 18.7884 0.0000 49.5180 0.0000
# 6 0.0000 0.0000 0.0000 3.9195 0.0000 46.8193
#
#
#
# Elastic Compliance Matrix: (Units=1/GPa)
#
#
# Indices 1 2 3 4 5 6 
#
# 1 0.008363 -0.000416 -0.001739 0.000000 -0.000376 0.000000
# 2 -0.000416 0.012268 -0.001886 0.000000 -0.000728 0.000000
# 3 -0.001739 -0.001886 0.007554 0.000000 -0.002410 0.000000
# 4 0.000000 0.000000 0.000000 0.042002 0.000000 -0.003516
# 5 -0.000376 -0.000728 -0.002410 0.000000 0.021247 0.000000
# 6 0.000000 0.000000 0.000000 -0.003516 0.000000 0.021653
#
#
# Mechanical properties :
#
#
# Convention : Reuss Voigt Hill
#
# Bulk Modulus (GPa) = 49.73848 56.11660 52.92754
# Shear Modulus (GPa) = 39.10244 43.87294 41.48769
#
# Velocity S-wave (km/s) = 3.92430 4.15679 4.04222
# Velocity P-wave (km/s) = 6.33423 6.71860 6.52924
#
# Compressibility (1/GPa) = 0.02010516
#
# Stress axis : x y z
#
# Youngs Moduli (GPa) = 119.57650 81.51044 132.37622
#
# Poissons Ratio (x) = 0.03387 0.23016
# Poissons Ratio (y) = 0.04969 0.24965
# Poissons Ratio (z) = 0.20791 0.15372
#
# Static dielectric constant tensor:
#      x y z
#    x 51.251750 0.000000 19.536480 
#    y 0.000000 4.363680 0.000000 
#    z 19.536480 0.000000 13.108860 
# 
# 
# High freq. dielectric constant tensor:
#      x y z
#    x 2.038710 0.000000 0.005140 
#    y 0.000000 1.996890 0.000000 
#    z 0.005140 0.000000 2.028140 
# 
# From -- ./inp_files/86961.got.cif
#   From: 2010.06.25/outbox.cif.g09.slc.cpg/sg13_44_cif.got.tgz:86961.got - 2010.06.28 04:50:58.
