data_PCOD8123713
_publ_section_title
;
Structure prediction by ZEFSAII (Michael W. Deem and Ramdas Pophale) SiO2 
 PCOD8123713
Probable space group: P 21/C
;
_chemical_formula_sum "Si O2"
_cell_formula_units_Z 20
_cell_length_a 22.913768
_cell_length_b 6.923075
_cell_length_c 5.367491
_cell_angle_alpha 90.000000
_cell_angle_beta 103.173190
_cell_angle_gamma 90.000000
_cell_volume 829.059387
_symmetry_space_group_name_H-M "P 21/C"
_symmetry_group_IT_number 14
_symmetry_cell_setting 'monoclinic'
loop_
_space_group_symop_operation_xyz
x,y,z
-x,1/2+y,1/2-z
-x,-y,-z
x,1/2-y,1/2+z
loop_
_atom_site_type_symbol
_atom_site_label
_atom_site_fract_x
_atom_site_fract_y
_atom_site_fract_z
Si Si1 0.620091 0.965920 0.610421
Si Si2 0.760483 0.025095 0.741904
Si Si3 0.189997 0.961062 0.709785
Si Si4 0.570355 0.970411 0.061948
Si Si5 0.055289 0.863255 0.597517
O O1 0.597595 0.071674 0.336053
O O2 0.593211 0.750117 0.578630
O O3 0.690910 0.979952 0.689692
O O4 0.594648 0.071988 0.833044
O O5 0.779633 0.249450 0.749538
O O6 0.785156 0.928302 0.510708
O O7 0.790463 0.929942 0.017253
O O8 0.118576 0.966751 0.620570
O O9 0.500000 0.000000 0.000000
O O10 0.051309 0.701133 0.380728
O O11 0.000000 0.000000 0.500000
#
# Coordination Sequence:
#
# PCOD8123713 Si02
#       5
#     4   4   4   4   4
#     4  10  21  37  60  87 114 157 207 253 311 391
#     4  10  18  35  63  85 117 156 217 256 318 382
#     4  10  19  37  61  90 120 170 210 265 326 388
#     4  10  21  40  59  82 123 156 194 257 325 383
#     4  12  23  43  72 102 145 187 242 289 345 421
#
# _framework density 24.123722000000001
#
# number of rings (size 3 to 8) (size 9 to 14) (size 15 to 20)
#    0.000    1.600    4.000    2.400    0.000    0.000 
#    0.000   24.000   26.400    0.000    0.000    0.000 
#    0.000    0.000    0.000    0.000    0.000    0.000 
#
# Total GULP energy -247764.011828 kJ/mol
# GULP energy per Si atom -12388.200591 kJ/mol
# Density = 2.406882 g / cm^3
# Si number density = 24.123722 Si / 1000 Ang^3
#
#
#
# Elastic Constant Matrix: (Units=GPa)
#
#
# Indices 1 2 3 4 5 6 
#
# 1 207.1393 31.5103 57.5098 0.0000 22.1432 0.0000
# 2 31.5103 44.4944 -13.4231 0.0000 8.5254 0.0000
# 3 57.5098 -13.4231 261.6283 0.0000 -14.5987 0.0000
# 4 0.0000 0.0000 0.0000 2.0068 0.0000 51.7682
# 5 22.1432 8.5254 -14.5987 0.0000 63.1324 0.0000
# 6 0.0000 0.0000 0.0000 51.7682 0.0000 99.9865
#
#
#
# Elastic Compliance Matrix: (Units=1/GPa)
#
#
# Indices 1 2 3 4 5 6 
#
# 1 0.006199 -0.004529 -0.001704 0.000000 -0.001957 0.000000
# 2 -0.004529 0.026654 0.002280 0.000000 -0.001483 0.000000
# 3 -0.001704 0.002280 0.004387 0.000000 0.001304 0.000000
# 4 0.000000 0.000000 0.000000 -0.040329 0.000000 0.020880
# 5 -0.001957 -0.001483 0.001304 0.000000 0.017028 0.000000
# 6 0.000000 0.000000 0.000000 0.020880 0.000000 -0.000809
#
#
# Mechanical properties :
#
#
# Convention : Reuss Voigt Hill
#
# Bulk Modulus (GPa) = 34.09029 73.82846 53.95938
# Shear Modulus (GPa) = 162.26343 62.20281 112.23312
#
# Velocity S-wave (km/s) = 8.21030 5.08339 6.82825
# Velocity P-wave (km/s) = 10.20004 8.07001 9.19690
#
# Compressibility (1/GPa) = 0.02933387
#
# Stress axis : x y z
#
# Youngs Moduli (GPa) = 161.31676 37.51718 227.96753
#
# Poissons Ratio (x) = 0.16992 0.38850
# Poissons Ratio (y) = 0.73064 -0.51985
# Poissons Ratio (z) = 0.27491 -0.08555
#
# Static dielectric constant tensor:
#      x y z
#    x 4.274430 0.000000 -0.370070 
#    y 0.000000 4.117300 0.000000 
#    z -0.370070 0.000000 5.518800 
# 
# 
# High freq. dielectric constant tensor:
#      x y z
#    x 1.965780 0.000000 -0.009240 
#    y 0.000000 1.920510 0.000000 
#    z -0.009240 0.000000 2.008410 
# 
# From -- ./inp_files/4039.got.cif
#   From: 2010.03.12/outbox.cif.g09.slc.cpg/sg14_3_cif.got.tgz:4039.got - 2010.03.31 13:35:05.
