data_PCOD8123028
_publ_section_title
;
Structure prediction by ZEFSAII (Michael W. Deem and Ramdas Pophale) SiO2 
 PCOD8123028
Probable space group: P 2/C
;
_chemical_formula_sum "Si O2"
_cell_formula_units_Z 24
_cell_length_a 11.327461
_cell_length_b 12.032401
_cell_length_c 8.687384
_cell_angle_alpha 90.000000
_cell_angle_beta 107.013045
_cell_angle_gamma 90.000000
_cell_volume 1132.243834
_symmetry_space_group_name_H-M "P 2/C"
_symmetry_group_IT_number 13
_symmetry_cell_setting 'monoclinic'
loop_
_space_group_symop_operation_xyz
x,y,z
-x,y,1/2-z
-x,-y,-z
x,-y,1/2+z
loop_
_atom_site_type_symbol
_atom_site_label
_atom_site_fract_x
_atom_site_fract_y
_atom_site_fract_z
Si Si1 0.299320 0.629805 0.362959
Si Si2 0.361896 0.801065 0.929664
Si Si3 0.500000 0.066260 0.250000
Si Si4 0.646048 0.411164 0.274813
Si Si5 0.500000 0.722636 0.250000
Si Si6 0.142105 0.153425 0.782728
Si Si7 0.243246 0.978021 0.044520
O O1 0.276428 0.514439 0.264561
O O2 0.288504 0.616113 0.540427
O O3 0.441084 0.654660 0.369200
O O4 0.209315 0.728987 0.277205
O O5 0.479325 0.854101 0.888522
O O6 0.323697 0.688467 0.831094
O O7 0.392689 0.789202 0.123252
O O8 0.251173 0.891522 0.901290
O O9 0.380240 0.993351 0.168779
O O10 0.500000 0.433382 0.250000
O O11 0.154597 0.071541 0.641400
O O12 0.000000 0.181846 0.750000
O O13 0.193346 0.094386 0.957761
#
# Coordination Sequence:
#
# PCOD8123028 Si02
#       7
#     4   4   2   4   2   4   4
#     4  12  25  41  67  97 135 177 225 272 335 401
#     4  12  22  36  62 100 142 175 210 265 345 414
#     4  12  23  39  64 110 144 169 211 284 350 408
#     4  12  23  40  65 100 142 174 210 272 346 413
#     4  12  19  35  62  98 136 171 209 272 340 400
#     4  12  28  49  69  93 134 186 235 278 320 394
#     4  12  25  42  71 100 137 175 224 278 345 402
#
# _framework density 21.196849
#
# number of rings (size 3 to 8) (size 9 to 14) (size 15 to 20)
#    0.000    0.000    6.667    5.000    0.000    0.000 
#    0.000    0.833    0.000    0.000    0.000    0.000 
#    0.000    0.000    0.000    0.000    0.000    0.000 
#
# Total GULP energy -297469.989627 kJ/mol
# GULP energy per Si atom -12394.582901 kJ/mol
# Density = 2.114860 g / cm^3
# Si number density = 21.196849 Si / 1000 Ang^3
#
#
#
# Elastic Constant Matrix: (Units=GPa)
#
#
# Indices 1 2 3 4 5 6 
#
# 1 89.7264 45.6651 27.7903 0.0000 -1.9329 0.0000
# 2 45.6651 152.5339 48.0235 0.0000 -6.8537 0.0000
# 3 27.7903 48.0235 104.5589 0.0000 -18.0778 0.0000
# 4 0.0000 0.0000 0.0000 18.0336 0.0000 -4.1796
# 5 -1.9329 -6.8537 -18.0778 0.0000 27.3172 0.0000
# 6 0.0000 0.0000 0.0000 -4.1796 0.0000 19.5642
#
#
#
# Elastic Compliance Matrix: (Units=1/GPa)
#
#
# Indices 1 2 3 4 5 6 
#
# 1 0.013553 -0.003402 -0.002283 0.000000 -0.001405 0.000000
# 2 -0.003402 0.008523 -0.003029 0.000000 -0.000107 0.000000
# 3 -0.002283 -0.003029 0.012876 0.000000 0.007599 0.000000
# 4 0.000000 0.000000 0.000000 0.058341 0.000000 0.012464
# 5 -0.001405 -0.000107 0.007599 0.000000 0.041510 0.000000
# 6 0.000000 0.000000 0.000000 0.012464 0.000000 0.053776
#
#
# Mechanical properties :
#
#
# Convention : Reuss Voigt Hill
#
# Bulk Modulus (GPa) = 57.06149 65.53078 61.29614
# Shear Modulus (GPa) = 23.60187 28.00570 25.80379
#
# Velocity S-wave (km/s) = 3.34048 3.63880 3.49283
# Velocity P-wave (km/s) = 6.46967 6.97402 6.72657
#
# Compressibility (1/GPa) = 0.01752495
#
# Stress axis : x y z
#
# Youngs Moduli (GPa) = 73.78392 117.32663 77.66521
#
# Poissons Ratio (x) = 0.39914 0.17728
# Poissons Ratio (y) = 0.25101 0.23524
# Poissons Ratio (z) = 0.16842 0.35538
#
# Static dielectric constant tensor:
#      x y z
#    x 3.459320 0.000000 -0.359000 
#    y 0.000000 4.131600 0.000000 
#    z -0.359000 0.000000 3.858450 
# 
# 
# High freq. dielectric constant tensor:
#      x y z
#    x 1.785770 0.000000 -0.038390 
#    y 0.000000 1.853380 0.000000 
#    z -0.038390 0.000000 1.835440 
# 
# From -- ./inp_files/15981.got.cif
#   From: 2010.06.25/outbox.cif.g09.slc.cpg/sg13_8_cif.got.tgz:15981.got - 2010.06.28 04:50:58.
