data_PCOD8123905
_publ_section_title
;
Structure prediction by ZEFSAII (Michael W. Deem and Ramdas Pophale) SiO2 
 PCOD8123905
Probable space group: P 21/C
;
_chemical_formula_sum "Si O2"
_cell_formula_units_Z 32
_cell_length_a 10.423070
_cell_length_b 19.104257
_cell_length_c 8.939063
_cell_angle_alpha 90.000000
_cell_angle_beta 90.000000
_cell_angle_gamma 90.000000
_cell_volume 1779.990991
_symmetry_space_group_name_H-M "P 21/C"
_symmetry_group_IT_number 14
_symmetry_cell_setting 'monoclinic'
loop_
_space_group_symop_operation_xyz
x,y,z
-x,1/2+y,1/2-z
-x,-y,-z
x,1/2-y,1/2+z
loop_
_atom_site_type_symbol
_atom_site_label
_atom_site_fract_x
_atom_site_fract_y
_atom_site_fract_z
Si Si1 0.502624 0.319073 0.576244
Si Si2 0.124116 0.031635 0.925046
Si Si3 0.502624 0.319073 0.923756
Si Si4 0.124116 0.031635 0.574954
Si Si5 0.231600 0.321047 0.073672
Si Si6 0.617758 0.463471 0.922267
Si Si7 0.768401 0.821047 0.073672
Si Si8 0.382242 0.536529 0.422267
O O1 0.473148 0.305118 0.750000
O O2 0.562262 0.250000 0.500000
O O3 0.369966 0.339151 0.495338
O O4 0.606907 0.380093 0.554962
O O5 0.111971 0.018477 0.750000
O O6 0.136814 0.114328 0.961727
O O7 0.247935 0.990386 0.990018
O O8 0.000000 0.000000 0.000000
O O9 0.606907 0.380093 0.945038
O O10 0.369966 0.339151 0.004662
O O11 0.136814 0.114328 0.538273
O O12 0.247935 0.990386 0.509982
O O13 0.000000 0.000000 0.500000
O O14 0.247508 0.309883 0.250000
O O15 0.175183 0.250000 1.000000
O O16 0.610548 0.485345 0.750000
O O17 0.500000 0.500000 0.000000
O O18 0.500000 0.500000 0.500000
#
# Coordination Sequence:
#
# PCOD8123905 Si02
#       8
#     4   4   4   4   4   4   4   4
#     4  10  19  31  52  80 109 141 176 220 273 320
#     4  10  22  38  55  79 111 145 182 225 270 321
#     4  10  19  31  52  80 109 141 176 220 273 320
#     4  10  22  38  55  79 111 145 182 225 270 321
#     4  10  19  33  54  79 108 140 178 223 268 319
#     4  10  20  35  55  80 108 139 177 223 271 319
#     4  10  19  33  54  79 108 140 178 223 268 319
#     4  10  20  35  55  80 108 139 177 223 271 319
#
# _framework density 17.977619000000001
#
# number of rings (size 3 to 8) (size 9 to 14) (size 15 to 20)
#    0.000    2.000    2.500    3.000    0.000    4.000 
#    0.000    1.250    0.000    6.000    0.000    0.000 
#    0.000    0.000    0.000    0.000    0.000    0.000 
#
# Total GULP energy -396759.369359 kJ/mol
# GULP energy per Si atom -12398.730292 kJ/mol
# Density = 1.793670 g / cm^3
# Si number density = 17.977619 Si / 1000 Ang^3
#
#
#
# Elastic Constant Matrix: (Units=GPa)
#
#
# Indices 1 2 3 4 5 6 
#
# 1 127.4147 80.2402 46.5663 0.0000 0.0000 0.0000
# 2 80.2402 145.6681 61.6107 0.0000 0.0000 0.0000
# 3 46.5663 61.6107 88.6609 0.0000 0.0000 0.0000
# 4 0.0000 0.0000 0.0000 31.6457 0.0000 0.0000
# 5 0.0000 0.0000 0.0000 0.0000 27.1550 0.0000
# 6 0.0000 0.0000 0.0000 0.0000 0.0000 31.1721
#
#
#
# Elastic Compliance Matrix: (Units=1/GPa)
#
#
# Indices 1 2 3 4 5 6 
#
# 1 0.012397 -0.005771 -0.002501 0.000000 0.000000 0.000000
# 2 -0.005771 0.012409 -0.005592 0.000000 0.000000 0.000000
# 3 -0.002501 -0.005592 0.016478 0.000000 0.000000 0.000000
# 4 0.000000 0.000000 0.000000 0.031600 0.000000 0.000000
# 5 0.000000 0.000000 0.000000 0.000000 0.036826 0.000000
# 6 0.000000 0.000000 0.000000 0.000000 0.000000 0.032080
#
#
# Mechanical properties :
#
#
# Convention : Reuss Voigt Hill
#
# Bulk Modulus (GPa) = 73.76516 82.06423 77.91469
# Shear Modulus (GPa) = 28.72982 29.54967 29.13975
#
# Velocity S-wave (km/s) = 4.00195 4.05865 4.03040
# Velocity P-wave (km/s) = 7.90410 8.22864 8.06800
#
# Compressibility (1/GPa) = 0.01355653
#
# Stress axis : x y z
#
# Youngs Moduli (GPa) = 80.66749 80.58711 60.68603
#
# Poissons Ratio (x) = 0.46506 0.15176
# Poissons Ratio (y) = 0.46552 0.33936
# Poissons Ratio (z) = 0.20173 0.45065
#
# Static dielectric constant tensor:
#      x y z
#    x 3.183690 0.000000 0.000000 
#    y 0.000000 3.955160 0.000000 
#    z 0.000000 0.000000 3.362600 
# 
# 
# High freq. dielectric constant tensor:
#      x y z
#    x 1.662980 0.000000 0.000000 
#    y 0.000000 1.715380 0.000000 
#    z 0.000000 0.000000 1.702160 
# 
# From -- ./inp_files/10233.got.cif
#   From: 2010.03.12/outbox.cif.g09.slc.cpg/sg14_6_cif.got.tgz:10233.got - 2010.03.31 13:35:05.
