data_PCOD8123670
_publ_section_title
;
Structure prediction by ZEFSAII (Michael W. Deem and Ramdas Pophale) SiO2 
 PCOD8123670
Probable space group: P 21/C
;
_chemical_formula_sum "Si O2"
_cell_formula_units_Z 28
_cell_length_a 10.900603
_cell_length_b 16.098969
_cell_length_c 20.176914
_cell_angle_alpha 90.000000
_cell_angle_beta 24.091808
_cell_angle_gamma 90.000000
_cell_volume 1445.360787
_symmetry_space_group_name_H-M "P 21/C"
_symmetry_group_IT_number 14
_symmetry_cell_setting 'monoclinic'
loop_
_space_group_symop_operation_xyz
x,y,z
-x,1/2+y,1/2-z
-x,-y,-z
x,1/2-y,1/2+z
loop_
_atom_site_type_symbol
_atom_site_label
_atom_site_fract_x
_atom_site_fract_y
_atom_site_fract_z
Si Si1 0.003781 0.990976 0.751302
Si Si2 0.526373 0.366590 0.314133
Si Si3 0.190700 0.292951 0.982500
Si Si4 0.479194 0.430504 0.925113
Si Si5 0.517626 0.033825 0.085035
Si Si6 0.753518 0.889724 0.663907
Si Si7 0.641434 0.457251 0.128504
O O1 0.193575 0.053723 0.612966
O O2 0.750931 0.943863 0.833182
O O3 0.220911 0.922431 0.678349
O O4 0.835127 0.044280 0.891940
O O5 0.253434 0.304010 0.466178
O O6 0.527541 0.439606 0.367194
O O7 0.461303 0.404359 0.272652
O O8 0.843159 0.317854 0.162613
O O9 0.414057 0.345281 0.919314
O O10 0.284251 0.304373 0.858191
O O11 0.540872 0.510394 0.845860
O O12 0.504132 0.097978 0.153692
O O13 0.080870 0.901729 0.536323
O O14 0.759169 0.957941 0.602929
#
# Coordination Sequence:
#
# PCOD8123670 Si02
#       7
#     4   4   4   4   4   4   4
#     4  10  20  30  56  78 102 130 178 218 258 294
#     4  10  20  34  54  77 106 137 168 214 271 316
#     4  10  20  34  54  77 106 137 168 214 271 316
#     4  10  18  35  53  82 101 136 177 223 250 309
#     4  10  18  35  53  82 101 136 177 223 250 309
#     4   8  14  30  53  73  96 128 166 209 255 299
#     4   8  14  30  53  73  96 128 166 209 255 299
#
# _framework density 19.372326999999999
#
# number of rings (size 3 to 8) (size 9 to 14) (size 15 to 20)
#    0.000    2.571    2.857    1.714    2.000    0.000 
#    2.571    2.143    0.000   10.286    0.000    0.000 
#    0.000    0.000    0.000    0.000    0.000    0.000 
#
# Total GULP energy -346884.257866 kJ/mol
# GULP energy per Si atom -12388.723495 kJ/mol
# Density = 1.932823 g / cm^3
# Si number density = 19.372327 Si / 1000 Ang^3
#
#
#
# Elastic Constant Matrix: (Units=GPa)
#
#
# Indices 1 2 3 4 5 6 
#
# 1 75.1527 23.1877 30.8595 0.0000 9.8723 0.0000
# 2 23.1877 48.8892 4.0047 0.0000 -6.4623 0.0000
# 3 30.8595 4.0047 68.5861 0.0000 6.3786 0.0000
# 4 0.0000 0.0000 0.0000 20.3176 0.0000 -1.4515
# 5 9.8723 -6.4623 6.3786 0.0000 26.3920 0.0000
# 6 0.0000 0.0000 0.0000 -1.4515 0.0000 12.8147
#
#
#
# Elastic Compliance Matrix: (Units=1/GPa)
#
#
# Indices 1 2 3 4 5 6 
#
# 1 0.020904 -0.010371 -0.008017 0.000000 -0.008421 0.000000
# 2 -0.010371 0.026493 0.002205 0.000000 0.009833 0.000000
# 3 -0.008017 0.002205 0.018137 0.000000 -0.000845 0.000000
# 4 0.000000 0.000000 0.000000 0.049620 0.000000 0.005620
# 5 -0.008421 0.009833 -0.000845 0.000000 0.043652 0.000000
# 6 0.000000 0.000000 0.000000 0.005620 0.000000 0.078672
#
#
# Mechanical properties :
#
#
# Convention : Reuss Voigt Hill
#
# Bulk Modulus (GPa) = 30.14969 34.30354 32.22662
# Shear Modulus (GPa) = 17.79989 20.87661 19.33825
#
# Velocity S-wave (km/s) = 3.03451 3.28632 3.16292
# Velocity P-wave (km/s) = 5.27965 5.66973 5.47816
#
# Compressibility (1/GPa) = 0.03316783
#
# Stress axis : x y z
#
# Youngs Moduli (GPa) = 47.83679 37.74641 55.13548
#
# Poissons Ratio (x) = 0.39148 0.44202
# Poissons Ratio (y) = 0.49613 -0.12157
# Poissons Ratio (z) = 0.38350 -0.08323
#
# Static dielectric constant tensor:
#      x y z
#    x 3.741920 0.000000 0.098440 
#    y 0.000000 3.152670 0.000000 
#    z 0.098440 0.000000 3.454070 
# 
# 
# High freq. dielectric constant tensor:
#      x y z
#    x 1.759520 0.000000 0.008790 
#    y 0.000000 1.702130 0.000000 
#    z 0.008790 0.000000 1.747790 
# 
# From -- ./inp_files/73357.got.cif
#   From: 2010.03.12/outbox.cif.g09.slc.cpg/sg14_37_cif.got.tgz:73357.got - 2010.03.31 13:35:05.
