data_PCOD8123773
_publ_section_title
;
Structure prediction by ZEFSAII (Michael W. Deem and Ramdas Pophale) SiO2 
 PCOD8123773
Probable space group: P 21/C
;
_chemical_formula_sum "Si O2"
_cell_formula_units_Z 28
_cell_length_a 9.209191
_cell_length_b 8.720100
_cell_length_c 18.221880
_cell_angle_alpha 90.000000
_cell_angle_beta 115.642493
_cell_angle_gamma 90.000000
_cell_volume 1319.190623
_symmetry_space_group_name_H-M "P 21/C"
_symmetry_group_IT_number 14
_symmetry_cell_setting 'monoclinic'
loop_
_space_group_symop_operation_xyz
x,y,z
-x,1/2+y,1/2-z
-x,-y,-z
x,1/2-y,1/2+z
loop_
_atom_site_type_symbol
_atom_site_label
_atom_site_fract_x
_atom_site_fract_y
_atom_site_fract_z
Si Si1 0.592624 0.492970 0.626606
Si Si2 0.891080 0.905845 0.108571
Si Si3 0.297453 0.386017 0.200820
Si Si4 0.151402 0.682894 0.129554
Si Si5 0.761932 0.444850 0.442097
Si Si6 0.810398 0.932775 0.790417
Si Si7 0.615055 0.309689 0.197292
O O1 0.717503 0.596533 0.608301
O O2 0.600625 0.528269 0.714772
O O3 0.415423 0.539204 0.559754
O O4 0.629571 0.307761 0.630682
O O5 0.974637 0.737021 0.120712
O O6 0.885050 0.975962 0.025404
O O7 0.005929 0.014342 0.183692
O O8 0.167705 0.498108 0.131434
O O9 0.201890 0.249487 0.220892
O O10 0.423618 0.323349 0.168992
O O11 0.292937 0.741101 0.213022
O O12 0.187798 0.765396 0.058978
O O13 0.764826 0.528179 0.364459
O O14 0.693937 0.019951 0.705355
#
# Coordination Sequence:
#
# PCOD8123773 Si02
#       7
#     4   4   4   4   4   4   4
#     4  11  20  33  59  82 107 140 180 239 280 324
#     4  10  22  36  50  81 114 147 184 221 284 333
#     4  11  18  33  60  84 106 135 191 232 280 326
#     4   9  19  34  57  80 107 142 182 231 270 331
#     4  10  18  37  56  75 107 153 191 219 265 341
#     4  10  19  34  59  80 108 145 178 233 274 327
#     4   9  17  33  55  82 104 134 186 228 273 325
#
# _framework density 21.225137
#
# number of rings (size 3 to 8) (size 9 to 14) (size 15 to 20)
#    0.000    2.286    4.286    3.000    0.000    3.429 
#    0.000    2.857    0.000    0.857    0.000    0.000 
#    0.000    0.000    0.000    0.000    0.000    0.000 
#
# Total GULP energy -346870.039486 kJ/mol
# GULP energy per Si atom -12388.215696 kJ/mol
# Density = 2.117683 g / cm^3
# Si number density = 21.225137 Si / 1000 Ang^3
#
#
#
# Elastic Constant Matrix: (Units=GPa)
#
#
# Indices 1 2 3 4 5 6 
#
# 1 83.5183 23.2788 -1.2455 0.0000 5.4515 0.0000
# 2 23.2788 115.8764 6.7980 0.0000 10.1284 0.0000
# 3 -1.2455 6.7980 24.6631 0.0000 5.7654 0.0000
# 4 0.0000 0.0000 0.0000 14.9240 0.0000 -0.7991
# 5 5.4515 10.1284 5.7654 0.0000 19.3451 0.0000
# 6 0.0000 0.0000 0.0000 -0.7991 0.0000 18.6512
#
#
#
# Elastic Compliance Matrix: (Units=1/GPa)
#
#
# Indices 1 2 3 4 5 6 
#
# 1 0.012878 -0.002448 0.002014 0.000000 -0.002948 0.000000
# 2 -0.002448 0.009560 -0.001881 0.000000 -0.003755 0.000000
# 3 0.002014 -0.001881 0.044144 0.000000 -0.012739 0.000000
# 4 0.000000 0.000000 0.000000 0.067160 0.000000 0.002878
# 5 -0.002948 -0.003755 -0.012739 0.000000 0.058286 0.000000
# 6 0.000000 0.000000 0.000000 0.002878 0.000000 0.053739
#
#
# Mechanical properties :
#
#
# Convention : Reuss Voigt Hill
#
# Bulk Modulus (GPa) = 16.14104 31.30226 23.72165
# Shear Modulus (GPa) = 18.44689 23.59916 21.02303
#
# Velocity S-wave (km/s) = 2.95126 3.33806 3.15060
# Velocity P-wave (km/s) = 4.38571 5.44395 4.94323
#
# Compressibility (1/GPa) = 0.06195389
#
# Stress axis : x y z
#
# Youngs Moduli (GPa) = 77.65131 104.60084 22.65289
#
# Poissons Ratio (x) = 0.25602 -0.04563
# Poissons Ratio (y) = 0.19006 0.04261
# Poissons Ratio (z) = -0.15640 0.19674
#
# Static dielectric constant tensor:
#      x y z
#    x 3.678030 0.000000 0.264820 
#    y 0.000000 4.436170 0.000000 
#    z 0.264820 0.000000 3.534920 
# 
# 
# High freq. dielectric constant tensor:
#      x y z
#    x 1.827870 0.000000 0.024190 
#    y 0.000000 1.824490 0.000000 
#    z 0.024190 0.000000 1.790530 
# 
# From -- ./inp_files/64606.got.cif
#   From: 2010.03.12/outbox.cif.g09.slc.cpg/sg14_33_cif.got.tgz:64606.got - 2010.03.31 13:35:05.
