data_PCOD8123651
_publ_section_title
;
Structure prediction by ZEFSAII (Michael W. Deem and Ramdas Pophale) SiO2 
 PCOD8123651
Probable space group: P 21/C
;
_chemical_formula_sum "Si O2"
_cell_formula_units_Z 32
_cell_length_a 8.486421
_cell_length_b 22.998185
_cell_length_c 8.425827
_cell_angle_alpha 90.000000
_cell_angle_beta 78.416164
_cell_angle_gamma 90.000000
_cell_volume 1610.992836
_symmetry_space_group_name_H-M "P 21/C"
_symmetry_group_IT_number 14
_symmetry_cell_setting 'monoclinic'
loop_
_space_group_symop_operation_xyz
x,y,z
-x,1/2+y,1/2-z
-x,-y,-z
x,1/2-y,1/2+z
loop_
_atom_site_type_symbol
_atom_site_label
_atom_site_fract_x
_atom_site_fract_y
_atom_site_fract_z
Si Si1 0.129974 0.877795 0.149164
Si Si2 0.025215 0.180747 0.379103
Si Si3 0.899467 0.800190 0.996834
Si Si4 0.666117 0.478561 0.039084
Si Si5 0.583346 0.049633 0.887565
Si Si6 0.861943 0.584424 0.911782
Si Si7 0.289091 0.846539 0.436548
Si Si8 0.383148 0.145268 0.751001
O O1 0.053491 0.833376 0.038937
O O2 0.275892 0.916019 0.043133
O O3 0.198503 0.843010 0.285752
O O4 0.991325 0.920116 0.244105
O O5 0.072500 0.118384 0.445646
O O6 0.088507 0.231410 0.481395
O O7 0.827931 0.186880 0.415699
O O8 0.102938 0.186378 0.189787
O O9 0.730878 0.816630 0.113791
O O10 0.666682 0.484630 0.227906
O O11 0.693465 0.411115 0.992813
O O12 0.500000 0.500000 0.000000
O O13 0.815558 0.517922 0.955012
O O14 0.451790 0.094220 0.847750
O O15 0.500000 0.000000 0.000000
O O16 0.708523 0.619449 0.880580
O O17 0.466725 0.819723 0.362993
#
# Coordination Sequence:
#
# PCOD8123651 Si02
#       8
#     4   4   4   4   4   4   4   4
#     4   8  19  37  57  77 116 153 187 232 288 332
#     4  11  24  38  63  85 113 148 198 241 291 343
#     4  11  22  43  59  85 114 152 192 249 288 341
#     4  10  18  34  60  84 121 153 188 231 285 341
#     4  10  21  35  56  86 122 154 182 239 285 342
#     4  10  18  37  59  86 113 155 192 236 282 349
#     4   9  19  38  60  88 113 158 190 233 284 344
#     4   9  19  39  60  83 120 152 191 233 289 336
#
# _framework density 19.863527000000001
#
# number of rings (size 3 to 8) (size 9 to 14) (size 15 to 20)
#    0.000    2.500    2.500    2.250    1.750    5.500 
#    0.000    8.750    0.000    0.000    0.000    0.000 
#    0.000    0.000    0.000    0.000    0.000    0.000 
#
# Total GULP energy -396417.597603 kJ/mol
# GULP energy per Si atom -12388.049925 kJ/mol
# Density = 1.981832 g / cm^3
# Si number density = 19.863527 Si / 1000 Ang^3
#
#
#
# Elastic Constant Matrix: (Units=GPa)
#
#
# Indices 1 2 3 4 5 6 
#
# 1 111.7712 21.4028 20.3817 0.0000 -15.9592 0.0000
# 2 21.4028 62.2948 23.1678 0.0000 -9.3202 0.0000
# 3 20.3817 23.1678 48.6229 0.0000 -15.2436 0.0000
# 4 0.0000 0.0000 0.0000 29.1353 0.0000 -3.7955
# 5 -15.9592 -9.3202 -15.2436 0.0000 36.3724 0.0000
# 6 0.0000 0.0000 0.0000 -3.7955 0.0000 31.5786
#
#
#
# Elastic Compliance Matrix: (Units=1/GPa)
#
#
# Indices 1 2 3 4 5 6 
#
# 1 0.010211 -0.002211 -0.002302 0.000000 0.002949 0.000000
# 2 -0.002211 0.020040 -0.008423 0.000000 0.000635 0.000000
# 3 -0.002302 -0.008423 0.028265 0.000000 0.008677 0.000000
# 4 0.000000 0.000000 0.000000 0.034869 0.000000 0.004191
# 5 0.002949 0.000635 0.008677 0.000000 0.032587 0.000000
# 6 0.000000 0.000000 0.000000 0.004191 0.000000 0.032171
#
#
# Mechanical properties :
#
#
# Convention : Reuss Voigt Hill
#
# Bulk Modulus (GPa) = 30.63319 39.17707 34.90513
# Shear Modulus (GPa) = 25.65479 29.93303 27.79391
#
# Velocity S-wave (km/s) = 3.59772 3.88614 3.74470
# Velocity P-wave (km/s) = 5.71956 6.31680 6.02559
#
# Compressibility (1/GPa) = 0.03264433
#
# Stress axis : x y z
#
# Youngs Moduli (GPa) = 97.93275 49.90080 35.37912
#
# Poissons Ratio (x) = 0.11032 0.08146
# Poissons Ratio (y) = 0.21651 0.29799
# Poissons Ratio (z) = 0.22548 0.42030
#
# Static dielectric constant tensor:
#      x y z
#    x 3.968870 0.000000 -0.083980 
#    y 0.000000 3.456530 0.000000 
#    z -0.083980 0.000000 3.365720 
# 
# 
# High freq. dielectric constant tensor:
#      x y z
#    x 1.794140 0.000000 -0.011460 
#    y 0.000000 1.754950 0.000000 
#    z -0.011460 0.000000 1.756080 
# 
# From -- ./inp_files/10665.got.cif
#   From: 2010.03.12/outbox.cif.g09.slc.cpg/sg14_6_cif.got.tgz:10665.got - 2010.03.31 13:35:05.
