data_PCOD8123292
_publ_section_title
;
Structure prediction by ZEFSAII (Michael W. Deem and Ramdas Pophale) SiO2 
 PCOD8123292
Probable space group: P 21/C
;
_chemical_formula_sum "Si O2"
_cell_formula_units_Z 32
_cell_length_a 12.617062
_cell_length_b 5.289677
_cell_length_c 26.527484
_cell_angle_alpha 90.000000
_cell_angle_beta 78.239353
_cell_angle_gamma 90.000000
_cell_volume 1733.283176
_symmetry_space_group_name_H-M "P 21/C"
_symmetry_group_IT_number 14
_symmetry_cell_setting 'monoclinic'
loop_
_space_group_symop_operation_xyz
x,y,z
-x,1/2+y,1/2-z
-x,-y,-z
x,1/2-y,1/2+z
loop_
_atom_site_type_symbol
_atom_site_label
_atom_site_fract_x
_atom_site_fract_y
_atom_site_fract_z
Si Si1 0.555825 0.235634 0.553854
Si Si2 0.578031 0.262627 0.767517
Si Si3 0.109383 0.250223 0.032636
Si Si4 0.350275 0.262597 0.748490
Si Si5 0.219074 0.236010 0.353372
Si Si6 0.342459 0.735860 0.354866
Si Si7 0.013967 0.251266 0.432853
Si Si8 0.640515 0.734836 0.495036
O O1 0.560346 0.256155 0.613998
O O2 0.623722 0.465792 0.523458
O O3 0.431150 0.252129 0.548931
O O4 0.608130 0.967972 0.533690
O O5 0.447597 0.262781 0.782522
O O6 0.632619 0.511460 0.787212
O O7 0.608650 0.262227 0.705404
O O8 0.632493 0.013662 0.787247
O O9 0.059009 0.501726 0.061655
O O10 0.059020 0.001290 0.063082
O O11 0.235512 0.256489 0.033006
O O12 0.090457 0.244752 0.974580
O O13 0.238468 0.262352 0.790375
O O14 0.273076 0.483982 0.372410
O O15 0.091217 0.246067 0.376379
O O16 0.265859 0.977762 0.372106
#
# Coordination Sequence:
#
# PCOD8123292 Si02
#       8
#     4   4   4   4   4   4   4   4
#     4  10  19  30  45  62  78 103 136 163 197 241
#     4   8  14  23  36  55  78 105 128 150 188 232
#     4  10  19  30  41  55  78 102 129 166 198 227
#     4   8  14  24  36  53  79 106 128 151 187 231
#     4  10  18  27  41  60  83 108 133 163 192 228
#     4  10  17  26  42  61  83 106 131 163 193 231
#     4  10  19  28  41  58  75 102 135 161 192 232
#     4  10  20  32  44  58  80 106 132 167 203 232
#
# _framework density 18.462071999999999
#
# number of rings (size 3 to 8) (size 9 to 14) (size 15 to 20)
#    0.000    2.500    0.000    3.750    0.000    2.000 
#    0.000    0.000    0.000    0.000    0.000    0.000 
#    0.000    2.000    0.000    0.000    0.000    8.500 
#
# Total GULP energy -396524.194840 kJ/mol
# GULP energy per Si atom -12391.381089 kJ/mol
# Density = 1.842005 g / cm^3
# Si number density = 18.462072 Si / 1000 Ang^3
#
#
#
# Elastic Constant Matrix: (Units=GPa)
#
#
# Indices 1 2 3 4 5 6 
#
# 1 88.5096 25.4481 21.3540 0.0000 -22.5935 0.0000
# 2 25.4481 160.1457 3.9556 0.0000 -10.4927 0.0000
# 3 21.3540 3.9556 24.8214 0.0000 -16.0442 0.0000
# 4 0.0000 0.0000 0.0000 9.4380 0.0000 -8.3567
# 5 -22.5935 -10.4927 -16.0442 0.0000 30.3714 0.0000
# 6 0.0000 0.0000 0.0000 -8.3567 0.0000 20.6886
#
#
#
# Elastic Compliance Matrix: (Units=1/GPa)
#
#
# Indices 1 2 3 4 5 6 
#
# 1 0.015607 -0.001852 -0.009173 0.000000 0.006125 0.000000
# 2 -0.001852 0.006615 0.001710 0.000000 0.001811 0.000000
# 3 -0.009173 0.001710 0.066629 0.000000 0.028965 0.000000
# 4 0.000000 0.000000 0.000000 0.164949 0.000000 0.066628
# 5 0.006125 0.001811 0.028965 0.000000 0.053409 0.000000
# 6 0.000000 0.000000 0.000000 0.066628 0.000000 0.075249
#
#
# Mechanical properties :
#
#
# Convention : Reuss Voigt Hill
#
# Bulk Modulus (GPa) = 14.24081 41.66580 27.95330
# Shear Modulus (GPa) = 11.77868 26.94754 19.36311
#
# Velocity S-wave (km/s) = 2.52859 3.82464 3.24204
# Velocity P-wave (km/s) = 4.03179 6.49008 5.40261
#
# Compressibility (1/GPa) = 0.07022075
#
# Stress axis : x y z
#
# Youngs Moduli (GPa) = 64.07284 151.17056 15.00840
#
# Poissons Ratio (x) = 0.28000 0.13767
# Poissons Ratio (y) = 0.11868 -0.02566
# Poissons Ratio (z) = 0.58773 -0.25845
#
# Static dielectric constant tensor:
#      x y z
#    x 3.043680 0.000000 -0.268910 
#    y 0.000000 4.418840 0.000000 
#    z -0.268910 0.000000 3.015400 
# 
# 
# High freq. dielectric constant tensor:
#      x y z
#    x 1.667640 0.000000 -0.041990 
#    y 0.000000 1.762350 0.000000 
#    z -0.041990 0.000000 1.675690 
# 
# From -- ./inp_files/67840.got.cif
#   From: 2010.03.12/outbox.cif.g09.slc.cpg/sg14_34_cif.got.tgz:67840.got - 2010.03.31 13:35:05.
