data_PCOD8123840
_publ_section_title
;
Structure prediction by ZEFSAII (Michael W. Deem and Ramdas Pophale) SiO2 
 PCOD8123840
Probable space group: P 21/C
;
_chemical_formula_sum "Si O2"
_cell_formula_units_Z 24
_cell_length_a 11.172976
_cell_length_b 16.043536
_cell_length_c 13.826289
_cell_angle_alpha 90.000000
_cell_angle_beta 31.668613
_cell_angle_gamma 90.000000
_cell_volume 1301.183167
_symmetry_space_group_name_H-M "P 21/C"
_symmetry_group_IT_number 14
_symmetry_cell_setting 'monoclinic'
loop_
_space_group_symop_operation_xyz
x,y,z
-x,1/2+y,1/2-z
-x,-y,-z
x,1/2-y,1/2+z
loop_
_atom_site_type_symbol
_atom_site_label
_atom_site_fract_x
_atom_site_fract_y
_atom_site_fract_z
Si Si1 0.325084 0.927421 0.261902
Si Si2 0.610297 0.625786 0.884875
Si Si3 0.745555 0.621021 0.579182
Si Si4 0.901151 0.927161 0.684600
Si Si5 0.374189 0.203731 0.020575
Si Si6 0.141412 0.532449 0.211772
O O1 0.534474 0.940297 0.193808
O O2 0.091894 0.904805 0.475577
O O3 0.388892 0.849405 0.147446
O O4 0.293523 0.012646 0.224456
O O5 0.710085 0.653568 0.712330
O O6 0.587123 0.702323 0.974308
O O7 0.784078 0.559827 0.810426
O O8 0.359132 0.590127 0.044866
O O9 0.742929 0.699797 0.506200
O O10 0.982708 0.570760 0.405748
O O11 0.002257 0.974054 0.708271
O O12 0.791591 0.839469 0.788053
#
# Coordination Sequence:
#
# PCOD8123840 Si02
#       6
#     4   4   4   4   4   4
#     4   9  19  36  60  84 113 146 189 239 280 331
#     4  11  21  40  55  86 116 154 188 229 291 343
#     4   9  20  39  57  84 115 147 189 242 278 340
#     4  10  18  39  60  85 111 150 192 235 284 333
#     4   9  21  36  56  84 114 145 189 238 278 330
#     4  10  21  36  61  79 120 152 186 234 283 348
#
# _framework density 18.444751
#
# number of rings (size 3 to 8) (size 9 to 14) (size 15 to 20)
#    1.000    1.333    1.667    1.000    0.000    1.333 
#   12.000    0.000    0.000    0.000    0.000    0.000 
#    0.000    0.000    0.000    0.000    0.000    0.000 
#
# Total GULP energy -297439.995058 kJ/mol
# GULP energy per Si atom -12393.333127 kJ/mol
# Density = 1.840277 g / cm^3
# Si number density = 18.444751 Si / 1000 Ang^3
#
#
#
# Elastic Constant Matrix: (Units=GPa)
#
#
# Indices 1 2 3 4 5 6 
#
# 1 55.4847 27.8906 18.3006 0.0000 8.1031 0.0000
# 2 27.8906 81.1042 31.4759 0.0000 13.8056 0.0000
# 3 18.3006 31.4759 98.4464 0.0000 10.2957 0.0000
# 4 0.0000 0.0000 0.0000 16.9536 0.0000 5.2877
# 5 8.1031 13.8056 10.2957 0.0000 23.6512 0.0000
# 6 0.0000 0.0000 0.0000 5.2877 0.0000 15.4389
#
#
#
# Elastic Compliance Matrix: (Units=1/GPa)
#
#
# Indices 1 2 3 4 5 6 
#
# 1 0.022303 -0.006459 -0.001756 0.000000 -0.003106 0.000000
# 2 -0.006459 0.016989 -0.003589 0.000000 -0.006142 0.000000
# 3 -0.001756 -0.003589 0.011891 0.000000 -0.002480 0.000000
# 4 0.000000 0.000000 0.000000 0.066039 0.000000 -0.022618
# 5 -0.003106 -0.006142 -0.002480 0.000000 0.048010 0.000000
# 6 0.000000 0.000000 0.000000 -0.022618 0.000000 0.072518
#
#
# Mechanical properties :
#
#
# Convention : Reuss Voigt Hill
#
# Bulk Modulus (GPa) = 36.26491 43.37437 39.81964
# Shear Modulus (GPa) = 18.48090 21.69996 20.09043
#
# Velocity S-wave (km/s) = 3.16881 3.43371 3.30392
# Velocity P-wave (km/s) = 5.75261 6.26797 6.01581
#
# Compressibility (1/GPa) = 0.02757487
#
# Stress axis : x y z
#
# Youngs Moduli (GPa) = 44.83759 58.86037 84.09707
#
# Poissons Ratio (x) = 0.38020 0.14766
# Poissons Ratio (y) = 0.28962 0.30181
# Poissons Ratio (z) = 0.07873 0.21124
#
# Static dielectric constant tensor:
#      x y z
#    x 3.290700 0.000000 0.014830 
#    y 0.000000 3.011300 0.000000 
#    z 0.014830 0.000000 3.593910 
# 
# 
# High freq. dielectric constant tensor:
#      x y z
#    x 1.706640 0.000000 0.005820 
#    y 0.000000 1.684030 0.000000 
#    z 0.005820 0.000000 1.737180 
# 
# From -- ./inp_files/44856.got.cif
#   From: 2010.03.12/outbox.cif.g09.slc.cpg/sg14_23_cif.got.tgz:44856.got - 2010.03.31 13:35:05.
