data_PCOD8123081
_publ_section_title
;
Structure prediction by ZEFSAII (Michael W. Deem and Ramdas Pophale) SiO2 
 PCOD8123081
Probable space group: P 2/C
;
_chemical_formula_sum "Si O2"
_cell_formula_units_Z 16
_cell_length_a 20.117576
_cell_length_b 6.629989
_cell_length_c 13.137293
_cell_angle_alpha 90.000000
_cell_angle_beta 156.997439
_cell_angle_gamma 90.000000
_cell_volume 684.727997
_symmetry_space_group_name_H-M "P 2/C"
_symmetry_group_IT_number 13
_symmetry_cell_setting 'monoclinic'
loop_
_space_group_symop_operation_xyz
x,y,z
-x,y,1/2-z
-x,-y,-z
x,-y,1/2+z
loop_
_atom_site_type_symbol
_atom_site_label
_atom_site_fract_x
_atom_site_fract_y
_atom_site_fract_z
Si Si1 0.259938 0.381042 0.497964
Si Si2 0.500000 0.291896 0.250000
Si Si3 0.090204 0.803238 0.579690
Si Si4 0.454760 0.060486 0.547490
Si Si5 0.000000 0.418926 0.750000
O O1 0.358823 0.579088 0.605828
O O2 0.109673 0.345592 0.203511
O O3 0.165832 0.434246 0.472576
O O4 0.387545 0.189693 0.683541
O O5 0.586092 0.146846 0.453270
O O6 0.992926 0.715793 0.343549
O O7 0.000000 0.000000 0.500000
O O8 0.281122 0.818593 0.805472
O O9 0.500000 0.000000 0.500000
#
# Coordination Sequence:
#
# PCOD8123081 Si02
#       5
#     4   2   4   4   2
#     4  12  27  51  74 112 147 194 255 302 370 447
#     4  12  22  50  76 104 144 188 248 304 364 430
#     4  12  27  50  73 112 152 194 248 307 374 437
#     4  12  27  46  80 107 144 198 245 306 368 443
#     4  12  30  44  78 110 152 204 238 312 374 440
#
# _framework density 23.366945000000001
#
# number of rings (size 3 to 8) (size 9 to 14) (size 15 to 20)
#    0.000    0.000    5.000    3.750   10.500    2.000 
#    0.000    0.000    0.000    0.000    0.000    0.000 
#    0.000    0.000    0.000    0.000    0.000    0.000 
#
# Total GULP energy -198284.722097 kJ/mol
# GULP energy per Si atom -12392.795131 kJ/mol
# Density = 2.331376 g / cm^3
# Si number density = 23.366945 Si / 1000 Ang^3
#
#
#
# Elastic Constant Matrix: (Units=GPa)
#
#
# Indices 1 2 3 4 5 6 
#
# 1 129.5731 33.3357 22.1593 0.0000 17.9660 0.0000
# 2 33.3357 102.7011 21.6288 0.0000 11.1729 0.0000
# 3 22.1593 21.6288 84.9177 0.0000 7.0037 0.0000
# 4 0.0000 0.0000 0.0000 31.4171 0.0000 5.4818
# 5 17.9660 11.1729 7.0037 0.0000 49.2110 0.0000
# 6 0.0000 0.0000 0.0000 5.4818 0.0000 48.7531
#
#
#
# Elastic Compliance Matrix: (Units=1/GPa)
#
#
# Indices 1 2 3 4 5 6 
#
# 1 0.008920 -0.002298 -0.001535 0.000000 -0.002516 0.000000
# 2 -0.002298 0.011077 -0.002108 0.000000 -0.001376 0.000000
# 3 -0.001535 -0.002108 0.012778 0.000000 -0.000780 0.000000
# 4 0.000000 0.000000 0.000000 0.032467 0.000000 -0.003651
# 5 -0.002516 -0.001376 -0.000780 0.000000 0.021663 0.000000
# 6 0.000000 0.000000 0.000000 -0.003651 0.000000 0.020922
#
#
# Mechanical properties :
#
#
# Convention : Reuss Voigt Hill
#
# Bulk Modulus (GPa) = 47.86451 52.38215 50.12333
# Shear Modulus (GPa) = 39.47175 41.88079 40.67627
#
# Velocity S-wave (km/s) = 4.11446 4.23816 4.17677
# Velocity P-wave (km/s) = 6.56506 6.81287 6.69011
#
# Compressibility (1/GPa) = 0.02089231
#
# Stress axis : x y z
#
# Youngs Moduli (GPa) = 112.10295 90.27994 78.26055
#
# Poissons Ratio (x) = 0.20751 0.12011
# Poissons Ratio (y) = 0.25766 0.16497
# Poissons Ratio (z) = 0.17206 0.19031
#
# Static dielectric constant tensor:
#      x y z
#    x 4.554020 0.000000 0.199010 
#    y 0.000000 4.344400 0.000000 
#    z 0.199010 0.000000 4.616230 
# 
# 
# High freq. dielectric constant tensor:
#      x y z
#    x 1.950630 0.000000 0.012270 
#    y 0.000000 1.932750 0.000000 
#    z 0.012270 0.000000 1.920920 
# 
# From -- ./inp_files/45048.got.cif
#   From: 2010.06.25/outbox.cif.g09.slc.cpg/sg13_23_cif.got.tgz:45048.got - 2010.06.28 04:50:58.
