data_PCOD8123891
_publ_section_title
;
Structure prediction by ZEFSAII (Michael W. Deem and Ramdas Pophale) SiO2 
 PCOD8123891
Probable space group: P 21/C
;
_chemical_formula_sum "Si O2"
_cell_formula_units_Z 24
_cell_length_a 11.213776
_cell_length_b 21.107092
_cell_length_c 13.334423
_cell_angle_alpha 90.000000
_cell_angle_beta 158.202525
_cell_angle_gamma 90.000000
_cell_volume 1171.955009
_symmetry_space_group_name_H-M "P 21/C"
_symmetry_group_IT_number 14
_symmetry_cell_setting 'monoclinic'
loop_
_space_group_symop_operation_xyz
x,y,z
-x,1/2+y,1/2-z
-x,-y,-z
x,1/2-y,1/2+z
loop_
_atom_site_type_symbol
_atom_site_label
_atom_site_fract_x
_atom_site_fract_y
_atom_site_fract_z
Si Si1 0.670341 0.814077 0.992746
Si Si2 0.138175 0.647350 0.438631
Si Si3 0.361824 0.852651 0.561370
Si Si4 0.750000 0.956083 0.750000
Si Si5 0.170339 0.185924 0.492745
Si Si6 0.250005 0.252128 0.250004
O O1 0.563317 0.796701 0.023148
O O2 0.986365 0.859178 0.244082
O O3 0.405148 0.848658 0.716360
O O4 0.750013 0.750002 0.000006
O O5 0.513632 0.640824 0.755921
O O6 0.942019 0.586735 0.321405
O O7 0.014701 0.710455 0.399538
O O8 0.094855 0.651344 0.283643
O O9 0.557983 0.913265 0.678597
O O10 0.485293 0.789545 0.600457
O O11 0.500000 0.000000 0.500000
O O12 0.000000 0.000000 0.000000
O O13 0.063330 0.203297 0.523160
#
# Coordination Sequence:
#
# PCOD8123891 Si02
#       6
#     4   4   4   4   4   4
#     4  10  19  31  48  75 109 141 164 199 250 313
#     4  10  21  33  49  78 107 131 173 214 247 307
#     4  10  21  33  49  78 107 131 173 214 247 307
#     4  11  22  38  58  76  98 136 178 225 270 292
#     4  10  19  31  48  75 109 141 164 199 250 313
#     4   9  18  30  50  74 108 140 158 191 256 320
#
# _framework density 20.478601000000001
#
# number of rings (size 3 to 8) (size 9 to 14) (size 15 to 20)
#    0.000    2.000    0.000    6.000    0.000   17.333 
#    0.000    0.000    0.000    0.000    0.000   23.333 
#    0.000    0.000    0.000    0.000    0.000    0.000 
#
# Total GULP energy -297430.592292 kJ/mol
# GULP energy per Si atom -12392.941345 kJ/mol
# Density = 2.043199 g / cm^3
# Si number density = 20.478601 Si / 1000 Ang^3
#
#
#
# Elastic Constant Matrix: (Units=GPa)
#
#
# Indices 1 2 3 4 5 6 
#
# 1 126.4160 43.1332 26.1973 0.0000 -33.5957 0.0000
# 2 43.1332 82.9137 29.0927 0.0000 -11.3780 0.0000
# 3 26.1973 29.0927 106.8613 0.0000 -27.0417 0.0000
# 4 0.0000 0.0000 0.0000 35.6512 0.0000 -4.6918
# 5 -33.5957 -11.3780 -27.0417 0.0000 35.3091 0.0000
# 6 0.0000 0.0000 0.0000 -4.6918 0.0000 15.3927
#
#
#
# Elastic Compliance Matrix: (Units=1/GPa)
#
#
# Indices 1 2 3 4 5 6 
#
# 1 0.012419 -0.005373 0.001203 0.000000 0.011007 0.000000
# 2 -0.005373 0.015760 -0.003699 0.000000 -0.002866 0.000000
# 3 0.001203 -0.003699 0.012476 0.000000 0.009508 0.000000
# 4 0.000000 0.000000 0.000000 0.029222 0.000000 0.008907
# 5 0.011007 -0.002866 0.009508 0.000000 0.045152 0.000000
# 6 0.000000 0.000000 0.000000 0.008907 0.000000 0.067681
#
#
# Mechanical properties :
#
#
# Convention : Reuss Voigt Hill
#
# Bulk Modulus (GPa) = 40.12930 57.00416 48.56673
# Shear Modulus (GPa) = 24.18349 31.78845 27.98597
#
# Velocity S-wave (km/s) = 3.44017 3.94417 3.70076
# Velocity P-wave (km/s) = 5.95130 6.97412 6.48291
#
# Compressibility (1/GPa) = 0.02491945
#
# Stress axis : x y z
#
# Youngs Moduli (GPa) = 80.51991 63.45113 80.15458
#
# Poissons Ratio (x) = 0.34089 -0.09646
# Poissons Ratio (y) = 0.43259 0.29648
# Poissons Ratio (z) = -0.09690 0.23470
#
# Static dielectric constant tensor:
#      x y z
#    x 4.556490 0.000000 -0.623660 
#    y 0.000000 3.972460 0.000000 
#    z -0.623660 0.000000 4.015510 
# 
# 
# High freq. dielectric constant tensor:
#      x y z
#    x 1.809510 0.000000 -0.020910 
#    y 0.000000 1.744990 0.000000 
#    z -0.020910 0.000000 1.817350 
# 
# From -- ./inp_files/2797.got.cif
#   From: 2010.03.12/outbox.cif.g09.slc.cpg/sg14_2_cif.got.tgz:2797.got - 2010.03.31 13:35:05.
