data_PCOD8123296
_publ_section_title
;
Structure prediction by ZEFSAII (Michael W. Deem and Ramdas Pophale) SiO2 
 PCOD8123296
Probable space group: P 21/C
;
_chemical_formula_sum "Si O2"
_cell_formula_units_Z 28
_cell_length_a 14.091792
_cell_length_b 20.228225
_cell_length_c 5.364041
_cell_angle_alpha 90.000000
_cell_angle_beta 67.634444
_cell_angle_gamma 90.000000
_cell_volume 1414.008911
_symmetry_space_group_name_H-M "P 21/C"
_symmetry_group_IT_number 14
_symmetry_cell_setting 'monoclinic'
loop_
_space_group_symop_operation_xyz
x,y,z
-x,1/2+y,1/2-z
-x,-y,-z
x,1/2-y,1/2+z
loop_
_atom_site_type_symbol
_atom_site_label
_atom_site_fract_x
_atom_site_fract_y
_atom_site_fract_z
Si Si1 0.087873 0.126514 0.661928
Si Si2 0.486325 0.913463 0.763680
Si Si3 0.761215 0.751836 0.988927
Si Si4 0.897773 0.290187 0.352489
Si Si5 0.828668 0.602252 0.421501
Si Si6 0.661537 0.209482 0.088357
Si Si7 0.598233 0.559024 0.651808
O O1 0.158360 0.192253 0.591483
O O2 0.111678 0.082206 0.392029
O O3 0.968027 0.144671 0.781699
O O4 0.111687 0.082203 0.884217
O O5 0.403504 0.856487 0.846472
O O6 0.554862 0.906792 0.445830
O O7 0.425432 0.981851 0.824557
O O8 0.554876 0.906791 0.944466
O O9 0.690790 0.750001 0.809327
O O10 0.825980 0.818417 0.924178
O O11 0.923901 0.250177 0.576776
O O12 0.779914 0.312693 0.470039
O O13 0.719263 0.567529 0.530852
O O14 0.635373 0.250041 0.364416
#
# Coordination Sequence:
#
# PCOD8123296 Si02
#       7
#     4   4   4   4   4   4   4
#     4  10  17  28  46  71 108 139 167 211 257 319
#     4  10  21  40  59  79 106 140 189 230 270 325
#     4   8  14  23  36  57  91 125 152 188 235 286
#     4  10  18  30  51  76 104 144 183 213 265 327
#     4  10  18  29  46  72 101 132 173 212 255 306
#     4  10  21  37  58  84 110 138 178 233 281 314
#     4  10  21  37  60  79 102 148 188 221 267 333
#
# _framework density 19.801853999999999
#
# number of rings (size 3 to 8) (size 9 to 14) (size 15 to 20)
#    0.000    2.286    0.000    5.143    0.000    0.000 
#    0.000   12.857    0.000    1.714    0.000    0.000 
#    0.000    0.000    0.000    0.000    0.000    0.000 
#
# Total GULP energy -346889.121076 kJ/mol
# GULP energy per Si atom -12388.897181 kJ/mol
# Density = 1.975678 g / cm^3
# Si number density = 19.801854 Si / 1000 Ang^3
#
#
#
# Elastic Constant Matrix: (Units=GPa)
#
#
# Indices 1 2 3 4 5 6 
#
# 1 92.6612 34.4614 75.8547 0.0000 8.2400 0.0000
# 2 34.4614 28.6808 29.1120 0.0000 -3.0661 0.0000
# 3 75.8547 29.1120 202.3283 0.0000 52.4947 0.0000
# 4 0.0000 0.0000 0.0000 12.5387 0.0000 -4.3614
# 5 8.2400 -3.0661 52.4947 0.0000 40.7552 0.0000
# 6 0.0000 0.0000 0.0000 -4.3614 0.0000 20.2788
#
#
#
# Elastic Compliance Matrix: (Units=1/GPa)
#
#
# Indices 1 2 3 4 5 6 
#
# 1 0.024087 -0.022587 -0.006122 0.000000 0.001316 0.000000
# 2 -0.022587 0.070353 -0.006327 0.000000 0.018009 0.000000
# 3 -0.006122 -0.006327 0.011941 0.000000 -0.014619 0.000000
# 4 0.000000 0.000000 0.000000 0.086202 0.000000 0.018540
# 5 0.001316 0.018009 -0.014619 0.000000 0.044455 0.000000
# 6 0.000000 0.000000 0.000000 0.018540 0.000000 0.053300
#
#
# Mechanical properties :
#
#
# Convention : Reuss Voigt Hill
#
# Bulk Modulus (GPa) = 27.54149 66.94739 47.24444
# Shear Modulus (GPa) = 13.42235 26.99735 20.20985
#
# Velocity S-wave (km/s) = 2.60635 3.69640 3.19816
# Velocity P-wave (km/s) = 4.79543 7.21802 6.12764
#
# Compressibility (1/GPa) = 0.03630885
#
# Stress axis : x y z
#
# Youngs Moduli (GPa) = 41.51679 14.21399 83.74544
#
# Poissons Ratio (x) = 0.32105 0.51268
# Poissons Ratio (y) = 0.93772 0.52990
# Poissons Ratio (z) = 0.25416 0.08994
#
# Static dielectric constant tensor:
#      x y z
#    x 3.622670 0.000000 0.644280 
#    y 0.000000 3.128860 0.000000 
#    z 0.644280 0.000000 4.768440 
# 
# 
# High freq. dielectric constant tensor:
#      x y z
#    x 1.761940 0.000000 0.025790 
#    y 0.000000 1.727230 0.000000 
#    z 0.025790 0.000000 1.807820 
# 
# From -- ./inp_files/2928.got.cif
#   From: 2010.03.12/outbox.cif.g09.slc.cpg/sg14_2_cif.got.tgz:2928.got - 2010.03.31 13:35:05.
