data_PCOD8123998
_publ_section_title
;
Structure prediction by ZEFSAII (Michael W. Deem and Ramdas Pophale) SiO2 
 PCOD8123998
Probable space group: P 21/C
;
_chemical_formula_sum "Si O2"
_cell_formula_units_Z 32
_cell_length_a 8.434282
_cell_length_b 14.096157
_cell_length_c 16.797689
_cell_angle_alpha 90.000000
_cell_angle_beta 65.026208
_cell_angle_gamma 90.000000
_cell_volume 1810.367196
_symmetry_space_group_name_H-M "P 21/C"
_symmetry_group_IT_number 14
_symmetry_cell_setting 'monoclinic'
loop_
_space_group_symop_operation_xyz
x,y,z
-x,1/2+y,1/2-z
-x,-y,-z
x,1/2-y,1/2+z
loop_
_atom_site_type_symbol
_atom_site_label
_atom_site_fract_x
_atom_site_fract_y
_atom_site_fract_z
Si Si1 0.161181 0.144454 0.243311
Si Si2 0.496322 0.680849 0.417567
Si Si3 0.689171 0.001696 0.685105
Si Si4 0.139419 0.333617 0.922005
Si Si5 0.353084 0.988433 0.848279
Si Si6 0.697893 0.842045 0.029125
Si Si7 0.043193 0.628728 0.364657
Si Si8 0.207191 0.806907 0.412842
O O1 0.322326 0.199176 0.167445
O O2 0.116667 0.200565 0.334683
O O3 0.994439 0.140749 0.221134
O O4 0.213231 0.035217 0.254914
O O5 0.403059 0.586155 0.406300
O O6 0.535708 0.669178 0.502988
O O7 0.369569 0.771194 0.431949
O O8 0.731161 0.110067 0.658625
O O9 0.754153 0.933721 0.598573
O O10 0.482936 0.987967 0.745124
O O11 0.253739 0.260675 0.947871
O O12 0.946744 0.345957 0.998746
O O13 0.162304 0.963391 0.854173
O O14 0.356427 0.092217 0.886051
O O15 0.863330 0.888850 0.949737
O O16 0.142718 0.722763 0.370439
#
# Coordination Sequence:
#
# PCOD8123998 Si02
#       8
#     4   4   4   4   4   4   4   4
#     4   8  18  37  52  74 112 136 166 226 264 298
#     4   9  19  35  54  79 110 132 175 225 264 306
#     4   9  20  35  53  75 109 141 172 218 264 305
#     4   9  20  37  52  75 108 140 179 217 261 311
#     4  10  19  33  55  81 106 137 174 223 266 317
#     4  10  19  34  57  79 104 143 175 215 273 318
#     4   9  19  36  55  78 108 136 176 225 265 310
#     4  10  19  36  57  77 102 148 179 213 265 319
#
# _framework density 17.675972999999999
#
# number of rings (size 3 to 8) (size 9 to 14) (size 15 to 20)
#    0.750    2.000    0.000    1.125    1.750    0.000 
#    6.750    1.875    0.000    0.000    0.000    0.000 
#    0.000    0.000    0.000    0.000    0.000    0.000 
#
# Total GULP energy -396658.706997 kJ/mol
# GULP energy per Si atom -12395.584594 kJ/mol
# Density = 1.763574 g / cm^3
# Si number density = 17.675973 Si / 1000 Ang^3
#
#
#
# Elastic Constant Matrix: (Units=GPa)
#
#
# Indices 1 2 3 4 5 6 
#
# 1 111.8426 32.3344 34.1100 0.0000 -0.3350 0.0000
# 2 32.3344 72.3433 27.7907 0.0000 -12.0003 0.0000
# 3 34.1100 27.7907 60.8131 0.0000 -7.7276 0.0000
# 4 0.0000 0.0000 0.0000 30.0866 0.0000 -1.5574
# 5 -0.3350 -12.0003 -7.7276 0.0000 20.4628 0.0000
# 6 0.0000 0.0000 0.0000 -1.5574 0.0000 16.9306
#
#
#
# Elastic Compliance Matrix: (Units=1/GPa)
#
#
# Indices 1 2 3 4 5 6 
#
# 1 0.011657 -0.003851 -0.005296 0.000000 -0.004067 0.000000
# 2 -0.003851 0.019141 -0.005430 0.000000 0.009112 0.000000
# 3 -0.005296 -0.005430 0.022563 0.000000 0.005250 0.000000
# 4 0.000000 0.000000 0.000000 0.033396 0.000000 0.003072
# 5 -0.004067 0.009112 0.005250 0.000000 0.056129 0.000000
# 6 0.000000 0.000000 0.000000 0.003072 0.000000 0.059347
#
#
# Mechanical properties :
#
#
# Convention : Reuss Voigt Hill
#
# Bulk Modulus (GPa) = 41.30665 48.16326 44.73496
# Shear Modulus (GPa) = 20.88074 23.54693 22.21383
#
# Velocity S-wave (km/s) = 3.44074 3.65381 3.54888
# Velocity P-wave (km/s) = 6.26135 6.71621 6.49276
#
# Compressibility (1/GPa) = 0.02420918
#
# Stress axis : x y z
#
# Youngs Moduli (GPa) = 85.78324 52.24301 44.32131
#
# Poissons Ratio (x) = 0.20117 0.23471
# Poissons Ratio (y) = 0.33032 0.24065
# Poissons Ratio (z) = 0.45428 0.28366
#
# Static dielectric constant tensor:
#      x y z
#    x 3.286740 0.000000 -0.064500 
#    y 0.000000 3.024910 0.000000 
#    z -0.064500 0.000000 3.233410 
# 
# 
# High freq. dielectric constant tensor:
#      x y z
#    x 1.680280 0.000000 -0.007580 
#    y 0.000000 1.667200 0.000000 
#    z -0.007580 0.000000 1.680120 
# 
# From -- ./inp_files/55728.got.cif
#   From: 2010.03.12/outbox.cif.g09.slc.cpg/sg14_28_cif.got.tgz:55728.got - 2010.03.31 13:35:05.
