data_PCOD8123658
_publ_section_title
;
Structure prediction by ZEFSAII (Michael W. Deem and Ramdas Pophale) SiO2 
 PCOD8123658
Probable space group: P 21/C
;
_chemical_formula_sum "Si O2"
_cell_formula_units_Z 32
_cell_length_a 15.796135
_cell_length_b 18.981535
_cell_length_c 10.014838
_cell_angle_alpha 90.000000
_cell_angle_beta 35.678035
_cell_angle_gamma 90.000000
_cell_volume 1751.321327
_symmetry_space_group_name_H-M "P 21/C"
_symmetry_group_IT_number 14
_symmetry_cell_setting 'monoclinic'
loop_
_space_group_symop_operation_xyz
x,y,z
-x,1/2+y,1/2-z
-x,-y,-z
x,1/2-y,1/2+z
loop_
_atom_site_type_symbol
_atom_site_label
_atom_site_fract_x
_atom_site_fract_y
_atom_site_fract_z
Si Si1 0.956789 0.565122 0.395259
Si Si2 0.924808 0.581526 0.742377
Si Si3 0.345977 0.064741 0.816915
Si Si4 0.797319 0.320537 0.914199
Si Si5 0.431915 0.593364 0.183899
Si Si6 0.467846 0.586379 0.676025
Si Si7 0.606040 0.572567 0.221765
Si Si8 0.175436 0.691733 0.429053
O O1 0.899665 0.563063 0.619815
O O2 0.820096 0.589913 0.481939
O O3 0.006382 0.488309 0.279777
O O4 0.089207 0.617446 0.209060
O O5 0.028643 0.647460 0.634478
O O6 0.769901 0.601163 0.004923
O O7 0.449524 0.106207 0.582627
O O8 0.393607 0.082900 0.905111
O O9 0.355368 0.982217 0.768581
O O10 0.800638 0.291398 0.758438
O O11 0.637520 0.350469 0.147493
O O12 0.841785 0.262572 0.965057
O O13 0.509541 0.602966 0.225863
O O14 0.309959 0.651528 0.321460
O O15 0.528578 0.601893 0.452157
O O16 0.383678 0.512223 0.793233
#
# Coordination Sequence:
#
# PCOD8123658 Si02
#       8
#     4   4   4   4   4   4   4   4
#     4  10  19  35  64  90 116 152 201 255 293 348
#     4  10  19  36  62  91 116 154 200 248 300 351
#     4  10  18  34  61  95 111 144 200 252 295 337
#     4  11  24  42  60  84 123 164 199 241 304 364
#     4  10  19  33  62  90 117 144 199 248 289 358
#     4  10  21  37  58  89 126 152 188 249 301 353
#     4  10  20  36  61  93 120 148 192 249 307 344
#     4  11  24  41  60  87 120 162 201 243 301 367
#
# _framework density 18.271919
#
# number of rings (size 3 to 8) (size 9 to 14) (size 15 to 20)
#    0.000    1.750    5.000    0.000    1.750    0.000 
#    2.250    3.125    0.000    0.000    0.000    0.000 
#    0.000    0.000    0.000    0.000    0.000    0.000 
#
# Total GULP energy -396881.215135 kJ/mol
# GULP energy per Si atom -12402.537973 kJ/mol
# Density = 1.823033 g / cm^3
# Si number density = 18.271919 Si / 1000 Ang^3
#
#
#
# Elastic Constant Matrix: (Units=GPa)
#
#
# Indices 1 2 3 4 5 6 
#
# 1 99.0989 26.4596 51.1496 0.0000 -1.1032 0.0000
# 2 26.4596 60.9052 30.9915 0.0000 6.4809 0.0000
# 3 51.1496 30.9915 89.1098 0.0000 0.2710 0.0000
# 4 0.0000 0.0000 0.0000 15.3942 0.0000 2.3527
# 5 -1.1032 6.4809 0.2710 0.0000 35.5677 0.0000
# 6 0.0000 0.0000 0.0000 2.3527 0.0000 26.0769
#
#
#
# Elastic Compliance Matrix: (Units=1/GPa)
#
#
# Indices 1 2 3 4 5 6 
#
# 1 0.014689 -0.002668 -0.007507 0.000000 0.000999 0.000000
# 2 -0.002668 0.020901 -0.005726 0.000000 -0.003848 0.000000
# 3 -0.007507 -0.005726 0.017520 0.000000 0.000677 0.000000
# 4 0.000000 0.000000 0.000000 0.065868 0.000000 -0.005943
# 5 0.000999 -0.003848 0.000677 0.000000 0.028842 0.000000
# 6 0.000000 0.000000 0.000000 -0.005943 0.000000 0.038884
#
#
# Mechanical properties :
#
#
# Convention : Reuss Voigt Hill
#
# Bulk Modulus (GPa) = 46.92849 51.81282 49.37065
# Shear Modulus (GPa) = 22.16221 24.77532 23.46877
#
# Velocity S-wave (km/s) = 3.48647 3.68628 3.58776
# Velocity P-wave (km/s) = 6.47660 6.82175 6.65142
#
# Compressibility (1/GPa) = 0.02130902
#
# Stress axis : x y z
#
# Youngs Moduli (GPa) = 68.07827 47.84429 57.07627
#
# Poissons Ratio (x) = 0.12765 0.42845
# Poissons Ratio (y) = 0.18163 0.32682
# Poissons Ratio (z) = 0.51104 0.27396
#
# Static dielectric constant tensor:
#      x y z
#    x 3.419520 0.000000 0.003370 
#    y 0.000000 3.103240 0.000000 
#    z 0.003370 0.000000 3.312710 
# 
# 
# High freq. dielectric constant tensor:
#      x y z
#    x 1.717920 0.000000 -0.007890 
#    y 0.000000 1.680030 0.000000 
#    z -0.007890 0.000000 1.709050 
# 
# From -- ./inp_files/16848.got.cif
#   From: 2010.03.12/outbox.cif.g09.slc.cpg/sg14_9_cif.got.tgz:16848.got - 2010.03.31 13:35:05.
