data_PCOD8123233
_publ_section_title
;
Structure prediction by ZEFSAII (Michael W. Deem and Ramdas Pophale) SiO2 
 PCOD8123233
Probable space group: P 21/C
;
_chemical_formula_sum "Si O2"
_cell_formula_units_Z 28
_cell_length_a 17.631439
_cell_length_b 14.477760
_cell_length_c 5.210618
_cell_angle_alpha 90.000000
_cell_angle_beta 106.851763
_cell_angle_gamma 90.000000
_cell_volume 1272.965456
_symmetry_space_group_name_H-M "P 21/C"
_symmetry_group_IT_number 14
_symmetry_cell_setting 'monoclinic'
loop_
_space_group_symop_operation_xyz
x,y,z
-x,1/2+y,1/2-z
-x,-y,-z
x,1/2-y,1/2+z
loop_
_atom_site_type_symbol
_atom_site_label
_atom_site_fract_x
_atom_site_fract_y
_atom_site_fract_z
Si Si1 0.440711 0.190130 0.639749
Si Si2 0.972053 0.618497 0.722116
Si Si3 0.775921 0.310334 0.485569
Si Si4 0.729246 0.640900 0.989037
Si Si5 0.393239 0.692137 0.586008
Si Si6 0.797048 0.654247 0.555544
Si Si7 0.937475 0.097036 0.189393
O O1 0.436535 0.227861 0.345735
O O2 0.365291 0.123079 0.606018
O O3 0.524857 0.136138 0.770164
O O4 0.890580 0.676188 0.647592
O O5 0.948709 0.511644 0.701055
O O6 0.020934 0.644160 0.515559
O O7 0.024392 0.643912 0.021196
O O8 0.783306 0.269884 0.206318
O O9 0.689689 0.360780 0.437169
O O10 0.843957 0.385512 0.593495
O O11 0.770485 0.595678 0.779867
O O12 0.748523 0.750308 0.011756
O O13 0.770649 0.595621 0.279365
O O14 0.394580 0.778580 0.788492
#
# Coordination Sequence:
#
# PCOD8123233 Si02
#       7
#     4   4   4   4   4   4   4
#     4  10  14  25  41  64  95 129 150 180 234 287
#     4  10  21  37  53  69  93 132 175 195 233 295
#     4  10  19  35  50  77 102 119 158 207 254 285
#     4  10  17  28  43  68 102 121 149 191 242 280
#     4   8  16  25  44  66  95 121 154 187 233 289
#     4  10  18  30  43  67  95 123 157 197 229 282
#     4  10  21  38  54  69  94 131 167 203 239 292
#
# _framework density 21.995882999999999
#
# number of rings (size 3 to 8) (size 9 to 14) (size 15 to 20)
#    0.000    2.286    2.857    1.714    0.000    0.000 
#   15.429    0.000    0.000    0.000    0.000    2.000 
#    0.000    0.000    0.000    0.000    0.000    0.000 
#
# Total GULP energy -346902.270762 kJ/mol
# GULP energy per Si atom -12389.366813 kJ/mol
# Density = 2.194582 g / cm^3
# Si number density = 21.995883 Si / 1000 Ang^3
#
#
#
# Elastic Constant Matrix: (Units=GPa)
#
#
# Indices 1 2 3 4 5 6 
#
# 1 182.0488 5.2792 66.8240 0.0000 23.2484 0.0000
# 2 5.2792 4.4981 0.7678 0.0000 1.4274 0.0000
# 3 66.8240 0.7678 173.7077 0.0000 -11.4437 0.0000
# 4 0.0000 0.0000 0.0000 2.7981 0.0000 2.1757
# 5 23.2484 1.4274 -11.4437 0.0000 55.9030 0.0000
# 6 0.0000 0.0000 0.0000 2.1757 0.0000 7.2981
#
#
#
# Elastic Compliance Matrix: (Units=1/GPa)
#
#
# Indices 1 2 3 4 5 6 
#
# 1 0.007223 -0.006879 -0.002975 0.000000 -0.003437 0.000000
# 2 -0.006879 0.231015 0.001445 0.000000 -0.002742 0.000000
# 3 -0.002975 0.001445 0.007069 0.000000 0.002647 0.000000
# 4 0.000000 0.000000 0.000000 0.465241 0.000000 -0.138700
# 5 -0.003437 -0.002742 0.002647 0.000000 0.019930 0.000000
# 6 0.000000 0.000000 0.000000 -0.138700 0.000000 0.178372
#
#
# Mechanical properties :
#
#
# Convention : Reuss Voigt Hill
#
# Bulk Modulus (GPa) = 4.37658 56.22183 30.29921
# Shear Modulus (GPa) = 4.99085 32.35872 18.67479
#
# Velocity S-wave (km/s) = 1.50795 3.83969 2.91694
# Velocity P-wave (km/s) = 2.24186 6.72854 5.01494
#
# Compressibility (1/GPa) = 0.22848898
#
# Stress axis : x y z
#
# Youngs Moduli (GPa) = 138.43803 4.32872 141.45836
#
# Poissons Ratio (x) = 0.02978 0.42082
# Poissons Ratio (y) = 0.95235 -0.20435
# Poissons Ratio (z) = 0.41183 -0.00625
#
# Static dielectric constant tensor:
#      x y z
#    x 4.897790 0.000000 -0.862630 
#    y 0.000000 2.897670 0.000000 
#    z -0.862630 0.000000 6.979520 
# 
# 
# High freq. dielectric constant tensor:
#      x y z
#    x 1.898050 0.000000 -0.000900 
#    y 0.000000 1.754870 0.000000 
#    z -0.000900 0.000000 1.902760 
# 
# From -- ./inp_files/3671.got.cif
#   From: 2010.03.12/outbox.cif.g09.slc.cpg/sg14_2_cif.got.tgz:3671.got - 2010.03.31 13:35:05.
