data_PCOD8123308
_publ_section_title
;
Structure prediction by ZEFSAII (Michael W. Deem and Ramdas Pophale) SiO2 
 PCOD8123308
Probable space group: P 21/C
;
_chemical_formula_sum "Si O2"
_cell_formula_units_Z 32
_cell_length_a 8.599690
_cell_length_b 10.962483
_cell_length_c 20.736811
_cell_angle_alpha 90.000000
_cell_angle_beta 122.358534
_cell_angle_gamma 90.000000
_cell_volume 1651.369114
_symmetry_space_group_name_H-M "P 21/C"
_symmetry_group_IT_number 14
_symmetry_cell_setting 'monoclinic'
loop_
_space_group_symop_operation_xyz
x,y,z
-x,1/2+y,1/2-z
-x,-y,-z
x,1/2-y,1/2+z
loop_
_atom_site_type_symbol
_atom_site_label
_atom_site_fract_x
_atom_site_fract_y
_atom_site_fract_z
Si Si1 0.481719 0.520195 0.893030
Si Si2 0.882939 0.962470 0.331854
Si Si3 0.158735 0.196138 0.843436
Si Si4 0.555205 0.120104 0.293306
Si Si5 0.845550 0.058208 0.188561
Si Si6 0.271940 0.782805 0.265184
Si Si7 0.169128 0.196861 0.209478
Si Si8 0.769684 0.587697 0.054487
O O1 0.546665 0.397321 0.869462
O O2 0.390418 0.606660 0.818931
O O3 0.336907 0.494019 0.916852
O O4 0.661513 0.585511 0.962979
O O5 0.948678 0.003974 0.275008
O O6 0.886657 0.817225 0.343174
O O7 0.671839 0.004615 0.293699
O O8 0.028261 0.028042 0.411927
O O9 0.250098 0.059827 0.866696
O O10 0.228155 0.265540 0.795190
O O11 0.215720 0.272081 0.919163
O O12 0.938817 0.179961 0.789917
O O13 0.654140 0.243313 0.289505
O O14 0.345337 0.125893 0.218915
O O15 0.709407 0.167284 0.180629
O O16 0.995323 0.107767 0.171209
#
# Coordination Sequence:
#
# PCOD8123308 Si02
#       8
#     4   4   4   4   4   4   4   4
#     4  11  23  35  58  84 118 145 184 239 284 332
#     4  10  19  32  51  82 109 145 181 233 277 333
#     4  10  17  33  54  76 106 145 188 226 270 334
#     4  11  19  33  49  82 109 142 183 226 280 322
#     4   9  17  30  55  76 105 141 192 230 267 322
#     4  10  20  34  53  83 112 141 190 231 278 324
#     4  10  17  29  53  77 108 137 191 230 273 314
#     4  11  20  38  55  83 118 149 184 229 295 335
#
# _framework density 19.377859999999998
#
# number of rings (size 3 to 8) (size 9 to 14) (size 15 to 20)
#    0.000    1.750    5.000    3.750    0.000    0.500 
#    0.000    0.625    0.000    0.000    0.000    2.625 
#    0.000    0.000    0.000    0.000    0.000    0.000 
#
# Total GULP energy -396467.824219 kJ/mol
# GULP energy per Si atom -12389.619507 kJ/mol
# Density = 1.933376 g / cm^3
# Si number density = 19.377860 Si / 1000 Ang^3
#
#
#
# Elastic Constant Matrix: (Units=GPa)
#
#
# Indices 1 2 3 4 5 6 
#
# 1 84.7397 21.6733 13.0248 0.0000 3.8035 0.0000
# 2 21.6733 79.2366 14.2308 0.0000 4.7562 0.0000
# 3 13.0248 14.2308 44.3056 0.0000 7.6500 0.0000
# 4 0.0000 0.0000 0.0000 23.8457 0.0000 -0.5189
# 5 3.8035 4.7562 7.6500 0.0000 18.1423 0.0000
# 6 0.0000 0.0000 0.0000 -0.5189 0.0000 29.1518
#
#
#
# Elastic Compliance Matrix: (Units=1/GPa)
#
#
# Indices 1 2 3 4 5 6 
#
# 1 0.013029 -0.003028 -0.002721 0.000000 -0.000790 0.000000
# 2 -0.003028 0.014153 -0.003370 0.000000 -0.001655 0.000000
# 3 -0.002721 -0.003370 0.026102 0.000000 -0.009552 0.000000
# 4 0.000000 0.000000 0.000000 0.041953 0.000000 0.000747
# 5 -0.000790 -0.001655 -0.009552 0.000000 0.059747 0.000000
# 6 0.000000 0.000000 0.000000 0.000747 0.000000 0.034317
#
#
# Mechanical properties :
#
#
# Convention : Reuss Voigt Hill
#
# Bulk Modulus (GPa) = 28.53369 34.01549 31.27459
# Shear Modulus (GPa) = 22.80805 24.85150 23.82977
#
# Velocity S-wave (km/s) = 3.43449 3.58504 3.51057
# Velocity P-wave (km/s) = 5.52127 5.89310 5.71021
#
# Compressibility (1/GPa) = 0.03504629
#
# Stress axis : x y z
#
# Youngs Moduli (GPa) = 76.75224 70.65563 38.31070
#
# Poissons Ratio (x) = 0.21392 0.10425
# Poissons Ratio (y) = 0.23237 0.12912
# Poissons Ratio (z) = 0.20887 0.23812
#
# Static dielectric constant tensor:
#      x y z
#    x 3.691770 0.000000 -0.087170 
#    y 0.000000 3.736120 0.000000 
#    z -0.087170 0.000000 3.113860 
# 
# 
# High freq. dielectric constant tensor:
#      x y z
#    x 1.765610 0.000000 -0.004500 
#    y 0.000000 1.760060 0.000000 
#    z -0.004500 0.000000 1.684800 
# 
# From -- ./inp_files/65259.got.cif
#   From: 2010.03.12/outbox.cif.g09.slc.cpg/sg14_33_cif.got.tgz:65259.got - 2010.03.31 13:35:05.
