data_PCOD8123053
_publ_section_title
;
Structure prediction by ZEFSAII (Michael W. Deem and Ramdas Pophale) SiO2 
 PCOD8123053
Probable space group: P 2/C
;
_chemical_formula_sum "Si O2"
_cell_formula_units_Z 18
_cell_length_a 10.583152
_cell_length_b 15.898779
_cell_length_c 5.066078
_cell_angle_alpha 90.000000
_cell_angle_beta 92.753651
_cell_angle_gamma 90.000000
_cell_volume 851.429945
_symmetry_space_group_name_H-M "P 2/C"
_symmetry_group_IT_number 13
_symmetry_cell_setting 'monoclinic'
loop_
_space_group_symop_operation_xyz
x,y,z
-x,y,1/2-z
-x,-y,-z
x,-y,1/2+z
loop_
_atom_site_type_symbol
_atom_site_label
_atom_site_fract_x
_atom_site_fract_y
_atom_site_fract_z
Si Si1 0.500000 0.441464 0.750000
Si Si2 0.358883 0.223247 0.206770
Si Si3 0.000000 0.838534 0.750000
Si Si4 0.748663 0.055079 0.180222
Si Si5 0.000000 0.719940 0.250000
Si Si6 0.272619 0.687357 0.198343
O O1 0.500000 0.500000 0.500000
O O2 0.629722 0.388629 0.758257
O O3 0.500000 0.258890 0.250000
O O4 0.358863 0.124403 0.272845
O O5 0.273125 0.274934 0.404255
O O6 0.310260 0.238934 0.906154
O O7 0.118023 0.899909 0.777553
O O8 0.014888 0.780368 0.499387
O O9 0.733246 0.978908 0.383173
O O10 0.874088 0.661166 0.262445
#
# Coordination Sequence:
#
# PCOD8123053 Si02
#       6
#     2   4   2   4   2   4
#     4  12  26  46  74 108 134 168 206 256 332 404
#     4  12  23  42  67  92 126 181 230 269 330 389
#     4  12  22  39  62  89 130 172 236 270 330 393
#     4  12  24  38  57  90 131 176 224 289 338 372
#     4  12  22  41  70 101 124 176 224 276 316 383
#     4  12  23  44  71 100 134 169 218 268 317 404
#
# _framework density 21.140906000000001
#
# number of rings (size 3 to 8) (size 9 to 14) (size 15 to 20)
#    0.000    0.000    6.667    4.667    0.000    0.889 
#    0.000    1.111    0.000    0.000    0.000    0.000 
#    0.000    0.000    0.000    0.000    0.000    0.000 
#
# Total GULP energy -223241.165171 kJ/mol
# GULP energy per Si atom -12402.286954 kJ/mol
# Density = 2.109279 g / cm^3
# Si number density = 21.140906 Si / 1000 Ang^3
#
#
#
# Elastic Constant Matrix: (Units=GPa)
#
#
# Indices 1 2 3 4 5 6 
#
# 1 148.6367 38.4913 9.0404 0.0000 -17.1479 0.0000
# 2 38.4913 97.6568 28.9129 0.0000 -11.4947 0.0000
# 3 9.0404 28.9129 108.4494 0.0000 -13.8759 0.0000
# 4 0.0000 0.0000 0.0000 28.4909 0.0000 1.1806
# 5 -17.1479 -11.4947 -13.8759 0.0000 26.0614 0.0000
# 6 0.0000 0.0000 0.0000 1.1806 0.0000 22.1216
#
#
#
# Elastic Compliance Matrix: (Units=1/GPa)
#
#
# Indices 1 2 3 4 5 6 
#
# 1 0.007911 -0.002800 0.000638 0.000000 0.004311 0.000000
# 2 -0.002800 0.012426 -0.002805 0.000000 0.002145 0.000000
# 3 0.000638 -0.002805 0.010528 0.000000 0.004788 0.000000
# 4 0.000000 0.000000 0.000000 0.035177 0.000000 -0.001877
# 5 0.004311 0.002145 0.004788 0.000000 0.044703 0.000000
# 6 0.000000 0.000000 0.000000 -0.001877 0.000000 0.045305
#
#
# Mechanical properties :
#
#
# Convention : Reuss Voigt Hill
#
# Bulk Modulus (GPa) = 47.77137 56.40356 52.08747
# Shear Modulus (GPa) = 28.90824 33.88800 31.39812
#
# Velocity S-wave (km/s) = 3.70186 4.00804 3.85799
# Velocity P-wave (km/s) = 6.39667 6.93952 6.67362
#
# Compressibility (1/GPa) = 0.02093304
#
# Stress axis : x y z
#
# Youngs Moduli (GPa) = 126.40065 80.47327 94.98319
#
# Poissons Ratio (x) = 0.22532 -0.06065
# Poissons Ratio (y) = 0.35391 0.26644
# Poissons Ratio (z) = -0.08071 0.22573
#
# Static dielectric constant tensor:
#      x y z
#    x 4.381060 0.000000 -0.116010 
#    y 0.000000 3.615230 0.000000 
#    z -0.116010 0.000000 4.049860 
# 
# 
# High freq. dielectric constant tensor:
#      x y z
#    x 1.846270 0.000000 -0.006510 
#    y 0.000000 1.798850 0.000000 
#    z -0.006510 0.000000 1.852720 
# 
# From -- ./inp_files/3052.got.cif
#   From: 2010.06.25/outbox.cif.g09.slc.cpg/sg13_2_cif.got.tgz:3052.got - 2010.06.28 04:50:58.
