data_PCOD8123171
_publ_section_title
;
Structure prediction by ZEFSAII (Michael W. Deem and Ramdas Pophale) SiO2 
 PCOD8123171
Probable space group: P 2/C
;
_chemical_formula_sum "Si O2"
_cell_formula_units_Z 20
_cell_length_a 10.725961
_cell_length_b 4.988878
_cell_length_c 26.682919
_cell_angle_alpha 90.000000
_cell_angle_beta 32.051096
_cell_angle_gamma 90.000000
_cell_volume 757.707070
_symmetry_space_group_name_H-M "P 2/C"
_symmetry_group_IT_number 13
_symmetry_cell_setting 'monoclinic'
loop_
_space_group_symop_operation_xyz
x,y,z
-x,y,1/2-z
-x,-y,-z
x,-y,1/2+z
loop_
_atom_site_type_symbol
_atom_site_label
_atom_site_fract_x
_atom_site_fract_y
_atom_site_fract_z
Si Si1 0.290307 0.864926 0.600139
Si Si2 0.561285 0.123603 0.105169
Si Si3 0.315265 0.594433 0.773872
Si Si4 0.118566 0.606369 0.509653
Si Si5 0.983700 0.634430 0.312651
O O1 0.069449 0.054408 0.663497
O O2 0.500000 0.000000 0.500000
O O3 0.341962 0.893012 0.641882
O O4 0.223879 0.573969 0.599167
O O5 0.460949 0.173819 0.195431
O O6 0.720713 0.360410 0.026688
O O7 0.716967 0.858928 0.056571
O O8 0.500000 0.458768 0.750000
O O9 0.228459 0.392627 0.759694
O O10 0.081452 0.692346 0.882472
O O11 0.000000 0.500000 0.500000
O O12 0.000000 0.538434 0.250000
#
# Coordination Sequence:
#
# PCOD8123171 Si02
#       5
#     4   4   4   4   4
#     4  12  25  48  78 106 152 199 257 329 392 461
#     4  12  27  51  79 117 156 208 268 329 402 469
#     4  12  28  51  81 117 161 217 256 335 407 465
#     4  12  27  51  75 119 160 205 271 323 390 494
#     4  12  26  48  73 113 150 198 262 317 384 480
#
# _framework density 26.395423999999998
#
# number of rings (size 3 to 8) (size 9 to 14) (size 15 to 20)
#    0.000    0.000    4.000    5.400    0.000    1.600 
#    0.000    0.000    0.000    0.000    0.000    0.000 
#    0.000    0.000    0.000    0.000    0.000    0.000 
#
# Total GULP energy -247917.587054 kJ/mol
# GULP energy per Si atom -12395.879353 kJ/mol
# Density = 2.633535 g / cm^3
# Si number density = 26.395424 Si / 1000 Ang^3
#
#
#
# Elastic Constant Matrix: (Units=GPa)
#
#
# Indices 1 2 3 4 5 6 
#
# 1 193.7629 39.0332 31.3015 0.0000 -10.4839 0.0000
# 2 39.0332 134.6995 27.3524 0.0000 -17.3132 0.0000
# 3 31.3015 27.3524 99.5728 0.0000 -7.8693 0.0000
# 4 0.0000 0.0000 0.0000 22.1459 0.0000 -7.0541
# 5 -10.4839 -17.3132 -7.8693 0.0000 38.0864 0.0000
# 6 0.0000 0.0000 0.0000 -7.0541 0.0000 29.4825
#
#
#
# Elastic Compliance Matrix: (Units=1/GPa)
#
#
# Indices 1 2 3 4 5 6 
#
# 1 0.005679 -0.001276 -0.001379 0.000000 0.000698 0.000000
# 2 -0.001276 0.008547 -0.001695 0.000000 0.003184 0.000000
# 3 -0.001379 -0.001695 0.011031 0.000000 0.001129 0.000000
# 4 0.000000 0.000000 0.000000 0.048880 0.000000 0.011695
# 5 0.000698 0.003184 0.001129 0.000000 0.028129 0.000000
# 6 0.000000 0.000000 0.000000 0.011695 0.000000 0.036717
#
#
# Mechanical properties :
#
#
# Convention : Reuss Voigt Hill
#
# Bulk Modulus (GPa) = 60.39991 69.26770 64.83381
# Shear Modulus (GPa) = 32.63654 39.96617 36.30135
#
# Velocity S-wave (km/s) = 3.52013 3.89541 3.71251
# Velocity P-wave (km/s) = 6.28125 6.82140 6.55689
#
# Compressibility (1/GPa) = 0.01655632
#
# Stress axis : x y z
#
# Youngs Moduli (GPa) = 176.10110 116.99921 90.64985
#
# Poissons Ratio (x) = 0.14925 0.12505
# Poissons Ratio (y) = 0.22465 0.15367
# Poissons Ratio (z) = 0.24293 0.19834
#
# Static dielectric constant tensor:
#      x y z
#    x 5.259760 0.000000 0.147350 
#    y 0.000000 4.131080 0.000000 
#    z 0.147350 0.000000 4.736180 
# 
# 
# High freq. dielectric constant tensor:
#      x y z
#    x 2.079460 0.000000 -0.006430 
#    y 0.000000 2.045820 0.000000 
#    z -0.006430 0.000000 2.074620 
# 
# From -- ./inp_files/96293.got.cif
#   From: 2010.06.25/outbox.cif.g09.slc.cpg/sg13_49_cif.got.tgz:96293.got - 2010.06.28 04:50:58.
