data_PCOD8123525
_publ_section_title
;
Structure prediction by ZEFSAII (Michael W. Deem and Ramdas Pophale) SiO2 
 PCOD8123525
Probable space group: P 21/C
;
_chemical_formula_sum "Si O2"
_cell_formula_units_Z 32
_cell_length_a 29.182777
_cell_length_b 12.524641
_cell_length_c 16.968855
_cell_angle_alpha 90.000000
_cell_angle_beta 16.066146
_cell_angle_gamma 90.000000
_cell_volume 1716.434481
_symmetry_space_group_name_H-M "P 21/C"
_symmetry_group_IT_number 14
_symmetry_cell_setting 'monoclinic'
loop_
_space_group_symop_operation_xyz
x,y,z
-x,1/2+y,1/2-z
-x,-y,-z
x,1/2-y,1/2+z
loop_
_atom_site_type_symbol
_atom_site_label
_atom_site_fract_x
_atom_site_fract_y
_atom_site_fract_z
Si Si1 0.366286 0.092628 0.966992
Si Si2 0.774769 0.210596 0.560988
Si Si3 0.217468 0.628718 0.677108
Si Si4 0.966581 0.092242 0.367132
Si Si5 0.553380 0.210714 0.782611
Si Si6 0.557403 0.111742 0.498547
Si Si7 0.007162 0.370909 0.097902
Si Si8 0.669721 0.611772 0.774049
O O1 0.189475 0.153194 0.262642
O O2 0.341850 0.966385 0.995657
O O3 0.465960 0.111733 0.883735
O O4 0.472282 0.143200 0.721299
O O5 0.651299 0.167478 0.697347
O O6 0.935675 0.265321 0.256248
O O7 0.834106 0.111645 0.516006
O O8 0.684056 0.296089 0.766072
O O9 0.319819 0.734290 0.487916
O O10 0.113904 0.590545 0.772057
O O11 0.094379 0.652783 0.953024
O O12 0.982173 0.965969 0.355925
O O13 0.140019 0.142874 0.054121
O O14 0.414996 0.295905 0.035686
O O15 0.412744 0.097793 0.674467
O O16 0.655608 0.999999 0.344318
#
# Coordination Sequence:
#
# PCOD8123525 Si02
#       8
#     4   4   4   4   4   4   4   4
#     4  11  19  32  55  80 104 137 173 214 260 309
#     4  10  21  35  52  78 108 137 171 214 260 306
#     4  10  20  35  55  80 105 134 175 221 259 300
#     4  11  19  32  55  80 104 137 173 214 260 309
#     4  10  21  35  52  78 108 137 171 214 260 306
#     4  10  18  32  54  79 102 129 170 218 257 297
#     4  10  20  35  55  80 105 134 175 221 259 300
#     4  10  18  32  54  79 102 129 170 218 257 297
#
# _framework density 18.6433
#
# number of rings (size 3 to 8) (size 9 to 14) (size 15 to 20)
#    0.000    1.750    2.500    4.500    0.000    0.000 
#    0.000    2.500    0.000    5.250    0.000    0.000 
#    0.000    0.000    0.000    0.000    0.000    0.000 
#
# Total GULP energy -396831.998397 kJ/mol
# GULP energy per Si atom -12400.999950 kJ/mol
# Density = 1.860087 g / cm^3
# Si number density = 18.643300 Si / 1000 Ang^3
#
#
#
# Elastic Constant Matrix: (Units=GPa)
#
#
# Indices 1 2 3 4 5 6 
#
# 1 118.9568 55.9171 39.6698 0.0000 -8.5588 0.0000
# 2 55.9171 48.5340 13.9487 0.0000 -11.0579 0.0000
# 3 39.6698 13.9487 113.0056 0.0000 7.4582 0.0000
# 4 0.0000 0.0000 0.0000 12.6157 0.0000 -6.0179
# 5 -8.5588 -11.0579 7.4582 0.0000 27.3537 0.0000
# 6 0.0000 0.0000 0.0000 -6.0179 0.0000 35.4625
#
#
#
# Elastic Compliance Matrix: (Units=1/GPa)
#
#
# Indices 1 2 3 4 5 6 
#
# 1 0.020294 -0.022528 -0.004238 0.000000 -0.001602 0.000000
# 2 -0.022528 0.049122 0.001018 0.000000 0.012531 0.000000
# 3 -0.004238 0.001018 0.010460 0.000000 -0.003766 0.000000
# 4 0.000000 0.000000 0.000000 0.086248 0.000000 0.014636
# 5 -0.001602 0.012531 -0.003766 0.000000 0.042150 0.000000
# 6 0.000000 0.000000 0.000000 0.014636 0.000000 0.030683
#
#
# Mechanical properties :
#
#
# Convention : Reuss Voigt Hill
#
# Bulk Modulus (GPa) = 35.23622 55.50753 45.37187
# Shear Modulus (GPa) = 16.67160 26.48377 21.57769
#
# Velocity S-wave (km/s) = 2.99363 3.77311 3.40574
# Velocity P-wave (km/s) = 5.55791 6.98712 6.31309
#
# Compressibility (1/GPa) = 0.02837989
#
# Stress axis : x y z
#
# Youngs Moduli (GPa) = 49.27576 20.35753 95.60586
#
# Poissons Ratio (x) = 0.45862 0.40514
# Poissons Ratio (y) = 1.11009 -0.09733
# Poissons Ratio (z) = 0.20881 -0.02072
#
# Static dielectric constant tensor:
#      x y z
#    x 3.454050 0.000000 0.072180 
#    y 0.000000 3.022920 0.000000 
#    z 0.072180 0.000000 3.716660 
# 
# 
# High freq. dielectric constant tensor:
#      x y z
#    x 1.720000 0.000000 0.006580 
#    y 0.000000 1.684860 0.000000 
#    z 0.006580 0.000000 1.744170 
# 
# From -- ./inp_files/52047.got.cif
#   From: 2010.03.12/outbox.cif.g09.slc.cpg/sg14_27_cif.got.tgz:52047.got - 2010.03.31 13:35:05.
