data_PCOD8123093
_publ_section_title
;
Structure prediction by ZEFSAII (Michael W. Deem and Ramdas Pophale) SiO2 
 PCOD8123093
Probable space group: P 2/C
;
_chemical_formula_sum "Si O2"
_cell_formula_units_Z 20
_cell_length_a 4.976914
_cell_length_b 11.351054
_cell_length_c 15.532892
_cell_angle_alpha 90.000000
_cell_angle_beta 90.132174
_cell_angle_gamma 90.000000
_cell_volume 877.500743
_symmetry_space_group_name_H-M "P 2/C"
_symmetry_group_IT_number 13
_symmetry_cell_setting 'monoclinic'
loop_
_space_group_symop_operation_xyz
x,y,z
-x,y,1/2-z
-x,-y,-z
x,-y,1/2+z
loop_
_atom_site_type_symbol
_atom_site_label
_atom_site_fract_x
_atom_site_fract_y
_atom_site_fract_z
Si Si1 0.508501 0.449504 0.094536
Si Si2 0.463609 0.820335 0.943980
Si Si3 0.958959 0.817805 0.058266
Si Si4 0.247887 0.998756 0.305843
Si Si5 0.998572 0.419124 0.654988
O O1 0.506393 0.309355 0.093564
O O2 0.270241 0.509049 0.145955
O O3 0.774835 0.482318 0.145433
O O4 0.500000 0.500000 0.000000
O O5 0.376080 0.901920 0.865854
O O6 0.754533 0.854447 0.982127
O O7 0.258502 0.838089 0.023319
O O8 0.943239 0.680406 0.083311
O O9 0.891506 0.893338 0.141969
O O10 0.500000 0.949774 0.250000
O O11 0.000000 0.052562 0.250000
O O12 0.000000 0.361308 0.750000
#
# Coordination Sequence:
#
# PCOD8123093 Si02
#       5
#     4   4   4   4   4
#     4  12  23  44  67  99 138 181 223 282 340 417
#     4  12  25  43  74  96 135 183 236 274 343 422
#     4  12  23  45  71  99 132 180 233 286 338 414
#     4  12  27  46  67 101 143 180 231 293 352 404
#     4  12  25  41  68 104 136 175 227 287 351 399
#
# _framework density 22.792003999999999
#
# number of rings (size 3 to 8) (size 9 to 14) (size 15 to 20)
#    0.000    0.000    4.000    6.600    0.000    4.000 
#    0.000    0.000    0.000    0.000    0.000    0.000 
#    0.000    0.000    0.000    0.000    0.000    0.000 
#
# Total GULP energy -248047.707326 kJ/mol
# GULP energy per Si atom -12402.385366 kJ/mol
# Density = 2.274013 g / cm^3
# Si number density = 22.792004 Si / 1000 Ang^3
#
#
#
# Elastic Constant Matrix: (Units=GPa)
#
#
# Indices 1 2 3 4 5 6 
#
# 1 174.8402 40.1074 42.4935 0.0000 9.9648 0.0000
# 2 40.1074 115.2430 33.0370 0.0000 -5.8185 0.0000
# 3 42.4935 33.0370 97.1734 0.0000 4.9543 0.0000
# 4 0.0000 0.0000 0.0000 31.4575 0.0000 -0.5058
# 5 9.9648 -5.8185 4.9543 0.0000 44.9911 0.0000
# 6 0.0000 0.0000 0.0000 -0.5058 0.0000 38.2038
#
#
#
# Elastic Compliance Matrix: (Units=1/GPa)
#
#
# Indices 1 2 3 4 5 6 
#
# 1 0.006765 -0.001776 -0.002279 0.000000 -0.001477 0.000000
# 2 -0.001776 0.010198 -0.002794 0.000000 0.002020 0.000000
# 3 -0.002279 -0.002794 0.012299 0.000000 -0.001211 0.000000
# 4 0.000000 0.000000 0.000000 0.031796 0.000000 0.000421
# 5 -0.001477 0.002020 -0.001211 0.000000 0.022948 0.000000
# 6 0.000000 0.000000 0.000000 0.000421 0.000000 0.026181
#
#
# Mechanical properties :
#
#
# Convention : Reuss Voigt Hill
#
# Bulk Modulus (GPa) = 64.24630 68.72582 66.48606
# Shear Modulus (GPa) = 38.73788 41.03840 39.88814
#
# Velocity S-wave (km/s) = 4.12712 4.24791 4.18795
# Velocity P-wave (km/s) = 7.13864 7.36740 7.25392
#
# Compressibility (1/GPa) = 0.01556510
#
# Stress axis : x y z
#
# Youngs Moduli (GPa) = 147.82062 98.05755 81.30636
#
# Poissons Ratio (x) = 0.17410 0.18533
# Poissons Ratio (y) = 0.26246 0.22714
# Poissons Ratio (z) = 0.33693 0.27394
#
# Static dielectric constant tensor:
#      x y z
#    x 4.306010 0.000000 0.009960 
#    y 0.000000 4.239350 0.000000 
#    z 0.009960 0.000000 4.173780 
# 
# 
# High freq. dielectric constant tensor:
#      x y z
#    x 1.922910 0.000000 0.003860 
#    y 0.000000 1.898540 0.000000 
#    z 0.003860 0.000000 1.908420 
# 
# From -- ./inp_files/43676.got.cif
#   From: 2010.06.25/outbox.cif.g09.slc.cpg/sg13_22_cif.got.tgz:43676.got - 2010.06.28 04:50:58.
