data_PCOD8123927
_publ_section_title
;
Structure prediction by ZEFSAII (Michael W. Deem and Ramdas Pophale) SiO2 
 PCOD8123927
Probable space group: P 21/C
;
_chemical_formula_sum "Si O2"
_cell_formula_units_Z 32
_cell_length_a 29.547198
_cell_length_b 9.662134
_cell_length_c 20.563328
_cell_angle_alpha 90.000000
_cell_angle_beta 161.065793
_cell_angle_gamma 90.000000
_cell_volume 1904.906375
_symmetry_space_group_name_H-M "P 21/C"
_symmetry_group_IT_number 14
_symmetry_cell_setting 'monoclinic'
loop_
_space_group_symop_operation_xyz
x,y,z
-x,1/2+y,1/2-z
-x,-y,-z
x,1/2-y,1/2+z
loop_
_atom_site_type_symbol
_atom_site_label
_atom_site_fract_x
_atom_site_fract_y
_atom_site_fract_z
Si Si1 0.850788 0.407470 0.233822
Si Si2 0.428602 0.590578 0.208090
Si Si3 0.556226 0.910320 0.517910
Si Si4 0.428602 0.909423 0.208089
Si Si5 0.850788 0.407470 0.733822
Si Si6 0.160696 0.091094 0.158337
Si Si7 0.160696 0.408906 0.158337
Si Si8 0.556226 0.910320 0.017910
O O1 0.847139 0.250000 0.254258
O O2 0.806470 0.502140 0.233599
O O3 0.006949 0.444652 0.420802
O O4 0.739430 0.429116 0.024615
O O5 0.471953 0.750000 0.255532
O O6 0.500000 0.500000 0.250000
O O7 0.477399 0.541569 0.345296
O O8 0.477398 0.958431 0.345296
O O9 0.721973 0.939822 0.736227
O O10 0.526161 0.750000 0.492011
O O11 0.500000 0.000000 0.500000
O O12 0.260570 0.929116 0.975385
O O13 0.806469 0.502139 0.733598
O O14 0.006949 0.444652 0.920802
O O15 0.171163 0.250000 0.194789
O O16 0.278027 0.439822 0.263773
O O17 0.500000 0.000000 0.000000
#
# Coordination Sequence:
#
# PCOD8123927 Si02
#       8
#     4   4   4   4   4   4   4   4
#     4   9  17  29  50  76  99 125 159 203 249 291
#     4  10  19  32  51  76 101 127 164 207 247 290
#     4  10  21  35  50  70 101 136 167 202 245 294
#     4  10  19  32  51  76 101 127 164 207 247 290
#     4   9  17  29  50  76  99 125 159 203 249 291
#     4   9  17  31  49  72 101 129 160 200 246 292
#     4   9  17  31  49  72 101 129 160 200 246 292
#     4  10  21  35  50  70 101 136 167 202 245 294
#
# _framework density 16.798727
#
# number of rings (size 3 to 8) (size 9 to 14) (size 15 to 20)
#    0.000    2.500    2.500    0.000    0.000    2.000 
#    0.000    1.250    0.000    0.000    0.000    0.000 
#    0.000    0.000    0.000    0.000    0.000    0.000 
#
# Total GULP energy -396691.489528 kJ/mol
# GULP energy per Si atom -12396.609048 kJ/mol
# Density = 1.676049 g / cm^3
# Si number density = 16.798727 Si / 1000 Ang^3
#
#
#
# Elastic Constant Matrix: (Units=GPa)
#
#
# Indices 1 2 3 4 5 6 
#
# 1 123.0218 60.9389 67.8568 0.0000 3.8302 0.0000
# 2 60.9389 62.2914 41.2788 0.0000 2.9156 0.0000
# 3 67.8568 41.2788 125.6096 0.0000 3.3614 0.0000
# 4 0.0000 0.0000 0.0000 21.1359 0.0000 1.3970
# 5 3.8302 2.9156 3.3614 0.0000 22.8231 0.0000
# 6 0.0000 0.0000 0.0000 1.3970 0.0000 33.2362
#
#
#
# Elastic Compliance Matrix: (Units=1/GPa)
#
#
# Indices 1 2 3 4 5 6 
#
# 1 0.017950 -0.014217 -0.005013 0.000000 -0.000458 0.000000
# 2 -0.014217 0.031845 -0.002750 0.000000 -0.001277 0.000000
# 3 -0.005013 -0.002750 0.011587 0.000000 -0.000514 0.000000
# 4 0.000000 0.000000 0.000000 0.047445 0.000000 -0.001994
# 5 -0.000458 -0.001277 -0.000514 0.000000 0.044131 0.000000
# 6 0.000000 0.000000 0.000000 -0.001994 0.000000 0.030171
#
#
# Mechanical properties :
#
#
# Convention : Reuss Voigt Hill
#
# Bulk Modulus (GPa) = 57.40234 72.34133 64.87183
# Shear Modulus (GPa) = 21.46873 24.82893 23.14883
#
# Velocity S-wave (km/s) = 3.57879 3.84868 3.71618
# Velocity P-wave (km/s) = 7.16392 7.93138 7.55740
#
# Compressibility (1/GPa) = 0.01742089
#
# Stress axis : x y z
#
# Youngs Moduli (GPa) = 55.70892 31.40241 86.30585
#
# Poissons Ratio (x) = 0.44646 0.43262
# Poissons Ratio (y) = 0.79204 0.23737
# Poissons Ratio (z) = 0.27925 0.08637
#
# Static dielectric constant tensor:
#      x y z
#    x 2.803890 0.000000 0.091420 
#    y 0.000000 3.197630 0.000000 
#    z 0.091420 0.000000 3.744140 
# 
# 
# High freq. dielectric constant tensor:
#      x y z
#    x 1.605720 0.000000 0.011010 
#    y 0.000000 1.651540 0.000000 
#    z 0.011010 0.000000 1.671460 
# 
# From -- ./inp_files/69161.got.cif
#   From: 2010.03.12/outbox.cif.g09.slc.cpg/sg14_35_cif.got.tgz:69161.got - 2010.03.31 13:35:05.
