data_PCOD8123378
_publ_section_title
;
Structure prediction by ZEFSAII (Michael W. Deem and Ramdas Pophale) SiO2 
 PCOD8123378
Probable space group: P 21/C
;
_chemical_formula_sum "Si O2"
_cell_formula_units_Z 32
_cell_length_a 10.014689
_cell_length_b 19.359660
_cell_length_c 16.143789
_cell_angle_alpha 90.000000
_cell_angle_beta 148.465939
_cell_angle_gamma 90.000000
_cell_volume 1636.992895
_symmetry_space_group_name_H-M "P 21/C"
_symmetry_group_IT_number 14
_symmetry_cell_setting 'monoclinic'
loop_
_space_group_symop_operation_xyz
x,y,z
-x,1/2+y,1/2-z
-x,-y,-z
x,1/2-y,1/2+z
loop_
_atom_site_type_symbol
_atom_site_label
_atom_site_fract_x
_atom_site_fract_y
_atom_site_fract_z
Si Si1 0.875608 0.397922 0.769005
Si Si2 0.783651 0.891353 0.869617
Si Si3 0.502578 0.011809 0.160401
Si Si4 0.844197 0.251250 0.793718
Si Si5 0.627531 0.750669 0.839003
Si Si6 0.229415 0.897694 0.236267
Si Si7 0.296359 0.100332 0.622530
Si Si8 0.977952 0.965939 0.816318
O O1 0.626282 0.445147 0.650470
O O2 0.801664 0.317472 0.710778
O O3 0.043075 0.428416 0.782921
O O4 0.020556 0.399990 0.933769
O O5 0.577444 0.936490 0.809232
O O6 0.679219 0.813266 0.802820
O O7 0.816460 0.921680 0.795953
O O8 0.047493 0.893687 0.059538
O O9 0.698933 0.956154 0.302437
O O10 0.269015 0.969071 0.999397
O O11 0.653093 0.261419 0.770465
O O12 0.772907 0.176258 0.716440
O O13 0.145384 0.248096 0.973188
O O14 0.641126 0.675296 0.803170
O O15 0.505905 0.915838 0.347021
O O16 0.139490 0.956941 0.252170
#
# Coordination Sequence:
#
# PCOD8123378 Si02
#       8
#     4   4   4   4   4   4   4   4
#     4  11  23  34  53  85 118 142 176 232 292 324
#     4  10  17  34  60  80 102 144 197 224 259 333
#     4  11  19  37  56  81 107 147 188 226 265 332
#     4   9  18  34  55  81 107 148 190 226 272 340
#     4   9  18  32  59  82 106 143 199 230 268 323
#     4   9  17  34  59  79 102 148 196 215 263 342
#     4  10  19  35  57  80 109 146 188 227 271 330
#     4  11  21  35  57  85 111 144 182 233 279 326
#
# _framework density 19.548038999999999
#
# number of rings (size 3 to 8) (size 9 to 14) (size 15 to 20)
#    0.000    2.000    3.750    1.500    0.000    0.500 
#    0.000    1.250    5.500    0.000    0.000    0.000 
#    0.000    0.000    0.000    0.000    0.000    0.000 
#
# Total GULP energy -396631.204860 kJ/mol
# GULP energy per Si atom -12394.725152 kJ/mol
# Density = 1.950355 g / cm^3
# Si number density = 19.548039 Si / 1000 Ang^3
#
#
#
# Elastic Constant Matrix: (Units=GPa)
#
#
# Indices 1 2 3 4 5 6 
#
# 1 76.4169 52.2956 6.1549 0.0000 2.7743 0.0000
# 2 52.2956 164.8118 13.2804 0.0000 -12.1702 0.0000
# 3 6.1549 13.2804 27.3253 0.0000 7.5584 0.0000
# 4 0.0000 0.0000 0.0000 20.8239 0.0000 5.6310
# 5 2.7743 -12.1702 7.5584 0.0000 22.4254 0.0000
# 6 0.0000 0.0000 0.0000 5.6310 0.0000 31.9802
#
#
#
# Elastic Compliance Matrix: (Units=1/GPa)
#
#
# Indices 1 2 3 4 5 6 
#
# 1 0.017314 -0.005945 0.000523 0.000000 -0.005545 0.000000
# 2 -0.005945 0.008890 -0.004984 0.000000 0.007240 0.000000
# 3 0.000523 -0.004984 0.043745 0.000000 -0.017514 0.000000
# 4 0.000000 0.000000 0.000000 0.050422 0.000000 -0.008878
# 5 -0.005545 0.007240 -0.017514 0.000000 0.055110 0.000000
# 6 0.000000 0.000000 0.000000 -0.008878 0.000000 0.032833
#
#
# Mechanical properties :
#
#
# Convention : Reuss Voigt Hill
#
# Bulk Modulus (GPa) = 20.35135 45.77953 33.06544
# Shear Modulus (GPa) = 20.36605 28.16743 24.26674
#
# Velocity S-wave (km/s) = 3.23127 3.80008 3.52716
# Velocity P-wave (km/s) = 4.93508 6.53636 5.79133
#
# Compressibility (1/GPa) = 0.04913679
#
# Stress axis : x y z
#
# Youngs Moduli (GPa) = 57.75667 112.48178 22.85970
#
# Poissons Ratio (x) = 0.66876 -0.01197
# Poissons Ratio (y) = 0.34339 0.11394
# Poissons Ratio (z) = -0.03023 0.56065
#
# Static dielectric constant tensor:
#      x y z
#    x 3.269190 0.000000 0.338980 
#    y 0.000000 4.161050 0.000000 
#    z 0.338980 0.000000 3.243630 
# 
# 
# High freq. dielectric constant tensor:
#      x y z
#    x 1.730550 0.000000 0.043840 
#    y 0.000000 1.790710 0.000000 
#    z 0.043840 0.000000 1.725810 
# 
# From -- ./inp_files/26791.got.cif
#   From: 2010.03.12/outbox.cif.g09.slc.cpg/sg14_14_cif.got.tgz:26791.got - 2010.03.31 13:35:05.
