data_PCOD8123946
_publ_section_title
;
Structure prediction by ZEFSAII (Michael W. Deem and Ramdas Pophale) SiO2 
 PCOD8123946
Probable space group: P 21/C
;
_chemical_formula_sum "Si O2"
_cell_formula_units_Z 28
_cell_length_a 18.094798
_cell_length_b 9.266333
_cell_length_c 22.142144
_cell_angle_alpha 90.000000
_cell_angle_beta 20.290306
_cell_angle_gamma 90.000000
_cell_volume 1287.453500
_symmetry_space_group_name_H-M "P 21/C"
_symmetry_group_IT_number 14
_symmetry_cell_setting 'monoclinic'
loop_
_space_group_symop_operation_xyz
x,y,z
-x,1/2+y,1/2-z
-x,-y,-z
x,1/2-y,1/2+z
loop_
_atom_site_type_symbol
_atom_site_label
_atom_site_fract_x
_atom_site_fract_y
_atom_site_fract_z
Si Si1 0.869284 0.642745 0.108171
Si Si2 0.642957 0.022813 0.181863
Si Si3 0.454089 0.715028 0.355299
Si Si4 0.604388 0.843142 0.918873
Si Si5 0.476644 0.118435 0.428489
Si Si6 0.262319 0.831549 0.612671
Si Si7 0.936101 0.119472 0.120578
O O1 0.644412 0.636582 0.245526
O O2 0.831042 0.654441 0.210250
O O3 0.000000 0.500000 0.000000
O O4 0.013427 0.769520 0.971355
O O5 0.632771 0.100330 0.125611
O O6 0.520899 0.125222 0.322945
O O7 0.540350 0.862468 0.258634
O O8 0.890635 0.008344 0.012616
O O9 0.253559 0.752744 0.553864
O O10 0.610075 0.774954 0.982201
O O11 0.472432 0.729492 0.982025
O O12 0.500000 0.000000 0.000000
O O13 0.696186 0.063191 0.292674
O O14 0.291845 0.002841 0.582050
O O15 0.063786 0.807190 0.811283
#
# Coordination Sequence:
#
# PCOD8123946 Si02
#       7
#     4   4   4   4   4   4   4
#     4  10  20  35  57  86 115 143 186 238 279 330
#     4  10  21  37  58  80 110 150 191 233 275 339
#     4   9  21  39  56  79 113 152 186 227 289 337
#     4  10  19  32  53  83 112 140 175 224 281 325
#     4  10  20  36  58  83 113 147 186 229 283 333
#     4   9  19  37  56  78 113 146 180 228 279 334
#     4  10  19  34  59  87 109 142 193 237 272 326
#
# _framework density 21.748358
#
# number of rings (size 3 to 8) (size 9 to 14) (size 15 to 20)
#    0.000    2.286    0.000    4.714    0.000    4.571 
#    0.000    5.714    0.000   10.286    0.000    0.000 
#    0.000    0.000    0.000    0.000    0.000    0.000 
#
# Total GULP energy -346872.492776 kJ/mol
# GULP energy per Si atom -12388.303313 kJ/mol
# Density = 2.169886 g / cm^3
# Si number density = 21.748358 Si / 1000 Ang^3
#
#
#
# Elastic Constant Matrix: (Units=GPa)
#
#
# Indices 1 2 3 4 5 6 
#
# 1 57.9859 40.5910 28.1557 0.0000 23.4483 0.0000
# 2 40.5910 111.6495 48.0386 0.0000 20.9346 0.0000
# 3 28.1557 48.0386 122.8682 0.0000 44.6913 0.0000
# 4 0.0000 0.0000 0.0000 28.8792 0.0000 6.9282
# 5 23.4483 20.9346 44.6913 0.0000 38.9452 0.0000
# 6 0.0000 0.0000 0.0000 6.9282 0.0000 43.5073
#
#
#
# Elastic Compliance Matrix: (Units=1/GPa)
#
#
# Indices 1 2 3 4 5 6 
#
# 1 0.028077 -0.008383 0.002323 0.000000 -0.015065 0.000000
# 2 -0.008383 0.013332 -0.004327 0.000000 0.002845 0.000000
# 3 0.002323 -0.004327 0.015381 0.000000 -0.016723 0.000000
# 4 0.000000 0.000000 0.000000 0.036002 0.000000 -0.005733
# 5 -0.015065 0.002845 -0.016723 0.000000 0.052408 0.000000
# 6 0.000000 0.000000 0.000000 -0.005733 0.000000 0.023898
#
#
# Mechanical properties :
#
#
# Convention : Reuss Voigt Hill
#
# Bulk Modulus (GPa) = 27.76419 58.45271 43.10845
# Shear Modulus (GPa) = 24.76756 33.98090 29.37423
#
# Velocity S-wave (km/s) = 3.37831 3.95708 3.67909
# Velocity P-wave (km/s) = 5.29255 6.91471 6.15728
#
# Compressibility (1/GPa) = 0.03601762
#
# Stress axis : x y z
#
# Youngs Moduli (GPa) = 35.61588 75.00630 65.01592
#
# Poissons Ratio (x) = 0.62874 -0.15102
# Poissons Ratio (y) = 0.29855 0.28130
# Poissons Ratio (z) = -0.08273 0.32453
#
# Static dielectric constant tensor:
#      x y z
#    x 4.273010 0.000000 1.152860 
#    y 0.000000 3.517200 0.000000 
#    z 1.152860 0.000000 4.838910 
# 
# 
# High freq. dielectric constant tensor:
#      x y z
#    x 1.821270 0.000000 0.046800 
#    y 0.000000 1.847270 0.000000 
#    z 0.046800 0.000000 1.862150 
# 
# From -- ./inp_files/74634.got.cif
#   From: 2010.03.12/outbox.cif.g09.slc.cpg/sg14_38_cif.got.tgz:74634.got - 2010.03.31 13:35:05.
