data_PCOD8123241
_publ_section_title
;
Structure prediction by ZEFSAII (Michael W. Deem and Ramdas Pophale) SiO2 
 PCOD8123241
Probable space group: P 21/C
;
_chemical_formula_sum "Si O2"
_cell_formula_units_Z 28
_cell_length_a 14.633226
_cell_length_b 15.036655
_cell_length_c 8.680381
_cell_angle_alpha 90.000000
_cell_angle_beta 131.482232
_cell_angle_gamma 90.000000
_cell_volume 1430.887080
_symmetry_space_group_name_H-M "P 21/C"
_symmetry_group_IT_number 14
_symmetry_cell_setting 'monoclinic'
loop_
_space_group_symop_operation_xyz
x,y,z
-x,1/2+y,1/2-z
-x,-y,-z
x,1/2-y,1/2+z
loop_
_atom_site_type_symbol
_atom_site_label
_atom_site_fract_x
_atom_site_fract_y
_atom_site_fract_z
Si Si1 0.655460 0.738457 0.964618
Si Si2 0.545507 0.634336 0.095902
Si Si3 0.692927 0.469487 0.173687
Si Si4 0.921245 0.369491 0.494856
Si Si5 0.004582 0.711540 0.717785
Si Si6 0.829991 0.920292 0.595236
Si Si7 0.143694 0.162338 0.666794
O O1 0.583188 0.787533 0.751012
O O2 0.556381 0.676281 0.938107
O O3 0.770030 0.678338 0.038787
O O4 0.715568 0.813265 0.141492
O O5 0.635496 0.549413 0.210267
O O6 0.407229 0.605587 0.973584
O O7 0.802959 0.429600 0.398430
O O8 0.740342 0.504734 0.060309
O O9 0.914805 0.283119 0.598212
O O10 0.910671 0.348365 0.298868
O O11 0.045487 0.423676 0.667266
O O12 0.931612 0.648929 0.757997
O O13 0.913874 0.756673 0.494409
O O14 0.857714 0.927721 0.441473
#
# Coordination Sequence:
#
# PCOD8123241 Si02
#       7
#     4   4   4   4   4   4   4
#     4  11  17  34  64  82  98 139 199 231 249 315
#     4  10  23  38  61  80 104 150 193 222 262 323
#     4  10  23  39  52  79 123 146 172 222 291 336
#     4  10  19  34  58  81 115 145 179 226 281 320
#     4   9  17  29  55  87 109 137 186 226 263 326
#     4  10  19  33  58  85 105 143 182 229 272 330
#     4  10  15  29  54  86 104 128 188 234 252 307
#
# _framework density 19.568280000000001
#
# number of rings (size 3 to 8) (size 9 to 14) (size 15 to 20)
#    0.000    2.000    5.714    0.429    2.000    1.143 
#    0.000    1.429    6.286    0.000    0.000    0.000 
#    0.000    0.000    0.000    0.000    0.000    0.000 
#
# Total GULP energy -347012.904345 kJ/mol
# GULP energy per Si atom -12393.318012 kJ/mol
# Density = 1.952374 g / cm^3
# Si number density = 19.568280 Si / 1000 Ang^3
#
#
#
# Elastic Constant Matrix: (Units=GPa)
#
#
# Indices 1 2 3 4 5 6 
#
# 1 87.8917 35.2038 50.9899 0.0000 6.2730 0.0000
# 2 35.2038 49.1622 31.9997 0.0000 13.2550 0.0000
# 3 50.9899 31.9997 79.7588 0.0000 5.4871 0.0000
# 4 0.0000 0.0000 0.0000 24.4486 0.0000 7.1786
# 5 6.2730 13.2550 5.4871 0.0000 36.3907 0.0000
# 6 0.0000 0.0000 0.0000 7.1786 0.0000 24.4281
#
#
#
# Elastic Compliance Matrix: (Units=1/GPa)
#
#
# Indices 1 2 3 4 5 6 
#
# 1 0.020318 -0.008575 -0.009623 0.000000 0.001072 0.000000
# 2 -0.008575 0.033985 -0.007481 0.000000 -0.009773 0.000000
# 3 -0.009623 -0.007481 0.021614 0.000000 0.001125 0.000000
# 4 0.000000 0.000000 0.000000 0.044765 0.000000 -0.013155
# 5 0.001072 -0.009773 0.001125 0.000000 0.030685 0.000000
# 6 0.000000 0.000000 0.000000 -0.013155 0.000000 0.044802
#
#
# Mechanical properties :
#
#
# Convention : Reuss Voigt Hill
#
# Bulk Modulus (GPa) = 40.71664 50.35553 45.53609
# Shear Modulus (GPa) = 19.55314 23.62810 21.59062
#
# Velocity S-wave (km/s) = 3.16448 3.47864 3.32527
# Velocity P-wave (km/s) = 5.84847 6.47485 6.16961
#
# Compressibility (1/GPa) = 0.02455998
#
# Stress axis : x y z
#
# Youngs Moduli (GPa) = 49.21630 29.42455 46.26663
#
# Poissons Ratio (x) = 0.25231 0.44523
# Poissons Ratio (y) = 0.42202 0.34611
# Poissons Ratio (z) = 0.47361 0.22012
#
# Static dielectric constant tensor:
#      x y z
#    x 3.780870 0.000000 -0.227320 
#    y 0.000000 3.423450 0.000000 
#    z -0.227320 0.000000 3.430570 
# 
# 
# High freq. dielectric constant tensor:
#      x y z
#    x 1.761650 0.000000 -0.010440 
#    y 0.000000 1.739390 0.000000 
#    z -0.010440 0.000000 1.744740 
# 
# From -- ./inp_files/16293.got.cif
#   From: 2010.03.12/outbox.cif.g09.slc.cpg/sg14_9_cif.got.tgz:16293.got - 2010.03.31 13:35:05.
