data_PCOD8123774
_publ_section_title
;
Structure prediction by ZEFSAII (Michael W. Deem and Ramdas Pophale) SiO2 
 PCOD8123774
Probable space group: P 21/C
;
_chemical_formula_sum "Si O2"
_cell_formula_units_Z 24
_cell_length_a 6.210161
_cell_length_b 9.531526
_cell_length_c 23.133065
_cell_angle_alpha 90.000000
_cell_angle_beta 59.232570
_cell_angle_gamma 90.000000
_cell_volume 1176.571801
_symmetry_space_group_name_H-M "P 21/C"
_symmetry_group_IT_number 14
_symmetry_cell_setting 'monoclinic'
loop_
_space_group_symop_operation_xyz
x,y,z
-x,1/2+y,1/2-z
-x,-y,-z
x,1/2-y,1/2+z
loop_
_atom_site_type_symbol
_atom_site_label
_atom_site_fract_x
_atom_site_fract_y
_atom_site_fract_z
Si Si1 0.235125 0.815436 0.444247
Si Si2 0.930581 0.509357 0.741338
Si Si3 0.785769 0.288006 0.672537
Si Si4 0.954122 0.908867 0.584860
Si Si5 0.778940 0.703423 0.227827
Si Si6 0.756365 0.908276 0.377556
O O1 0.170981 0.702239 0.403202
O O2 0.527486 0.803120 0.422577
O O3 0.050556 0.794472 0.524368
O O4 0.215974 0.975245 0.423208
O O5 0.828587 0.436081 0.697387
O O6 0.976399 0.671456 0.715846
O O7 0.721454 0.508127 0.821590
O O8 0.171877 0.428131 0.735372
O O9 0.501144 0.238213 0.723281
O O10 0.982949 0.175395 0.669479
O O11 0.803403 0.836124 0.657188
O O12 0.205494 0.984260 0.574971
#
# Coordination Sequence:
#
# PCOD8123774 Si02
#       6
#     4   4   4   4   4   4
#     4  10  18  37  56  88 117 153 193 242 294 348
#     4  11  21  36  56  87 116 151 193 247 283 348
#     4  11  21  34  60  83 118 151 191 242 293 344
#     4   9  21  34  60  85 118 151 198 243 290 344
#     4  11  23  38  59  89 118 150 201 239 297 342
#     4  10  19  35  56  86 114 154 194 243 290 340
#
# _framework density 20.398243000000001
#
# number of rings (size 3 to 8) (size 9 to 14) (size 15 to 20)
#    0.000    1.667    3.333    1.500    4.667    0.000 
#    0.000    0.833    0.000    4.000    0.000    0.000 
#    0.000    0.000    0.000    0.000    0.000    0.000 
#
# Total GULP energy -297343.175451 kJ/mol
# GULP energy per Si atom -12389.298977 kJ/mol
# Density = 2.035182 g / cm^3
# Si number density = 20.398243 Si / 1000 Ang^3
#
#
#
# Elastic Constant Matrix: (Units=GPa)
#
#
# Indices 1 2 3 4 5 6 
#
# 1 69.9896 17.1891 24.5724 0.0000 -4.2682 0.0000
# 2 17.1891 58.8053 18.0724 0.0000 3.9037 0.0000
# 3 24.5724 18.0724 95.2973 0.0000 10.6905 0.0000
# 4 0.0000 0.0000 0.0000 30.7913 0.0000 11.4090
# 5 -4.2682 3.9037 10.6905 0.0000 28.0001 0.0000
# 6 0.0000 0.0000 0.0000 11.4090 0.0000 30.8553
#
#
#
# Elastic Compliance Matrix: (Units=1/GPa)
#
#
# Indices 1 2 3 4 5 6 
#
# 1 0.017023 -0.004012 -0.004161 0.000000 0.004743 0.000000
# 2 -0.004012 0.019046 -0.002310 0.000000 -0.002385 0.000000
# 3 -0.004161 -0.002310 0.012578 0.000000 -0.005115 0.000000
# 4 0.000000 0.000000 0.000000 0.037633 0.000000 -0.013915
# 5 0.004743 -0.002385 -0.005115 0.000000 0.038722 0.000000
# 6 0.000000 0.000000 0.000000 -0.013915 0.000000 0.037555
#
#
# Mechanical properties :
#
#
# Convention : Reuss Voigt Hill
#
# Bulk Modulus (GPa) = 36.12426 38.19556 37.15991
# Shear Modulus (GPa) = 25.94036 28.87988 27.41012
#
# Velocity S-wave (km/s) = 3.56995 3.76680 3.66970
# Velocity P-wave (km/s) = 5.89412 6.13872 6.01767
#
# Compressibility (1/GPa) = 0.02768223
#
# Stress axis : x y z
#
# Youngs Moduli (GPa) = 58.74347 52.50380 79.50334
#
# Poissons Ratio (x) = 0.21065 0.33078
# Poissons Ratio (y) = 0.23569 0.18364
# Poissons Ratio (z) = 0.24441 0.12128
#
# Static dielectric constant tensor:
#      x y z
#    x 3.801720 0.000000 0.277340 
#    y 0.000000 3.388440 0.000000 
#    z 0.277340 0.000000 3.780860 
# 
# 
# High freq. dielectric constant tensor:
#      x y z
#    x 1.801160 0.000000 0.022190 
#    y 0.000000 1.752500 0.000000 
#    z 0.022190 0.000000 1.796900 
# 
# From -- ./inp_files/69847.got.cif
#   From: 2010.03.12/outbox.cif.g09.slc.cpg/sg14_35_cif.got.tgz:69847.got - 2010.03.31 13:35:05.
