data_PCOD8123045
_publ_section_title
;
Structure prediction by ZEFSAII (Michael W. Deem and Ramdas Pophale) SiO2 
 PCOD8123045
Probable space group: P 2/C
;
_chemical_formula_sum "Si O2"
_cell_formula_units_Z 16
_cell_length_a 11.335172
_cell_length_b 4.849273
_cell_length_c 21.106729
_cell_angle_alpha 90.000000
_cell_angle_beta 144.356313
_cell_angle_gamma 90.000000
_cell_volume 676.086993
_symmetry_space_group_name_H-M "P 2/C"
_symmetry_group_IT_number 13
_symmetry_cell_setting 'monoclinic'
loop_
_space_group_symop_operation_xyz
x,y,z
-x,y,1/2-z
-x,-y,-z
x,-y,1/2+z
loop_
_atom_site_type_symbol
_atom_site_label
_atom_site_fract_x
_atom_site_fract_y
_atom_site_fract_z
Si Si1 0.161231 0.312159 0.689671
Si Si2 0.505896 0.439944 0.928790
Si Si3 0.724552 0.184546 0.339480
Si Si4 0.252868 0.922829 0.510032
O O1 0.281460 0.364024 0.807410
O O2 0.136732 0.587002 0.635229
O O3 0.942330 0.190004 0.613536
O O4 0.294918 0.088525 0.710977
O O5 0.557203 0.722497 0.915687
O O6 0.680473 0.219998 0.986995
O O7 0.500000 0.500000 0.000000
O O8 0.500000 0.309975 0.250000
O O9 0.817787 0.085344 0.447423
#
# Coordination Sequence:
#
# PCOD8123045 Si02
#       4
#     4   4   4   4
#     4  12  24  43  68 102 137 177 223 280 343 407
#     4  12  26  46  67  96 135 183 232 279 328 396
#     4  12  21  41  71 101 140 176 214 280 353 405
#     4  12  25  43  70 101 135 179 224 279 342 403
#
# _framework density 23.665595
#
# number of rings (size 3 to 8) (size 9 to 14) (size 15 to 20)
#    0.000    0.000    5.000    6.000    0.000    1.000 
#    0.000    2.500    0.000    0.000    0.000    0.000 
#    0.000    0.000    0.000    0.000    0.000    0.000 
#
# Total GULP energy -198469.127798 kJ/mol
# GULP energy per Si atom -12404.320487 kJ/mol
# Density = 2.361173 g / cm^3
# Si number density = 23.665595 Si / 1000 Ang^3
#
#
#
# Elastic Constant Matrix: (Units=GPa)
#
#
# Indices 1 2 3 4 5 6 
#
# 1 80.3359 35.5079 44.9739 0.0000 -22.6396 0.0000
# 2 35.5079 107.5457 10.1975 0.0000 -31.8497 0.0000
# 3 44.9739 10.1975 127.0336 0.0000 -20.8432 0.0000
# 4 0.0000 0.0000 0.0000 30.2184 0.0000 -8.2877
# 5 -22.6396 -31.8497 -20.8432 0.0000 41.5024 0.0000
# 6 0.0000 0.0000 0.0000 -8.2877 0.0000 -0.6538
#
#
#
# Elastic Compliance Matrix: (Units=1/GPa)
#
#
# Indices 1 2 3 4 5 6 
#
# 1 0.018670 -0.004465 -0.005604 0.000000 0.003943 0.000000
# 2 -0.004465 0.013143 0.001941 0.000000 0.008625 0.000000
# 3 -0.005604 0.001941 0.010291 0.000000 0.003601 0.000000
# 4 0.000000 0.000000 0.000000 0.007392 0.000000 -0.093707
# 5 0.003943 0.008625 0.003601 0.000000 0.034674 0.000000
# 6 0.000000 0.000000 0.000000 -0.093707 0.000000 -0.341671
#
#
# Mechanical properties :
#
#
# Convention : Reuss Voigt Hill
#
# Bulk Modulus (GPa) = 38.68904 55.14155 46.91530
# Shear Modulus (GPa) = -21.49347 29.16244 3.83449
#
# Velocity S-wave (km/s) = -3.01693 3.51418 1.27428
# Velocity P-wave (km/s) = 2.06104 6.31006 4.69386
#
# Compressibility (1/GPa) = 0.02584711
#
# Stress axis : x y z
#
# Youngs Moduli (GPa) = 53.56209 76.08692 97.17227
#
# Poissons Ratio (x) = 0.33972 0.54458
# Poissons Ratio (y) = 0.23915 -0.18860
# Poissons Ratio (z) = 0.30018 -0.14768
#
# Static dielectric constant tensor:
#      x y z
#    x 4.107040 0.000000 -0.125460 
#    y 0.000000 4.437230 0.000000 
#    z -0.125460 0.000000 4.275880 
# 
# 
# High freq. dielectric constant tensor:
#      x y z
#    x 1.917260 0.000000 0.008780 
#    y 0.000000 1.952940 0.000000 
#    z 0.008780 0.000000 1.945990 
# 
# From -- ./inp_files/48475.got.cif
#   From: 2010.06.25/outbox.cif.g09.slc.cpg/sg13_25_cif.got.tgz:48475.got - 2010.06.28 04:50:58.
