data_PCOD8123974
_publ_section_title
;
Structure prediction by ZEFSAII (Michael W. Deem and Ramdas Pophale) SiO2 
 PCOD8123974
Probable space group: P 21/C
;
_chemical_formula_sum "Si O2"
_cell_formula_units_Z 28
_cell_length_a 31.185335
_cell_length_b 8.615987
_cell_length_c 5.206149
_cell_angle_alpha 90.000000
_cell_angle_beta 100.310427
_cell_angle_gamma 90.000000
_cell_volume 1376.264881
_symmetry_space_group_name_H-M "P 21/C"
_symmetry_group_IT_number 14
_symmetry_cell_setting 'monoclinic'
loop_
_space_group_symop_operation_xyz
x,y,z
-x,1/2+y,1/2-z
-x,-y,-z
x,1/2-y,1/2+z
loop_
_atom_site_type_symbol
_atom_site_label
_atom_site_fract_x
_atom_site_fract_y
_atom_site_fract_z
Si Si1 0.856192 0.308871 0.369528
Si Si2 0.973598 0.844502 0.004646
Si Si3 0.626242 0.657097 0.570560
Si Si4 0.760339 0.326243 0.764051
Si Si5 0.128396 0.345061 0.615980
Si Si6 0.720185 0.647379 0.760609
Si Si7 0.531644 0.854992 0.049428
O O1 0.883033 0.247767 0.646762
O O2 0.811599 0.210384 0.313163
O O3 0.846440 0.491641 0.362705
O O4 0.986428 0.727721 0.791256
O O5 0.922606 0.884022 0.938175
O O6 0.000000 0.000000 0.000000
O O7 0.626631 0.695718 0.267482
O O8 0.671584 0.569169 0.685178
O O9 0.580706 0.570973 0.586416
O O10 0.737875 0.254864 0.486084
O O11 0.755158 0.511193 0.768678
O O12 0.142740 0.246767 0.384768
O O13 0.727183 0.773875 0.544730
O O14 0.523917 0.764777 0.307846
O O15 0.500000 0.000000 0.000000
#
# Coordination Sequence:
#
# PCOD8123974 Si02
#       7
#     4   4   4   4   4   4   4
#     4  10  21  38  56  78 108 141 175 216 271 318
#     4  10  21  36  56  84 114 143 180 221 264 310
#     4   8  16  30  50  73  99 133 172 211 256 309
#     4  10  21  38  53  77 111 136 166 218 274 318
#     4  10  21  38  58  81 109 144 185 222 253 310
#     4  10  19  35  58  79  99 135 181 218 257 314
#     4  10  19  33  51  74 105 138 173 214 257 309
#
# _framework density 20.344923000000001
#
# number of rings (size 3 to 8) (size 9 to 14) (size 15 to 20)
#    0.000    2.286    0.000    2.571    0.000    1.143 
#    0.000   18.571    0.000    0.000    0.000    0.000 
#    0.000    0.000    0.000    0.000    0.000    0.000 
#
# Total GULP energy -346977.700843 kJ/mol
# GULP energy per Si atom -12392.060744 kJ/mol
# Density = 2.029862 g / cm^3
# Si number density = 20.344923 Si / 1000 Ang^3
#
#
#
# Elastic Constant Matrix: (Units=GPa)
#
#
# Indices 1 2 3 4 5 6 
#
# 1 46.2541 27.4855 8.4534 0.0000 6.6594 0.0000
# 2 27.4855 95.0968 29.2941 0.0000 -1.4482 0.0000
# 3 8.4534 29.2941 149.6631 0.0000 -26.1101 0.0000
# 4 0.0000 0.0000 0.0000 33.5806 0.0000 -2.1638
# 5 6.6594 -1.4482 -26.1101 0.0000 6.5730 0.0000
# 6 0.0000 0.0000 0.0000 -2.1638 0.0000 33.4339
#
#
#
# Elastic Compliance Matrix: (Units=1/GPa)
#
#
# Indices 1 2 3 4 5 6 
#
# 1 0.086916 -0.011629 -0.060077 0.000000 -0.329267 0.000000
# 2 -0.011629 0.013646 0.001844 0.000000 0.022112 0.000000
# 3 -0.060077 0.001844 0.066464 0.000000 0.325292 0.000000
# 4 0.000000 0.000000 0.000000 0.029904 0.000000 0.001935
# 5 -0.329267 0.022112 0.325292 0.000000 1.782783 0.000000
# 6 0.000000 0.000000 0.000000 0.001935 0.000000 0.030035
#
#
# Mechanical properties :
#
#
# Convention : Reuss Voigt Hill
#
# Bulk Modulus (GPa) = 36.62792 46.83111 41.72952
# Shear Modulus (GPa) = 2.31635 29.76958 16.04296
#
# Velocity S-wave (km/s) = 1.06818 3.82939 2.81116
# Velocity P-wave (km/s) = 4.42311 6.52846 5.57605
#
# Compressibility (1/GPa) = 0.02730157
#
# Stress axis : x y z
#
# Youngs Moduli (GPa) = 11.50538 73.28392 15.04567
#
# Poissons Ratio (x) = 0.85223 0.90389
# Poissons Ratio (y) = 0.13380 -0.02774
# Poissons Ratio (z) = 0.69120 -0.13511
#
# Static dielectric constant tensor:
#      x y z
#    x 6.690770 0.000000 -14.245700 
#    y 0.000000 3.386310 0.000000 
#    z -14.245700 0.000000 72.467560 
# 
# 
# High freq. dielectric constant tensor:
#      x y z
#    x 1.779820 0.000000 -0.012070 
#    y 0.000000 1.765420 0.000000 
#    z -0.012070 0.000000 1.830320 
# 
# From -- ./inp_files/4549.got.cif
#   From: 2010.03.12/outbox.cif.g09.slc.cpg/sg14_3_cif.got.tgz:4549.got - 2010.03.31 13:35:05.
