data_PCOD8123371
_publ_section_title
;
Structure prediction by ZEFSAII (Michael W. Deem and Ramdas Pophale) SiO2 
 PCOD8123371
Probable space group: P 21/C
;
_chemical_formula_sum "Si O2"
_cell_formula_units_Z 32
_cell_length_a 15.265696
_cell_length_b 18.115467
_cell_length_c 9.142843
_cell_angle_alpha 90.000000
_cell_angle_beta 139.326936
_cell_angle_gamma 90.000000
_cell_volume 1647.870424
_symmetry_space_group_name_H-M "P 21/C"
_symmetry_group_IT_number 14
_symmetry_cell_setting 'monoclinic'
loop_
_space_group_symop_operation_xyz
x,y,z
-x,1/2+y,1/2-z
-x,-y,-z
x,1/2-y,1/2+z
loop_
_atom_site_type_symbol
_atom_site_label
_atom_site_fract_x
_atom_site_fract_y
_atom_site_fract_z
Si Si1 0.450738 0.698426 0.897191
Si Si2 0.759218 0.381406 0.159010
Si Si3 0.817679 0.761565 0.532897
Si Si4 0.421508 0.126863 0.705830
Si Si5 0.759202 0.956021 0.741949
Si Si6 0.448182 0.869440 0.842575
Si Si7 0.658710 0.869324 0.864443
Si Si8 0.955104 0.824392 0.961490
O O1 0.333522 0.659031 0.839964
O O2 0.468500 0.667983 0.755632
O O3 0.424361 0.784331 0.849301
O O4 0.588893 0.684673 0.156914
O O5 0.803114 0.459606 0.282092
O O6 0.889530 0.330791 0.297155
O O7 0.687468 0.395646 0.910858
O O8 0.689298 0.816778 0.367801
O O9 0.782162 0.683218 0.568572
O O10 0.876371 0.739859 0.449280
O O11 0.939798 0.800296 0.773807
O O12 0.349769 0.062486 0.522462
O O13 0.509838 0.091524 0.951150
O O14 0.696796 0.944346 0.825995
O O15 0.888909 0.904463 0.897456
O O16 0.569908 0.889250 0.889333
#
# Coordination Sequence:
#
# PCOD8123371 Si02
#       8
#     4   4   4   4   4   4   4   4
#     4  10  19  33  55  83 116 143 175 229 286 336
#     4  11  24  37  52  79 122 154 177 214 280 351
#     4  10  17  34  57  84 101 138 192 239 267 303
#     4  10  18  33  60  84 110 138 188 238 278 319
#     4   9  21  39  57  79 107 156 192 220 265 325
#     4  11  19  32  56  86 115 139 175 237 286 323
#     4   9  17  32  60  82 108 138 187 232 273 327
#     4  10  22  36  59  79 111 147 191 233 257 326
#
# _framework density 19.419001999999999
#
# number of rings (size 3 to 8) (size 9 to 14) (size 15 to 20)
#    0.000    2.000    2.500    2.625    1.750    5.000 
#    0.000    0.000    0.000    0.000    0.000    8.750 
#    0.000    0.000    0.000    0.000    0.000    0.000 
#
# Total GULP energy -396528.596481 kJ/mol
# GULP energy per Si atom -12391.518640 kJ/mol
# Density = 1.937480 g / cm^3
# Si number density = 19.419002 Si / 1000 Ang^3
#
#
#
# Elastic Constant Matrix: (Units=GPa)
#
#
# Indices 1 2 3 4 5 6 
#
# 1 82.1528 18.8275 40.1832 0.0000 -2.3416 0.0000
# 2 18.8275 35.4699 -1.6953 0.0000 2.9970 0.0000
# 3 40.1832 -1.6953 90.4714 0.0000 0.6486 0.0000
# 4 0.0000 0.0000 0.0000 17.0030 0.0000 -0.0070
# 5 -2.3416 2.9970 0.6486 0.0000 26.9719 0.0000
# 6 0.0000 0.0000 0.0000 -0.0070 0.0000 18.5809
#
#
#
# Elastic Compliance Matrix: (Units=1/GPa)
#
#
# Indices 1 2 3 4 5 6 
#
# 1 0.018941 -0.010724 -0.008635 0.000000 0.003044 0.000000
# 2 -0.010724 0.034559 0.005446 0.000000 -0.004902 0.000000
# 3 -0.008635 0.005446 0.015003 0.000000 -0.001716 0.000000
# 4 0.000000 0.000000 0.000000 0.058813 0.000000 0.000022
# 5 0.003044 -0.004902 -0.001716 0.000000 0.037926 0.000000
# 6 0.000000 0.000000 0.000000 0.000022 0.000000 0.053819
#
#
# Mechanical properties :
#
#
# Convention : Reuss Voigt Hill
#
# Bulk Modulus (GPa) = 24.58416 35.85831 30.22123
# Shear Modulus (GPa) = 19.19786 22.56309 20.88048
#
# Velocity S-wave (km/s) = 3.14763 3.41237 3.28267
# Velocity P-wave (km/s) = 5.08895 5.83364 5.47398
#
# Compressibility (1/GPa) = 0.04067660
#
# Stress axis : x y z
#
# Youngs Moduli (GPa) = 52.79687 28.93562 66.65362
#
# Poissons Ratio (x) = 0.31029 0.57557
# Poissons Ratio (y) = 0.56617 -0.36297
# Poissons Ratio (z) = 0.45591 -0.15757
#
# Static dielectric constant tensor:
#      x y z
#    x 3.503260 0.000000 -0.156910 
#    y 0.000000 3.278500 0.000000 
#    z -0.156910 0.000000 3.587730 
# 
# 
# High freq. dielectric constant tensor:
#      x y z
#    x 1.749490 0.000000 -0.011200 
#    y 0.000000 1.738480 0.000000 
#    z -0.011200 0.000000 1.745030 
# 
# From -- ./inp_files/13781.got.cif
#   From: 2010.03.12/outbox.cif.g09.slc.cpg/sg14_7_cif.got.tgz:13781.got - 2010.03.31 13:35:05.
