data_PCOD8123320
_publ_section_title
;
Structure prediction by ZEFSAII (Michael W. Deem and Ramdas Pophale) SiO2 
 PCOD8123320
Probable space group: P 21/C
;
_chemical_formula_sum "Si O2"
_cell_formula_units_Z 24
_cell_length_a 8.410606
_cell_length_b 10.172942
_cell_length_c 25.082148
_cell_angle_alpha 90.000000
_cell_angle_beta 136.308940
_cell_angle_gamma 90.000000
_cell_volume 1482.421815
_symmetry_space_group_name_H-M "P 21/C"
_symmetry_group_IT_number 14
_symmetry_cell_setting 'monoclinic'
loop_
_space_group_symop_operation_xyz
x,y,z
-x,1/2+y,1/2-z
-x,-y,-z
x,1/2-y,1/2+z
loop_
_atom_site_type_symbol
_atom_site_label
_atom_site_fract_x
_atom_site_fract_y
_atom_site_fract_z
Si Si1 0.763312 0.924345 0.298531
Si Si2 0.388090 0.043836 0.393147
Si Si3 0.681963 0.434212 0.239326
Si Si4 0.989430 0.830387 0.825488
Si Si5 0.228997 0.636627 0.945538
Si Si6 0.096373 0.661038 0.233412
O O1 0.531295 0.905685 0.274603
O O2 0.810868 0.792916 0.274655
O O3 0.983890 0.940710 0.392221
O O4 0.744927 0.049968 0.255416
O O5 0.619224 0.125706 0.464243
O O6 0.171045 0.140501 0.346231
O O7 0.410854 0.989192 0.339162
O O8 0.367140 0.921721 0.428283
O O9 0.849267 0.539986 0.307989
O O10 0.827271 0.302632 0.268068
O O11 0.171079 0.789677 0.916366
O O12 0.127993 0.853017 0.804428
#
# Coordination Sequence:
#
# PCOD8123320 Si02
#       6
#     4   4   4   4   4   4
#     4   9  19  30  48  71  99 121 157 198 239 279
#     4   9  17  30  52  68  97 125 162 194 227 280
#     4  11  18  28  49  76  97 124 152 205 241 272
#     4   9  17  32  47  70  96 124 164 191 231 282
#     4   8  16  33  47  70  94 127 163 190 227 281
#     4  10  17  31  48  73  90 126 163 193 236 278
#
# _framework density 16.189723000000001
#
# number of rings (size 3 to 8) (size 9 to 14) (size 15 to 20)
#    1.000    1.667    1.667    2.000    0.000    0.667 
#    0.000    0.833    0.000    0.000    0.000    7.000 
#    0.000    0.000    0.000    0.000    0.000    0.000 
#
# Total GULP energy -297341.167223 kJ/mol
# GULP energy per Si atom -12389.215301 kJ/mol
# Density = 1.615287 g / cm^3
# Si number density = 16.189723 Si / 1000 Ang^3
#
#
#
# Elastic Constant Matrix: (Units=GPa)
#
#
# Indices 1 2 3 4 5 6 
#
# 1 83.2522 24.6268 18.9780 0.0000 4.4862 0.0000
# 2 24.6268 70.8087 13.6911 0.0000 0.0890 0.0000
# 3 18.9780 13.6911 37.8625 0.0000 -1.1118 0.0000
# 4 0.0000 0.0000 0.0000 20.2457 0.0000 1.5812
# 5 4.4862 0.0890 -1.1118 0.0000 14.8568 0.0000
# 6 0.0000 0.0000 0.0000 1.5812 0.0000 23.7228
#
#
#
# Elastic Compliance Matrix: (Units=1/GPa)
#
#
# Indices 1 2 3 4 5 6 
#
# 1 0.014854 -0.003970 -0.006154 0.000000 -0.004922 0.000000
# 2 -0.003970 0.016249 -0.003862 0.000000 0.000812 0.000000
# 3 -0.006154 -0.003862 0.031016 0.000000 0.004203 0.000000
# 4 0.000000 0.000000 0.000000 0.049652 0.000000 -0.003309
# 5 -0.004922 0.000812 0.004203 0.000000 0.069105 0.000000
# 6 0.000000 0.000000 0.000000 -0.003309 0.000000 0.042374
#
#
# Mechanical properties :
#
#
# Convention : Reuss Voigt Hill
#
# Bulk Modulus (GPa) = 29.28549 34.05723 31.67136
# Shear Modulus (GPa) = 19.03998 20.74022 19.89010
#
# Velocity S-wave (km/s) = 3.43308 3.58309 3.50889
# Velocity P-wave (km/s) = 5.81747 6.18062 6.00179
#
# Compressibility (1/GPa) = 0.03414660
#
# Stress axis : x y z
#
# Youngs Moduli (GPa) = 67.32081 61.54228 32.24142
#
# Poissons Ratio (x) = 0.24433 0.19843
# Poissons Ratio (y) = 0.26727 0.12451
# Poissons Ratio (z) = 0.41432 0.23767
#
# Static dielectric constant tensor:
#      x y z
#    x 2.940770 0.000000 0.086780 
#    y 0.000000 3.031270 0.000000 
#    z 0.086780 0.000000 2.956830 
# 
# 
# High freq. dielectric constant tensor:
#      x y z
#    x 1.617530 0.000000 0.005670 
#    y 0.000000 1.618390 0.000000 
#    z 0.005670 0.000000 1.594230 
# 
# From -- ./inp_files/55033.got.cif
#   From: 2010.03.12/outbox.cif.g09.slc.cpg/sg14_28_cif.got.tgz:55033.got - 2010.03.31 13:35:05.
