data_PCOD8123507
_publ_section_title
;
Structure prediction by ZEFSAII (Michael W. Deem and Ramdas Pophale) SiO2 
 PCOD8123507
Probable space group: P 21/C
;
_chemical_formula_sum "Si O2"
_cell_formula_units_Z 28
_cell_length_a 12.804486
_cell_length_b 21.422280
_cell_length_c 5.270544
_cell_angle_alpha 90.000000
_cell_angle_beta 90.544658
_cell_angle_gamma 90.000000
_cell_volume 1445.651667
_symmetry_space_group_name_H-M "P 21/C"
_symmetry_group_IT_number 14
_symmetry_cell_setting 'monoclinic'
loop_
_space_group_symop_operation_xyz
x,y,z
-x,1/2+y,1/2-z
-x,-y,-z
x,1/2-y,1/2+z
loop_
_atom_site_type_symbol
_atom_site_label
_atom_site_fract_x
_atom_site_fract_y
_atom_site_fract_z
Si Si1 0.693775 0.714661 0.013774
Si Si2 0.293687 0.425594 0.006700
Si Si3 0.202804 0.920802 0.002386
Si Si4 0.635196 0.175618 0.981705
Si Si5 0.548769 0.189566 0.480038
Si Si6 0.382483 0.022131 0.009039
Si Si7 0.884553 0.473945 0.000070
O O1 0.734281 0.747926 0.269415
O O2 0.568531 0.713093 0.008423
O O3 0.742777 0.645966 0.005562
O O4 0.359507 0.434965 0.264601
O O5 0.190512 0.466732 0.000309
O O6 0.366628 0.438661 0.765957
O O7 0.245433 0.849358 0.005788
O O8 0.306011 0.963062 0.005730
O O9 0.132352 0.932608 0.248535
O O10 0.134223 0.931939 0.749552
O O11 0.578439 0.148374 0.726974
O O12 0.627327 0.250743 0.973679
O O13 0.571612 0.149745 0.226591
O O14 0.500000 0.000000 0.000000
O O15 0.000000 0.500000 0.000000
#
# Coordination Sequence:
#
# PCOD8123507 Si02
#       7
#     4   4   4   4   4   4   4
#     4  12  21  35  52  80 110 150 203 213 266 328
#     4  10  23  36  54  82 111 145 195 237 273 337
#     4  10  21  33  57  86 105 144 185 224 280 351
#     4  10  18  32  47  75 111 139 193 212 255 318
#     4  10  19  30  47  74 109 158 180 211 253 314
#     4  10  21  34  49  79 120 151 173 218 287 335
#     4  10  21  42  60  83 108 138 193 244 301 340
#
# _framework density 19.368427000000001
#
# number of rings (size 3 to 8) (size 9 to 14) (size 15 to 20)
#    0.000    1.714    2.857    2.571    4.000    0.000 
#    0.000    0.000    0.000    0.000   22.286    0.000 
#    0.000    0.000    0.000    0.000    0.000    0.000 
#
# Total GULP energy -347136.804523 kJ/mol
# GULP energy per Si atom -12397.743019 kJ/mol
# Density = 1.932434 g / cm^3
# Si number density = 19.368427 Si / 1000 Ang^3
#
#
#
# Elastic Constant Matrix: (Units=GPa)
#
#
# Indices 1 2 3 4 5 6 
#
# 1 60.0568 5.7119 17.6896 0.0000 -5.5559 0.0000
# 2 5.7119 60.7873 11.6870 0.0000 -6.6494 0.0000
# 3 17.6896 11.6870 182.9879 0.0000 -13.3168 0.0000
# 4 0.0000 0.0000 0.0000 23.2938 0.0000 -0.1339
# 5 -5.5559 -6.6494 -13.3168 0.0000 5.9606 0.0000
# 6 0.0000 0.0000 0.0000 -0.1339 0.0000 24.1234
#
#
#
# Elastic Compliance Matrix: (Units=1/GPa)
#
#
# Indices 1 2 3 4 5 6 
#
# 1 0.018284 0.000129 -0.000627 0.000000 0.015786 0.000000
# 2 0.000129 0.018761 0.000383 0.000000 0.021906 0.000000
# 3 -0.000627 0.000383 0.006555 0.000000 0.014489 0.000000
# 4 0.000000 0.000000 0.000000 0.042931 0.000000 0.000238
# 5 0.015786 0.021906 0.014489 0.000000 0.239290 0.000000
# 6 0.000000 0.000000 0.000000 0.000238 0.000000 0.041455
#
#
# Mechanical properties :
#
#
# Convention : Reuss Voigt Hill
#
# Bulk Modulus (GPa) = 23.05644 41.55656 32.30650
# Shear Modulus (GPa) = 13.09031 28.59179 20.84105
#
# Velocity S-wave (km/s) = 2.60255 3.84631 3.28385
# Velocity P-wave (km/s) = 4.57832 6.42089 5.57624
#
# Compressibility (1/GPa) = 0.04337184
#
# Stress axis : x y z
#
# Youngs Moduli (GPa) = 54.69371 53.30140 152.54652
#
# Poissons Ratio (x) = -0.00689 0.09564
# Poissons Ratio (y) = -0.00707 -0.05850
# Poissons Ratio (z) = 0.03429 -0.02044
#
# Static dielectric constant tensor:
#      x y z
#    x 3.098800 0.000000 0.040300 
#    y 0.000000 3.441750 0.000000 
#    z 0.040300 0.000000 5.170580 
# 
# 
# High freq. dielectric constant tensor:
#      x y z
#    x 1.705150 0.000000 -0.001700 
#    y 0.000000 1.740990 0.000000 
#    z -0.001700 0.000000 1.792760 
# 
# From -- ./inp_files/2866.got.cif
#   From: 2010.03.12/outbox.cif.g09.slc.cpg/sg14_2_cif.got.tgz:2866.got - 2010.03.31 13:35:05.
