data_PCOD8123855
_publ_section_title
;
Structure prediction by ZEFSAII (Michael W. Deem and Ramdas Pophale) SiO2 
 PCOD8123855
Probable space group: P 21/C
;
_chemical_formula_sum "Si O2"
_cell_formula_units_Z 32
_cell_length_a 16.650071
_cell_length_b 12.655239
_cell_length_c 13.824498
_cell_angle_alpha 90.000000
_cell_angle_beta 31.254522
_cell_angle_gamma 90.000000
_cell_volume 1511.366781
_symmetry_space_group_name_H-M "P 21/C"
_symmetry_group_IT_number 14
_symmetry_cell_setting 'monoclinic'
loop_
_space_group_symop_operation_xyz
x,y,z
-x,1/2+y,1/2-z
-x,-y,-z
x,1/2-y,1/2+z
loop_
_atom_site_type_symbol
_atom_site_label
_atom_site_fract_x
_atom_site_fract_y
_atom_site_fract_z
Si Si1 0.015871 0.031812 0.285666
Si Si2 0.554109 0.338067 0.107303
Si Si3 0.837004 0.278477 0.921201
Si Si4 0.354760 0.222910 0.648975
Si Si5 0.283178 0.316158 0.522951
Si Si6 0.066641 0.586436 0.551531
Si Si7 0.891988 0.693815 0.956011
Si Si8 0.753522 0.511637 0.802270
O O1 0.862909 0.103674 0.434704
O O2 0.952035 0.927027 0.403825
O O3 0.094830 0.004896 0.101207
O O4 0.155166 0.098599 0.192484
O O5 0.502012 0.264587 0.069258
O O6 0.406983 0.371339 0.323972
O O7 0.663567 0.263857 0.060777
O O8 0.647980 0.443960 0.983288
O O9 0.878282 0.197969 0.963875
O O10 0.952928 0.264269 0.710182
O O11 0.376092 0.272908 0.521065
O O12 0.349848 0.095342 0.649146
O O13 0.200830 0.274710 0.853046
O O14 0.204584 0.219104 0.543487
O O15 0.163638 0.569002 0.355347
O O16 0.881758 0.584654 0.723403
#
# Coordination Sequence:
#
# PCOD8123855 Si02
#       8
#     4   4   4   4   4   4   4   4
#     4  10  18  40  62  88 121 172 217 253 320 383
#     4  11  24  39  60  96 136 164 207 262 326 395
#     4  10  20  38  62  94 127 168 209 266 318 376
#     4  11  23  41  62  93 130 167 208 267 323 381
#     4  10  23  41  62  92 133 169 207 264 331 381
#     4  10  21  35  66  98 124 156 216 282 307 368
#     4   9  21  40  65  90 122 163 219 274 308 376
#     4  11  21  38  66  99 121 161 220 268 322 372
#
# _framework density 21.172889000000001
#
# number of rings (size 3 to 8) (size 9 to 14) (size 15 to 20)
#    0.000    1.750    1.250    4.875    3.500    0.500 
#    2.250    0.000    0.000    3.750    0.000    0.000 
#    0.000    0.000    0.000    0.000    0.000    0.000 
#
# Total GULP energy -396547.746894 kJ/mol
# GULP energy per Si atom -12392.117090 kJ/mol
# Density = 2.112470 g / cm^3
# Si number density = 21.172889 Si / 1000 Ang^3
#
#
#
# Elastic Constant Matrix: (Units=GPa)
#
#
# Indices 1 2 3 4 5 6 
#
# 1 78.0401 29.1900 42.0541 0.0000 -2.4396 0.0000
# 2 29.1900 109.6519 38.3516 0.0000 1.8972 0.0000
# 3 42.0541 38.3516 97.1803 0.0000 -2.1212 0.0000
# 4 0.0000 0.0000 0.0000 24.4630 0.0000 0.2395
# 5 -2.4396 1.8972 -2.1212 0.0000 32.2562 0.0000
# 6 0.0000 0.0000 0.0000 0.2395 0.0000 28.3244
#
#
#
# Elastic Compliance Matrix: (Units=1/GPa)
#
#
# Indices 1 2 3 4 5 6 
#
# 1 0.017226 -0.002324 -0.006515 0.000000 0.001011 0.000000
# 2 -0.002324 0.010920 -0.003326 0.000000 -0.001037 0.000000
# 3 -0.006515 -0.003326 0.014436 0.000000 0.000652 0.000000
# 4 0.000000 0.000000 0.000000 0.040881 0.000000 -0.000346
# 5 0.001011 -0.001037 0.000652 0.000000 0.031182 0.000000
# 6 0.000000 0.000000 0.000000 -0.000346 0.000000 0.035308
#
#
# Mechanical properties :
#
#
# Convention : Reuss Voigt Hill
#
# Bulk Modulus (GPa) = 54.79212 56.00707 55.39959
# Shear Modulus (GPa) = 27.72106 28.69384 28.20745
#
# Velocity S-wave (km/s) = 3.62231 3.68532 3.65395
# Velocity P-wave (km/s) = 6.59010 6.67970 6.63506
#
# Compressibility (1/GPa) = 0.01825080
#
# Stress axis : x y z
#
# Youngs Moduli (GPa) = 58.05275 91.57634 69.26971
#
# Poissons Ratio (x) = 0.21286 0.45129
# Poissons Ratio (y) = 0.13494 0.23040
# Poissons Ratio (z) = 0.37821 0.30460
#
# Static dielectric constant tensor:
#      x y z
#    x 3.844800 0.000000 -0.152280 
#    y 0.000000 3.639440 0.000000 
#    z -0.152280 0.000000 3.784540 
# 
# 
# High freq. dielectric constant tensor:
#      x y z
#    x 1.826560 0.000000 -0.005880 
#    y 0.000000 1.819270 0.000000 
#    z -0.005880 0.000000 1.823050 
# 
# From -- ./inp_files/48976.got.cif
#   From: 2010.03.12/outbox.cif.g09.slc.cpg/sg14_25_cif.got.tgz:48976.got - 2010.03.31 13:35:05.
