data_PCOD8123729
_publ_section_title
;
Structure prediction by ZEFSAII (Michael W. Deem and Ramdas Pophale) SiO2 
 PCOD8123729
Probable space group: P 21/C
;
_chemical_formula_sum "Si O2"
_cell_formula_units_Z 24
_cell_length_a 12.110505
_cell_length_b 11.036338
_cell_length_c 15.443779
_cell_angle_alpha 90.000000
_cell_angle_beta 141.521944
_cell_angle_gamma 90.000000
_cell_volume 1284.343524
_symmetry_space_group_name_H-M "P 21/C"
_symmetry_group_IT_number 14
_symmetry_cell_setting 'monoclinic'
loop_
_space_group_symop_operation_xyz
x,y,z
-x,1/2+y,1/2-z
-x,-y,-z
x,1/2-y,1/2+z
loop_
_atom_site_type_symbol
_atom_site_label
_atom_site_fract_x
_atom_site_fract_y
_atom_site_fract_z
Si Si1 0.414698 0.078473 0.725582
Si Si2 0.335657 0.454784 0.760472
Si Si3 0.874742 0.762660 0.965949
Si Si4 0.210079 0.658350 0.106296
Si Si5 0.607778 0.242240 0.454351
Si Si6 0.791796 0.312762 0.238858
O O1 0.303814 0.191416 0.616395
O O2 0.518985 0.128990 0.874367
O O3 0.553970 0.028283 0.742969
O O4 0.273570 0.976997 0.667337
O O5 0.173258 0.386351 0.613773
O O6 0.456651 0.356356 0.883166
O O7 0.260753 0.545508 0.787820
O O8 0.996018 0.674511 0.979227
O O9 0.992769 0.799194 0.122603
O O10 0.271208 0.696648 0.049372
O O11 0.297294 0.745771 0.232877
O O12 0.729155 0.253587 0.613439
#
# Coordination Sequence:
#
# PCOD8123729 Si02
#       6
#     4   4   4   4   4   4
#     4  10  18  36  58  80 111 150 178 225 281 324
#     4  10  19  36  60  80 111 147 184 229 273 325
#     4   9  20  35  58  77 112 148 180 225 283 321
#     4   9  20  35  57  75 117 142 181 227 275 323
#     4  10  20  35  57  84 109 145 188 223 271 328
#     4  10  20  35  56  84 110 140 189 222 275 325
#
# _framework density 18.686589000000001
#
# number of rings (size 3 to 8) (size 9 to 14) (size 15 to 20)
#    1.000    1.333    1.667    1.500    0.000    0.667 
#    0.000   10.000    0.000    0.000    0.000    0.000 
#    0.000    0.000    0.000    0.000    0.000    0.000 
#
# Total GULP energy -297379.588730 kJ/mol
# GULP energy per Si atom -12390.816197 kJ/mol
# Density = 1.864406 g / cm^3
# Si number density = 18.686589 Si / 1000 Ang^3
#
#
#
# Elastic Constant Matrix: (Units=GPa)
#
#
# Indices 1 2 3 4 5 6 
#
# 1 40.0135 23.0853 40.8644 0.0000 -1.0495 0.0000
# 2 23.0853 78.9336 21.1691 0.0000 8.3795 0.0000
# 3 40.8644 21.1691 119.6668 0.0000 1.8111 0.0000
# 4 0.0000 0.0000 0.0000 29.8177 0.0000 8.7476
# 5 -1.0495 8.3795 1.8111 0.0000 25.6578 0.0000
# 6 0.0000 0.0000 0.0000 8.7476 0.0000 30.3515
#
#
#
# Elastic Compliance Matrix: (Units=1/GPa)
#
#
# Indices 1 2 3 4 5 6 
#
# 1 0.044929 -0.010130 -0.013643 0.000000 0.006109 0.000000
# 2 -0.010130 0.016048 0.000707 0.000000 -0.005705 0.000000
# 3 -0.013643 0.000707 0.012916 0.000000 -0.001701 0.000000
# 4 0.000000 0.000000 0.000000 0.036635 0.000000 -0.010558
# 5 0.006109 -0.005705 -0.001701 0.000000 0.041208 0.000000
# 6 0.000000 0.000000 0.000000 -0.010558 0.000000 0.035990
#
#
# Mechanical properties :
#
#
# Convention : Reuss Voigt Hill
#
# Bulk Modulus (GPa) = 36.02234 45.42795 40.72515
# Shear Modulus (GPa) = 20.56667 27.39841 23.98254
#
# Velocity S-wave (km/s) = 3.32115 3.83326 3.58636
# Velocity P-wave (km/s) = 5.83315 6.62986 6.24423
#
# Compressibility (1/GPa) = 0.02776055
#
# Stress axis : x y z
#
# Youngs Moduli (GPa) = 22.25720 62.31460 77.42221
#
# Poissons Ratio (x) = 0.63123 1.05628
# Poissons Ratio (y) = 0.22546 -0.05471
# Poissons Ratio (z) = 0.30366 -0.04404
#
# Static dielectric constant tensor:
#      x y z
#    x 3.036140 0.000000 0.223620 
#    y 0.000000 3.599230 0.000000 
#    z 0.223620 0.000000 3.330800 
# 
# 
# High freq. dielectric constant tensor:
#      x y z
#    x 1.694470 0.000000 0.022080 
#    y 0.000000 1.736750 0.000000 
#    z 0.022080 0.000000 1.718460 
# 
# From -- ./inp_files/39248.got.cif
#   From: 2010.03.12/outbox.cif.g09.slc.cpg/sg14_20_cif.got.tgz:39248.got - 2010.03.31 13:35:05.
