data_PCOD8123850
_publ_section_title
;
Structure prediction by ZEFSAII (Michael W. Deem and Ramdas Pophale) SiO2 
 PCOD8123850
Probable space group: P 21/C
;
_chemical_formula_sum "Si O2"
_cell_formula_units_Z 28
_cell_length_a 8.354494
_cell_length_b 8.666268
_cell_length_c 17.451319
_cell_angle_alpha 90.000000
_cell_angle_beta 78.819239
_cell_angle_gamma 90.000000
_cell_volume 1239.534238
_symmetry_space_group_name_H-M "P 21/C"
_symmetry_group_IT_number 14
_symmetry_cell_setting 'monoclinic'
loop_
_space_group_symop_operation_xyz
x,y,z
-x,1/2+y,1/2-z
-x,-y,-z
x,1/2-y,1/2+z
loop_
_atom_site_type_symbol
_atom_site_label
_atom_site_fract_x
_atom_site_fract_y
_atom_site_fract_z
Si Si1 0.686646 0.797582 0.019129
Si Si2 0.516873 0.407945 0.589622
Si Si3 0.720882 0.154578 0.203329
Si Si4 0.255952 0.559106 0.707616
Si Si5 0.896945 0.627230 0.731261
Si Si6 0.809432 0.599930 0.138837
Si Si7 0.977126 0.807392 0.389638
O O1 0.683284 0.667847 0.086467
O O2 0.663461 0.974237 0.051973
O O3 0.536439 0.784626 0.971271
O O4 0.862930 0.765328 0.965200
O O5 0.564722 0.321013 0.663029
O O6 0.355811 0.508460 0.624177
O O7 0.709529 0.260132 0.279889
O O8 0.873583 0.192656 0.135032
O O9 0.739966 0.978564 0.228673
O O10 0.302993 0.472829 0.783181
O O11 0.064526 0.529308 0.710160
O O12 0.910971 0.760381 0.666785
O O13 0.873610 0.687900 0.820120
O O14 0.943187 0.475372 0.095486
#
# Coordination Sequence:
#
# PCOD8123850 Si02
#       7
#     4   4   4   4   4   4   4
#     4  11  23  40  59  89 129 167 202 252 323 380
#     4  11  24  39  58  90 131 167 204 250 321 382
#     4  10  21  39  65  91 114 163 214 249 308 362
#     4  10  22  39  64  91 121 155 210 261 299 371
#     4  10  18  39  67  90 113 157 214 259 300 358
#     4  10  20  39  66  91 117 164 213 260 309 361
#     4  10  21  39  64  91 122 154 213 267 307 367
#
# _framework density 22.589131999999999
#
# number of rings (size 3 to 8) (size 9 to 14) (size 15 to 20)
#    0.000    2.000    1.429    5.571    2.000    1.714 
#    5.143    2.857    6.286    0.000    0.000    0.000 
#    0.000    0.000    0.000    0.000    0.000    0.000 
#
# Total GULP energy -346894.850112 kJ/mol
# GULP energy per Si atom -12389.101790 kJ/mol
# Density = 2.253772 g / cm^3
# Si number density = 22.589132 Si / 1000 Ang^3
#
#
#
# Elastic Constant Matrix: (Units=GPa)
#
#
# Indices 1 2 3 4 5 6 
#
# 1 54.3790 26.3331 32.0725 0.0000 16.9688 0.0000
# 2 26.3331 83.9555 26.7355 0.0000 -0.9115 0.0000
# 3 32.0725 26.7355 82.4938 0.0000 0.0542 0.0000
# 4 0.0000 0.0000 0.0000 25.8277 0.0000 4.4564
# 5 16.9688 -0.9115 0.0542 0.0000 35.1427 0.0000
# 6 0.0000 0.0000 0.0000 4.4564 0.0000 31.2538
#
#
#
# Elastic Compliance Matrix: (Units=1/GPa)
#
#
# Indices 1 2 3 4 5 6 
#
# 1 0.033147 -0.007217 -0.010538 0.000000 -0.016176 0.000000
# 2 -0.007217 0.014857 -0.002012 0.000000 0.003873 0.000000
# 3 -0.010538 -0.002012 0.016868 0.000000 0.005010 0.000000
# 4 0.000000 0.000000 0.000000 0.039695 0.000000 -0.005660
# 5 -0.016176 0.003873 0.005010 0.000000 0.036359 0.000000
# 6 0.000000 0.000000 0.000000 -0.005660 0.000000 0.032803
#
#
# Mechanical properties :
#
#
# Convention : Reuss Voigt Hill
#
# Bulk Modulus (GPa) = 39.46390 43.45673 41.46031
# Shear Modulus (GPa) = 22.55226 27.49066 25.02146
#
# Velocity S-wave (km/s) = 3.16312 3.49232 3.33179
# Velocity P-wave (km/s) = 5.55416 5.96166 5.76151
#
# Compressibility (1/GPa) = 0.02533962
#
# Stress axis : x y z
#
# Youngs Moduli (GPa) = 30.16885 67.30677 59.28466
#
# Poissons Ratio (x) = 0.48573 0.62472
# Poissons Ratio (y) = 0.21772 0.11928
# Poissons Ratio (z) = 0.31791 0.13542
#
# Static dielectric constant tensor:
#      x y z
#    x 3.861230 0.000000 0.230730 
#    y 0.000000 4.058560 0.000000 
#    z 0.230730 0.000000 4.102800 
# 
# 
# High freq. dielectric constant tensor:
#      x y z
#    x 1.871350 0.000000 0.016160 
#    y 0.000000 1.885630 0.000000 
#    z 0.016160 0.000000 1.886910 
# 
# From -- ./inp_files/54787.got.cif
#   From: 2010.03.12/outbox.cif.g09.slc.cpg/sg14_28_cif.got.tgz:54787.got - 2010.03.31 13:35:05.
