data_PCOD8123129
_publ_section_title
;
Structure prediction by ZEFSAII (Michael W. Deem and Ramdas Pophale) SiO2 
 PCOD8123129
Probable space group: P 2/C
;
_chemical_formula_sum "Si O2"
_cell_formula_units_Z 24
_cell_length_a 14.121949
_cell_length_b 5.779680
_cell_length_c 16.464970
_cell_angle_alpha 90.000000
_cell_angle_beta 125.342845
_cell_angle_gamma 90.000000
_cell_volume 1096.207156
_symmetry_space_group_name_H-M "P 2/C"
_symmetry_group_IT_number 13
_symmetry_cell_setting 'monoclinic'
loop_
_space_group_symop_operation_xyz
x,y,z
-x,y,1/2-z
-x,-y,-z
x,-y,1/2+z
loop_
_atom_site_type_symbol
_atom_site_label
_atom_site_fract_x
_atom_site_fract_y
_atom_site_fract_z
Si Si1 0.152304 0.979334 0.240495
Si Si2 0.821577 0.321352 0.593087
Si Si3 0.632624 0.860360 0.748237
Si Si4 0.000000 0.683400 0.750000
Si Si5 0.594592 0.627486 0.890903
Si Si6 0.002850 0.248019 0.954772
Si Si7 0.500000 0.754483 0.250000
O O1 0.184406 0.882946 0.344578
O O2 0.108566 0.767760 0.161265
O O3 0.259098 0.125905 0.258024
O O4 0.046576 0.160157 0.198831
O O5 0.688338 0.387182 0.508870
O O6 0.893287 0.536355 0.662934
O O7 0.879139 0.235861 0.538269
O O8 0.653773 0.678704 0.831818
O O9 0.510930 0.804660 0.640694
O O10 0.615071 0.104816 0.783319
O O11 0.534155 0.381078 0.848892
O O12 0.000000 0.500000 0.000000
O O13 0.000000 0.000000 0.000000
#
# Coordination Sequence:
#
# PCOD8123129 Si02
#       7
#     4   4   4   2   4   4   2
#     4  12  25  45  66  97 146 182 230 301 360 431
#     4  12  25  43  67  98 141 184 232 298 359 433
#     4   9  21  42  68  96 132 175 232 292 355 422
#     4  12  24  46  62  94 152 184 232 288 372 432
#     4   9  21  41  65 100 128 176 235 286 353 423
#     4  12  26  44  72 106 138 190 253 293 361 430
#     4   8  18  40  66  94 130 162 234 280 354 410
#
# _framework density 21.893671000000001
#
# number of rings (size 3 to 8) (size 9 to 14) (size 15 to 20)
#    0.000    1.667    3.333    2.000    2.333    6.000 
#    0.000    1.667    0.000    0.000    0.000    0.000 
#    0.000    0.000    0.000    0.000    0.000    0.000 
#
# Total GULP energy -297331.997915 kJ/mol
# GULP energy per Si atom -12388.833246 kJ/mol
# Density = 2.184384 g / cm^3
# Si number density = 21.893671 Si / 1000 Ang^3
#
#
#
# Elastic Constant Matrix: (Units=GPa)
#
#
# Indices 1 2 3 4 5 6 
#
# 1 126.3437 27.4443 27.5978 0.0000 -0.8254 0.0000
# 2 27.4443 105.2089 32.0093 0.0000 -2.5133 0.0000
# 3 27.5978 32.0093 108.5695 0.0000 25.2072 0.0000
# 4 0.0000 0.0000 0.0000 21.1032 0.0000 0.8708
# 5 -0.8254 -2.5133 25.2072 0.0000 43.1308 0.0000
# 6 0.0000 0.0000 0.0000 0.8708 0.0000 19.4797
#
#
#
# Elastic Compliance Matrix: (Units=1/GPa)
#
#
# Indices 1 2 3 4 5 6 
#
# 1 0.008720 -0.001627 -0.002029 0.000000 0.001258 0.000000
# 2 -0.001627 0.011043 -0.003453 0.000000 0.002630 0.000000
# 3 -0.002029 -0.003453 0.012496 0.000000 -0.007543 0.000000
# 4 0.000000 0.000000 0.000000 0.047474 0.000000 -0.002122
# 5 0.001258 0.002630 -0.007543 0.000000 0.027771 0.000000
# 6 0.000000 0.000000 0.000000 -0.002122 0.000000 0.051430
#
#
# Mechanical properties :
#
#
# Convention : Reuss Voigt Hill
#
# Bulk Modulus (GPa) = 55.43075 57.13610 56.28342
# Shear Modulus (GPa) = 27.90734 33.61412 30.76073
#
# Velocity S-wave (km/s) = 3.57413 3.92259 3.75241
# Velocity P-wave (km/s) = 6.51197 6.83149 6.67364
#
# Compressibility (1/GPa) = 0.01804053
#
# Stress axis : x y z
#
# Youngs Moduli (GPa) = 114.68199 90.55755 80.02802
#
# Poissons Ratio (x) = 0.14737 0.16236
# Poissons Ratio (y) = 0.18662 0.27631
# Poissons Ratio (z) = 0.23266 0.31267
#
# Static dielectric constant tensor:
#      x y z
#    x 3.894530 0.000000 -0.009110 
#    y 0.000000 4.163960 0.000000 
#    z -0.009110 0.000000 3.910850 
# 
# 
# High freq. dielectric constant tensor:
#      x y z
#    x 1.853660 0.000000 0.006540 
#    y 0.000000 1.869510 0.000000 
#    z 0.006540 0.000000 1.850060 
# 
# From -- ./inp_files/52385.got.cif
#   From: 2010.06.25/outbox.cif.g09.slc.cpg/sg13_27_cif.got.tgz:52385.got - 2010.06.28 04:50:58.
