data_PCOD8123152
_publ_section_title
;
Structure prediction by ZEFSAII (Michael W. Deem and Ramdas Pophale) SiO2 
 PCOD8123152
Probable space group: P 2/C
;
_chemical_formula_sum "Si O2"
_cell_formula_units_Z 16
_cell_length_a 7.916165
_cell_length_b 18.057509
_cell_length_c 9.132501
_cell_angle_alpha 90.000000
_cell_angle_beta 146.492618
_cell_angle_gamma 90.000000
_cell_volume 720.669977
_symmetry_space_group_name_H-M "P 2/C"
_symmetry_group_IT_number 13
_symmetry_cell_setting 'monoclinic'
loop_
_space_group_symop_operation_xyz
x,y,z
-x,y,1/2-z
-x,-y,-z
x,-y,1/2+z
loop_
_atom_site_type_symbol
_atom_site_label
_atom_site_fract_x
_atom_site_fract_y
_atom_site_fract_z
Si Si1 0.302099 0.047009 0.749591
Si Si2 0.246701 0.789524 0.308150
Si Si3 0.877491 0.291951 0.317984
Si Si4 0.838313 0.561674 0.977356
O O1 0.500000 0.065381 0.750000
O O2 0.230576 0.122496 0.782070
O O3 0.000000 0.000000 0.500000
O O4 0.500000 0.000000 0.000000
O O5 0.579048 0.760027 0.594514
O O6 0.000000 0.763744 0.250000
O O7 0.153325 0.755326 0.085141
O O8 0.811868 0.362485 0.369604
O O9 0.000000 0.319166 0.250000
O O10 0.500000 0.529829 0.750000
O O11 0.000000 0.575217 0.250000
O O12 0.000000 0.500000 0.000000
#
# Coordination Sequence:
#
# PCOD8123152 Si02
#       4
#     4   4   4   4
#     4  12  25  44  67  97 133 175 223 276 334 398
#     4  12  25  44  68  97 133 176 222 275 334 399
#     4  12  25  44  68  99 134 175 222 275 334 398
#     4  12  26  46  71 101 137 178 224 278 336 401
#
# _framework density 22.201563
#
# number of rings (size 3 to 8) (size 9 to 14) (size 15 to 20)
#    0.000    0.000    0.000   12.000    0.000    2.000 
#    0.000    0.000    0.000    0.000    0.000    0.000 
#    0.000    0.000    0.000    0.000    0.000    0.000 
#
# Total GULP energy -198488.467063 kJ/mol
# GULP energy per Si atom -12405.529191 kJ/mol
# Density = 2.215103 g / cm^3
# Si number density = 22.201563 Si / 1000 Ang^3
#
#
#
# Elastic Constant Matrix: (Units=GPa)
#
#
# Indices 1 2 3 4 5 6 
#
# 1 126.4926 35.2806 38.0512 0.0000 -4.9964 0.0000
# 2 35.2806 152.2531 62.9968 0.0000 3.8406 0.0000
# 3 38.0512 62.9968 155.3818 0.0000 0.1486 0.0000
# 4 0.0000 0.0000 0.0000 115.4686 0.0000 -66.7998
# 5 -4.9964 3.8406 0.1486 0.0000 46.2574 0.0000
# 6 0.0000 0.0000 0.0000 -66.7998 0.0000 86.3258
#
#
#
# Elastic Compliance Matrix: (Units=1/GPa)
#
#
# Indices 1 2 3 4 5 6 
#
# 1 0.008820 -0.001414 -0.001588 0.000000 0.001075 0.000000
# 2 -0.001414 0.008138 -0.002952 0.000000 -0.000819 0.000000
# 3 -0.001588 -0.002952 0.008021 0.000000 0.000048 0.000000
# 4 0.000000 0.000000 0.000000 0.015679 0.000000 0.012133
# 5 0.001075 -0.000819 0.000048 0.000000 0.021802 0.000000
# 6 0.000000 0.000000 0.000000 0.012133 0.000000 0.020973
#
#
# Mechanical properties :
#
#
# Convention : Reuss Voigt Hill
#
# Bulk Modulus (GPa) = 76.50264 78.53162 77.51713
# Shear Modulus (GPa) = 50.15118 69.46360 59.80739
#
# Velocity S-wave (km/s) = 4.75795 5.59961 5.19585
# Velocity P-wave (km/s) = 8.04470 8.78956 8.42536
#
# Compressibility (1/GPa) = 0.01307144
#
# Stress axis : x y z
#
# Youngs Moduli (GPa) = 113.37792 122.88209 124.66531
#
# Poissons Ratio (x) = 0.17376 0.19793
# Poissons Ratio (y) = 0.16032 0.36805
# Poissons Ratio (z) = 0.18001 0.36278
#
# Static dielectric constant tensor:
#      x y z
#    x 4.222460 0.000000 -0.093950 
#    y 0.000000 4.109420 0.000000 
#    z -0.093950 0.000000 4.299980 
# 
# 
# High freq. dielectric constant tensor:
#      x y z
#    x 1.894380 0.000000 -0.002120 
#    y 0.000000 1.888030 0.000000 
#    z -0.002120 0.000000 1.896770 
# 
# From -- ./inp_files/12965.got.cif
#   From: 2010.06.25/outbox.cif.g09.slc.cpg/sg13_7_cif.got.tgz:12965.got - 2010.06.28 04:50:58.
