data_PCOD8123842
_publ_section_title
;
Structure prediction by ZEFSAII (Michael W. Deem and Ramdas Pophale) SiO2 
 PCOD8123842
Probable space group: P 21/C
;
_chemical_formula_sum "Si O2"
_cell_formula_units_Z 32
_cell_length_a 5.129068
_cell_length_b 17.863470
_cell_length_c 21.411960
_cell_angle_alpha 90.000000
_cell_angle_beta 54.977069
_cell_angle_gamma 90.000000
_cell_volume 1606.584109
_symmetry_space_group_name_H-M "P 21/C"
_symmetry_group_IT_number 14
_symmetry_cell_setting 'monoclinic'
loop_
_space_group_symop_operation_xyz
x,y,z
-x,1/2+y,1/2-z
-x,-y,-z
x,1/2-y,1/2+z
loop_
_atom_site_type_symbol
_atom_site_label
_atom_site_fract_x
_atom_site_fract_y
_atom_site_fract_z
Si Si1 0.326999 0.964646 0.188138
Si Si2 0.437590 0.027351 0.387811
Si Si3 0.891398 0.894871 0.336718
Si Si4 0.061282 0.322124 0.602156
Si Si5 0.034029 0.395427 0.035783
Si Si6 0.568615 0.276018 0.099253
Si Si7 0.709949 0.549368 0.517625
Si Si8 0.258493 0.943423 0.777946
O O1 0.513695 0.925526 0.105896
O O2 0.230021 0.903459 0.254647
O O3 0.541203 0.029785 0.189309
O O4 0.998285 0.994251 0.204612
O O5 0.741795 0.977885 0.364228
O O6 0.131922 0.974235 0.425199
O O7 0.502378 0.069283 0.313166
O O8 0.355879 0.089856 0.451772
O O9 0.673915 0.833033 0.330596
O O10 0.905758 0.859625 0.404256
O O11 0.763658 0.272619 0.621703
O O12 0.930062 0.367840 0.679772
O O13 0.377071 0.276762 0.577990
O O14 0.166292 0.375895 0.531718
O O15 0.813717 0.333891 0.030069
O O16 0.500000 0.500000 0.500000
O O17 0.000000 0.500000 0.500000
#
# Coordination Sequence:
#
# PCOD8123842 Si02
#       8
#     4   4   4   4   4   4   4   4
#     4  11  21  38  63  94 117 149 196 264 305 343
#     4   9  20  33  64  98 113 155 197 272 295 342
#     4  10  20  38  65  87 128 154 209 244 307 362
#     4  12  23  40  62  84 125 163 205 244 303 374
#     4  10  18  39  61  89 123 157 205 244 304 362
#     4  11  24  40  60  84 123 178 197 231 305 382
#     4  12  22  40  64  94 120 151 207 265 309 340
#     4  11  21  38  60  92 122 145 200 252 312 348
#
# _framework density 19.918033999999999
#
# number of rings (size 3 to 8) (size 9 to 14) (size 15 to 20)
#    0.000    1.250    5.000    1.875    0.000    0.000 
#    0.000    2.500    0.000    0.000    0.000    0.000 
#    0.000    0.000    0.000    0.000    0.000    0.000 
#
# Total GULP energy -396564.474556 kJ/mol
# GULP energy per Si atom -12392.639830 kJ/mol
# Density = 1.987270 g / cm^3
# Si number density = 19.918034 Si / 1000 Ang^3
#
#
#
# Elastic Constant Matrix: (Units=GPa)
#
#
# Indices 1 2 3 4 5 6 
#
# 1 100.1490 33.9181 36.0700 0.0000 0.2294 0.0000
# 2 33.9181 96.9655 58.0302 0.0000 -2.7038 0.0000
# 3 36.0700 58.0302 174.2425 0.0000 -0.3495 0.0000
# 4 0.0000 0.0000 0.0000 9.7487 0.0000 0.0135
# 5 0.2294 -2.7038 -0.3495 0.0000 24.2525 0.0000
# 6 0.0000 0.0000 0.0000 0.0135 0.0000 40.1191
#
#
#
# Elastic Compliance Matrix: (Units=1/GPa)
#
#
# Indices 1 2 3 4 5 6 
#
# 1 0.011566 -0.003280 -0.001303 0.000000 -0.000494 0.000000
# 2 -0.003280 0.013856 -0.003933 0.000000 0.001519 0.000000
# 3 -0.001303 -0.003933 0.007318 0.000000 -0.000321 0.000000
# 4 0.000000 0.000000 0.000000 0.102578 0.000000 -0.000035
# 5 -0.000494 0.001519 -0.000321 0.000000 0.041402 0.000000
# 6 0.000000 0.000000 0.000000 -0.000035 0.000000 0.024926
#
#
# Mechanical properties :
#
#
# Convention : Reuss Voigt Hill
#
# Bulk Modulus (GPa) = 63.65611 69.71040 66.68326
# Shear Modulus (GPa) = 22.33003 31.04666 26.68834
#
# Velocity S-wave (km/s) = 3.35191 3.95235 3.66445
# Velocity P-wave (km/s) = 6.85630 7.47681 7.17327
#
# Compressibility (1/GPa) = 0.01570941
#
# Stress axis : x y z
#
# Youngs Moduli (GPa) = 86.45768 72.17016 136.64985
#
# Poissons Ratio (x) = 0.23671 0.17806
# Poissons Ratio (y) = 0.28357 0.53740
# Poissons Ratio (z) = 0.11266 0.28382
#
# Static dielectric constant tensor:
#      x y z
#    x 3.736340 0.000000 -0.004550 
#    y 0.000000 3.606140 0.000000 
#    z -0.004550 0.000000 4.000860 
# 
# 
# High freq. dielectric constant tensor:
#      x y z
#    x 1.789960 0.000000 -0.007610 
#    y 0.000000 1.756680 0.000000 
#    z -0.007610 0.000000 1.768830 
# 
# From -- ./inp_files/63874.got.cif
#   From: 2010.03.12/outbox.cif.g09.slc.cpg/sg14_32_cif.got.tgz:63874.got - 2010.03.31 13:35:05.
