data_PCOD8123508
_publ_section_title
;
Structure prediction by ZEFSAII (Michael W. Deem and Ramdas Pophale) SiO2 
 PCOD8123508
Probable space group: P 21/C
;
_chemical_formula_sum "Si O2"
_cell_formula_units_Z 28
_cell_length_a 13.612047
_cell_length_b 16.056163
_cell_length_c 12.023206
_cell_angle_alpha 90.000000
_cell_angle_beta 30.266568
_cell_angle_gamma 90.000000
_cell_volume 1324.452831
_symmetry_space_group_name_H-M "P 21/C"
_symmetry_group_IT_number 14
_symmetry_cell_setting 'monoclinic'
loop_
_space_group_symop_operation_xyz
x,y,z
-x,1/2+y,1/2-z
-x,-y,-z
x,1/2-y,1/2+z
loop_
_atom_site_type_symbol
_atom_site_label
_atom_site_fract_x
_atom_site_fract_y
_atom_site_fract_z
Si Si1 0.128041 0.192707 0.210415
Si Si2 0.883348 0.182521 0.652070
Si Si3 0.002631 0.624159 0.729715
Si Si4 0.744523 0.529921 0.832462
Si Si5 0.659051 0.396520 0.760753
Si Si6 0.529480 0.769333 0.976373
Si Si7 0.853933 0.671275 0.551886
O O1 0.089561 0.290723 0.227920
O O2 0.339127 0.182281 0.061743
O O3 0.962102 0.153645 0.453915
O O4 0.127356 0.142950 0.094876
O O5 0.981540 0.126513 0.652352
O O6 0.950398 0.279528 0.601712
O O7 0.648387 0.172836 0.892948
O O8 0.867807 0.546584 0.823670
O O9 0.215648 0.608313 0.472692
O O10 0.778535 0.436550 0.749888
O O11 0.816238 0.592870 0.666080
O O12 0.519133 0.540086 0.086047
O O13 0.581091 0.305473 0.856623
O O14 0.670507 0.736112 0.740381
#
# Coordination Sequence:
#
# PCOD8123508 Si02
#       7
#     4   4   4   4   4   4   4
#     4  10  19  32  49  73 106 133 161 211 254 304
#     4  10  20  30  49  73 102 134 167 202 253 309
#     4  11  19  31  49  74 104 132 164 206 255 303
#     4  10  19  35  49  78 104 130 170 210 256 299
#     4  10  19  30  54  73 104 132 167 214 253 301
#     4  10  18  32  47  79 101 128 168 205 259 300
#     4   9  19  32  49  71 104 133 165 205 255 302
#
# _framework density 21.140806999999999
#
# number of rings (size 3 to 8) (size 9 to 14) (size 15 to 20)
#    0.000    2.000    5.714    0.429    2.000    1.143 
#    0.000    0.000    0.000    0.857    0.000   10.000 
#    0.000    0.000    0.000    0.000    0.000    0.000 
#
# Total GULP energy -347058.468052 kJ/mol
# GULP energy per Si atom -12394.945288 kJ/mol
# Density = 2.109269 g / cm^3
# Si number density = 21.140807 Si / 1000 Ang^3
#
#
#
# Elastic Constant Matrix: (Units=GPa)
#
#
# Indices 1 2 3 4 5 6 
#
# 1 80.8327 -11.7555 34.2025 0.0000 2.1734 0.0000
# 2 -11.7555 14.9190 -9.9673 0.0000 -2.8881 0.0000
# 3 34.2025 -9.9673 87.5950 0.0000 -6.9163 0.0000
# 4 0.0000 0.0000 0.0000 15.5586 0.0000 -2.4160
# 5 2.1734 -2.8881 -6.9163 0.0000 37.9414 0.0000
# 6 0.0000 0.0000 0.0000 -2.4160 0.0000 14.5293
#
#
#
# Elastic Compliance Matrix: (Units=1/GPa)
#
#
# Indices 1 2 3 4 5 6 
#
# 1 0.015929 0.008763 -0.005318 0.000000 -0.001215 0.000000
# 2 0.008763 0.079316 0.006129 0.000000 0.006653 0.000000
# 3 -0.005318 0.006129 0.014459 0.000000 0.003407 0.000000
# 4 0.000000 0.000000 0.000000 0.065977 0.000000 0.010971
# 5 -0.001215 0.006653 0.003407 0.000000 0.027554 0.000000
# 6 0.000000 0.000000 0.000000 0.010971 0.000000 0.070650
#
#
# Mechanical properties :
#
#
# Convention : Reuss Voigt Hill
#
# Bulk Modulus (GPa) = 7.76095 23.14514 15.45304
# Shear Modulus (GPa) = 16.79612 24.99699 20.89655
#
# Velocity S-wave (km/s) = 2.82172 3.44234 3.14737
# Velocity P-wave (km/s) = 3.78090 5.17412 4.53137
#
# Compressibility (1/GPa) = 0.12885017
#
# Stress axis : x y z
#
# Youngs Moduli (GPa) = 62.78023 12.60784 69.16006
#
# Poissons Ratio (x) = -0.11048 0.36782
# Poissons Ratio (y) = -0.55012 -0.42389
# Poissons Ratio (z) = 0.33389 -0.07727
#
# Static dielectric constant tensor:
#      x y z
#    x 3.973770 0.000000 -0.267490 
#    y 0.000000 3.355030 0.000000 
#    z -0.267490 0.000000 4.210250 
# 
# 
# High freq. dielectric constant tensor:
#      x y z
#    x 1.822040 0.000000 -0.014940 
#    y 0.000000 1.771140 0.000000 
#    z -0.014940 0.000000 1.843170 
# 
# From -- ./inp_files/32911.got.cif
#   From: 2010.03.12/outbox.cif.g09.slc.cpg/sg14_17_cif.got.tgz:32911.got - 2010.03.31 13:35:05.
