data_PCOD8123601
_publ_section_title
;
Structure prediction by ZEFSAII (Michael W. Deem and Ramdas Pophale) SiO2 
 PCOD8123601
Probable space group: P 21/C
;
_chemical_formula_sum "Si O2"
_cell_formula_units_Z 24
_cell_length_a 12.422905
_cell_length_b 11.939818
_cell_length_c 17.979829
_cell_angle_alpha 90.000000
_cell_angle_beta 31.458325
_cell_angle_gamma 90.000000
_cell_volume 1391.796119
_symmetry_space_group_name_H-M "P 21/C"
_symmetry_group_IT_number 14
_symmetry_cell_setting 'monoclinic'
loop_
_space_group_symop_operation_xyz
x,y,z
-x,1/2+y,1/2-z
-x,-y,-z
x,1/2-y,1/2+z
loop_
_atom_site_type_symbol
_atom_site_label
_atom_site_fract_x
_atom_site_fract_y
_atom_site_fract_z
Si Si1 0.447307 0.629385 0.528610
Si Si2 0.305279 0.150685 0.978881
Si Si3 0.685367 0.214995 0.662023
Si Si4 0.953096 0.195104 0.650130
Si Si5 0.421166 0.900623 0.881680
Si Si6 0.196235 0.018534 0.433590
O O1 0.500000 0.500000 0.500000
O O2 0.610748 0.686466 0.488559
O O3 0.215542 0.655096 0.691731
O O4 0.465258 0.667984 0.432344
O O5 0.453679 0.208994 0.830833
O O6 0.301915 0.016345 0.968974
O O7 0.071510 0.193993 0.108431
O O8 0.851084 0.221511 0.630678
O O9 0.715209 0.323198 0.592421
O O10 0.720853 0.103635 0.590428
O O11 0.127488 0.096960 0.542647
O O12 0.638885 0.921258 0.715610
O O13 0.000000 0.000000 0.500000
#
# Coordination Sequence:
#
# PCOD8123601 Si02
#       6
#     4   4   4   4   4   4
#     4   9  19  35  52  74 104 134 172 211 247 300
#     4   9  18  33  53  74 103 138 164 210 257 301
#     4   9  18  31  52  78  99 130 173 214 248 294
#     4  10  18  34  53  76 101 136 170 204 263 303
#     4  10  18  34  52  77 106 128 170 216 251 293
#     4   9  17  31  54  75  95 132 177 208 240 303
#
# _framework density 17.243905000000002
#
# number of rings (size 3 to 8) (size 9 to 14) (size 15 to 20)
#    0.000    2.667    1.667    3.000    0.000    0.667 
#   12.000    0.000    0.000    1.000    0.000    0.000 
#    0.000    0.000    0.000    0.000    0.000    0.000 
#
# Total GULP energy -297385.846615 kJ/mol
# GULP energy per Si atom -12391.076942 kJ/mol
# Density = 1.720466 g / cm^3
# Si number density = 17.243905 Si / 1000 Ang^3
#
#
#
# Elastic Constant Matrix: (Units=GPa)
#
#
# Indices 1 2 3 4 5 6 
#
# 1 78.4804 51.1707 40.7077 0.0000 1.3038 0.0000
# 2 51.1707 84.4811 49.0938 0.0000 0.2195 0.0000
# 3 40.7077 49.0938 86.4639 0.0000 -7.9454 0.0000
# 4 0.0000 0.0000 0.0000 29.2163 0.0000 -1.6339
# 5 1.3038 0.2195 -7.9454 0.0000 19.0832 0.0000
# 6 0.0000 0.0000 0.0000 -1.6339 0.0000 22.4340
#
#
#
# Elastic Compliance Matrix: (Units=1/GPa)
#
#
# Indices 1 2 3 4 5 6 
#
# 1 0.022221 -0.010735 -0.004674 0.000000 -0.003341 0.000000
# 2 -0.010735 0.023241 -0.008421 0.000000 -0.003040 0.000000
# 3 -0.004674 -0.008421 0.019325 0.000000 0.008462 0.000000
# 4 0.000000 0.000000 0.000000 0.034367 0.000000 0.002503
# 5 -0.003341 -0.003040 0.008462 0.000000 0.056189 0.000000
# 6 0.000000 0.000000 0.000000 0.002503 0.000000 0.044757
#
#
# Mechanical properties :
#
#
# Convention : Reuss Voigt Hill
#
# Bulk Modulus (GPa) = 58.38599 59.04111 58.71355
# Shear Modulus (GPa) = 19.72625 21.37692 20.55158
#
# Velocity S-wave (km/s) = 3.38591 3.52473 3.45602
# Velocity P-wave (km/s) = 7.01557 7.13289 7.07447
#
# Compressibility (1/GPa) = 0.01712740
#
# Stress axis : x y z
#
# Youngs Moduli (GPa) = 45.00241 43.02763 51.74607
#
# Poissons Ratio (x) = 0.46189 0.24184
# Poissons Ratio (y) = 0.48309 0.43578
# Poissons Ratio (z) = 0.21032 0.36235
#
# Static dielectric constant tensor:
#      x y z
#    x 3.326540 0.000000 0.142820 
#    y 0.000000 3.424570 0.000000 
#    z 0.142820 0.000000 3.240610 
# 
# 
# High freq. dielectric constant tensor:
#      x y z
#    x 1.649580 0.000000 -0.000330 
#    y 0.000000 1.655060 0.000000 
#    z -0.000330 0.000000 1.663880 
# 
# From -- ./inp_files/24095.got.cif
#   From: 2010.03.12/outbox.cif.g09.slc.cpg/sg14_13_cif.got.tgz:24095.got - 2010.03.31 13:35:05.
