data_PCOD8123646
_publ_section_title
;
Structure prediction by ZEFSAII (Michael W. Deem and Ramdas Pophale) SiO2 
 PCOD8123646
Probable space group: P 21/C
;
_chemical_formula_sum "Si O2"
_cell_formula_units_Z 24
_cell_length_a 15.644332
_cell_length_b 15.422879
_cell_length_c 8.620237
_cell_angle_alpha 90.000000
_cell_angle_beta 34.255348
_cell_angle_gamma 90.000000
_cell_volume 1170.736352
_symmetry_space_group_name_H-M "P 21/C"
_symmetry_group_IT_number 14
_symmetry_cell_setting 'monoclinic'
loop_
_space_group_symop_operation_xyz
x,y,z
-x,1/2+y,1/2-z
-x,-y,-z
x,1/2-y,1/2+z
loop_
_atom_site_type_symbol
_atom_site_label
_atom_site_fract_x
_atom_site_fract_y
_atom_site_fract_z
Si Si1 0.499989 0.722521 0.168519
Si Si2 0.177180 0.345062 0.301792
Si Si3 0.500002 0.875175 0.369308
Si Si4 0.177153 0.654938 0.666701
Si Si5 0.255062 0.499997 0.367414
Si Si6 0.000013 0.249998 0.818384
O O1 0.499989 0.826509 0.202747
O O2 0.349446 0.675123 0.462036
O O3 0.650523 0.675121 0.010429
O O4 0.500003 0.707747 0.984095
O O5 0.157357 0.444424 0.390534
O O6 0.137506 0.283349 0.506779
O O7 0.062948 0.328491 0.330725
O O8 0.353183 0.934185 0.615518
O O9 0.646833 0.934179 0.175017
O O10 0.157337 0.555573 0.637426
O O11 0.137485 0.716648 0.580721
O O12 0.062914 0.671512 0.980475
#
# Coordination Sequence:
#
# PCOD8123646 Si02
#       6
#     4   4   4   4   4   4
#     4  10  18  34  60  78 100 140 184 214 256 324
#     4  10  20  36  56  79 107 141 180 222 265 317
#     4   9  18  32  56  85 106 134 178 227 266 306
#     4  10  20  36  56  79 107 141 180 222 265 317
#     4   9  18  32  54  80 110 139 174 222 272 309
#     4  10  22  36  54  80 110 144 180 216 268 324
#
# _framework density 20.499917
#
# number of rings (size 3 to 8) (size 9 to 14) (size 15 to 20)
#    0.000    2.333    0.000    5.000    0.000    1.333 
#    0.000    0.000    0.000   50.000    0.000    0.000 
#    0.000    1.333    0.000    0.000    0.000    0.000 
#
# Total GULP energy -297445.324082 kJ/mol
# GULP energy per Si atom -12393.555170 kJ/mol
# Density = 2.045326 g / cm^3
# Si number density = 20.499917 Si / 1000 Ang^3
#
#
#
# Elastic Constant Matrix: (Units=GPa)
#
#
# Indices 1 2 3 4 5 6 
#
# 1 58.9505 31.5090 36.2000 0.0000 4.9594 0.0000
# 2 31.5090 120.0915 21.4154 0.0000 12.3610 0.0000
# 3 36.2000 21.4154 61.2122 0.0000 -7.7634 0.0000
# 4 0.0000 0.0000 0.0000 32.5410 0.0000 6.4213
# 5 4.9594 12.3610 -7.7634 0.0000 24.9554 0.0000
# 6 0.0000 0.0000 0.0000 6.4213 0.0000 37.7828
#
#
#
# Elastic Compliance Matrix: (Units=1/GPa)
#
#
# Indices 1 2 3 4 5 6 
#
# 1 0.031115 -0.003874 -0.018309 0.000000 -0.009961 0.000000
# 2 -0.003874 0.010180 -0.001887 0.000000 -0.004860 0.000000
# 3 -0.018309 -0.001887 0.029571 0.000000 0.013773 0.000000
# 4 0.000000 0.000000 0.000000 0.031797 0.000000 -0.005404
# 5 -0.009961 -0.004860 0.013773 0.000000 0.048743 0.000000
# 6 0.000000 0.000000 0.000000 -0.005404 0.000000 0.027385
#
#
# Mechanical properties :
#
#
# Convention : Reuss Voigt Hill
#
# Bulk Modulus (GPa) = 44.00081 46.50033 45.25057
# Shear Modulus (GPa) = 21.32144 29.13117 25.22630
#
# Velocity S-wave (km/s) = 3.22852 3.77376 3.51173
# Velocity P-wave (km/s) = 5.95048 6.45916 6.21003
#
# Compressibility (1/GPa) = 0.02272685
#
# Stress axis : x y z
#
# Youngs Moduli (GPa) = 32.13903 98.23161 33.81665
#
# Poissons Ratio (x) = 0.38051 0.61915
# Poissons Ratio (y) = 0.12449 0.06382
# Poissons Ratio (z) = 0.58843 0.18537
#
# Static dielectric constant tensor:
#      x y z
#    x 3.566080 0.000000 -0.082500 
#    y 0.000000 3.786540 0.000000 
#    z -0.082500 0.000000 3.633210 
# 
# 
# High freq. dielectric constant tensor:
#      x y z
#    x 1.787240 0.000000 -0.010610 
#    y 0.000000 1.789960 0.000000 
#    z -0.010610 0.000000 1.795890 
# 
# From -- ./inp_files/12617.got.cif
#   From: 2010.03.12/outbox.cif.g09.slc.cpg/sg14_7_cif.got.tgz:12617.got - 2010.03.31 13:35:05.
