data_PCOD8123673
_publ_section_title
;
Structure prediction by ZEFSAII (Michael W. Deem and Ramdas Pophale) SiO2 
 PCOD8123673
Probable space group: P 21/C
;
_chemical_formula_sum "Si O2"
_cell_formula_units_Z 32
_cell_length_a 9.611931
_cell_length_b 19.711466
_cell_length_c 16.283845
_cell_angle_alpha 90.000000
_cell_angle_beta 32.137276
_cell_angle_gamma 90.000000
_cell_volume 1641.183010
_symmetry_space_group_name_H-M "P 21/C"
_symmetry_group_IT_number 14
_symmetry_cell_setting 'monoclinic'
loop_
_space_group_symop_operation_xyz
x,y,z
-x,1/2+y,1/2-z
-x,-y,-z
x,1/2-y,1/2+z
loop_
_atom_site_type_symbol
_atom_site_label
_atom_site_fract_x
_atom_site_fract_y
_atom_site_fract_z
Si Si1 0.424997 0.170273 0.358522
Si Si2 0.836765 0.700560 0.173255
Si Si3 0.297467 0.079034 0.657650
Si Si4 0.690391 0.432792 0.824021
Si Si5 0.556521 0.323529 0.147286
Si Si6 0.084911 0.328332 0.691475
Si Si7 0.524656 0.318742 0.340471
Si Si8 0.998029 0.178328 0.710496
O O1 0.266088 0.157350 0.353658
O O2 0.626605 0.107881 0.271332
O O3 0.583800 0.241283 0.279916
O O4 0.244517 0.177867 0.527931
O O5 0.679854 0.771018 0.251179
O O6 0.767392 0.662871 0.294391
O O7 0.152994 0.708921 0.008489
O O8 0.420742 0.058919 0.508515
O O9 0.516410 0.115422 0.603716
O O10 0.052145 0.129065 0.761359
O O11 0.199792 0.008647 0.749326
O O12 0.886974 0.389893 0.781701
O O13 0.518578 0.357743 0.256525
O O14 0.260775 0.328613 0.522515
O O15 0.940534 0.254986 0.770443
O O16 0.749641 0.348758 0.285330
#
# Coordination Sequence:
#
# PCOD8123673 Si02
#       8
#     4   4   4   4   4   4   4   4
#     4   9  19  34  55  83 111 151 190 239 285 344
#     4  11  22  34  59  88 121 144 198 251 287 340
#     4  10  21  36  60  83 118 156 193 241 291 359
#     4  10  20  38  58  85 117 154 197 237 297 353
#     4  11  22  39  56  93 119 154 194 247 299 346
#     4  11  21  34  59  87 114 150 197 245 288 348
#     4  10  21  34  58  84 117 148 191 245 294 344
#     4  10  18  35  55  84 113 150 189 236 294 341
#
# _framework density 19.49813
#
# number of rings (size 3 to 8) (size 9 to 14) (size 15 to 20)
#    0.000    1.750    5.000    0.000    1.750    0.000 
#    0.000    3.125    0.000    0.000    0.000    0.000 
#    0.000    0.000    0.000    0.000    0.000    0.000 
#
# Total GULP energy -396507.293689 kJ/mol
# GULP energy per Si atom -12390.852928 kJ/mol
# Density = 1.945375 g / cm^3
# Si number density = 19.498130 Si / 1000 Ang^3
#
#
#
# Elastic Constant Matrix: (Units=GPa)
#
#
# Indices 1 2 3 4 5 6 
#
# 1 142.2505 50.8112 22.5403 0.0000 -0.7455 0.0000
# 2 50.8112 98.2112 14.6218 0.0000 -10.8651 0.0000
# 3 22.5403 14.6218 51.1220 0.0000 6.6605 0.0000
# 4 0.0000 0.0000 0.0000 10.8578 0.0000 -2.8783
# 5 -0.7455 -10.8651 6.6605 0.0000 30.1611 0.0000
# 6 0.0000 0.0000 0.0000 -2.8783 0.0000 22.6932
#
#
#
# Elastic Compliance Matrix: (Units=1/GPa)
#
#
# Indices 1 2 3 4 5 6 
#
# 1 0.008994 -0.004347 -0.002623 0.000000 -0.000765 0.000000
# 2 -0.004347 0.013406 -0.002608 0.000000 0.005298 0.000000
# 3 -0.002623 -0.002608 0.022234 0.000000 -0.005914 0.000000
# 4 0.000000 0.000000 0.000000 0.095304 0.000000 0.012088
# 5 -0.000765 0.005298 -0.005914 0.000000 0.036351 0.000000
# 6 0.000000 0.000000 0.000000 0.012088 0.000000 0.045599
#
#
# Mechanical properties :
#
#
# Convention : Reuss Voigt Hill
#
# Bulk Modulus (GPa) = 39.24908 51.94783 45.59845
# Shear Modulus (GPa) = 20.03716 26.31643 23.17680
#
# Velocity S-wave (km/s) = 3.20917 3.67780 3.45145
# Velocity P-wave (km/s) = 5.82280 6.68844 6.27058
#
# Compressibility (1/GPa) = 0.02547831
#
# Stress axis : x y z
#
# Youngs Moduli (GPa) = 111.18135 74.59525 44.97664
#
# Poissons Ratio (x) = 0.32430 0.11796
# Poissons Ratio (y) = 0.48336 0.11728
# Poissons Ratio (z) = 0.29159 0.19452
#
# Static dielectric constant tensor:
#      x y z
#    x 3.822470 0.000000 0.208120 
#    y 0.000000 3.565050 0.000000 
#    z 0.208120 0.000000 3.418630 
# 
# 
# High freq. dielectric constant tensor:
#      x y z
#    x 1.777750 0.000000 0.008940 
#    y 0.000000 1.721960 0.000000 
#    z 0.008940 0.000000 1.735840 
# 
# From -- ./inp_files/26650.got.cif
#   From: 2010.03.12/outbox.cif.g09.slc.cpg/sg14_14_cif.got.tgz:26650.got - 2010.03.31 13:35:05.
