data_PCOD8123723
_publ_section_title
;
Structure prediction by ZEFSAII (Michael W. Deem and Ramdas Pophale) SiO2 
 PCOD8123723
Probable space group: P 21/C
;
_chemical_formula_sum "Si O2"
_cell_formula_units_Z 28
_cell_length_a 12.872040
_cell_length_b 14.035863
_cell_length_c 12.901548
_cell_angle_alpha 90.000000
_cell_angle_beta 36.251799
_cell_angle_gamma 90.000000
_cell_volume 1378.357539
_symmetry_space_group_name_H-M "P 21/C"
_symmetry_group_IT_number 14
_symmetry_cell_setting 'monoclinic'
loop_
_space_group_symop_operation_xyz
x,y,z
-x,1/2+y,1/2-z
-x,-y,-z
x,1/2-y,1/2+z
loop_
_atom_site_type_symbol
_atom_site_label
_atom_site_fract_x
_atom_site_fract_y
_atom_site_fract_z
Si Si1 0.581439 0.790194 0.555234
Si Si2 0.921123 0.739608 0.394826
Si Si3 0.820743 0.090249 0.806111
Si Si4 0.288150 0.279492 0.748452
Si Si5 0.652043 0.109570 0.728608
Si Si6 0.479885 0.580860 0.302188
Si Si7 0.983824 0.894012 0.668399
O O1 0.779200 0.794332 0.439281
O O2 0.596645 0.791250 0.417468
O O3 0.483689 0.695471 0.673670
O O4 0.478495 0.882408 0.683435
O O5 0.841293 0.718102 0.573269
O O6 0.979741 0.642379 0.290754
O O7 0.089324 0.807318 0.270740
O O8 0.679961 0.082734 0.826305
O O9 0.968432 0.008348 0.677066
O O10 0.718362 0.073989 0.996123
O O11 0.418399 0.340349 0.713203
O O12 0.179415 0.350762 0.762956
O O13 0.836414 0.138875 0.529257
O O14 0.571443 0.021075 0.731897
#
# Coordination Sequence:
#
# PCOD8123723 Si02
#       7
#     4   4   4   4   4   4   4
#     4  10  22  36  57  88 120 155 189 244 292 347
#     4  10  22  36  57  88 120 155 189 244 292 347
#     4  12  21  37  63  89 118 150 198 249 288 337
#     4  10  18  36  54  84 120 152 192 234 294 340
#     4  12  21  37  63  89 118 150 198 249 288 337
#     4  11  21  35  59  89 119 150 195 242 292 340
#     4  11  21  35  59  89 119 150 195 242 292 340
#
# _framework density 20.314033999999999
#
# number of rings (size 3 to 8) (size 9 to 14) (size 15 to 20)
#    0.000    1.143    4.286    5.143    0.000    0.000 
#    0.000    0.000    0.000   15.429   14.857    0.000 
#    0.000    0.000    0.000    0.000    0.000    0.000 
#
# Total GULP energy -347220.577299 kJ/mol
# GULP energy per Si atom -12400.734904 kJ/mol
# Density = 2.026780 g / cm^3
# Si number density = 20.314034 Si / 1000 Ang^3
#
#
#
# Elastic Constant Matrix: (Units=GPa)
#
#
# Indices 1 2 3 4 5 6 
#
# 1 37.2022 25.0804 10.9007 0.0000 6.3056 0.0000
# 2 25.0804 63.4769 2.0391 0.0000 5.8066 0.0000
# 3 10.9007 2.0391 91.8118 0.0000 7.3387 0.0000
# 4 0.0000 0.0000 0.0000 25.5538 0.0000 4.1175
# 5 6.3056 5.8066 7.3387 0.0000 28.2226 0.0000
# 6 0.0000 0.0000 0.0000 4.1175 0.0000 29.0434
#
#
#
# Elastic Compliance Matrix: (Units=1/GPa)
#
#
# Indices 1 2 3 4 5 6 
#
# 1 0.038762 -0.014768 -0.003906 0.000000 -0.004606 0.000000
# 2 -0.014768 0.021683 0.001394 0.000000 -0.001524 0.000000
# 3 -0.003906 0.001394 0.011517 0.000000 -0.002409 0.000000
# 4 0.000000 0.000000 0.000000 0.040048 0.000000 -0.005678
# 5 -0.004606 -0.001524 -0.002409 0.000000 0.037402 0.000000
# 6 0.000000 0.000000 0.000000 -0.005678 0.000000 0.035236
#
#
# Mechanical properties :
#
#
# Convention : Reuss Voigt Hill
#
# Bulk Modulus (GPa) = 26.73712 29.83679 28.28695
# Shear Modulus (GPa) = 21.58182 26.86198 24.22190
#
# Velocity S-wave (km/s) = 3.26300 3.64034 3.45682
# Velocity P-wave (km/s) = 5.23323 5.69114 5.46698
#
# Compressibility (1/GPa) = 0.03740118
#
# Stress axis : x y z
#
# Youngs Moduli (GPa) = 25.79871 46.11802 86.82674
#
# Poissons Ratio (x) = 0.68108 0.33914
# Poissons Ratio (y) = 0.38100 -0.12101
# Poissons Ratio (z) = 0.10077 -0.06427
#
# Static dielectric constant tensor:
#      x y z
#    x 3.644670 0.000000 0.317710 
#    y 0.000000 3.492170 0.000000 
#    z 0.317710 0.000000 4.122730 
# 
# 
# High freq. dielectric constant tensor:
#      x y z
#    x 1.766610 0.000000 0.006100 
#    y 0.000000 1.765660 0.000000 
#    z 0.006100 0.000000 1.820780 
# 
# From -- ./inp_files/12892.got.cif
#   From: 2010.03.12/outbox.cif.g09.slc.cpg/sg14_7_cif.got.tgz:12892.got - 2010.03.31 13:35:05.
