data_PCOD8123941
_publ_section_title
;
Structure prediction by ZEFSAII (Michael W. Deem and Ramdas Pophale) SiO2 
 PCOD8123941
Probable space group: P 21/C
;
_chemical_formula_sum "Si O2"
_cell_formula_units_Z 32
_cell_length_a 10.524218
_cell_length_b 26.979758
_cell_length_c 5.372811
_cell_angle_alpha 90.000000
_cell_angle_beta 93.577464
_cell_angle_gamma 90.000000
_cell_volume 1522.587762
_symmetry_space_group_name_H-M "P 21/C"
_symmetry_group_IT_number 14
_symmetry_cell_setting 'monoclinic'
loop_
_space_group_symop_operation_xyz
x,y,z
-x,1/2+y,1/2-z
-x,-y,-z
x,1/2-y,1/2+z
loop_
_atom_site_type_symbol
_atom_site_label
_atom_site_fract_x
_atom_site_fract_y
_atom_site_fract_z
Si Si1 0.185185 0.766055 0.995903
Si Si2 0.114513 0.452676 0.269791
Si Si3 0.466682 0.726311 0.963606
Si Si4 0.519111 0.120956 0.372169
Si Si5 0.027908 0.563379 0.238434
Si Si6 0.632591 0.555700 0.440068
Si Si7 0.616192 0.048406 0.770223
Si Si8 0.756601 0.125980 0.071646
O O1 0.111085 0.741423 0.222145
O O2 0.315667 0.736241 0.948238
O O3 0.202024 0.823826 0.059445
O O4 0.100257 0.511242 0.230818
O O5 0.262667 0.438853 0.330634
O O6 0.043544 0.432398 0.506342
O O7 0.066007 0.427577 0.007965
O O8 0.528113 0.748599 0.224838
O O9 0.499366 0.667428 0.944752
O O10 0.384161 0.105972 0.226155
O O11 0.566038 0.069464 0.503753
O O12 0.626092 0.139530 0.194157
O O13 0.133095 0.606618 0.230953
O O14 0.493484 0.549374 0.538601
O O15 0.666617 0.508442 0.264375
O O16 0.734316 0.083057 0.864850
#
# Coordination Sequence:
#
# PCOD8123941 Si02
#       8
#     4   4   4   4   4   4   4   4
#     4  10  19  32  52  81 119 147 175 235 299 359
#     4  10  22  42  56  79 115 153 205 234 281 324
#     4  10  19  35  53  81 118 149 181 231 292 361
#     4  11  22  32  59  85 121 156 186 237 303 360
#     4  10  23  37  61  81 106 160 195 247 277 335
#     4  10  22  37  53  83 119 163 194 242 282 351
#     4  10  21  35  53  84 120 157 193 235 294 349
#     4  11  21  34  56  88 118 148 196 237 302 356
#
# _framework density 21.016852
#
# number of rings (size 3 to 8) (size 9 to 14) (size 15 to 20)
#    0.000    1.750    3.750    1.875    5.250    1.000 
#    0.000    0.000    0.000    0.000    0.000    5.250 
#    0.000    0.000    0.000    0.000    0.000    0.000 
#
# Total GULP energy -396593.007133 kJ/mol
# GULP energy per Si atom -12393.531473 kJ/mol
# Density = 2.096902 g / cm^3
# Si number density = 21.016852 Si / 1000 Ang^3
#
#
#
# Elastic Constant Matrix: (Units=GPa)
#
#
# Indices 1 2 3 4 5 6 
#
# 1 43.7291 30.7879 25.0032 0.0000 27.1165 0.0000
# 2 30.7879 89.9941 31.3680 0.0000 17.2370 0.0000
# 3 25.0032 31.3680 136.1201 0.0000 18.4575 0.0000
# 4 0.0000 0.0000 0.0000 31.3291 0.0000 7.7586
# 5 27.1165 17.2370 18.4575 0.0000 33.2879 0.0000
# 6 0.0000 0.0000 0.0000 7.7586 0.0000 12.1880
#
#
#
# Elastic Compliance Matrix: (Units=1/GPa)
#
#
# Indices 1 2 3 4 5 6 
#
# 1 0.055767 -0.010837 -0.002538 0.000000 -0.038409 0.000000
# 2 -0.010837 0.015044 -0.001748 0.000000 0.002007 0.000000
# 3 -0.002538 -0.001748 0.008448 0.000000 -0.001711 0.000000
# 4 0.000000 0.000000 0.000000 0.037893 0.000000 -0.024122
# 5 -0.038409 0.002007 -0.001711 0.000000 0.061239 0.000000
# 6 0.000000 0.000000 0.000000 -0.024122 0.000000 0.097403
#
#
# Mechanical properties :
#
#
# Convention : Reuss Voigt Hill
#
# Bulk Modulus (GPa) = 20.40335 49.35125 34.87730
# Shear Modulus (GPa) = 15.50976 27.53995 21.52485
#
# Velocity S-wave (km/s) = 2.71950 3.62384 3.20374
# Velocity P-wave (km/s) = 4.42607 6.40643 5.50602
#
# Compressibility (1/GPa) = 0.04901157
#
# Stress axis : x y z
#
# Youngs Moduli (GPa) = 17.93186 66.47051 118.37696
#
# Poissons Ratio (x) = 0.72034 0.30044
# Poissons Ratio (y) = 0.19433 0.20697
# Poissons Ratio (z) = 0.04551 0.11622
#
# Static dielectric constant tensor:
#      x y z
#    x 3.315030 0.000000 0.184340 
#    y 0.000000 3.808940 0.000000 
#    z 0.184340 0.000000 4.301110 
# 
# 
# High freq. dielectric constant tensor:
#      x y z
#    x 1.756410 0.000000 0.011800 
#    y 0.000000 1.814540 0.000000 
#    z 0.011800 0.000000 1.842070 
# 
# From -- ./inp_files/3295.got.cif
#   From: 2010.03.12/outbox.cif.g09.slc.cpg/sg14_2_cif.got.tgz:3295.got - 2010.03.31 13:35:05.
