data_PCOD8123639
_publ_section_title
;
Structure prediction by ZEFSAII (Michael W. Deem and Ramdas Pophale) SiO2 
 PCOD8123639
Probable space group: P 21/C
;
_chemical_formula_sum "Si O2"
_cell_formula_units_Z 28
_cell_length_a 9.027956
_cell_length_b 17.859240
_cell_length_c 18.567082
_cell_angle_alpha 90.000000
_cell_angle_beta 146.868514
_cell_angle_gamma 90.000000
_cell_volume 1636.197340
_symmetry_space_group_name_H-M "P 21/C"
_symmetry_group_IT_number 14
_symmetry_cell_setting 'monoclinic'
loop_
_space_group_symop_operation_xyz
x,y,z
-x,1/2+y,1/2-z
-x,-y,-z
x,1/2-y,1/2+z
loop_
_atom_site_type_symbol
_atom_site_label
_atom_site_fract_x
_atom_site_fract_y
_atom_site_fract_z
Si Si1 0.250000 0.031007 0.750000
Si Si2 0.108086 0.299263 0.615825
Si Si3 0.602859 0.358039 0.482697
Si Si4 0.391913 0.200737 0.384175
Si Si5 0.919754 0.111218 0.254801
Si Si6 0.419754 0.611218 0.254800
Si Si7 0.102860 0.641961 0.982696
O O1 0.397861 0.080506 0.869707
O O2 0.102140 0.080507 0.630294
O O3 0.035804 0.976126 0.704333
O O4 0.464194 0.976126 0.795666
O O5 0.250000 0.288255 0.750000
O O6 0.293190 0.347669 0.637417
O O7 0.821290 0.340816 0.508886
O O8 0.060058 0.217340 0.562594
O O9 0.439940 0.282660 0.437405
O O10 0.747145 0.389296 0.611766
O O11 0.678710 0.159185 0.491115
O O12 0.206810 0.152331 0.362584
O O13 0.750001 0.152002 0.250001
O O14 0.247148 0.610704 0.111766
#
# Coordination Sequence:
#
# PCOD8123639 Si02
#       7
#     4   4   4   4   4   4   4
#     4  10  20  34  54  80 104 140 164 218 260 308
#     4   9  18  34  56  80  97 138 182 211 244 310
#     4  10  18  34  59  73 102 140 180 206 248 314
#     4   9  18  34  56  80  97 138 182 211 244 310
#     4   9  21  34  51  79 111 132 165 220 267 295
#     4   9  21  34  51  79 111 132 165 220 267 295
#     4  10  18  34  59  73 102 140 180 206 248 314
#
# _framework density 17.112850999999999
#
# number of rings (size 3 to 8) (size 9 to 14) (size 15 to 20)
#    0.857    1.714    1.429    0.857    0.000    2.286 
#    0.000    0.000    0.000    0.000    0.000    0.000 
#    0.000    0.000    0.000    0.000    0.000    0.000 
#
# Total GULP energy -347026.645474 kJ/mol
# GULP energy per Si atom -12393.808767 kJ/mol
# Density = 1.707390 g / cm^3
# Si number density = 17.112851 Si / 1000 Ang^3
#
#
#
# Elastic Constant Matrix: (Units=GPa)
#
#
# Indices 1 2 3 4 5 6 
#
# 1 84.5929 51.2786 24.7251 0.0000 14.3429 0.0000
# 2 51.2786 114.7414 38.0884 0.0000 11.5811 0.0000
# 3 24.7251 38.0884 56.6251 0.0000 11.3667 0.0000
# 4 0.0000 0.0000 0.0000 9.2857 0.0000 10.1411
# 5 14.3429 11.5811 11.3667 0.0000 26.8344 0.0000
# 6 0.0000 0.0000 0.0000 10.1411 0.0000 14.0433
#
#
#
# Elastic Compliance Matrix: (Units=1/GPa)
#
#
# Indices 1 2 3 4 5 6 
#
# 1 0.017301 -0.006480 -0.002077 0.000000 -0.005571 0.000000
# 2 -0.006480 0.013728 -0.006460 0.000000 0.000275 0.000000
# 3 -0.002077 -0.006460 0.024186 0.000000 -0.006347 0.000000
# 4 0.000000 0.000000 0.000000 0.509558 0.000000 -0.367968
# 5 -0.005571 0.000275 -0.006347 0.000000 0.042813 0.000000
# 6 0.000000 0.000000 0.000000 -0.367968 0.000000 0.336930
#
#
# Mechanical properties :
#
#
# Convention : Reuss Voigt Hill
#
# Bulk Modulus (GPa) = 39.71283 53.79372 46.75327
# Shear Modulus (GPa) = 5.08676 19.49053 12.28864
#
# Velocity S-wave (km/s) = 1.72596 3.37848 2.68264
# Velocity P-wave (km/s) = 5.21812 6.83533 6.08073
#
# Compressibility (1/GPa) = 0.02518078
#
# Stress axis : x y z
#
# Youngs Moduli (GPa) = 57.79954 72.84530 41.34602
#
# Poissons Ratio (x) = 0.47205 0.08589
# Poissons Ratio (y) = 0.37455 0.26708
# Poissons Ratio (z) = 0.12008 0.47055
#
# Static dielectric constant tensor:
#      x y z
#    x 3.078700 0.000000 0.105500 
#    y 0.000000 3.181750 0.000000 
#    z 0.105500 0.000000 3.145680 
# 
# 
# High freq. dielectric constant tensor:
#      x y z
#    x 1.642710 0.000000 -0.001900 
#    y 0.000000 1.662910 0.000000 
#    z -0.001900 0.000000 1.657770 
# 
# From -- ./inp_files/66016.got.cif
#   From: 2010.03.12/outbox.cif.g09.slc.cpg/sg14_34_cif.got.tgz:66016.got - 2010.03.31 13:35:05.
