data_PCOD8123346
_publ_section_title
;
Structure prediction by ZEFSAII (Michael W. Deem and Ramdas Pophale) SiO2 
 PCOD8123346
Probable space group: P 21/C
;
_chemical_formula_sum "Si O2"
_cell_formula_units_Z 32
_cell_length_a 8.742591
_cell_length_b 11.294107
_cell_length_c 16.984248
_cell_angle_alpha 90.000000
_cell_angle_beta 110.665662
_cell_angle_gamma 90.000000
_cell_volume 1569.113835
_symmetry_space_group_name_H-M "P 21/C"
_symmetry_group_IT_number 14
_symmetry_cell_setting 'monoclinic'
loop_
_space_group_symop_operation_xyz
x,y,z
-x,1/2+y,1/2-z
-x,-y,-z
x,1/2-y,1/2+z
loop_
_atom_site_type_symbol
_atom_site_label
_atom_site_fract_x
_atom_site_fract_y
_atom_site_fract_z
Si Si1 0.491022 0.407560 0.173283
Si Si2 0.763146 0.501535 0.761657
Si Si3 0.716296 0.210961 0.152981
Si Si4 0.941416 0.185739 0.404367
Si Si5 0.362009 0.360875 0.846791
Si Si6 0.252402 0.445325 0.993247
Si Si7 0.057996 0.287768 0.269627
Si Si8 0.313406 0.716925 0.026336
O O1 0.366958 0.405481 0.224772
O O2 0.620003 0.300320 0.194357
O O3 0.580792 0.533805 0.199838
O O4 0.393638 0.393143 0.073883
O O5 0.680850 0.420828 0.678828
O O6 0.835305 0.417323 0.842772
O O7 0.909099 0.576253 0.747839
O O8 0.908757 0.238744 0.191462
O O9 0.666784 0.214876 0.052443
O O10 0.826655 0.267173 0.440142
O O11 0.081918 0.120593 0.481032
O O12 0.019317 0.276192 0.355464
O O13 0.220349 0.287395 0.778472
O O14 0.513023 0.276045 0.897916
O O15 0.295817 0.425660 0.911369
O O16 0.243921 0.585106 0.001912
#
# Coordination Sequence:
#
# PCOD8123346 Si02
#       8
#     4   4   4   4   4   4   4   4
#     4  11  21  35  62  89 121 147 207 254 307 355
#     4  11  24  40  56  91 125 167 198 241 311 372
#     4  11  24  39  62  94 122 160 202 259 304 360
#     4  10  21  36  62  90 120 161 201 249 312 358
#     4  10  19  37  60  90 118 160 190 255 316 349
#     4  10  17  32  60  92 118 144 196 263 309 341
#     4  10  25  39  58  82 136 160 196 243 308 374
#     4  11  18  35  63  91 118 149 211 261 295 349
#
# _framework density 20.393675999999999
#
# number of rings (size 3 to 8) (size 9 to 14) (size 15 to 20)
#    0.000    1.500    5.000    1.875    7.000    0.000 
#    0.000    1.250    0.000    0.000    0.000    0.000 
#    0.000    0.000    0.000    0.000    0.000    0.000 
#
# Total GULP energy -396730.241054 kJ/mol
# GULP energy per Si atom -12397.820033 kJ/mol
# Density = 2.034726 g / cm^3
# Si number density = 20.393676 Si / 1000 Ang^3
#
#
#
# Elastic Constant Matrix: (Units=GPa)
#
#
# Indices 1 2 3 4 5 6 
#
# 1 104.5275 22.8898 20.1815 0.0000 0.5116 0.0000
# 2 22.8898 44.2633 20.3634 0.0000 -7.6376 0.0000
# 3 20.1815 20.3634 32.8905 0.0000 -1.0678 0.0000
# 4 0.0000 0.0000 0.0000 22.1505 0.0000 1.5073
# 5 0.5116 -7.6376 -1.0678 0.0000 33.5296 0.0000
# 6 0.0000 0.0000 0.0000 1.5073 0.0000 33.3006
#
#
#
# Elastic Compliance Matrix: (Units=1/GPa)
#
#
# Indices 1 2 3 4 5 6 
#
# 1 0.011318 -0.003986 -0.004516 0.000000 -0.001225 0.000000
# 2 -0.003986 0.034514 -0.018685 0.000000 0.007328 0.000000
# 3 -0.004516 -0.018685 0.044653 0.000000 -0.002765 0.000000
# 4 0.000000 0.000000 0.000000 0.045285 0.000000 -0.002050
# 5 -0.001225 0.007328 -0.002765 0.000000 0.031424 0.000000
# 6 0.000000 0.000000 0.000000 -0.002050 0.000000 0.030122
#
#
# Mechanical properties :
#
#
# Convention : Reuss Voigt Hill
#
# Bulk Modulus (GPa) = 27.69260 34.28341 30.98801
# Shear Modulus (GPa) = 18.95895 25.67925 22.31910
#
# Velocity S-wave (km/s) = 3.05232 3.55234 3.31178
# Velocity P-wave (km/s) = 5.10203 5.80282 5.46368
#
# Compressibility (1/GPa) = 0.03611073
#
# Stress axis : x y z
#
# Youngs Moduli (GPa) = 88.35672 28.97395 22.39470
#
# Poissons Ratio (x) = 0.11550 0.10114
# Poissons Ratio (y) = 0.35222 0.41843
# Poissons Ratio (z) = 0.39904 0.54136
#
# Static dielectric constant tensor:
#      x y z
#    x 4.118520 0.000000 -0.035770 
#    y 0.000000 3.403260 0.000000 
#    z -0.035770 0.000000 3.703190 
# 
# 
# High freq. dielectric constant tensor:
#      x y z
#    x 1.821960 0.000000 -0.002980 
#    y 0.000000 1.757980 0.000000 
#    z -0.002980 0.000000 1.781490 
# 
# From -- ./inp_files/55450.got.cif
#   From: 2010.03.12/outbox.cif.g09.slc.cpg/sg14_28_cif.got.tgz:55450.got - 2010.03.31 13:35:05.
