data_PCOD8123326
_publ_section_title
;
Structure prediction by ZEFSAII (Michael W. Deem and Ramdas Pophale) SiO2 
 PCOD8123326
Probable space group: P 21/C
;
_chemical_formula_sum "Si O2"
_cell_formula_units_Z 32
_cell_length_a 11.581369
_cell_length_b 19.744582
_cell_length_c 8.787042
_cell_angle_alpha 90.000000
_cell_angle_beta 57.059721
_cell_angle_gamma 90.000000
_cell_volume 1686.302891
_symmetry_space_group_name_H-M "P 21/C"
_symmetry_group_IT_number 14
_symmetry_cell_setting 'monoclinic'
loop_
_space_group_symop_operation_xyz
x,y,z
-x,1/2+y,1/2-z
-x,-y,-z
x,1/2-y,1/2+z
loop_
_atom_site_type_symbol
_atom_site_label
_atom_site_fract_x
_atom_site_fract_y
_atom_site_fract_z
Si Si1 0.599404 0.522766 0.294739
Si Si2 0.936681 0.127878 0.230288
Si Si3 0.847424 0.230630 0.841237
Si Si4 0.874141 0.095364 0.948968
Si Si5 0.097618 0.474635 0.796366
Si Si6 0.650683 0.270001 0.221494
Si Si7 0.371406 0.601156 0.944625
Si Si8 0.565045 0.375024 0.768878
O O1 0.500000 0.500000 0.500000
O O2 0.750079 0.534384 0.251365
O O3 0.596735 0.467747 0.163722
O O4 0.551426 0.593167 0.254456
O O5 0.948079 0.209970 0.207887
O O6 0.958312 0.097008 0.046462
O O7 0.788948 0.107874 0.403443
O O8 0.050082 0.097727 0.263292
O O9 0.699474 0.221489 0.860957
O O10 0.921507 0.157741 0.804126
O O11 0.800120 0.253964 0.042283
O O12 0.712387 0.101226 0.099803
O O13 0.909348 0.026921 0.837679
O O14 0.000000 0.500000 0.000000
O O15 0.581831 0.337131 0.199951
O O16 0.547981 0.206402 0.277622
O O17 0.456169 0.601494 0.041014
#
# Coordination Sequence:
#
# PCOD8123326 Si02
#       8
#     4   4   4   4   4   4   4   4
#     4  12  24  38  58  86 119 156 195 240 289 347
#     4  10  20  36  57  86 120 149 191 240 296 340
#     4  10  17  31  58  90 113 142 195 248 284 329
#     4  10  20  36  59  89 114 151 193 245 287 343
#     4  12  24  38  58  86 119 156 195 240 289 347
#     4  10  17  31  58  90 113 142 195 248 284 329
#     4  10  20  36  59  89 114 151 193 245 287 343
#     4  10  20  36  57  86 120 149 191 240 296 340
#
# _framework density 18.976426
#
# number of rings (size 3 to 8) (size 9 to 14) (size 15 to 20)
#    0.000    1.500    7.500    1.500    3.500    0.000 
#    0.000    0.000    0.000    6.000    0.000    0.000 
#    0.000    0.000    0.000    0.000    0.000    0.000 
#
# Total GULP energy -396667.188170 kJ/mol
# GULP energy per Si atom -12395.849630 kJ/mol
# Density = 1.893324 g / cm^3
# Si number density = 18.976426 Si / 1000 Ang^3
#
#
#
# Elastic Constant Matrix: (Units=GPa)
#
#
# Indices 1 2 3 4 5 6 
#
# 1 119.5646 52.8489 40.2236 0.0000 13.6514 0.0000
# 2 52.8489 103.7699 26.3959 0.0000 17.4183 0.0000
# 3 40.2236 26.3959 62.3206 0.0000 13.3927 0.0000
# 4 0.0000 0.0000 0.0000 27.1596 0.0000 12.1816
# 5 13.6514 17.4183 13.3927 0.0000 24.0810 0.0000
# 6 0.0000 0.0000 0.0000 12.1816 0.0000 33.2173
#
#
#
# Elastic Compliance Matrix: (Units=1/GPa)
#
#
# Indices 1 2 3 4 5 6 
#
# 1 0.012541 -0.004813 -0.005992 0.000000 -0.000295 0.000000
# 2 -0.004813 0.013464 -0.001238 0.000000 -0.006322 0.000000
# 3 -0.005992 -0.001238 0.022164 0.000000 -0.008035 0.000000
# 4 0.000000 0.000000 0.000000 0.044068 0.000000 -0.016161
# 5 -0.000295 -0.006322 -0.008035 0.000000 0.050735 0.000000
# 6 0.000000 0.000000 0.000000 -0.016161 0.000000 0.036031
#
#
# Mechanical properties :
#
#
# Convention : Reuss Voigt Hill
#
# Bulk Modulus (GPa) = 41.52212 58.28799 49.90506
# Shear Modulus (GPa) = 23.68359 27.97070 25.82714
#
# Velocity S-wave (km/s) = 3.53661 3.84340 3.69319
# Velocity P-wave (km/s) = 6.21331 7.10481 6.67396
#
# Compressibility (1/GPa) = 0.02408355
#
# Stress axis : x y z
#
# Youngs Moduli (GPa) = 79.74057 74.27264 45.11743
#
# Poissons Ratio (x) = 0.35748 0.27035
# Poissons Ratio (y) = 0.38380 0.05584
# Poissons Ratio (z) = 0.47781 0.09192
#
# Static dielectric constant tensor:
#      x y z
#    x 3.260740 0.000000 0.403840 
#    y 0.000000 3.680270 0.000000 
#    z 0.403840 0.000000 3.442570 
# 
# 
# High freq. dielectric constant tensor:
#      x y z
#    x 1.713010 0.000000 0.048200 
#    y 0.000000 1.746940 0.000000 
#    z 0.048200 0.000000 1.725000 
# 
# From -- ./inp_files/14295.got.cif
#   From: 2010.03.12/outbox.cif.g09.slc.cpg/sg14_8_cif.got.tgz:14295.got - 2010.03.31 13:35:05.
