data_PCOD8123202
_publ_section_title
;
Structure prediction by ZEFSAII (Michael W. Deem and Ramdas Pophale) SiO2 
 PCOD8123202
Probable space group: P 2/C
;
_chemical_formula_sum "Si O2"
_cell_formula_units_Z 20
_cell_length_a 11.132765
_cell_length_b 4.966381
_cell_length_c 23.378840
_cell_angle_alpha 90.000000
_cell_angle_beta 37.532760
_cell_angle_gamma 90.000000
_cell_volume 787.474652
_symmetry_space_group_name_H-M "P 2/C"
_symmetry_group_IT_number 13
_symmetry_cell_setting 'monoclinic'
loop_
_space_group_symop_operation_xyz
x,y,z
-x,y,1/2-z
-x,-y,-z
x,-y,1/2+z
loop_
_atom_site_type_symbol
_atom_site_label
_atom_site_fract_x
_atom_site_fract_y
_atom_site_fract_z
Si Si1 0.723547 0.976141 0.145907
Si Si2 0.716282 0.467020 0.074542
Si Si3 0.992275 0.722679 0.372699
Si Si4 0.706272 0.414705 0.314531
Si Si5 0.300127 0.081643 0.605815
O O1 0.500000 0.976357 0.250000
O O2 0.751154 0.767039 0.083651
O O3 0.859497 0.912262 0.148485
O O4 0.791454 0.264717 0.095734
O O5 0.487145 0.401525 0.151640
O O6 0.836603 0.432227 0.971072
O O7 0.876558 0.916407 0.372880
O O8 0.109701 0.494378 0.294029
O O9 0.672059 0.622113 0.378945
O O10 0.751819 0.122050 0.323373
O O11 0.500000 0.000000 0.500000
#
# Coordination Sequence:
#
# PCOD8123202 Si02
#       5
#     4   4   4   4   4
#     4  12  27  50  78 115 155 202 257 318 386 461
#     4  12  27  51  79 112 157 202 257 319 387 462
#     4  12  29  49  83 112 158 207 257 323 391 462
#     4  12  28  52  78 116 157 203 260 322 390 463
#     4  12  28  52  80 113 157 205 263 322 389 463
#
# _framework density 25.397642000000001
#
# number of rings (size 3 to 8) (size 9 to 14) (size 15 to 20)
#    0.000    0.000    4.000    4.200    0.000    6.400 
#    0.000    0.000    0.000    0.000    0.000    0.000 
#    0.000    0.000    0.000    0.000    0.000    0.000 
#
# Total GULP energy -248254.469126 kJ/mol
# GULP energy per Si atom -12412.723456 kJ/mol
# Density = 2.533984 g / cm^3
# Si number density = 25.397642 Si / 1000 Ang^3
#
#
#
# Elastic Constant Matrix: (Units=GPa)
#
#
# Indices 1 2 3 4 5 6 
#
# 1 134.0733 -1.9109 35.0767 0.0000 -1.4249 0.0000
# 2 -1.9109 53.2217 19.8421 0.0000 2.5611 0.0000
# 3 35.0767 19.8421 125.1605 0.0000 -13.6659 0.0000
# 4 0.0000 0.0000 0.0000 17.6815 0.0000 4.9611
# 5 -1.4249 2.5611 -13.6659 0.0000 36.5026 0.0000
# 6 0.0000 0.0000 0.0000 4.9611 0.0000 31.1136
#
#
#
# Elastic Compliance Matrix: (Units=1/GPa)
#
#
# Indices 1 2 3 4 5 6 
#
# 1 0.008140 0.001284 -0.002565 0.000000 -0.000733 0.000000
# 2 0.001284 0.020430 -0.003909 0.000000 -0.002847 0.000000
# 3 -0.002565 -0.003909 0.009746 0.000000 0.003823 0.000000
# 4 0.000000 0.000000 0.000000 0.059205 0.000000 -0.009440
# 5 -0.000733 -0.002847 0.003823 0.000000 0.028998 0.000000
# 6 0.000000 0.000000 0.000000 -0.009440 0.000000 0.033646
#
#
# Mechanical properties :
#
#
# Convention : Reuss Voigt Hill
#
# Bulk Modulus (GPa) = 35.79769 46.49680 41.14725
# Shear Modulus (GPa) = 27.79990 34.35603 31.07797
#
# Velocity S-wave (km/s) = 3.31204 3.68193 3.50187
# Velocity P-wave (km/s) = 5.36206 6.03513 5.70852
#
# Compressibility (1/GPa) = 0.02793476
#
# Stress axis : x y z
#
# Youngs Moduli (GPa) = 122.84824 48.94776 102.60931
#
# Poissons Ratio (x) = -0.06284 0.26317
# Poissons Ratio (y) = -0.15770 0.40114
# Poissons Ratio (z) = 0.31508 0.19136
#
# Static dielectric constant tensor:
#      x y z
#    x 4.948540 0.000000 -0.041780 
#    y 0.000000 4.896240 0.000000 
#    z -0.041780 0.000000 4.733890 
# 
# 
# High freq. dielectric constant tensor:
#      x y z
#    x 2.031360 0.000000 -0.002700 
#    y 0.000000 2.018440 0.000000 
#    z -0.002700 0.000000 2.036560 
# 
# From -- ./inp_files/85485.got.cif
#   From: 2010.06.25/outbox.cif.g09.slc.cpg/sg13_43_cif.got.tgz:85485.got - 2010.06.28 04:50:58.
