data_PCOD8123106
_publ_section_title
;
Structure prediction by ZEFSAII (Michael W. Deem and Ramdas Pophale) SiO2 
 PCOD8123106
Probable space group: P 2/C
;
_chemical_formula_sum "Si O2"
_cell_formula_units_Z 20
_cell_length_a 20.128989
_cell_length_b 4.941502
_cell_length_c 8.818222
_cell_angle_alpha 90.000000
_cell_angle_beta 93.489808
_cell_angle_gamma 90.000000
_cell_volume 875.499457
_symmetry_space_group_name_H-M "P 2/C"
_symmetry_group_IT_number 13
_symmetry_cell_setting 'monoclinic'
loop_
_space_group_symop_operation_xyz
x,y,z
-x,y,1/2-z
-x,-y,-z
x,-y,1/2+z
loop_
_atom_site_type_symbol
_atom_site_label
_atom_site_fract_x
_atom_site_fract_y
_atom_site_fract_z
Si Si1 0.471377 0.747592 0.410602
Si Si2 0.117112 0.817236 0.668257
Si Si3 0.733732 0.739385 0.751071
Si Si4 0.683447 0.762400 0.078888
Si Si5 0.930488 0.654951 0.512870
O O1 0.500000 0.759525 0.250000
O O2 0.500000 0.500000 0.500000
O O3 0.392591 0.709405 0.393172
O O4 0.500000 0.000000 0.500000
O O5 0.193106 0.870912 0.721587
O O6 0.122418 0.569670 0.548832
O O7 0.079008 0.075209 0.590580
O O8 0.076815 0.729696 0.812458
O O9 0.732043 0.439946 0.678631
O O10 0.697280 0.930310 0.626459
O O11 0.694880 0.731626 0.902629
O O12 0.000000 0.500000 0.500000
#
# Coordination Sequence:
#
# PCOD8123106 Si02
#       5
#     4   4   4   4   4
#     4  12  24  42  64  94 133 176 219 270 325 386
#     4  12  25  46  69  99 132 172 215 269 328 386
#     4  12  24  43  68  97 131 170 218 273 325 386
#     4  12  24  42  66  98 130 173 221 270 325 386
#     4  12  26  45  69  98 132 171 215 264 323 394
#
# _framework density 22.844100999999998
#
# number of rings (size 3 to 8) (size 9 to 14) (size 15 to 20)
#    0.000    0.000    0.000   11.400    0.000    1.600 
#    0.000    0.000    0.000    0.000    0.000    0.000 
#    0.000    0.000    0.000    0.000    0.000    0.000 
#
# Total GULP energy -248043.222439 kJ/mol
# GULP energy per Si atom -12402.161122 kJ/mol
# Density = 2.279211 g / cm^3
# Si number density = 22.844101 Si / 1000 Ang^3
#
#
#
# Elastic Constant Matrix: (Units=GPa)
#
#
# Indices 1 2 3 4 5 6 
#
# 1 118.5556 25.5178 15.0318 0.0000 1.8158 0.0000
# 2 25.5178 163.7352 60.4084 0.0000 3.3821 0.0000
# 3 15.0318 60.4084 104.9075 0.0000 -5.5130 0.0000
# 4 0.0000 0.0000 0.0000 39.6892 0.0000 3.7869
# 5 1.8158 3.3821 -5.5130 0.0000 38.4802 0.0000
# 6 0.0000 0.0000 0.0000 3.7869 0.0000 33.0684
#
#
#
# Elastic Compliance Matrix: (Units=1/GPa)
#
#
# Indices 1 2 3 4 5 6 
#
# 1 0.008763 -0.001125 -0.000629 0.000000 -0.000405 0.000000
# 2 -0.001125 0.007968 -0.004495 0.000000 -0.001291 0.000000
# 3 -0.000629 -0.004495 0.012326 0.000000 0.002191 0.000000
# 4 0.000000 0.000000 0.000000 0.025474 0.000000 -0.002917
# 5 -0.000405 -0.001291 0.002191 0.000000 0.026434 0.000000
# 6 0.000000 0.000000 0.000000 -0.002917 0.000000 0.030574
#
#
# Mechanical properties :
#
#
# Convention : Reuss Voigt Hill
#
# Bulk Modulus (GPa) = 60.39157 65.45716 62.92436
# Shear Modulus (GPa) = 38.59339 41.33024 39.96182
#
# Velocity S-wave (km/s) = 4.11472 4.25812 4.18703
# Velocity P-wave (km/s) = 7.00488 7.27265 7.14002
#
# Compressibility (1/GPa) = 0.01655860
#
# Stress axis : x y z
#
# Youngs Moduli (GPa) = 114.11605 125.50653 81.13222
#
# Poissons Ratio (x) = 0.14123 0.05102
# Poissons Ratio (y) = 0.12842 0.36466
# Poissons Ratio (z) = 0.07177 0.56410
#
# Static dielectric constant tensor:
#      x y z
#    x 4.201260 0.000000 0.095670 
#    y 0.000000 4.507580 0.000000 
#    z 0.095670 0.000000 4.471600 
# 
# 
# High freq. dielectric constant tensor:
#      x y z
#    x 1.912590 0.000000 0.005270 
#    y 0.000000 1.923550 0.000000 
#    z 0.005270 0.000000 1.924080 
# 
# From -- ./inp_files/20546.got.cif
#   From: 2010.06.25/outbox.cif.g09.slc.cpg/sg13_11_cif.got.tgz:20546.got - 2010.06.28 04:50:58.
