data_PCOD8123944
_publ_section_title
;
Structure prediction by ZEFSAII (Michael W. Deem and Ramdas Pophale) SiO2 
 PCOD8123944
Probable space group: P 21/C
;
_chemical_formula_sum "Si O2"
_cell_formula_units_Z 24
_cell_length_a 9.047036
_cell_length_b 9.304275
_cell_length_c 19.319119
_cell_angle_alpha 90.000000
_cell_angle_beta 128.903026
_cell_angle_gamma 90.000000
_cell_volume 1265.531535
_symmetry_space_group_name_H-M "P 21/C"
_symmetry_group_IT_number 14
_symmetry_cell_setting 'monoclinic'
loop_
_space_group_symop_operation_xyz
x,y,z
-x,1/2+y,1/2-z
-x,-y,-z
x,1/2-y,1/2+z
loop_
_atom_site_type_symbol
_atom_site_label
_atom_site_fract_x
_atom_site_fract_y
_atom_site_fract_z
Si Si1 0.015161 0.580080 0.393399
Si Si2 0.063770 0.194371 0.982598
Si Si3 0.609052 0.601684 0.953469
Si Si4 0.616470 0.516669 0.239044
Si Si5 0.350666 0.786082 0.489096
Si Si6 0.366377 0.778108 0.146719
O O1 0.918657 0.626294 0.436802
O O2 0.836740 0.560393 0.288847
O O3 0.112411 0.425059 0.437840
O O4 0.164490 0.697815 0.407940
O O5 0.854943 0.261563 0.910161
O O6 0.208820 0.324248 0.024739
O O7 0.453644 0.567989 0.849166
O O8 0.690664 0.455499 0.011464
O O9 0.515879 0.714525 0.980292
O O10 0.490172 0.654916 0.218004
O O11 0.592048 0.425517 0.301876
O O12 0.419219 0.709823 0.580514
#
# Coordination Sequence:
#
# PCOD8123944 Si02
#       6
#     4   4   4   4   4   4
#     4   9  18  34  53  76 103 134 172 215 257 306
#     4   9  18  33  55  77 102 136 175 209 253 316
#     4  10  20  35  54  78 106 137 174 215 256 307
#     4  10  19  32  53  80 106 131 174 226 257 292
#     4   9  20  36  53  74 105 140 172 204 259 320
#     4   9  19  34  54  78 104 138 175 213 256 305
#
# _framework density 18.964362999999999
#
# number of rings (size 3 to 8) (size 9 to 14) (size 15 to 20)
#    0.000    2.667    0.000    2.000    0.000    8.000 
#    0.000   10.000    0.000    6.000    0.000    0.000 
#    0.000    0.000    0.000    0.000    0.000    0.000 
#
# Total GULP energy -297464.094050 kJ/mol
# GULP energy per Si atom -12394.337252 kJ/mol
# Density = 1.892120 g / cm^3
# Si number density = 18.964363 Si / 1000 Ang^3
#
#
#
# Elastic Constant Matrix: (Units=GPa)
#
#
# Indices 1 2 3 4 5 6 
#
# 1 39.7686 17.9507 20.3330 0.0000 4.1479 0.0000
# 2 17.9507 59.4286 33.6921 0.0000 13.6438 0.0000
# 3 20.3330 33.6921 90.6673 0.0000 20.5196 0.0000
# 4 0.0000 0.0000 0.0000 40.2935 0.0000 9.5026
# 5 4.1479 13.6438 20.5196 0.0000 21.4158 0.0000
# 6 0.0000 0.0000 0.0000 9.5026 0.0000 39.5345
#
#
#
# Elastic Compliance Matrix: (Units=1/GPa)
#
#
# Indices 1 2 3 4 5 6 
#
# 1 0.030576 -0.007214 -0.004949 0.000000 0.003416 0.000000
# 2 -0.007214 0.024049 -0.005322 0.000000 -0.008825 0.000000
# 3 -0.004949 -0.005322 0.016769 0.000000 -0.011718 0.000000
# 4 0.000000 0.000000 0.000000 0.026309 0.000000 -0.006324
# 5 0.003416 -0.008825 -0.011718 0.000000 0.062883 0.000000
# 6 0.000000 0.000000 0.000000 -0.006324 0.000000 0.026814
#
#
# Mechanical properties :
#
#
# Convention : Reuss Voigt Hill
#
# Bulk Modulus (GPa) = 27.45433 37.09068 32.27251
# Shear Modulus (GPa) = 21.32091 28.10799 24.71445
#
# Velocity S-wave (km/s) = 3.35664 3.85404 3.61391
# Velocity P-wave (km/s) = 5.43424 6.27737 5.87096
#
# Compressibility (1/GPa) = 0.03642412
#
# Stress axis : x y z
#
# Youngs Moduli (GPa) = 32.70554 41.58170 59.63462
#
# Poissons Ratio (x) = 0.29997 0.29515
# Poissons Ratio (y) = 0.23594 0.31735
# Poissons Ratio (z) = 0.16187 0.22128
#
# Static dielectric constant tensor:
#      x y z
#    x 3.235860 0.000000 0.060370 
#    y 0.000000 3.536520 0.000000 
#    z 0.060370 0.000000 3.587690 
# 
# 
# High freq. dielectric constant tensor:
#      x y z
#    x 1.710480 0.000000 0.009970 
#    y 0.000000 1.741220 0.000000 
#    z 0.009970 0.000000 1.736830 
# 
# From -- ./inp_files/46345.got.cif
#   From: 2010.03.12/outbox.cif.g09.slc.cpg/sg14_24_cif.got.tgz:46345.got - 2010.03.31 13:35:05.
