data_PCOD8123613
_publ_section_title
;
Structure prediction by ZEFSAII (Michael W. Deem and Ramdas Pophale) SiO2 
 PCOD8123613
Probable space group: P 21/C
;
_chemical_formula_sum "Si O2"
_cell_formula_units_Z 24
_cell_length_a 7.554137
_cell_length_b 13.198970
_cell_length_c 12.175301
_cell_angle_alpha 90.000000
_cell_angle_beta 74.882991
_cell_angle_gamma 90.000000
_cell_volume 1171.951839
_symmetry_space_group_name_H-M "P 21/C"
_symmetry_group_IT_number 14
_symmetry_cell_setting 'monoclinic'
loop_
_space_group_symop_operation_xyz
x,y,z
-x,1/2+y,1/2-z
-x,-y,-z
x,1/2-y,1/2+z
loop_
_atom_site_type_symbol
_atom_site_label
_atom_site_fract_x
_atom_site_fract_y
_atom_site_fract_z
Si Si1 0.348833 0.620546 0.899889
Si Si2 0.464095 0.401986 0.839160
Si Si3 0.789338 0.588977 0.319488
Si Si4 0.595245 0.764392 0.993072
Si Si5 0.731579 0.366053 0.339349
Si Si6 0.146654 0.657644 0.142297
O O1 0.450304 0.513026 0.893500
O O2 0.274281 0.638563 0.791202
O O3 0.489333 0.709408 0.910141
O O4 0.178583 0.619594 0.012899
O O5 0.392453 0.402710 0.726348
O O6 0.342297 0.321720 0.930021
O O7 0.675984 0.367433 0.810325
O O8 0.769862 0.673535 0.418021
O O9 0.800490 0.476214 0.368557
O O10 0.969312 0.604317 0.218484
O O11 0.466206 0.845824 0.074980
O O12 0.876014 0.280025 0.354247
#
# Coordination Sequence:
#
# PCOD8123613 Si02
#       6
#     4   4   4   4   4   4
#     4   9  18  36  59  78 106 142 179 221 261 311
#     4   9  20  37  56  80 107 141 180 218 262 311
#     4  11  22  35  57  81 107 143 177 216 269 320
#     4  10  18  34  56  79 110 144 174 213 268 319
#     4   9  20  36  54  79 110 141 176 220 264 314
#     4  10  21  35  55  83 107 135 180 226 263 306
#
# _framework density 20.478657999999999
#
# number of rings (size 3 to 8) (size 9 to 14) (size 15 to 20)
#    0.000    2.667    0.000    4.500    0.000    6.667 
#    0.000    0.000    0.000   14.000    0.000    0.000 
#    0.000    0.000    0.000    0.000    0.000    0.000 
#
# Total GULP energy -297500.503697 kJ/mol
# GULP energy per Si atom -12395.854321 kJ/mol
# Density = 2.043205 g / cm^3
# Si number density = 20.478658 Si / 1000 Ang^3
#
#
#
# Elastic Constant Matrix: (Units=GPa)
#
#
# Indices 1 2 3 4 5 6 
#
# 1 36.9193 23.2401 17.5486 0.0000 -12.9978 0.0000
# 2 23.2401 147.7684 40.4930 0.0000 -22.6259 0.0000
# 3 17.5486 40.4930 61.1263 0.0000 -20.4735 0.0000
# 4 0.0000 0.0000 0.0000 36.4913 0.0000 -1.8348
# 5 -12.9978 -22.6259 -20.4735 0.0000 29.6766 0.0000
# 6 0.0000 0.0000 0.0000 -1.8348 0.0000 16.4339
#
#
#
# Elastic Compliance Matrix: (Units=1/GPa)
#
#
# Indices 1 2 3 4 5 6 
#
# 1 0.034481 -0.002582 -0.004928 0.000000 0.009733 0.000000
# 2 -0.002582 0.008715 -0.004143 0.000000 0.002656 0.000000
# 3 -0.004928 -0.004143 0.024369 0.000000 0.011495 0.000000
# 4 0.000000 0.000000 0.000000 0.027558 0.000000 0.003077
# 5 0.009733 0.002656 0.011495 0.000000 0.047915 0.000000
# 6 0.000000 0.000000 0.000000 0.003077 0.000000 0.061193
#
#
# Mechanical properties :
#
#
# Convention : Reuss Voigt Hill
#
# Bulk Modulus (GPa) = 22.59449 45.37525 33.98487
# Shear Modulus (GPa) = 20.63639 27.48918 24.06279
#
# Velocity S-wave (km/s) = 3.17788 3.66776 3.43157
# Velocity P-wave (km/s) = 4.95200 6.33578 5.68614
#
# Compressibility (1/GPa) = 0.04425858
#
# Stress axis : x y z
#
# Youngs Moduli (GPa) = 29.00163 114.74091 41.03617
#
# Poissons Ratio (x) = 0.29626 0.20225
# Poissons Ratio (y) = 0.07488 0.17000
# Poissons Ratio (z) = 0.14293 0.47533
#
# Static dielectric constant tensor:
#      x y z
#    x 3.162420 0.000000 -0.026840 
#    y 0.000000 4.114700 0.000000 
#    z -0.026840 0.000000 3.696790 
# 
# 
# High freq. dielectric constant tensor:
#      x y z
#    x 1.751320 0.000000 -0.003150 
#    y 0.000000 1.825010 0.000000 
#    z -0.003150 0.000000 1.803800 
# 
# From -- ./inp_files/24078.got.cif
#   From: 2010.03.12/outbox.cif.g09.slc.cpg/sg14_13_cif.got.tgz:24078.got - 2010.03.31 13:35:05.
