data_PCOD8123558
_publ_section_title
;
Structure prediction by ZEFSAII (Michael W. Deem and Ramdas Pophale) SiO2 
 PCOD8123558
Probable space group: P 21/C
;
_chemical_formula_sum "Si O2"
_cell_formula_units_Z 24
_cell_length_a 16.496932
_cell_length_b 13.320020
_cell_length_c 14.084161
_cell_angle_alpha 90.000000
_cell_angle_beta 22.956386
_cell_angle_gamma 90.000000
_cell_volume 1207.083772
_symmetry_space_group_name_H-M "P 21/C"
_symmetry_group_IT_number 14
_symmetry_cell_setting 'monoclinic'
loop_
_space_group_symop_operation_xyz
x,y,z
-x,1/2+y,1/2-z
-x,-y,-z
x,1/2-y,1/2+z
loop_
_atom_site_type_symbol
_atom_site_label
_atom_site_fract_x
_atom_site_fract_y
_atom_site_fract_z
Si Si1 0.417358 0.623982 0.925060
Si Si2 0.843232 0.825371 0.288673
Si Si3 0.568829 0.421488 0.726970
Si Si4 0.211041 0.540811 0.329790
Si Si5 0.763792 0.806041 0.172671
Si Si6 0.889905 0.233008 0.831287
O O1 0.553010 0.540720 0.720842
O O2 0.555877 0.707090 0.832620
O O3 0.276222 0.562405 0.151716
O O4 0.278627 0.678294 0.995234
O O5 0.650063 0.866936 0.558850
O O6 0.751799 0.766286 0.294975
O O7 0.984735 0.756138 0.204428
O O8 0.982530 0.915597 0.095874
O O9 0.614674 0.408521 0.790798
O O10 0.763388 0.372548 0.460803
O O11 0.194184 0.424701 0.374332
O O12 0.950364 0.740706 0.927428
#
# Coordination Sequence:
#
# PCOD8123558 Si02
#       6
#     4   4   4   4   4   4
#     4  11  19  36  59  87 115 148 188 237 295 337
#     4  11  19  33  53  82 118 146 182 233 289 344
#     4  10  20  35  54  84 121 147 185 231 292 346
#     4  10  18  32  62  89 105 139 185 247 304 339
#     4  11  19  34  57  82 115 147 183 235 295 338
#     4  11  24  32  50  90 120 153 186 233 289 340
#
# _framework density 19.882629999999999
#
# number of rings (size 3 to 8) (size 9 to 14) (size 15 to 20)
#    0.000    1.333    5.000    3.500    0.000    0.000 
#    0.000    0.000    0.000    1.000    0.000   18.667 
#    0.000    0.000    0.000    0.000    0.000    0.000 
#
# Total GULP energy -297345.012475 kJ/mol
# GULP energy per Si atom -12389.375520 kJ/mol
# Density = 1.983738 g / cm^3
# Si number density = 19.882630 Si / 1000 Ang^3
#
#
#
# Elastic Constant Matrix: (Units=GPa)
#
#
# Indices 1 2 3 4 5 6 
#
# 1 115.3675 29.5360 27.9964 0.0000 -29.5004 0.0000
# 2 29.5360 23.5215 6.7140 0.0000 -6.7566 0.0000
# 3 27.9964 6.7140 55.8071 0.0000 -18.7552 0.0000
# 4 0.0000 0.0000 0.0000 36.1209 0.0000 -4.7604
# 5 -29.5004 -6.7566 -18.7552 0.0000 31.7185 0.0000
# 6 0.0000 0.0000 0.0000 -4.7604 0.0000 28.5672
#
#
#
# Elastic Compliance Matrix: (Units=1/GPa)
#
#
# Indices 1 2 3 4 5 6 
#
# 1 0.016099 -0.016609 -0.002789 0.000000 0.009786 0.000000
# 2 -0.016609 0.062761 0.000104 0.000000 -0.002017 0.000000
# 3 -0.002789 0.000104 0.023015 0.000000 0.011036 0.000000
# 4 0.000000 0.000000 0.000000 0.028306 0.000000 0.004717
# 5 0.009786 -0.002017 0.011036 0.000000 0.046725 0.000000
# 6 0.000000 0.000000 0.000000 0.004717 0.000000 0.035791
#
#
# Mechanical properties :
#
#
# Convention : Reuss Voigt Hill
#
# Bulk Modulus (GPa) = 15.80130 35.90986 25.85558
# Shear Modulus (GPa) = 18.35650 27.97797 23.16724
#
# Velocity S-wave (km/s) = 3.04179 3.75528 3.41721
# Velocity P-wave (km/s) = 4.50568 6.07478 5.34809
#
# Compressibility (1/GPa) = 0.06328595
#
# Stress axis : x y z
#
# Youngs Moduli (GPa) = 62.11408 15.93343 43.45039
#
# Poissons Ratio (x) = 0.26463 0.12120
# Poissons Ratio (y) = 1.03164 -0.00450
# Poissons Ratio (z) = 0.17326 -0.00165
#
# Static dielectric constant tensor:
#      x y z
#    x 4.217620 0.000000 -0.408870 
#    y 0.000000 3.376470 0.000000 
#    z -0.408870 0.000000 3.669410 
# 
# 
# High freq. dielectric constant tensor:
#      x y z
#    x 1.787450 0.000000 -0.039600 
#    y 0.000000 1.726480 0.000000 
#    z -0.039600 0.000000 1.771250 
# 
# From -- ./inp_files/32524.got.cif
#   From: 2010.03.12/outbox.cif.g09.slc.cpg/sg14_17_cif.got.tgz:32524.got - 2010.03.31 13:35:05.
