data_PCOD8123496
_publ_section_title
;
Structure prediction by ZEFSAII (Michael W. Deem and Ramdas Pophale) SiO2 
 PCOD8123496
Probable space group: P 21/C
;
_chemical_formula_sum "Si O2"
_cell_formula_units_Z 32
_cell_length_a 10.720745
_cell_length_b 13.631617
_cell_length_c 8.088756
_cell_angle_alpha 90.000000
_cell_angle_beta 93.043025
_cell_angle_gamma 90.000000
_cell_volume 1180.432801
_symmetry_space_group_name_H-M "P 21/C"
_symmetry_group_IT_number 14
_symmetry_cell_setting 'monoclinic'
loop_
_space_group_symop_operation_xyz
x,y,z
-x,1/2+y,1/2-z
-x,-y,-z
x,1/2-y,1/2+z
loop_
_atom_site_type_symbol
_atom_site_label
_atom_site_fract_x
_atom_site_fract_y
_atom_site_fract_z
Si Si1 0.189355 0.173929 0.211897
Si Si2 0.317854 0.633452 0.119598
Si Si3 0.086291 0.673462 0.303644
Si Si4 0.186476 0.114509 0.834924
Si Si5 0.457957 0.775191 0.920206
Si Si6 0.325752 0.496472 0.831458
Si Si7 0.909113 0.113497 0.817950
Si Si8 0.553583 0.603158 0.720729
O O1 0.204853 0.289459 0.224535
O O2 0.051805 0.144907 0.268724
O O3 0.298631 0.119905 0.325947
O O4 0.200782 0.142427 0.024779
O O5 0.179106 0.622715 0.180624
O O6 0.417038 0.652040 0.271269
O O7 0.333206 0.727532 0.996240
O O8 0.350120 0.533436 0.020586
O O9 0.110940 0.637703 0.491208
O O10 0.103111 0.790949 0.297123
O O11 0.307828 0.050560 0.782933
O O12 0.049038 0.065816 0.799143
O O13 0.542195 0.683680 0.865391
O O14 0.539104 0.839802 0.047814
O O15 0.199292 0.540747 0.743555
O O16 0.446294 0.521254 0.729246
#
# Coordination Sequence:
#
# PCOD8123496 Si02
#       8
#     4   4   4   4   4   4   4   4
#     4  10  24  42  62  90 124 163 207 255 307 369
#     4  10  18  31  54  89 127 159 200 254 308 360
#     4  10  18  33  57  84 125 173 205 239 303 374
#     4  10  22  42  65  85 120 170 209 240 305 385
#     4   9  18  32  57  92 122 160 208 251 303 372
#     4  11  23  38  61  96 130 154 201 268 309 346
#     4  10  20  35  59  92 126 161 209 256 300 362
#     4  10  19  36  65  91 120 162 207 255 305 363
#
# _framework density 27.108699999999999
#
# number of rings (size 3 to 8) (size 9 to 14) (size 15 to 20)
#    0.000    2.000    0.000    5.250    0.000    4.000 
#    0.000    2.500    0.000   20.250    0.000    0.000 
#    0.000    0.000    0.000    0.000    0.000    0.000 
#
# Total GULP energy -396702.655307 kJ/mol
# GULP energy per Si atom -12396.957978 kJ/mol
# Density = 2.704700 g / cm^3
# Si number density = 27.108700 Si / 1000 Ang^3
#
#
#
# Elastic Constant Matrix: (Units=GPa)
#
#
# Indices 1 2 3 4 5 6 
#
# 1 205.3193 19.0918 27.5481 0.0000 -38.8082 0.0000
# 2 19.0918 15.9552 -2.2794 0.0000 0.8154 0.0000
# 3 27.5481 -2.2794 84.8753 0.0000 -2.4078 0.0000
# 4 0.0000 0.0000 0.0000 -29.9207 0.0000 6.8201
# 5 -38.8082 0.8154 -2.4078 0.0000 22.2535 0.0000
# 6 0.0000 0.0000 0.0000 6.8201 0.0000 31.4719
#
#
#
# Elastic Compliance Matrix: (Units=1/GPa)
#
#
# Indices 1 2 3 4 5 6 
#
# 1 0.009700 -0.012909 -0.003011 0.000000 0.017063 0.000000
# 2 -0.012909 0.080198 0.005639 0.000000 -0.024841 0.000000
# 3 -0.003011 0.005639 0.012795 0.000000 -0.004073 0.000000
# 4 0.000000 0.000000 0.000000 -0.031849 0.000000 0.006902
# 5 0.017063 -0.024841 -0.004073 0.000000 0.075163 0.000000
# 6 0.000000 0.000000 0.000000 0.006902 0.000000 0.030279
#
#
# Mechanical properties :
#
#
# Convention : Reuss Voigt Hill
#
# Bulk Modulus (GPa) = 12.17573 43.87455 28.02514
# Shear Modulus (GPa) = 22.29905 22.21357 22.25631
#
# Velocity S-wave (km/s) = 2.87118 2.86567 2.86842
# Velocity P-wave (km/s) = 3.93608 5.21241 4.61855
#
# Compressibility (1/GPa) = 0.08213061
#
# Stress axis : x y z
#
# Youngs Moduli (GPa) = 103.09291 12.46920 78.15463
#
# Poissons Ratio (x) = 0.16097 0.23532
# Poissons Ratio (y) = 1.33084 -0.44071
# Poissons Ratio (z) = 0.31041 -0.07031
#
# Static dielectric constant tensor:
#      x y z
#    x 5.374720 0.000000 -0.165580 
#    y 0.000000 4.972800 0.000000 
#    z -0.165580 0.000000 4.994030 
# 
# 
# High freq. dielectric constant tensor:
#      x y z
#    x 2.112500 0.000000 -0.010810 
#    y 0.000000 2.076230 0.000000 
#    z -0.010810 0.000000 2.093150 
# 
# From -- ./inp_files/13111.got.cif
#   From: 2010.03.12/outbox.cif.g09.slc.cpg/sg14_7_cif.got.tgz:13111.got - 2010.03.31 13:35:05.
