data_PCOD8123127
_publ_section_title
;
Structure prediction by ZEFSAII (Michael W. Deem and Ramdas Pophale) SiO2 
 PCOD8123127
Probable space group: P 2/C
;
_chemical_formula_sum "Si O2"
_cell_formula_units_Z 26
_cell_length_a 9.312800
_cell_length_b 10.762636
_cell_length_c 13.228978
_cell_angle_alpha 90.000000
_cell_angle_beta 62.427038
_cell_angle_gamma 90.000000
_cell_volume 1175.346189
_symmetry_space_group_name_H-M "P 2/C"
_symmetry_group_IT_number 13
_symmetry_cell_setting 'monoclinic'
loop_
_space_group_symop_operation_xyz
x,y,z
-x,y,1/2-z
-x,-y,-z
x,-y,1/2+z
loop_
_atom_site_type_symbol
_atom_site_label
_atom_site_fract_x
_atom_site_fract_y
_atom_site_fract_z
Si Si1 0.500000 0.640990 0.250000
Si Si2 0.831003 0.258014 0.361736
Si Si3 0.657115 0.515047 0.015854
Si Si4 0.546164 0.885219 0.848471
Si Si5 0.229891 0.239374 0.531446
Si Si6 0.070982 0.133285 0.969945
Si Si7 0.307439 0.152512 0.709590
O O1 0.378788 0.555964 0.356121
O O2 0.581356 0.727249 0.308394
O O3 0.776753 0.391016 0.420623
O O4 0.700529 0.197925 0.328743
O O5 0.848619 0.166566 0.450427
O O6 0.000000 0.274680 0.250000
O O7 0.742653 0.383705 0.991941
O O8 0.500000 0.500000 0.000000
O O9 0.500000 0.852479 0.750000
O O10 0.583852 0.031390 0.851442
O O11 0.388891 0.845069 0.962174
O O12 0.185948 0.194124 0.659387
O O13 0.077555 0.222357 0.508219
O O14 0.209855 0.127161 0.842184
O O15 0.000000 0.000000 0.000000
#
# Coordination Sequence:
#
# PCOD8123127 Si02
#       7
#     2   4   4   4   4   4   4
#     4  12  24  46  74 104 144 192 240 308 360 434
#     4  12  26  47  72 108 151 193 242 308 369 433
#     4  12  26  49  73 106 148 194 253 300 357 443
#     4  12  25  44  74 110 142 193 249 305 371 438
#     4  12  27  46  75 108 143 200 247 299 373 438
#     4  12  27  48  71 109 151 188 243 309 376 432
#     4  12  24  45  74 105 147 189 245 307 371 436
#
# _framework density 22.121141999999999
#
# number of rings (size 3 to 8) (size 9 to 14) (size 15 to 20)
#    0.000    0.000    5.385    4.615    1.077    3.077 
#    0.000    0.000    0.000    0.000    0.000    0.000 
#    0.000    0.000    0.000    0.000    0.000    0.000 
#
# Total GULP energy -322445.861883 kJ/mol
# GULP energy per Si atom -12401.763919 kJ/mol
# Density = 2.207079 g / cm^3
# Si number density = 22.121142 Si / 1000 Ang^3
#
#
#
# Elastic Constant Matrix: (Units=GPa)
#
#
# Indices 1 2 3 4 5 6 
#
# 1 101.8800 28.3383 4.1829 0.0000 22.9075 0.0000
# 2 28.3383 153.2291 38.6912 0.0000 15.0220 0.0000
# 3 4.1829 38.6912 92.1560 0.0000 17.2025 0.0000
# 4 0.0000 0.0000 0.0000 43.6402 0.0000 6.1763
# 5 22.9075 15.0220 17.2025 0.0000 32.4524 0.0000
# 6 0.0000 0.0000 0.0000 6.1763 0.0000 41.7339
#
#
#
# Elastic Compliance Matrix: (Units=1/GPa)
#
#
# Indices 1 2 3 4 5 6 
#
# 1 0.012228 -0.001875 0.001866 0.000000 -0.008753 0.000000
# 2 -0.001875 0.007700 -0.003029 0.000000 -0.000635 0.000000
# 3 0.001866 -0.003029 0.013343 0.000000 -0.006988 0.000000
# 4 0.000000 0.000000 0.000000 0.023405 0.000000 -0.003464
# 5 -0.008753 -0.000635 -0.006988 0.000000 0.040991 0.000000
# 6 0.000000 0.000000 0.000000 -0.003464 0.000000 0.024474
#
#
# Mechanical properties :
#
#
# Convention : Reuss Voigt Hill
#
# Bulk Modulus (GPa) = 36.77075 54.40998 45.59036
# Shear Modulus (GPa) = 36.42144 41.96882 39.19513
#
# Velocity S-wave (km/s) = 4.06205 4.36044 4.21389
# Velocity P-wave (km/s) = 6.21763 7.07114 6.65808
#
# Compressibility (1/GPa) = 0.02719553
#
# Stress axis : x y z
#
# Youngs Moduli (GPa) = 81.77678 129.86981 74.94793
#
# Poissons Ratio (x) = 0.24345 -0.13985
# Poissons Ratio (y) = 0.15329 0.22703
# Poissons Ratio (z) = -0.15259 0.39339
#
# Static dielectric constant tensor:
#      x y z
#    x 4.059050 0.000000 0.128250 
#    y 0.000000 1.699600 0.000000 
#    z 0.128250 0.000000 4.135120 
# 
# 
# High freq. dielectric constant tensor:
#      x y z
#    x 1.880680 0.000000 0.008620 
#    y 0.000000 1.884090 0.000000 
#    z 0.008620 0.000000 1.885890 
# 
# From -- ./inp_files/46814.got.cif
#   From: 2010.06.25/outbox.cif.g09.slc.cpg/sg13_24_cif.got.tgz:46814.got - 2010.06.28 04:50:58.
