data_PCOD8123823
_publ_section_title
;
Structure prediction by ZEFSAII (Michael W. Deem and Ramdas Pophale) SiO2 
 PCOD8123823
Probable space group: P 21/C
;
_chemical_formula_sum "Si O2"
_cell_formula_units_Z 32
_cell_length_a 11.577711
_cell_length_b 9.241480
_cell_length_c 19.696744
_cell_angle_alpha 90.000000
_cell_angle_beta 47.510104
_cell_angle_gamma 90.000000
_cell_volume 1554.031165
_symmetry_space_group_name_H-M "P 21/C"
_symmetry_group_IT_number 14
_symmetry_cell_setting 'monoclinic'
loop_
_space_group_symop_operation_xyz
x,y,z
-x,1/2+y,1/2-z
-x,-y,-z
x,1/2-y,1/2+z
loop_
_atom_site_type_symbol
_atom_site_label
_atom_site_fract_x
_atom_site_fract_y
_atom_site_fract_z
Si Si1 0.074783 0.775477 0.520798
Si Si2 0.160654 0.529157 0.578409
Si Si3 0.997535 0.233881 0.181421
Si Si4 0.787555 0.641502 0.576089
Si Si5 0.779279 0.514165 0.954866
Si Si6 0.480644 0.183311 0.361958
Si Si7 0.288657 0.751749 0.612540
Si Si8 0.232852 0.642734 0.341642
O O1 0.055776 0.657880 0.588534
O O2 0.228427 0.736657 0.413230
O O3 0.917134 0.767104 0.537483
O O4 0.096772 0.932538 0.545280
O O5 0.209142 0.414778 0.501992
O O6 0.308263 0.612047 0.555222
O O7 0.070752 0.425530 0.667920
O O8 0.886554 0.271931 0.288362
O O9 0.891035 0.220292 0.157130
O O10 0.131682 0.355496 0.118441
O O11 0.613477 0.705640 0.648813
O O12 0.824060 0.517684 0.616131
O O13 0.703317 0.404775 0.930052
O O14 0.636787 0.568133 0.058405
O O15 0.577176 0.258655 0.384309
O O16 0.600661 0.117113 0.259875
#
# Coordination Sequence:
#
# PCOD8123823 Si02
#       8
#     4   4   4   4   4   4   4   4
#     4  10  20  38  66  91 116 159 201 252 295 365
#     4  10  18  38  63  83 115 156 203 244 295 345
#     4  11  19  39  63  89 114 155 204 261 291 349
#     4  11  20  40  62  89 120 160 204 242 301 362
#     4  11  23  40  63  93 123 155 203 254 309 344
#     4  11  24  38  59  88 127 164 192 250 302 366
#     4  10  24  39  61  85 122 159 207 243 301 358
#     4  10  21  37  61  88 125 155 199 245 305 359
#
# _framework density 20.591608000000001
#
# number of rings (size 3 to 8) (size 9 to 14) (size 15 to 20)
#    0.000    1.500    3.750    1.875    1.750    2.500 
#    2.250    0.000    0.000    0.000    0.000    0.000 
#    0.000    0.000    0.000    0.000    0.000    0.000 
#
# Total GULP energy -396478.332827 kJ/mol
# GULP energy per Si atom -12389.947901 kJ/mol
# Density = 2.054474 g / cm^3
# Si number density = 20.591608 Si / 1000 Ang^3
#
#
#
# Elastic Constant Matrix: (Units=GPa)
#
#
# Indices 1 2 3 4 5 6 
#
# 1 87.0217 29.2832 27.8631 0.0000 -0.5948 0.0000
# 2 29.2832 78.2923 16.0292 0.0000 -3.1795 0.0000
# 3 27.8631 16.0292 71.3974 0.0000 -10.0429 0.0000
# 4 0.0000 0.0000 0.0000 22.3869 0.0000 2.8782
# 5 -0.5948 -3.1795 -10.0429 0.0000 27.5863 0.0000
# 6 0.0000 0.0000 0.0000 2.8782 0.0000 26.3149
#
#
#
# Elastic Compliance Matrix: (Units=1/GPa)
#
#
# Indices 1 2 3 4 5 6 
#
# 1 0.014588 -0.004522 -0.004961 0.000000 -0.002013 0.000000
# 2 -0.004522 0.014796 -0.001403 0.000000 0.001097 0.000000
# 3 -0.004961 -0.001403 0.017095 0.000000 0.005955 0.000000
# 4 0.000000 0.000000 0.000000 0.045306 0.000000 -0.004955
# 5 -0.002013 0.001097 0.005955 0.000000 0.038501 0.000000
# 6 0.000000 0.000000 0.000000 -0.004955 0.000000 0.038543
#
#
# Mechanical properties :
#
#
# Convention : Reuss Voigt Hill
#
# Bulk Modulus (GPa) = 40.47453 42.56248 41.51851
# Shear Modulus (GPa) = 25.14647 26.16002 25.65324
#
# Velocity S-wave (km/s) = 3.49836 3.56816 3.53343
# Velocity P-wave (km/s) = 6.00138 6.13925 6.07071
#
# Compressibility (1/GPa) = 0.02470689
#
# Stress axis : x y z
#
# Youngs Moduli (GPa) = 68.55061 67.58676 58.49809
#
# Poissons Ratio (x) = 0.30565 0.29020
# Poissons Ratio (y) = 0.31000 0.08205
# Poissons Ratio (z) = 0.34006 0.09480
#
# Static dielectric constant tensor:
#      x y z
#    x 3.708530 0.000000 0.038430 
#    y 0.000000 3.689730 0.000000 
#    z 0.038430 0.000000 3.871790 
# 
# 
# High freq. dielectric constant tensor:
#      x y z
#    x 1.797520 0.000000 0.013050 
#    y 0.000000 1.804810 0.000000 
#    z 0.013050 0.000000 1.800610 
# 
# From -- ./inp_files/62650.got.cif
#   From: 2010.03.12/outbox.cif.g09.slc.cpg/sg14_32_cif.got.tgz:62650.got - 2010.03.31 13:35:05.
