data_PCOD8123724
_publ_section_title
;
Structure prediction by ZEFSAII (Michael W. Deem and Ramdas Pophale) SiO2 
 PCOD8123724
Probable space group: P 21/C
;
_chemical_formula_sum "Si O2"
_cell_formula_units_Z 20
_cell_length_a 8.655570
_cell_length_b 5.128584
_cell_length_c 26.333055
_cell_angle_alpha 90.000000
_cell_angle_beta 124.884729
_cell_angle_gamma 90.000000
_cell_volume 958.891352
_symmetry_space_group_name_H-M "P 21/C"
_symmetry_group_IT_number 14
_symmetry_cell_setting 'monoclinic'
loop_
_space_group_symop_operation_xyz
x,y,z
-x,1/2+y,1/2-z
-x,-y,-z
x,1/2-y,1/2+z
loop_
_atom_site_type_symbol
_atom_site_label
_atom_site_fract_x
_atom_site_fract_y
_atom_site_fract_z
Si Si1 0.088529 0.283368 0.906709
Si Si2 0.152376 0.792136 0.973361
Si Si3 0.537932 0.394557 0.725432
Si Si4 0.956294 0.140534 0.272598
Si Si5 0.776387 0.452306 0.407399
O O1 0.194382 0.520476 0.954222
O O2 0.088279 0.326537 0.846585
O O3 0.871798 0.255209 0.886132
O O4 0.205138 0.023147 0.943494
O O5 0.272604 0.815713 0.047900
O O6 0.928877 0.815336 0.946081
O O7 0.444541 0.165753 0.741001
O O8 0.741633 0.300568 0.746047
O O9 0.413176 0.433885 0.651726
O O10 0.976949 0.846001 0.256921
#
# Coordination Sequence:
#
# PCOD8123724 Si02
#       5
#     4   4   4   4   4
#     4  10  18  36  55  82 113 155 191 240 285 358
#     4   9  18  31  57  91 113 142 191 255 303 331
#     4  12  23  39  63  91 120 155 205 257 292 343
#     4  12  25  41  59  86 126 168 195 238 309 368
#     4   9  20  31  60  89 115 142 196 257 292 339
#
# _framework density 20.857420999999999
#
# number of rings (size 3 to 8) (size 9 to 14) (size 15 to 20)
#    1.200    0.400    2.000    4.200    0.000    0.000 
#    0.000    0.000    0.000    7.200    0.000    0.000 
#    0.000    0.000    0.000    0.000    0.000    0.000 
#
# Total GULP energy -247954.611478 kJ/mol
# GULP energy per Si atom -12397.730574 kJ/mol
# Density = 2.080995 g / cm^3
# Si number density = 20.857421 Si / 1000 Ang^3
#
#
#
# Elastic Constant Matrix: (Units=GPa)
#
#
# Indices 1 2 3 4 5 6 
#
# 1 40.3049 7.4712 20.7271 0.0000 -11.9032 0.0000
# 2 7.4712 98.6326 7.2599 0.0000 -9.6106 0.0000
# 3 20.7271 7.2599 108.5227 0.0000 -24.8433 0.0000
# 4 0.0000 0.0000 0.0000 28.4650 0.0000 -11.8974
# 5 -11.9032 -9.6106 -24.8433 0.0000 29.4028 0.0000
# 6 0.0000 0.0000 0.0000 -11.8974 0.0000 27.9282
#
#
#
# Elastic Compliance Matrix: (Units=1/GPa)
#
#
# Indices 1 2 3 4 5 6 
#
# 1 0.029374 -0.001134 -0.003592 0.000000 0.008486 0.000000
# 2 -0.001134 0.010517 0.000242 0.000000 0.003183 0.000000
# 3 -0.003592 0.000242 0.011865 0.000000 0.008650 0.000000
# 4 0.000000 0.000000 0.000000 0.042741 0.000000 0.018208
# 5 0.008486 0.003183 0.008650 0.000000 0.045795 0.000000
# 6 0.000000 0.000000 0.000000 0.018208 0.000000 0.043563
#
#
# Mechanical properties :
#
#
# Convention : Reuss Voigt Hill
#
# Bulk Modulus (GPa) = 23.37104 35.37518 29.37311
# Shear Modulus (GPa) = 24.14473 31.29266 27.71870
#
# Velocity S-wave (km/s) = 3.40606 3.87759 3.64945
# Velocity P-wave (km/s) = 5.16699 6.08645 5.64547
#
# Compressibility (1/GPa) = 0.04278800
#
# Stress axis : x y z
#
# Youngs Moduli (GPa) = 34.04321 95.08546 84.28440
#
# Poissons Ratio (x) = 0.10781 0.30273
# Poissons Ratio (y) = 0.03860 -0.02036
# Poissons Ratio (z) = 0.12227 -0.02297
#
# Static dielectric constant tensor:
#      x y z
#    x 3.243140 0.000000 -0.259850 
#    y 0.000000 3.636990 0.000000 
#    z -0.259850 0.000000 3.691140 
# 
# 
# High freq. dielectric constant tensor:
#      x y z
#    x 1.764570 0.000000 -0.027850 
#    y 0.000000 1.820940 0.000000 
#    z -0.027850 0.000000 1.823740 
# 
# From -- ./inp_files/79059.got.cif
#   From: 2010.03.12/outbox.cif.g09.slc.cpg/sg14_40_cif.got.tgz:79059.got - 2010.03.31 13:35:05.
