data_PCOD8123255
_publ_section_title
;
Structure prediction by ZEFSAII (Michael W. Deem and Ramdas Pophale) SiO2 
 PCOD8123255
Probable space group: P 21/C
;
_chemical_formula_sum "Si O2"
_cell_formula_units_Z 32
_cell_length_a 12.353538
_cell_length_b 30.835772
_cell_length_c 5.218099
_cell_angle_alpha 90.000000
_cell_angle_beta 91.235367
_cell_angle_gamma 90.000000
_cell_volume 1987.273033
_symmetry_space_group_name_H-M "P 21/C"
_symmetry_group_IT_number 14
_symmetry_cell_setting 'monoclinic'
loop_
_space_group_symop_operation_xyz
x,y,z
-x,1/2+y,1/2-z
-x,-y,-z
x,1/2-y,1/2+z
loop_
_atom_site_type_symbol
_atom_site_label
_atom_site_fract_x
_atom_site_fract_y
_atom_site_fract_z
Si Si1 0.157594 0.866186 0.282472
Si Si2 0.413895 0.545173 0.235109
Si Si3 0.879027 0.969679 0.736096
Si Si4 0.343302 0.729348 0.311857
Si Si5 0.003604 0.442726 0.257361
Si Si6 0.702069 0.368461 0.705702
Si Si7 0.358145 0.005153 0.232630
Si Si8 0.896431 0.266941 0.223636
O O1 0.211810 0.871345 0.561502
O O2 0.116703 0.817667 0.237871
O O3 0.053659 0.896625 0.265310
O O4 0.240315 0.878162 0.060983
O O5 0.391181 0.596085 0.259022
O O6 0.542669 0.538770 0.249795
O O7 0.356002 0.519629 0.462438
O O8 0.364592 0.528994 0.964642
O O9 0.913759 0.947535 0.473123
O O10 0.749981 0.966587 0.749877
O O11 0.931663 0.943902 0.973810
O O12 0.912834 0.020024 0.743590
O O13 0.400373 0.748125 0.570315
O O14 0.357129 0.677810 0.298159
O O15 0.217356 0.741942 0.325056
O O16 0.960471 0.245206 0.465613
#
# Coordination Sequence:
#
# PCOD8123255 Si02
#       8
#     4   4   4   4   4   4   4   4
#     4  12  20  29  46  68 100 127 155 192 220 279
#     4  10  21  32  50  76  88 119 168 191 227 295
#     4  10  19  35  47  61  94 123 151 197 239 260
#     4  10  16  28  40  62  92 132 145 168 231 286
#     4  10  21  30  46  70  86 119 167 188 220 282
#     4  12  19  28  47  68  99 126 153 189 224 279
#     4  10  20  37  51  64  97 125 153 199 246 267
#     4  10  16  29  41  61  92 133 146 170 233 282
#
# _framework density 16.102467000000001
#
# number of rings (size 3 to 8) (size 9 to 14) (size 15 to 20)
#    0.000    1.500    5.000    3.750    0.000    2.000 
#    0.000    0.000    0.000    0.000    0.000    0.000 
#    0.000    6.000    0.000    0.000    0.000    0.000 
#
# Total GULP energy -396804.939795 kJ/mol
# GULP energy per Si atom -12400.154369 kJ/mol
# Density = 1.606582 g / cm^3
# Si number density = 16.102467 Si / 1000 Ang^3
#
#
#
# Elastic Constant Matrix: (Units=GPa)
#
#
# Indices 1 2 3 4 5 6 
#
# 1 54.6632 31.5380 14.0108 0.0000 -7.1619 0.0000
# 2 31.5380 98.6054 9.8714 0.0000 -8.4205 0.0000
# 3 14.0108 9.8714 104.0293 0.0000 -10.9704 0.0000
# 4 0.0000 0.0000 0.0000 19.4958 0.0000 0.1314
# 5 -7.1619 -8.4205 -10.9704 0.0000 12.3398 0.0000
# 6 0.0000 0.0000 0.0000 0.1314 0.0000 14.5839
#
#
#
# Elastic Compliance Matrix: (Units=1/GPa)
#
#
# Indices 1 2 3 4 5 6 
#
# 1 0.023616 -0.006733 -0.001744 0.000000 0.007561 0.000000
# 2 -0.006733 0.012696 0.000225 0.000000 0.004955 0.000000
# 3 -0.001744 0.000225 0.010743 0.000000 0.008692 0.000000
# 4 0.000000 0.000000 0.000000 0.051296 0.000000 -0.000462
# 5 0.007561 0.004955 0.008692 0.000000 0.096535 0.000000
# 6 0.000000 0.000000 0.000000 -0.000462 0.000000 0.068573
#
#
# Mechanical properties :
#
#
# Convention : Reuss Voigt Hill
#
# Bulk Modulus (GPa) = 32.73420 40.90426 36.81923
# Shear Modulus (GPa) = 17.23261 22.74243 19.98752
#
# Velocity S-wave (km/s) = 3.27492 3.76221 3.52699
# Velocity P-wave (km/s) = 5.88837 6.65807 6.28502
#
# Compressibility (1/GPa) = 0.03054909
#
# Stress axis : x y z
#
# Youngs Moduli (GPa) = 42.34371 78.76739 93.08514
#
# Poissons Ratio (x) = 0.53035 0.16238
# Poissons Ratio (y) = 0.28510 -0.02091
# Poissons Ratio (z) = 0.07386 -0.01770
#
# Static dielectric constant tensor:
#      x y z
#    x 2.641350 0.000000 -0.069080 
#    y 0.000000 3.026710 0.000000 
#    z -0.069080 0.000000 4.205860 
# 
# 
# High freq. dielectric constant tensor:
#      x y z
#    x 1.560960 0.000000 -0.003510 
#    y 0.000000 1.614830 0.000000 
#    z -0.003510 0.000000 1.657180 
# 
# From -- ./inp_files/3292.got.cif
#   From: 2010.03.12/outbox.cif.g09.slc.cpg/sg14_2_cif.got.tgz:3292.got - 2010.03.31 13:35:05.
