data_PCOD8123786
_publ_section_title
;
Structure prediction by ZEFSAII (Michael W. Deem and Ramdas Pophale) SiO2 
 PCOD8123786
Probable space group: P 21/C
;
_chemical_formula_sum "Si O2"
_cell_formula_units_Z 20
_cell_length_a 11.252595
_cell_length_b 7.072607
_cell_length_c 13.731100
_cell_angle_alpha 90.000000
_cell_angle_beta 89.996303
_cell_angle_gamma 90.000000
_cell_volume 1092.792093
_symmetry_space_group_name_H-M "P 21/C"
_symmetry_group_IT_number 14
_symmetry_cell_setting 'monoclinic'
loop_
_space_group_symop_operation_xyz
x,y,z
-x,1/2+y,1/2-z
-x,-y,-z
x,1/2-y,1/2+z
loop_
_atom_site_type_symbol
_atom_site_label
_atom_site_fract_x
_atom_site_fract_y
_atom_site_fract_z
Si Si1 0.773304 0.276009 0.364258
Si Si2 0.758521 0.895817 0.000014
Si Si3 0.640276 0.496760 0.000005
Si Si4 0.017195 0.719913 0.000006
Si Si5 0.226710 0.776005 0.864249
O O1 0.726475 0.479576 0.403542
O O2 0.691452 0.107199 0.405009
O O3 0.908080 0.264930 0.402896
O O4 0.770958 0.250028 0.250004
O O5 0.677707 0.713866 0.000013
O O6 0.897540 0.840749 0.000007
O O7 0.726466 0.020409 0.096492
O O8 0.500000 0.500000 0.000000
O O9 0.691426 0.392782 0.095000
O O10 0.091939 0.764943 0.902914
O O11 0.000000 0.500000 0.000000
#
# Coordination Sequence:
#
# PCOD8123786 Si02
#       5
#     4   4   4   4   4
#     4  10  22  37  59  93 115 150 206 239 294 359
#     4  10  20  41  61  81 127 158 185 248 300 340
#     4  10  22  44  60  81 121 161 197 243 292 343
#     4  10  18  37  60  84 123 154 188 242 298 357
#     4  10  22  37  59  93 115 150 206 239 294 359
#
# _framework density 18.301742000000001
#
# number of rings (size 3 to 8) (size 9 to 14) (size 15 to 20)
#    0.000    2.400    4.000    2.400    0.000    8.000 
#    7.200    0.000    0.000    0.000    0.000    0.000 
#    0.000    0.000    0.000    0.000    0.000    0.000 
#
# Total GULP energy -247847.641127 kJ/mol
# GULP energy per Si atom -12392.382056 kJ/mol
# Density = 1.826009 g / cm^3
# Si number density = 18.301742 Si / 1000 Ang^3
#
#
#
# Elastic Constant Matrix: (Units=GPa)
#
#
# Indices 1 2 3 4 5 6 
#
# 1 107.5210 56.5065 50.4411 0.0000 4.5893 0.0000
# 2 56.5065 179.5884 71.8683 0.0000 -1.3498 0.0000
# 3 50.4411 71.8683 197.1117 0.0000 -12.5309 0.0000
# 4 0.0000 0.0000 0.0000 5.7499 0.0000 1.3492
# 5 4.5893 -1.3498 -12.5309 0.0000 4.4455 0.0000
# 6 0.0000 0.0000 0.0000 1.3492 0.0000 20.7884
#
#
#
# Elastic Compliance Matrix: (Units=1/GPa)
#
#
# Indices 1 2 3 4 5 6 
#
# 1 0.013991 -0.002903 -0.004259 0.000000 -0.027331 0.000000
# 2 -0.002903 0.007245 -0.001911 0.000000 -0.000189 0.000000
# 3 -0.004259 -0.001911 0.008653 0.000000 0.028208 0.000000
# 4 0.000000 0.000000 0.000000 0.176604 0.000000 -0.011462
# 5 -0.027331 -0.000189 0.028208 0.000000 0.332616 0.000000
# 6 0.000000 0.000000 0.000000 -0.011462 0.000000 0.048848
#
#
# Mechanical properties :
#
#
# Convention : Reuss Voigt Hill
#
# Bulk Modulus (GPa) = 85.15802 93.53921 89.34862
# Shear Modulus (GPa) = 8.19649 26.55711 17.37680
#
# Velocity S-wave (km/s) = 2.11855 3.81342 3.08468
# Velocity P-wave (km/s) = 7.25364 8.40298 7.84938
#
# Compressibility (1/GPa) = 0.01174287
#
# Stress axis : x y z
#
# Youngs Moduli (GPa) = 71.47500 138.02777 115.56529
#
# Poissons Ratio (x) = 0.40071 0.49223
# Poissons Ratio (y) = 0.20750 0.22080
# Poissons Ratio (z) = 0.30443 0.26372
#
# Static dielectric constant tensor:
#      x y z
#    x 3.914310 0.000000 0.064950 
#    y 0.000000 -1.177790 0.000000 
#    z 0.064950 0.000000 3.195200 
# 
# 
# High freq. dielectric constant tensor:
#      x y z
#    x 1.701070 0.000000 0.001170 
#    y 0.000000 1.738570 0.000000 
#    z 0.001170 0.000000 1.688050 
# 
# From -- ./inp_files/42507.got.cif
#   From: 2010.03.12/outbox.cif.g09.slc.cpg/sg14_22_cif.got.tgz:42507.got - 2010.03.31 13:35:05.
