data_PCOD8123870
_publ_section_title
;
Structure prediction by ZEFSAII (Michael W. Deem and Ramdas Pophale) SiO2 
 PCOD8123870
Probable space group: P 21/C
;
_chemical_formula_sum "Si O2"
_cell_formula_units_Z 24
_cell_length_a 23.797703
_cell_length_b 6.572183
_cell_length_c 23.576527
_cell_angle_alpha 90.000000
_cell_angle_beta 18.220336
_cell_angle_gamma 90.000000
_cell_volume 1152.958329
_symmetry_space_group_name_H-M "P 21/C"
_symmetry_group_IT_number 14
_symmetry_cell_setting 'monoclinic'
loop_
_space_group_symop_operation_xyz
x,y,z
-x,1/2+y,1/2-z
-x,-y,-z
x,1/2-y,1/2+z
loop_
_atom_site_type_symbol
_atom_site_label
_atom_site_fract_x
_atom_site_fract_y
_atom_site_fract_z
Si Si1 0.238567 0.536994 0.075264
Si Si2 0.087606 0.770592 0.121395
Si Si3 0.637482 0.944755 0.205521
Si Si4 0.891199 0.388325 0.679798
Si Si5 0.167958 0.441062 0.953652
Si Si6 0.792103 0.327084 0.652608
O O1 0.159439 0.726026 0.115531
O O2 0.236968 0.584790 0.143570
O O3 0.120633 0.337160 0.174658
O O4 0.447087 0.504701 0.858687
O O5 0.202133 0.954590 0.984716
O O6 0.096916 0.566693 0.075522
O O7 0.641433 0.038781 0.265246
O O8 0.670008 0.702127 0.178931
O O9 0.766997 0.345656 0.744157
O O10 0.016150 0.194793 0.570542
O O11 0.009748 0.591755 0.556127
O O12 0.234680 0.593687 0.840675
#
# Coordination Sequence:
#
# PCOD8123870 Si02
#       6
#     4   4   4   4   4   4
#     4  12  24  42  67  91 126 170 215 261 321 387
#     4  11  25  43  61  92 129 166 211 270 317 382
#     4  10  24  42  62  94 128 164 209 269 319 375
#     4  10  19  38  64  96 125 168 210 257 314 384
#     4  10  18  42  62  91 127 164 210 255 325 369
#     4   9  19  39  66  91 132 164 205 263 320 371
#
# _framework density 20.816016999999999
#
# number of rings (size 3 to 8) (size 9 to 14) (size 15 to 20)
#    0.000    1.667    5.000    1.500    2.333    0.667 
#    9.000    0.833    0.000    0.000    0.000    0.000 
#    0.000    0.000    0.000    0.000    0.000    0.000 
#
# Total GULP energy -297582.663467 kJ/mol
# GULP energy per Si atom -12399.277644 kJ/mol
# Density = 2.076864 g / cm^3
# Si number density = 20.816017 Si / 1000 Ang^3
#
#
#
# Elastic Constant Matrix: (Units=GPa)
#
#
# Indices 1 2 3 4 5 6 
#
# 1 109.8663 38.6270 25.8879 0.0000 2.4251 0.0000
# 2 38.6270 126.1289 36.9675 0.0000 -7.3602 0.0000
# 3 25.8879 36.9675 66.5840 0.0000 -26.0491 0.0000
# 4 0.0000 0.0000 0.0000 19.2025 0.0000 -1.3887
# 5 2.4251 -7.3602 -26.0491 0.0000 35.5806 0.0000
# 6 0.0000 0.0000 0.0000 -1.3887 0.0000 34.5007
#
#
#
# Elastic Compliance Matrix: (Units=1/GPa)
#
#
# Indices 1 2 3 4 5 6 
#
# 1 0.011180 -0.002238 -0.005022 0.000000 -0.004902 0.000000
# 2 -0.002238 0.010099 -0.005409 0.000000 -0.001718 0.000000
# 3 -0.005022 -0.005409 0.027566 0.000000 0.019405 0.000000
# 4 0.000000 0.000000 0.000000 0.052229 0.000000 0.002102
# 5 -0.004902 -0.001718 0.019405 0.000000 0.042290 0.000000
# 6 0.000000 0.000000 0.000000 0.002102 0.000000 0.029070
#
#
# Mechanical properties :
#
#
# Convention : Reuss Voigt Hill
#
# Bulk Modulus (GPa) = 42.54072 56.17153 49.35613
# Shear Modulus (GPa) = 24.31819 31.26324 27.79071
#
# Velocity S-wave (km/s) = 3.42167 3.87962 3.65782
# Velocity P-wave (km/s) = 6.00760 6.86381 6.44993
#
# Compressibility (1/GPa) = 0.02350689
#
# Stress axis : x y z
#
# Youngs Moduli (GPa) = 89.44231 99.02085 36.27675
#
# Poissons Ratio (x) = 0.22162 0.18218
# Poissons Ratio (y) = 0.20018 0.19622
# Poissons Ratio (z) = 0.44918 0.53560
#
# Static dielectric constant tensor:
#      x y z
#    x 4.087250 0.000000 0.036740 
#    y 0.000000 3.773740 0.000000 
#    z 0.036740 0.000000 3.336020 
# 
# 
# High freq. dielectric constant tensor:
#      x y z
#    x 1.833760 0.000000 0.000940 
#    y 0.000000 1.817060 0.000000 
#    z 0.000940 0.000000 1.776290 
# 
# From -- ./inp_files/74780.got.cif
#   From: 2010.03.12/outbox.cif.g09.slc.cpg/sg14_38_cif.got.tgz:74780.got - 2010.03.31 13:35:05.
