data_PCOD8123972
_publ_section_title
;
Structure prediction by ZEFSAII (Michael W. Deem and Ramdas Pophale) SiO2 
 PCOD8123972
Probable space group: P 21/C
;
_chemical_formula_sum "Si O2"
_cell_formula_units_Z 32
_cell_length_a 11.521664
_cell_length_b 27.105117
_cell_length_c 5.395367
_cell_angle_alpha 90.000000
_cell_angle_beta 112.835836
_cell_angle_gamma 90.000000
_cell_volume 1552.886290
_symmetry_space_group_name_H-M "P 21/C"
_symmetry_group_IT_number 14
_symmetry_cell_setting 'monoclinic'
loop_
_space_group_symop_operation_xyz
x,y,z
-x,1/2+y,1/2-z
-x,-y,-z
x,1/2-y,1/2+z
loop_
_atom_site_type_symbol
_atom_site_label
_atom_site_fract_x
_atom_site_fract_y
_atom_site_fract_z
Si Si1 0.511063 0.624575 0.955974
Si Si2 0.147123 0.043340 0.973956
Si Si3 0.301440 0.444243 0.106117
Si Si4 0.361812 0.947715 0.645864
Si Si5 0.120044 0.563900 0.606948
Si Si6 0.281855 0.626755 0.450999
Si Si7 0.293813 0.771060 0.783658
Si Si8 0.425186 0.268324 0.917576
O O1 0.381098 0.645929 0.737372
O O2 0.570305 0.672944 0.133919
O O3 0.605737 0.602682 0.827489
O O4 0.481327 0.579375 0.118957
O O5 0.219580 0.056287 0.287230
O O6 0.119230 0.984959 0.933850
O O7 0.218179 0.060954 0.785220
O O8 0.013067 0.071514 0.867597
O O9 0.386623 0.493958 0.194199
O O10 0.231024 0.939758 0.396590
O O11 0.344221 0.923310 0.898737
O O12 0.147618 0.611881 0.458974
O O13 0.268585 0.670098 0.238612
O O14 0.229009 0.747821 0.485371
O O15 0.441073 0.758234 0.915579
O O16 0.354944 0.257093 0.123220
#
# Coordination Sequence:
#
# PCOD8123972 Si02
#       8
#     4   4   4   4   4   4   4   4
#     4  11  23  34  54  84 120 151 181 224 290 351
#     4  10  22  41  57  79 114 150 203 231 270 316
#     4  11  24  38  55  81 117 160 188 230 268 335
#     4  10  21  35  53  84 117 152 188 225 284 342
#     4   9  21  36  59  82 107 152 191 245 273 324
#     4  11  20  33  58  83 115 146 186 228 294 344
#     4  10  19  33  50  77 113 138 176 229 280 339
#     4  10  19  34  53  77 108 142 182 229 273 331
#
# _framework density 20.606787000000001
#
# number of rings (size 3 to 8) (size 9 to 14) (size 15 to 20)
#    0.000    1.750    3.750    1.875    5.250    2.000 
#    0.000    0.000    0.000    0.000    0.000    5.250 
#    0.000    0.000    0.000    0.000    0.000    0.000 
#
# Total GULP energy -396597.075688 kJ/mol
# GULP energy per Si atom -12393.658615 kJ/mol
# Density = 2.055989 g / cm^3
# Si number density = 20.606787 Si / 1000 Ang^3
#
#
#
# Elastic Constant Matrix: (Units=GPa)
#
#
# Indices 1 2 3 4 5 6 
#
# 1 85.6462 30.1952 21.7874 0.0000 -23.3389 0.0000
# 2 30.1952 89.5306 6.3309 0.0000 -8.4390 0.0000
# 3 21.7874 6.3309 89.5295 0.0000 -28.5903 0.0000
# 4 0.0000 0.0000 0.0000 22.2075 0.0000 -11.9344
# 5 -23.3389 -8.4390 -28.5903 0.0000 27.7926 0.0000
# 6 0.0000 0.0000 0.0000 -11.9344 0.0000 20.9460
#
#
#
# Elastic Compliance Matrix: (Units=1/GPa)
#
#
# Indices 1 2 3 4 5 6 
#
# 1 0.016704 -0.004427 0.000444 0.000000 0.013140 0.000000
# 2 -0.004427 0.012684 0.000332 0.000000 0.000476 0.000000
# 3 0.000444 0.000332 0.016663 0.000000 0.017615 0.000000
# 4 0.000000 0.000000 0.000000 0.064903 0.000000 0.036980
# 5 0.013140 0.000476 0.017615 0.000000 0.065281 0.000000
# 6 0.000000 0.000000 0.000000 0.036980 0.000000 0.068812
#
#
# Mechanical properties :
#
#
# Convention : Reuss Voigt Hill
#
# Bulk Modulus (GPa) = 25.80579 42.37037 34.08808
# Shear Modulus (GPa) = 18.84916 27.94876 23.39896
#
# Velocity S-wave (km/s) = 3.02769 3.68678 3.37337
# Velocity P-wave (km/s) = 4.97722 6.22327 5.63479
#
# Compressibility (1/GPa) = 0.03875100
#
# Stress axis : x y z
#
# Youngs Moduli (GPa) = 59.86464 78.84174 60.01253
#
# Poissons Ratio (x) = 0.34900 -0.02666
# Poissons Ratio (y) = 0.26499 -0.01994
# Poissons Ratio (z) = -0.02659 -0.02620
#
# Static dielectric constant tensor:
#      x y z
#    x 3.522170 0.000000 -0.432950 
#    y 0.000000 3.739980 0.000000 
#    z -0.432950 0.000000 4.149390 
# 
# 
# High freq. dielectric constant tensor:
#      x y z
#    x 1.759090 0.000000 -0.033830 
#    y 0.000000 1.800710 0.000000 
#    z -0.033830 0.000000 1.807110 
# 
# From -- ./inp_files/3172.got.cif
#   From: 2010.03.12/outbox.cif.g09.slc.cpg/sg14_2_cif.got.tgz:3172.got - 2010.03.31 13:35:05.
