data_PCOD8123567
_publ_section_title
;
Structure prediction by ZEFSAII (Michael W. Deem and Ramdas Pophale) SiO2 
 PCOD8123567
Probable space group: P 21/C
;
_chemical_formula_sum "Si O2"
_cell_formula_units_Z 32
_cell_length_a 8.193438
_cell_length_b 16.035596
_cell_length_c 16.312549
_cell_angle_alpha 90.000000
_cell_angle_beta 59.849171
_cell_angle_gamma 90.000000
_cell_volume 1853.282678
_symmetry_space_group_name_H-M "P 21/C"
_symmetry_group_IT_number 14
_symmetry_cell_setting 'monoclinic'
loop_
_space_group_symop_operation_xyz
x,y,z
-x,1/2+y,1/2-z
-x,-y,-z
x,1/2-y,1/2+z
loop_
_atom_site_type_symbol
_atom_site_label
_atom_site_fract_x
_atom_site_fract_y
_atom_site_fract_z
Si Si1 0.368875 0.694365 0.404903
Si Si2 0.639112 0.680530 0.750000
Si Si3 0.678680 0.805635 0.595097
Si Si4 0.328990 0.904583 0.250000
Si Si5 0.332332 0.094000 0.250000
Si Si6 0.056059 0.233729 0.250000
Si Si7 0.957719 0.220781 0.598938
Si Si8 0.655595 0.279219 0.401062
O O1 0.494909 0.771572 0.345208
O O2 0.463293 0.610714 0.343442
O O3 0.159263 0.710155 0.422739
O O4 0.367972 0.685111 0.502454
O O5 0.685324 0.728429 0.654793
O O6 0.530046 0.596342 0.750000
O O7 0.837058 0.678637 0.750000
O O8 0.650179 0.889287 0.656557
O O9 0.504741 0.789846 0.577261
O O10 0.872880 0.814888 0.497545
O O11 0.167924 0.857946 0.342379
O O12 0.352682 0.857946 0.157621
O O13 0.269967 0.999421 0.250000
O O14 0.174185 0.153897 0.250000
O O15 0.039991 0.230577 0.156404
O O16 0.852799 0.230577 0.343597
#
# Coordination Sequence:
#
# PCOD8123567 Si02
#       8
#     4   4   4   4   4   4   4   4
#     4   9  17  30  51  71  94 125 167 203 237 286
#     4   8  16  31  49  71  93 126 162 198 238 288
#     4   9  17  30  51  71  94 125 167 203 237 286
#     4   9  20  33  50  74 105 130 157 201 255 296
#     4  10  19  33  50  75 103 130 158 202 254 296
#     4   9  17  31  53  72  95 128 169 201 239 292
#     4  10  18  33  53  74  96 130 170 205 238 288
#     4  10  18  33  53  74  96 130 170 205 238 288
#
# _framework density 17.266660000000002
#
# number of rings (size 3 to 8) (size 9 to 14) (size 15 to 20)
#    0.000    3.000    0.000    5.250    0.000    1.000 
#    0.000    5.000    0.000    9.000    0.000    0.000 
#    0.000    0.000    0.000    0.000    0.000    0.000 
#
# Total GULP energy -396462.234187 kJ/mol
# GULP energy per Si atom -12389.444818 kJ/mol
# Density = 1.722736 g / cm^3
# Si number density = 17.266660 Si / 1000 Ang^3
#
#
#
# Elastic Constant Matrix: (Units=GPa)
#
#
# Indices 1 2 3 4 5 6 
#
# 1 127.2519 38.3489 47.9596 0.0000 1.8646 0.0000
# 2 38.3489 90.4780 30.1422 0.0000 0.4334 0.0000
# 3 47.9596 30.1422 131.3860 0.0000 -2.0834 0.0000
# 4 0.0000 0.0000 0.0000 -9.1101 0.0000 1.4111
# 5 1.8646 0.4334 -2.0834 0.0000 22.1985 0.0000
# 6 0.0000 0.0000 0.0000 1.4111 0.0000 17.6026
#
#
#
# Elastic Compliance Matrix: (Units=1/GPa)
#
#
# Indices 1 2 3 4 5 6 
#
# 1 0.009945 -0.003243 -0.002903 0.000000 -0.001044 0.000000
# 2 -0.003243 0.013030 -0.001808 0.000000 -0.000152 0.000000
# 3 -0.002903 -0.001808 0.009103 0.000000 0.001134 0.000000
# 4 0.000000 0.000000 0.000000 -0.108422 0.000000 0.008692
# 5 -0.001044 -0.000152 0.001134 0.000000 0.045245 0.000000
# 6 0.000000 0.000000 0.000000 0.008692 0.000000 0.056113
#
#
# Mechanical properties :
#
#
# Convention : Reuss Voigt Hill
#
# Bulk Modulus (GPa) = 61.83908 64.66861 63.25384
# Shear Modulus (GPa) = 107.96062 21.64920 64.80491
#
# Velocity S-wave (km/s) = 7.91588 3.54477 6.13297
# Velocity P-wave (km/s) = 10.92887 7.36804 9.32009
#
# Compressibility (1/GPa) = 0.01617100
#
# Stress axis : x y z
#
# Youngs Moduli (GPa) = 100.55183 76.74580 109.84801
#
# Poissons Ratio (x) = 0.24890 0.31886
# Poissons Ratio (y) = 0.32611 0.19859
# Poissons Ratio (z) = 0.29188 0.13875
#
# Static dielectric constant tensor:
#      x y z
#    x 3.635590 0.000000 0.015700 
#    y 0.000000 2.805310 0.000000 
#    z 0.015700 0.000000 3.338430 
# 
# 
# High freq. dielectric constant tensor:
#      x y z
#    x 1.682390 0.000000 0.000160 
#    y 0.000000 1.611930 0.000000 
#    z 0.000160 0.000000 1.679450 
# 
# From -- ./inp_files/41574.got.cif
#   From: 2010.03.12/outbox.cif.g09.slc.cpg/sg14_21_cif.got.tgz:41574.got - 2010.03.31 13:35:05.
