data_PCOD8123120
_publ_section_title
;
Structure prediction by ZEFSAII (Michael W. Deem and Ramdas Pophale) SiO2 
 PCOD8123120
Probable space group: P 2/C
;
_chemical_formula_sum "Si O2"
_cell_formula_units_Z 28
_cell_length_a 21.434653
_cell_length_b 9.234010
_cell_length_c 18.231277
_cell_angle_alpha 90.000000
_cell_angle_beta 158.747288
_cell_angle_gamma 90.000000
_cell_volume 1308.008349
_symmetry_space_group_name_H-M "P 2/C"
_symmetry_group_IT_number 13
_symmetry_cell_setting 'monoclinic'
loop_
_space_group_symop_operation_xyz
x,y,z
-x,y,1/2-z
-x,-y,-z
x,-y,1/2+z
loop_
_atom_site_type_symbol
_atom_site_label
_atom_site_fract_x
_atom_site_fract_y
_atom_site_fract_z
Si Si1 0.749287 0.368098 0.794163
Si Si2 0.773420 0.654527 0.891097
Si Si3 0.695380 0.523532 0.963991
Si Si4 0.151012 0.041371 0.221133
Si Si5 0.432966 0.839392 0.932044
Si Si6 0.155398 0.723521 0.259055
Si Si7 0.043862 0.267628 0.218907
O O1 0.704432 0.536968 0.755642
O O2 0.584421 0.266407 0.624060
O O3 0.846194 0.345443 0.823657
O O4 0.879043 0.343353 0.003327
O O5 0.755757 0.596003 0.954054
O O6 0.646849 0.789268 0.733846
O O7 0.968232 0.705842 0.090282
O O8 0.500000 0.468983 0.750000
O O9 0.705949 0.644243 0.038635
O O10 0.807614 0.386618 0.110626
O O11 0.225430 0.888043 0.330152
O O12 0.283954 0.152570 0.329703
O O13 0.086774 0.125028 0.221200
O O14 0.000000 0.000000 0.000000
O O15 0.500000 0.000000 0.000000
O O16 0.000000 0.205209 0.250000
#
# Coordination Sequence:
#
# PCOD8123120 Si02
#       7
#     4   4   4   4   4   4   4
#     4  12  24  44  74 106 139 185 244 302 357 428
#     4  12  25  45  74 104 142 191 238 300 366 428
#     4  12  28  47  70 105 146 185 241 306 364 427
#     4  12  25  46  71 106 142 193 238 293 362 432
#     4  12  25  45  74 106 147 183 240 300 360 437
#     4  12  24  47  72 102 144 191 240 293 362 440
#     4  12  25  47  71 103 143 187 240 296 361 434
#
# _framework density 21.406590000000001
#
# number of rings (size 3 to 8) (size 9 to 14) (size 15 to 20)
#    0.000    0.000    7.143    2.143    4.000    1.143 
#    0.000    0.714    0.000    0.000    0.000    0.000 
#    0.000    0.000    0.000    0.000    0.000    0.000 
#
# Total GULP energy -347214.062243 kJ/mol
# GULP energy per Si atom -12400.502223 kJ/mol
# Density = 2.135787 g / cm^3
# Si number density = 21.406590 Si / 1000 Ang^3
#
#
#
# Elastic Constant Matrix: (Units=GPa)
#
#
# Indices 1 2 3 4 5 6 
#
# 1 141.2602 38.7033 45.1053 0.0000 -12.0407 0.0000
# 2 38.7033 107.3082 37.0030 0.0000 -18.8432 0.0000
# 3 45.1053 37.0030 141.8635 0.0000 -4.0650 0.0000
# 4 0.0000 0.0000 0.0000 37.4870 0.0000 -0.7683
# 5 -12.0407 -18.8432 -4.0650 0.0000 31.4426 0.0000
# 6 0.0000 0.0000 0.0000 -0.7683 0.0000 42.0188
#
#
#
# Elastic Compliance Matrix: (Units=1/GPa)
#
#
# Indices 1 2 3 4 5 6 
#
# 1 0.008455 -0.002012 -0.002113 0.000000 0.001759 0.000000
# 2 -0.002012 0.011899 -0.002290 0.000000 0.006065 0.000000
# 3 -0.002113 -0.002290 0.008286 0.000000 -0.001110 0.000000
# 4 0.000000 0.000000 0.000000 0.026686 0.000000 0.000488
# 5 0.001759 0.006065 -0.001110 0.000000 0.035968 0.000000
# 6 0.000000 0.000000 0.000000 0.000488 0.000000 0.023808
#
#
# Mechanical properties :
#
#
# Convention : Reuss Voigt Hill
#
# Bulk Modulus (GPa) = 63.25072 70.22834 66.73953
# Shear Modulus (GPa) = 37.53653 40.16438 38.85045
#
# Velocity S-wave (km/s) = 4.19203 4.33628 4.26477
# Velocity P-wave (km/s) = 7.28301 7.61244 7.44955
#
# Compressibility (1/GPa) = 0.01581010
#
# Stress axis : x y z
#
# Youngs Moduli (GPa) = 118.27275 84.03841 120.67910
#
# Poissons Ratio (x) = 0.16909 0.25500
# Poissons Ratio (y) = 0.23797 0.27639
# Poissons Ratio (z) = 0.24992 0.19247
#
# Static dielectric constant tensor:
#      x y z
#    x 4.134020 0.000000 0.089440 
#    y 0.000000 4.244720 0.000000 
#    z 0.089440 0.000000 4.078700 
# 
# 
# High freq. dielectric constant tensor:
#      x y z
#    x 1.845800 0.000000 0.003310 
#    y 0.000000 1.852620 0.000000 
#    z 0.003310 0.000000 1.847080 
# 
# From -- ./inp_files/82207.got.cif
#   From: 2010.06.25/outbox.cif.g09.slc.cpg/sg13_42_cif.got.tgz:82207.got - 2010.06.28 04:50:58.
