data_PCOD8123329
_publ_section_title
;
Structure prediction by ZEFSAII (Michael W. Deem and Ramdas Pophale) SiO2 
 PCOD8123329
Probable space group: P 21/C
;
_chemical_formula_sum "Si O2"
_cell_formula_units_Z 28
_cell_length_a 22.545571
_cell_length_b 8.788254
_cell_length_c 23.787181
_cell_angle_alpha 90.000000
_cell_angle_beta 18.592229
_cell_angle_gamma 90.000000
_cell_volume 1502.681821
_symmetry_space_group_name_H-M "P 21/C"
_symmetry_group_IT_number 14
_symmetry_cell_setting 'monoclinic'
loop_
_space_group_symop_operation_xyz
x,y,z
-x,1/2+y,1/2-z
-x,-y,-z
x,1/2-y,1/2+z
loop_
_atom_site_type_symbol
_atom_site_label
_atom_site_fract_x
_atom_site_fract_y
_atom_site_fract_z
Si Si1 0.446175 0.092376 0.264019
Si Si2 0.113830 0.000028 0.500014
Si Si3 0.582526 0.128392 0.851297
Si Si4 0.025748 0.092162 0.264020
Si Si5 0.593703 0.767996 0.093413
Si Si6 0.285166 0.628435 0.648669
Si Si7 0.219483 0.732188 0.593425
O O1 0.248013 0.123163 0.411034
O O2 0.434195 0.122625 0.341625
O O3 0.507557 0.919323 0.198936
O O4 0.587764 0.213681 0.111711
O O5 0.223671 0.934624 0.347759
O O6 0.070159 0.877006 0.588942
O O7 0.919092 0.065316 0.652332
O O8 0.506736 0.258309 0.876942
O O9 0.623539 0.195513 0.876451
O O10 0.421065 0.999935 0.999936
O O11 0.094560 0.919114 0.198922
O O12 0.882512 0.122399 0.341626
O O13 0.188776 0.213467 0.111710
O O14 0.260589 0.758398 0.623116
#
# Coordination Sequence:
#
# PCOD8123329 Si02
#       7
#     4   4   4   4   4   4   4
#     4  10  19  30  51  71 106 126 165 207 250 297
#     4  10  17  32  46  76  95 132 162 206 248 290
#     4  10  18  30  47  70 101 130 164 203 241 291
#     4  10  19  30  51  71 106 126 165 207 250 297
#     4  10  18  33  47  78  99 132 163 206 252 294
#     4  10  18  30  47  70 101 130 164 203 241 291
#     4  10  18  33  47  78  99 132 163 206 252 294
#
# _framework density 18.633351000000001
#
# number of rings (size 3 to 8) (size 9 to 14) (size 15 to 20)
#    0.000    2.000    5.714    3.857    0.000    0.000 
#    0.000    0.000    0.000    0.000    0.000   33.000 
#    0.000    0.000    0.000    0.000    0.000    0.000 
#
# Total GULP energy -346890.141551 kJ/mol
# GULP energy per Si atom -12388.933627 kJ/mol
# Density = 1.859094 g / cm^3
# Si number density = 18.633351 Si / 1000 Ang^3
#
#
#
# Elastic Constant Matrix: (Units=GPa)
#
#
# Indices 1 2 3 4 5 6 
#
# 1 161.1726 23.2885 26.2425 0.0000 -8.5798 0.0000
# 2 23.2885 20.6421 6.8116 0.0000 -1.6847 0.0000
# 3 26.2425 6.8116 117.5067 0.0000 4.1514 0.0000
# 4 0.0000 0.0000 0.0000 16.9981 0.0000 0.0080
# 5 -8.5798 -1.6847 4.1514 0.0000 26.8607 0.0000
# 6 0.0000 0.0000 0.0000 0.0080 0.0000 16.9476
#
#
#
# Elastic Compliance Matrix: (Units=1/GPa)
#
#
# Indices 1 2 3 4 5 6 
#
# 1 0.007703 -0.008076 -0.001328 0.000000 0.002159 0.000000
# 2 -0.008076 0.058197 -0.001617 0.000000 0.001320 0.000000
# 3 -0.001328 -0.001617 0.008968 0.000000 -0.001912 0.000000
# 4 0.000000 0.000000 0.000000 0.058830 0.000000 -0.000028
# 5 0.002159 0.001320 -0.001912 0.000000 0.038297 0.000000
# 6 0.000000 0.000000 0.000000 -0.000028 0.000000 0.059005
#
#
# Mechanical properties :
#
#
# Convention : Reuss Voigt Hill
#
# Bulk Modulus (GPa) = 18.92996 45.77849 32.35422
# Shear Modulus (GPa) = 18.47402 28.35985 23.41694
#
# Velocity S-wave (km/s) = 3.15214 3.90551 3.54887
# Velocity P-wave (km/s) = 4.84038 6.70512 5.84756
#
# Compressibility (1/GPa) = 0.05282632
#
# Stress axis : x y z
#
# Youngs Moduli (GPa) = 129.82576 17.18305 111.50665
#
# Poissons Ratio (x) = 0.13876 0.14812
# Poissons Ratio (y) = 1.04842 0.18027
# Poissons Ratio (z) = 0.17246 0.02778
#
# Static dielectric constant tensor:
#      x y z
#    x 3.654190 0.000000 0.022580 
#    y 0.000000 2.744670 0.000000 
#    z 0.022580 0.000000 3.874900 
# 
# 
# High freq. dielectric constant tensor:
#      x y z
#    x 1.733410 0.000000 0.002520 
#    y 0.000000 1.641960 0.000000 
#    z 0.002520 0.000000 1.757920 
# 
# From -- ./inp_files/74612.got.cif
#   From: 2010.03.12/outbox.cif.g09.slc.cpg/sg14_38_cif.got.tgz:74612.got - 2010.03.31 13:35:05.
