data_PCOD8123674
_publ_section_title
;
Structure prediction by ZEFSAII (Michael W. Deem and Ramdas Pophale) SiO2 
 PCOD8123674
Probable space group: P 21/C
;
_chemical_formula_sum "Si O2"
_cell_formula_units_Z 32
_cell_length_a 9.049220
_cell_length_b 11.704586
_cell_length_c 26.247815
_cell_angle_alpha 90.000000
_cell_angle_beta 139.708295
_cell_angle_gamma 90.000000
_cell_volume 1797.833043
_symmetry_space_group_name_H-M "P 21/C"
_symmetry_group_IT_number 14
_symmetry_cell_setting 'monoclinic'
loop_
_space_group_symop_operation_xyz
x,y,z
-x,1/2+y,1/2-z
-x,-y,-z
x,1/2-y,1/2+z
loop_
_atom_site_type_symbol
_atom_site_label
_atom_site_fract_x
_atom_site_fract_y
_atom_site_fract_z
Si Si1 0.647852 0.326402 0.622192
Si Si2 0.095214 0.555842 0.450240
Si Si3 0.710966 0.924306 0.569645
Si Si4 0.693031 0.427076 0.154265
Si Si5 0.186044 0.161934 0.040539
Si Si6 0.548429 0.670605 0.538809
Si Si7 0.158681 0.081967 0.507189
Si Si8 0.043578 0.488650 0.326159
O O1 0.743224 0.198129 0.644378
O O2 0.462066 0.336923 0.618407
O O3 0.508095 0.362043 0.534282
O O4 0.854591 0.413864 0.684611
O O5 0.106220 0.430554 0.477881
O O6 0.335044 0.625353 0.516151
O O7 0.991478 0.546082 0.366595
O O8 0.910724 0.633125 0.429970
O O9 0.604073 0.803369 0.557246
O O10 0.879851 0.927164 0.564712
O O11 0.500000 0.000000 0.500000
O O12 0.815415 0.982995 0.647756
O O13 0.812910 0.439659 0.240725
O O14 0.422027 0.447169 0.089935
O O15 0.095520 0.287161 0.001919
O O16 0.775195 0.611207 0.618566
O O17 0.000000 0.000000 0.500000
#
# Coordination Sequence:
#
# PCOD8123674 Si02
#       8
#     4   4   4   4   4   4   4   4
#     4  10  18  38  55  81 112 149 191 234 281 345
#     4  10  20  32  61  82 113 143 196 236 278 347
#     4  10  19  36  57  84 111 144 195 232 276 344
#     4  10  23  36  55  84 119 143 189 241 288 340
#     4  10  18  35  55  87 106 144 195 238 275 333
#     4  11  18  35  62  83 106 149 195 234 277 340
#     4  10  21  37  61  79 110 153 190 229 286 347
#     4  11  21  35  57  85 113 150 182 243 300 323
#
# _framework density 17.799206000000002
#
# number of rings (size 3 to 8) (size 9 to 14) (size 15 to 20)
#    0.000    1.750    6.250    0.750    5.250    0.000 
#    0.000    1.250    2.750    0.000    0.000    0.000 
#    0.000    0.000    0.000    0.000    0.000    0.000 
#
# Total GULP energy -396543.251227 kJ/mol
# GULP energy per Si atom -12391.976601 kJ/mol
# Density = 1.775869 g / cm^3
# Si number density = 17.799206 Si / 1000 Ang^3
#
#
#
# Elastic Constant Matrix: (Units=GPa)
#
#
# Indices 1 2 3 4 5 6 
#
# 1 120.9634 66.6601 34.9418 0.0000 -3.1565 0.0000
# 2 66.6601 128.8425 28.6984 0.0000 1.9586 0.0000
# 3 34.9418 28.6984 88.3981 0.0000 -4.3080 0.0000
# 4 0.0000 0.0000 0.0000 12.2275 0.0000 -3.6013
# 5 -3.1565 1.9586 -4.3080 0.0000 16.3459 0.0000
# 6 0.0000 0.0000 0.0000 -3.6013 0.0000 33.7416
#
#
#
# Elastic Compliance Matrix: (Units=1/GPa)
#
#
# Indices 1 2 3 4 5 6 
#
# 1 0.012348 -0.005779 -0.002892 0.000000 0.002315 0.000000
# 2 -0.005779 0.011121 -0.001464 0.000000 -0.002834 0.000000
# 3 -0.002892 -0.001464 0.013080 0.000000 0.003064 0.000000
# 4 0.000000 0.000000 0.000000 0.084437 0.000000 0.009012
# 5 0.002315 -0.002834 0.003064 0.000000 0.062772 0.000000
# 6 0.000000 0.000000 0.000000 0.009012 0.000000 0.030599
#
#
# Mechanical properties :
#
#
# Convention : Reuss Voigt Hill
#
# Bulk Modulus (GPa) = 61.43155 66.53385 63.98270
# Shear Modulus (GPa) = 20.82880 26.32325 23.57602
#
# Velocity S-wave (km/s) = 3.42454 3.84982 3.64339
# Velocity P-wave (km/s) = 7.08698 7.56458 7.32967
#
# Compressibility (1/GPa) = 0.01627828
#
# Stress axis : x y z
#
# Youngs Moduli (GPa) = 80.98764 89.92205 76.45214
#
# Poissons Ratio (x) = 0.51970 0.22107
# Poissons Ratio (y) = 0.46806 0.11193
# Poissons Ratio (z) = 0.23418 0.13165
#
# Static dielectric constant tensor:
#      x y z
#    x 2.983700 0.000000 0.351080 
#    y 0.000000 3.222130 0.000000 
#    z 0.351080 0.000000 2.688430 
# 
# 
# High freq. dielectric constant tensor:
#      x y z
#    x 1.685850 0.000000 -0.004940 
#    y 0.000000 1.710310 0.000000 
#    z -0.004940 0.000000 1.651270 
# 
# From -- ./inp_files/55422.got.cif
#   From: 2010.03.12/outbox.cif.g09.slc.cpg/sg14_28_cif.got.tgz:55422.got - 2010.03.31 13:35:05.
