data_PCOD8123256
_publ_section_title
;
Structure prediction by ZEFSAII (Michael W. Deem and Ramdas Pophale) SiO2 
 PCOD8123256
Probable space group: P 21/C
;
_chemical_formula_sum "Si O2"
_cell_formula_units_Z 32
_cell_length_a 9.284047
_cell_length_b 21.749208
_cell_length_c 16.259020
_cell_angle_alpha 90.000000
_cell_angle_beta 149.837816
_cell_angle_gamma 90.000000
_cell_volume 1649.557572
_symmetry_space_group_name_H-M "P 21/C"
_symmetry_group_IT_number 14
_symmetry_cell_setting 'monoclinic'
loop_
_space_group_symop_operation_xyz
x,y,z
-x,1/2+y,1/2-z
-x,-y,-z
x,1/2-y,1/2+z
loop_
_atom_site_type_symbol
_atom_site_label
_atom_site_fract_x
_atom_site_fract_y
_atom_site_fract_z
Si Si1 0.359640 0.864722 0.343688
Si Si2 0.056796 0.784269 0.069940
Si Si3 0.464208 0.819694 0.740580
Si Si4 0.067414 0.586888 0.966138
Si Si5 0.703243 0.368754 0.667801
Si Si6 0.837449 0.856619 0.196076
Si Si7 0.834675 0.725242 0.123666
Si Si8 0.848308 0.549418 0.030578
O O1 0.528341 0.808722 0.470957
O O2 0.559313 0.923317 0.426517
O O3 0.106437 0.884895 0.279530
O O4 0.229208 0.841693 0.192842
O O5 0.798784 0.808220 0.883674
O O6 0.900862 0.744690 0.063300
O O7 0.272083 0.740514 0.125528
O O8 0.353771 0.875563 0.630028
O O9 0.444249 0.835252 0.827523
O O10 0.868495 0.625981 0.806597
O O11 0.874381 0.574443 0.950674
O O12 0.171042 0.523799 0.975557
O O13 0.452931 0.387774 0.481426
O O14 0.917372 0.322069 0.726505
O O15 0.874523 0.429348 0.780629
O O16 0.821049 0.782702 0.178535
#
# Coordination Sequence:
#
# PCOD8123256 Si02
#       8
#     4   4   4   4   4   4   4   4
#     4  10  18  33  62  83 102 143 192 229 264 331
#     4  10  16  29  55  82 104 141 190 216 258 343
#     4  10  18  33  53  79 110 147 181 220 269 342
#     4  10  23  38  55  78 117 150 182 229 285 317
#     4   9  17  32  60  78 104 147 190 218 265 344
#     4  11  19  32  56  87 109 130 181 243 283 308
#     4   9  16  31  51  83 112 139 174 222 279 337
#     4   9  21  42  59  71 107 161 197 212 263 345
#
# _framework density 19.399139999999999
#
# number of rings (size 3 to 8) (size 9 to 14) (size 15 to 20)
#    0.000    2.250    3.750    2.250    0.000    1.000 
#    4.500    0.625    2.750    0.000    0.000    0.000 
#    0.000    0.000    0.000    0.000    0.000    0.000 
#
# Total GULP energy -396815.723063 kJ/mol
# GULP energy per Si atom -12400.491346 kJ/mol
# Density = 1.935499 g / cm^3
# Si number density = 19.399140 Si / 1000 Ang^3
#
#
#
# Elastic Constant Matrix: (Units=GPa)
#
#
# Indices 1 2 3 4 5 6 
#
# 1 30.0306 21.2105 40.1779 0.0000 1.0506 0.0000
# 2 21.2105 82.2597 55.3411 0.0000 -8.1300 0.0000
# 3 40.1779 55.3411 157.1267 0.0000 9.5458 0.0000
# 4 0.0000 0.0000 0.0000 17.5172 0.0000 -6.2876
# 5 1.0506 -8.1300 9.5458 0.0000 27.5091 0.0000
# 6 0.0000 0.0000 0.0000 -6.2876 0.0000 15.6939
#
#
#
# Elastic Compliance Matrix: (Units=1/GPa)
#
#
# Indices 1 2 3 4 5 6 
#
# 1 0.052735 -0.005893 -0.011422 0.000000 0.000208 0.000000
# 2 -0.005893 0.017940 -0.005259 0.000000 0.007352 0.000000
# 3 -0.011422 -0.005259 0.011446 0.000000 -0.005090 0.000000
# 4 0.000000 0.000000 0.000000 0.066675 0.000000 0.026713
# 5 0.000208 0.007352 -0.005090 0.000000 0.040283 0.000000
# 6 0.000000 0.000000 0.000000 0.026713 0.000000 0.074421
#
#
# Mechanical properties :
#
#
# Convention : Reuss Voigt Hill
#
# Bulk Modulus (GPa) = 27.04501 55.87510 41.46005
# Shear Modulus (GPa) = 15.57767 22.32323 18.95045
#
# Velocity S-wave (km/s) = 2.83681 3.39593 3.12888
# Velocity P-wave (km/s) = 4.97007 6.65145 5.87126
#
# Compressibility (1/GPa) = 0.03697539
#
# Stress axis : x y z
#
# Youngs Moduli (GPa) = 18.96263 55.73988 87.36571
#
# Poissons Ratio (x) = 0.32848 0.99786
# Poissons Ratio (y) = 0.11175 0.45941
# Poissons Ratio (z) = 0.21658 0.29311
#
# Static dielectric constant tensor:
#      x y z
#    x 3.143480 0.000000 0.188070 
#    y 0.000000 3.428300 0.000000 
#    z 0.188070 0.000000 3.650310 
# 
# 
# High freq. dielectric constant tensor:
#      x y z
#    x 1.715780 0.000000 0.016850 
#    y 0.000000 1.740370 0.000000 
#    z 0.016850 0.000000 1.764390 
# 
# From -- ./inp_files/42255.got.cif
#   From: 2010.03.12/outbox.cif.g09.slc.cpg/sg14_22_cif.got.tgz:42255.got - 2010.03.31 13:35:05.
