data_PCOD8123991
_publ_section_title
;
Structure prediction by ZEFSAII (Michael W. Deem and Ramdas Pophale) SiO2 
 PCOD8123991
Probable space group: P 21/C
;
_chemical_formula_sum "Si O2"
_cell_formula_units_Z 24
_cell_length_a 20.692813
_cell_length_b 5.052804
_cell_length_c 21.094089
_cell_angle_alpha 90.000000
_cell_angle_beta 144.808473
_cell_angle_gamma 90.000000
_cell_volume 1271.071619
_symmetry_space_group_name_H-M "P 21/C"
_symmetry_group_IT_number 14
_symmetry_cell_setting 'monoclinic'
loop_
_space_group_symop_operation_xyz
x,y,z
-x,1/2+y,1/2-z
-x,-y,-z
x,1/2-y,1/2+z
loop_
_atom_site_type_symbol
_atom_site_label
_atom_site_fract_x
_atom_site_fract_y
_atom_site_fract_z
Si Si1 0.054253 0.884297 0.265841
Si Si2 0.651746 0.163784 0.325796
Si Si3 0.422698 0.555573 0.617581
Si Si4 0.000419 0.720877 0.082463
Si Si5 0.873238 0.225225 0.939569
Si Si6 0.704675 0.954924 0.495954
O O1 0.047782 0.793270 0.188529
O O2 0.175995 0.002537 0.376647
O O3 0.033052 0.623873 0.291808
O O4 0.596719 0.410381 0.321258
O O5 0.552704 0.008998 0.209823
O O6 0.740224 0.256857 0.344344
O O7 0.715943 0.976701 0.428322
O O8 0.385433 0.824993 0.552123
O O9 0.341950 0.331637 0.523744
O O10 0.104206 0.718250 0.116462
O O11 0.943124 0.432425 0.038601
O O12 0.907852 0.929472 0.985419
#
# Coordination Sequence:
#
# PCOD8123991 Si02
#       6
#     4   4   4   4   4   4
#     4  12  23  35  57  79 112 148 183 223 276 334
#     4  10  19  33  54  80 104 144 174 230 276 310
#     4  10  20  31  51  80 109 131 185 224 271 319
#     4  10  22  40  50  88 105 148 186 221 273 333
#     4  10  22  35  62  73 117 141 184 231 268 331
#     4  10  20  32  48  78 110 137 167 236 264 315
#
# _framework density 18.881705
#
# number of rings (size 3 to 8) (size 9 to 14) (size 15 to 20)
#    1.000    0.667    1.667    4.000    4.667    0.000 
#    0.000    0.000    0.000    2.000    0.000    0.000 
#    0.000    0.000    0.000    0.000    0.000    0.000 
#
# Total GULP energy -297500.147002 kJ/mol
# GULP energy per Si atom -12395.839458 kJ/mol
# Density = 1.883873 g / cm^3
# Si number density = 18.881705 Si / 1000 Ang^3
#
#
#
# Elastic Constant Matrix: (Units=GPa)
#
#
# Indices 1 2 3 4 5 6 
#
# 1 78.4796 4.7387 26.2115 0.0000 17.8827 0.0000
# 2 4.7387 79.9263 -3.1428 0.0000 0.9974 0.0000
# 3 26.2115 -3.1428 72.9006 0.0000 5.6297 0.0000
# 4 0.0000 0.0000 0.0000 24.8700 0.0000 -0.5010
# 5 17.8827 0.9974 5.6297 0.0000 31.5382 0.0000
# 6 0.0000 0.0000 0.0000 -0.5010 0.0000 15.2928
#
#
#
# Elastic Compliance Matrix: (Units=1/GPa)
#
#
# Indices 1 2 3 4 5 6 
#
# 1 0.016495 -0.001083 -0.005331 0.000000 -0.008367 0.000000
# 2 -0.001083 0.012612 0.000929 0.000000 0.000049 0.000000
# 3 -0.005331 0.000929 0.015659 0.000000 0.000198 0.000000
# 4 0.000000 0.000000 0.000000 0.040236 0.000000 0.001318
# 5 -0.008367 0.000049 0.000198 0.000000 0.036415 0.000000
# 6 0.000000 0.000000 0.000000 0.001318 0.000000 0.065434
#
#
# Mechanical properties :
#
#
# Convention : Reuss Voigt Hill
#
# Bulk Modulus (GPa) = 29.59009 31.88014 30.73511
# Shear Modulus (GPa) = 23.91378 27.90680 25.91029
#
# Velocity S-wave (km/s) = 3.56266 3.84862 3.70840
# Velocity P-wave (km/s) = 5.71216 6.05558 5.88637
#
# Compressibility (1/GPa) = 0.03379510
#
# Stress axis : x y z
#
# Youngs Moduli (GPa) = 60.62564 79.29160 63.86133
#
# Poissons Ratio (x) = 0.08589 0.34046
# Poissons Ratio (y) = 0.06567 -0.05935
# Poissons Ratio (z) = 0.32321 -0.07369
#
# Static dielectric constant tensor:
#      x y z
#    x 3.230750 0.000000 0.119090 
#    y 0.000000 3.674120 0.000000 
#    z 0.119090 0.000000 3.126930 
# 
# 
# High freq. dielectric constant tensor:
#      x y z
#    x 1.695750 0.000000 0.022160 
#    y 0.000000 1.752920 0.000000 
#    z 0.022160 0.000000 1.716640 
# 
# From -- ./inp_files/69608.got.cif
#   From: 2010.03.12/outbox.cif.g09.slc.cpg/sg14_35_cif.got.tgz:69608.got - 2010.03.31 13:35:05.
