data_PCOD8123511
_publ_section_title
;
Structure prediction by ZEFSAII (Michael W. Deem and Ramdas Pophale) SiO2 
 PCOD8123511
Probable space group: P 21/C
;
_chemical_formula_sum "Si O2"
_cell_formula_units_Z 28
_cell_length_a 11.036252
_cell_length_b 10.403636
_cell_length_c 25.300154
_cell_angle_alpha 90.000000
_cell_angle_beta 148.597949
_cell_angle_gamma 90.000000
_cell_volume 1513.565229
_symmetry_space_group_name_H-M "P 21/C"
_symmetry_group_IT_number 14
_symmetry_cell_setting 'monoclinic'
loop_
_space_group_symop_operation_xyz
x,y,z
-x,1/2+y,1/2-z
-x,-y,-z
x,1/2-y,1/2+z
loop_
_atom_site_type_symbol
_atom_site_label
_atom_site_fract_x
_atom_site_fract_y
_atom_site_fract_z
Si Si1 0.822621 0.353210 0.480490
Si Si2 0.453167 0.856503 0.366596
Si Si3 0.546812 0.856517 0.633396
Si Si4 0.177404 0.353220 0.519518
Si Si5 0.047410 0.354033 0.353334
Si Si6 0.047379 0.854025 0.853326
Si Si7 0.500008 0.294608 0.000002
O O1 0.617444 0.248900 0.400278
O O2 0.724893 0.499993 0.439607
O O3 0.958653 0.335103 0.585900
O O4 0.000007 0.322486 0.500000
O O5 0.617396 0.751077 0.400259
O O6 0.508537 0.875861 0.449415
O O7 0.194345 0.801689 0.260335
O O8 0.485026 0.999993 0.353101
O O9 0.491472 0.875876 0.550587
O O10 0.805619 0.801687 0.739656
O O11 0.041390 0.335102 0.414112
O O12 0.073234 0.500006 0.346107
O O13 0.267108 0.288235 0.408176
O O14 0.267060 0.788208 0.908164
#
# Coordination Sequence:
#
# PCOD8123511 Si02
#       7
#     4   4   4   4   4   4   4
#     4   9  19  36  54  72  97 130 167 203 241 292
#     4  10  20  33  50  75 103 129 161 204 249 288
#     4  10  20  33  50  75 103 129 161 204 249 288
#     4   9  19  36  54  72  97 130 167 203 241 292
#     4   9  18  32  51  74 100 131 165 201 243 291
#     4   9  18  32  51  74 100 131 165 201 243 291
#     4  10  18  32  50  72 101 134 165 198 239 292
#
# _framework density 18.499368
#
# number of rings (size 3 to 8) (size 9 to 14) (size 15 to 20)
#    0.000    2.571    0.000    1.714    0.000    2.857 
#    0.000    7.143    0.000    0.000    0.000    0.000 
#    0.000    0.000    0.000    0.000    0.000    0.000 
#
# Total GULP energy -347034.185398 kJ/mol
# GULP energy per Si atom -12394.078050 kJ/mol
# Density = 1.845726 g / cm^3
# Si number density = 18.499368 Si / 1000 Ang^3
#
#
#
# Elastic Constant Matrix: (Units=GPa)
#
#
# Indices 1 2 3 4 5 6 
#
# 1 88.0840 49.5058 27.7632 0.0000 17.6597 0.0000
# 2 49.5058 103.5735 56.6080 0.0000 26.6559 0.0000
# 3 27.7632 56.6080 115.6002 0.0000 28.9826 0.0000
# 4 0.0000 0.0000 0.0000 50.3358 0.0000 -29.1150
# 5 17.6597 26.6559 28.9826 0.0000 25.5013 0.0000
# 6 0.0000 0.0000 0.0000 -29.1150 0.0000 64.7336
#
#
#
# Elastic Compliance Matrix: (Units=1/GPa)
#
#
# Indices 1 2 3 4 5 6 
#
# 1 0.015875 -0.006742 0.000669 0.000000 -0.004706 0.000000
# 2 -0.006742 0.017715 -0.005012 0.000000 -0.008152 0.000000
# 3 0.000669 -0.005012 0.013631 0.000000 -0.010716 0.000000
# 4 0.000000 0.000000 0.000000 0.026852 0.000000 0.012077
# 5 -0.004706 -0.008152 -0.010716 0.000000 0.063173 0.000000
# 6 0.000000 0.000000 0.000000 0.012077 0.000000 0.020880
#
#
# Mechanical properties :
#
#
# Convention : Reuss Voigt Hill
#
# Bulk Modulus (GPa) = 39.91969 63.89021 51.90495
# Shear Modulus (GPa) = 26.50478 39.67284 33.08881
#
# Velocity S-wave (km/s) = 3.78926 4.63595 4.23383
# Velocity P-wave (km/s) = 6.38518 7.95409 7.21242
#
# Compressibility (1/GPa) = 0.02505030
#
# Stress axis : x y z
#
# Youngs Moduli (GPa) = 62.99292 56.45022 73.36389
#
# Poissons Ratio (x) = 0.38060 -0.04907
# Poissons Ratio (y) = 0.42471 0.36767
# Poissons Ratio (z) = -0.04213 0.28291
#
# Static dielectric constant tensor:
#      x y z
#    x 3.290510 0.000000 0.027830 
#    y 0.000000 3.344420 0.000000 
#    z 0.027830 0.000000 3.520180 
# 
# 
# High freq. dielectric constant tensor:
#      x y z
#    x 1.708380 0.000000 -0.002100 
#    y 0.000000 1.715610 0.000000 
#    z -0.002100 0.000000 1.720900 
# 
# From -- ./inp_files/28596.got.cif
#   From: 2010.03.12/outbox.cif.g09.slc.cpg/sg14_15_cif.got.tgz:28596.got - 2010.03.31 13:35:05.
