data_PCOD8123374
_publ_section_title
;
Structure prediction by ZEFSAII (Michael W. Deem and Ramdas Pophale) SiO2 
 PCOD8123374
Probable space group: P 21/C
;
_chemical_formula_sum "Si O2"
_cell_formula_units_Z 32
_cell_length_a 11.584413
_cell_length_b 9.707182
_cell_length_c 19.755532
_cell_angle_alpha 90.000000
_cell_angle_beta 53.005292
_cell_angle_gamma 90.000000
_cell_volume 1774.331549
_symmetry_space_group_name_H-M "P 21/C"
_symmetry_group_IT_number 14
_symmetry_cell_setting 'monoclinic'
loop_
_space_group_symop_operation_xyz
x,y,z
-x,1/2+y,1/2-z
-x,-y,-z
x,1/2-y,1/2+z
loop_
_atom_site_type_symbol
_atom_site_label
_atom_site_fract_x
_atom_site_fract_y
_atom_site_fract_z
Si Si1 0.394527 0.175301 0.816623
Si Si2 0.718081 0.733585 0.779530
Si Si3 0.694490 0.268106 0.398786
Si Si4 0.606376 0.880367 0.035636
Si Si5 0.405298 0.689293 0.427478
Si Si6 0.841275 0.060341 0.249782
Si Si7 0.353099 0.871574 0.800633
Si Si8 0.825181 0.561089 0.344502
O O1 0.283373 0.245205 0.802309
O O2 0.326174 0.167113 0.915899
O O3 0.541230 0.261697 0.771003
O O4 0.431339 0.020776 0.777185
O O5 0.551213 0.725907 0.862311
O O6 0.801502 0.598566 0.774285
O O7 0.799183 0.865408 0.781528
O O8 0.529083 0.284963 0.434057
O O9 0.693014 0.238493 0.480462
O O10 0.765326 0.138261 0.338235
O O11 0.790193 0.401153 0.347668
O O12 0.550636 0.038283 0.059154
O O13 0.728623 0.864421 0.935754
O O14 0.312048 0.677135 0.391286
O O15 0.788862 0.118530 0.195627
O O16 0.011147 0.080728 0.190946
#
# Coordination Sequence:
#
# PCOD8123374 Si02
#       8
#     4   4   4   4   4   4   4   4
#     4   9  18  31  55  78 101 129 175 224 254 300
#     4  10  19  35  51  80 109 132 172 222 267 295
#     4  11  19  35  57  79  98 141 186 208 254 311
#     4  10  17  34  58  81  94 138 191 211 244 307
#     4   9  17  33  57  77 100 131 178 227 247 299
#     4  11  23  33  51  81 114 137 166 216 275 315
#     4   9  18  33  50  79 106 131 172 216 269 298
#     4  11  21  37  53  75 111 144 172 212 260 316
#
# _framework density 18.034959000000001
#
# number of rings (size 3 to 8) (size 9 to 14) (size 15 to 20)
#    0.000    2.000    3.750    1.500    0.000    0.500 
#    0.000   11.250    0.000    0.000    0.000    4.375 
#    0.000    0.000    0.000    0.000    0.000    0.000 
#
# Total GULP energy -396737.595358 kJ/mol
# GULP energy per Si atom -12398.049855 kJ/mol
# Density = 1.799391 g / cm^3
# Si number density = 18.034959 Si / 1000 Ang^3
#
#
#
# Elastic Constant Matrix: (Units=GPa)
#
#
# Indices 1 2 3 4 5 6 
#
# 1 99.2774 23.1439 37.8740 0.0000 0.9653 0.0000
# 2 23.1439 27.6539 14.0643 0.0000 -0.0436 0.0000
# 3 37.8740 14.0643 64.9270 0.0000 7.5394 0.0000
# 4 0.0000 0.0000 0.0000 22.2343 0.0000 6.2891
# 5 0.9653 -0.0436 7.5394 0.0000 34.7519 0.0000
# 6 0.0000 0.0000 0.0000 6.2891 0.0000 22.5031
#
#
#
# Elastic Compliance Matrix: (Units=1/GPa)
#
#
# Indices 1 2 3 4 5 6 
#
# 1 0.014719 -0.008864 -0.006788 0.000000 0.001053 0.000000
# 2 -0.008864 0.046114 -0.004979 0.000000 0.001384 0.000000
# 3 -0.006788 -0.004979 0.020947 0.000000 -0.004362 0.000000
# 4 0.000000 0.000000 0.000000 0.048836 0.000000 -0.013649
# 5 0.001053 0.001384 -0.004362 0.000000 0.029694 0.000000
# 6 0.000000 0.000000 0.000000 -0.013649 0.000000 0.048253
#
#
# Mechanical properties :
#
#
# Convention : Reuss Voigt Hill
#
# Bulk Modulus (GPa) = 24.68102 38.00252 31.34177
# Shear Modulus (GPa) = 18.98752 23.68293 21.33522
#
# Velocity S-wave (km/s) = 3.24823 3.62770 3.44320
# Velocity P-wave (km/s) = 5.27094 6.21806 5.76399
#
# Compressibility (1/GPa) = 0.04051697
#
# Stress axis : x y z
#
# Youngs Moduli (GPa) = 67.94132 21.68525 47.74047
#
# Poissons Ratio (x) = 0.19222 0.32406
# Poissons Ratio (y) = 0.60225 0.23770
# Poissons Ratio (z) = 0.46118 0.10797
#
# Static dielectric constant tensor:
#      x y z
#    x 3.408260 0.000000 0.376510 
#    y 0.000000 3.273150 0.000000 
#    z 0.376510 0.000000 3.357600 
# 
# 
# High freq. dielectric constant tensor:
#      x y z
#    x 1.699050 0.000000 0.029440 
#    y 0.000000 1.687000 0.000000 
#    z 0.029440 0.000000 1.682940 
# 
# From -- ./inp_files/67011.got.cif
#   From: 2010.03.12/outbox.cif.g09.slc.cpg/sg14_34_cif.got.tgz:67011.got - 2010.03.31 13:35:05.
