data_PCOD8123728
_publ_section_title
;
Structure prediction by ZEFSAII (Michael W. Deem and Ramdas Pophale) SiO2 
 PCOD8123728
Probable space group: P 21/C
;
_chemical_formula_sum "Si O2"
_cell_formula_units_Z 32
_cell_length_a 8.980842
_cell_length_b 14.856485
_cell_length_c 13.409591
_cell_angle_alpha 90.000000
_cell_angle_beta 71.289177
_cell_angle_gamma 90.000000
_cell_volume 1694.600311
_symmetry_space_group_name_H-M "P 21/C"
_symmetry_group_IT_number 14
_symmetry_cell_setting 'monoclinic'
loop_
_space_group_symop_operation_xyz
x,y,z
-x,1/2+y,1/2-z
-x,-y,-z
x,1/2-y,1/2+z
loop_
_atom_site_type_symbol
_atom_site_label
_atom_site_fract_x
_atom_site_fract_y
_atom_site_fract_z
Si Si1 0.355004 0.821952 0.769088
Si Si2 0.490818 0.137469 0.064884
Si Si3 0.382476 0.542115 0.647983
Si Si4 0.847451 0.153548 0.678596
Si Si5 0.686983 0.075983 0.526036
Si Si6 0.451732 0.194595 0.455221
Si Si7 0.405597 0.476721 0.218744
Si Si8 0.804830 0.911513 0.396059
O O1 0.405804 0.813997 0.872894
O O2 0.204174 0.756444 0.784777
O O3 0.498756 0.785280 0.669459
O O4 0.321776 0.926262 0.749764
O O5 0.368322 0.066756 0.141149
O O6 0.602331 0.082979 0.965112
O O7 0.403303 0.213543 0.021339
O O8 0.226114 0.582294 0.728762
O O9 0.533158 0.562236 0.688489
O O10 0.794338 0.131030 0.578747
O O11 0.032311 0.139936 0.649391
O O12 0.602811 0.147200 0.472569
O O13 0.554676 0.014938 0.610986
O O14 0.805820 0.014854 0.434396
O O15 0.294244 0.137363 0.496387
O O16 0.280270 0.408813 0.194696
#
# Coordination Sequence:
#
# PCOD8123728 Si02
#       8
#     4   4   4   4   4   4   4   4
#     4  11  19  35  62  85 109 154 193 231 281 346
#     4  10  20  36  62  83 110 143 204 237 270 340
#     4   9  20  37  60  83 108 155 190 235 285 346
#     4  11  22  34  57  87 122 147 190 238 301 331
#     4  10  18  36  57  84 110 153 188 237 287 336
#     4  11  19  35  61  84 110 149 198 237 276 338
#     4   9  18  35  62  81 108 149 198 227 281 344
#     4  11  21  35  56  91 118 147 187 249 288 342
#
# _framework density 18.883510000000001
#
# number of rings (size 3 to 8) (size 9 to 14) (size 15 to 20)
#    0.000    1.750    5.000    1.125    0.000    0.000 
#    2.250    0.000    8.250    2.250    0.000    0.000 
#    0.000    0.000    0.000    0.000    0.000    0.000 
#
# Total GULP energy -396589.568616 kJ/mol
# GULP energy per Si atom -12393.424019 kJ/mol
# Density = 1.884053 g / cm^3
# Si number density = 18.883510 Si / 1000 Ang^3
#
#
#
# Elastic Constant Matrix: (Units=GPa)
#
#
# Indices 1 2 3 4 5 6 
#
# 1 96.7491 33.9540 50.7136 0.0000 -9.6442 0.0000
# 2 33.9540 77.0630 30.5267 0.0000 -6.2302 0.0000
# 3 50.7136 30.5267 95.7029 0.0000 10.7013 0.0000
# 4 0.0000 0.0000 0.0000 32.0701 0.0000 -1.1454
# 5 -9.6442 -6.2302 10.7013 0.0000 25.2929 0.0000
# 6 0.0000 0.0000 0.0000 -1.1454 0.0000 25.3369
#
#
#
# Elastic Compliance Matrix: (Units=1/GPa)
#
#
# Indices 1 2 3 4 5 6 
#
# 1 0.017240 -0.003164 -0.009210 0.000000 0.009691 0.000000
# 2 -0.003164 0.016337 -0.004041 0.000000 0.004527 0.000000
# 3 -0.009210 -0.004041 0.017973 0.000000 -0.012111 0.000000
# 4 0.000000 0.000000 0.000000 0.031232 0.000000 0.001412
# 5 0.009691 0.004527 -0.012111 0.000000 0.049471 0.000000
# 6 0.000000 0.000000 0.000000 0.001412 0.000000 0.039532
#
#
# Mechanical properties :
#
#
# Convention : Reuss Voigt Hill
#
# Bulk Modulus (GPa) = 53.41824 55.54484 54.48154
# Shear Modulus (GPa) = 23.71297 26.82803 25.27050
#
# Velocity S-wave (km/s) = 3.54750 3.77332 3.66215
# Velocity P-wave (km/s) = 6.71784 6.96149 6.84075
#
# Compressibility (1/GPa) = 0.01872020
#
# Stress axis : x y z
#
# Youngs Moduli (GPa) = 58.00396 61.21011 55.64038
#
# Poissons Ratio (x) = 0.19368 0.51245
# Poissons Ratio (y) = 0.18354 0.22482
# Poissons Ratio (z) = 0.53422 0.24733
#
# Static dielectric constant tensor:
#      x y z
#    x 3.122370 0.000000 0.313190 
#    y 0.000000 3.606910 0.000000 
#    z 0.313190 0.000000 3.602540 
# 
# 
# High freq. dielectric constant tensor:
#      x y z
#    x 1.687030 0.000000 0.029900 
#    y 0.000000 1.744180 0.000000 
#    z 0.029900 0.000000 1.735750 
# 
# From -- ./inp_files/41199.got.cif
#   From: 2010.03.12/outbox.cif.g09.slc.cpg/sg14_21_cif.got.tgz:41199.got - 2010.03.31 13:35:05.
