data_PCOD8123401
_publ_section_title
;
Structure prediction by ZEFSAII (Michael W. Deem and Ramdas Pophale) SiO2 
 PCOD8123401
Probable space group: P 21/C
;
_chemical_formula_sum "Si O2"
_cell_formula_units_Z 32
_cell_length_a 8.896495
_cell_length_b 17.259573
_cell_length_c 18.165415
_cell_angle_alpha 90.000000
_cell_angle_beta 143.371488
_cell_angle_gamma 90.000000
_cell_volume 1664.160664
_symmetry_space_group_name_H-M "P 21/C"
_symmetry_group_IT_number 14
_symmetry_cell_setting 'monoclinic'
loop_
_space_group_symop_operation_xyz
x,y,z
-x,1/2+y,1/2-z
-x,-y,-z
x,1/2-y,1/2+z
loop_
_atom_site_type_symbol
_atom_site_label
_atom_site_fract_x
_atom_site_fract_y
_atom_site_fract_z
Si Si1 0.347294 0.860500 0.638165
Si Si2 0.098854 0.908895 0.031687
Si Si3 0.892927 0.491792 0.615643
Si Si4 0.382009 0.320500 0.612627
Si Si5 0.591697 0.473724 0.215766
Si Si6 0.496097 0.875371 0.990989
Si Si7 0.767071 0.656988 0.895169
Si Si8 0.496423 0.797556 0.142251
O O1 0.396806 0.834761 0.741638
O O2 0.480787 0.795808 0.638818
O O3 0.054655 0.868904 0.507211
O O4 0.468500 0.942634 0.670212
O O5 0.304502 0.944661 0.165844
O O6 0.213734 0.829699 0.043797
O O7 0.064114 0.974292 0.954949
O O8 0.834107 0.885988 0.965042
O O9 0.781732 0.413701 0.608524
O O10 0.702968 0.559398 0.559229
O O11 0.175041 0.518549 0.751688
O O12 0.513897 0.322304 0.584863
O O13 0.261737 0.236423 0.572448
O O14 0.384494 0.407965 0.116638
O O15 0.584007 0.825122 0.095810
O O16 0.684399 0.667758 0.777571
#
# Coordination Sequence:
#
# PCOD8123401 Si02
#       8
#     4   4   4   4   4   4   4   4
#     4  11  21  37  62  88 117 160 209 240 295 368
#     4  10  17  35  63  90 113 148 207 255 299 336
#     4  10  19  34  57  95 121 147 189 250 317 346
#     4  11  20  37  66  94 112 151 207 266 290 346
#     4  11  20  34  60  86 121 157 197 249 294 356
#     4  10  21  35  61  94 124 144 197 263 304 345
#     4  10  23  39  59  88 120 162 206 237 299 372
#     4   9  21  38  60  85 118 161 192 249 301 359
#
# _framework density 19.228912999999999
#
# number of rings (size 3 to 8) (size 9 to 14) (size 15 to 20)
#    0.000    1.750    3.750    1.500    0.000    1.000 
#    0.000    5.000    0.000    2.250    0.000    0.000 
#    0.000    0.000    0.000    0.000    0.000    0.000 
#
# Total GULP energy -396565.628094 kJ/mol
# GULP energy per Si atom -12392.675878 kJ/mol
# Density = 1.918515 g / cm^3
# Si number density = 19.228913 Si / 1000 Ang^3
#
#
#
# Elastic Constant Matrix: (Units=GPa)
#
#
# Indices 1 2 3 4 5 6 
#
# 1 115.6732 45.2701 43.8984 0.0000 0.2285 0.0000
# 2 45.2701 131.1875 30.9215 0.0000 4.1362 0.0000
# 3 43.8984 30.9215 75.9686 0.0000 15.1379 0.0000
# 4 0.0000 0.0000 0.0000 29.8399 0.0000 4.8879
# 5 0.2285 4.1362 15.1379 0.0000 32.3748 0.0000
# 6 0.0000 0.0000 0.0000 4.8879 0.0000 19.2027
#
#
#
# Elastic Compliance Matrix: (Units=1/GPa)
#
#
# Indices 1 2 3 4 5 6 
#
# 1 0.012230 -0.002768 -0.006610 0.000000 0.003358 0.000000
# 2 -0.002768 0.009068 -0.002056 0.000000 -0.000178 0.000000
# 3 -0.006610 -0.002056 0.019582 0.000000 -0.008847 0.000000
# 4 0.000000 0.000000 0.000000 0.034970 0.000000 -0.008901
# 5 0.003358 -0.000178 -0.008847 0.000000 0.035024 0.000000
# 6 0.000000 0.000000 0.000000 -0.008901 0.000000 0.054342
#
#
# Mechanical properties :
#
#
# Convention : Reuss Voigt Hill
#
# Bulk Modulus (GPa) = 55.51495 62.55658 59.03577
# Shear Modulus (GPa) = 25.76143 29.79944 27.78044
#
# Velocity S-wave (km/s) = 3.66419 3.94092 3.80507
# Velocity P-wave (km/s) = 6.84361 7.30144 7.07623
#
# Compressibility (1/GPa) = 0.01801317
#
# Stress axis : x y z
#
# Youngs Moduli (GPa) = 81.76494 110.27582 51.06633
#
# Poissons Ratio (x) = 0.30528 0.33752
# Poissons Ratio (y) = 0.22635 0.10499
# Poissons Ratio (z) = 0.54043 0.22672
#
# Static dielectric constant tensor:
#      x y z
#    x 3.650060 0.000000 0.177990 
#    y 0.000000 3.791280 0.000000 
#    z 0.177990 0.000000 3.429240 
# 
# 
# High freq. dielectric constant tensor:
#      x y z
#    x 1.736870 0.000000 0.019920 
#    y 0.000000 1.767610 0.000000 
#    z 0.019920 0.000000 1.727200 
# 
# From -- ./inp_files/56109.got.cif
#   From: 2010.03.12/outbox.cif.g09.slc.cpg/sg14_29_cif.got.tgz:56109.got - 2010.03.31 13:35:05.
