data_PCOD8123321
_publ_section_title
;
Structure prediction by ZEFSAII (Michael W. Deem and Ramdas Pophale) SiO2 
 PCOD8123321
Probable space group: P 21/C
;
_chemical_formula_sum "Si O2"
_cell_formula_units_Z 32
_cell_length_a 21.549228
_cell_length_b 4.978635
_cell_length_c 22.309212
_cell_angle_alpha 90.000000
_cell_angle_beta 130.448181
_cell_angle_gamma 90.000000
_cell_volume 1821.406616
_symmetry_space_group_name_H-M "P 21/C"
_symmetry_group_IT_number 14
_symmetry_cell_setting 'monoclinic'
loop_
_space_group_symop_operation_xyz
x,y,z
-x,1/2+y,1/2-z
-x,-y,-z
x,1/2-y,1/2+z
loop_
_atom_site_type_symbol
_atom_site_label
_atom_site_fract_x
_atom_site_fract_y
_atom_site_fract_z
Si Si1 0.912194 0.313052 0.524237
Si Si2 0.496168 0.206839 0.208900
Si Si3 0.054485 0.297585 0.274193
Si Si4 0.677208 0.817071 0.392763
Si Si5 0.669065 0.317433 0.305186
Si Si6 0.848292 0.687045 0.050558
Si Si7 0.170133 0.772688 0.654827
Si Si8 0.096391 0.276764 0.665279
O O1 0.897257 0.615270 0.537165
O O2 0.873117 0.276896 0.435300
O O3 0.008167 0.261483 0.579232
O O4 0.871939 0.113566 0.546897
O O5 0.501717 0.393532 0.272235
O O6 0.408146 0.274793 0.123808
O O7 0.576970 0.277529 0.220426
O O8 0.126996 0.231317 0.365382
O O9 0.092735 0.294789 0.232570
O O10 0.020126 0.591151 0.267290
O O11 0.681248 0.614792 0.338965
O O12 0.751339 0.767863 0.484782
O O13 0.683496 0.114656 0.369652
O O14 0.732857 0.267947 0.291775
O O15 0.134392 0.571792 0.682060
O O16 0.155352 0.073190 0.667699
#
# Coordination Sequence:
#
# PCOD8123321 Si02
#       8
#     4   4   4   4   4   4   4   4
#     4  12  22  36  53  76 105 134 171 211 264 304
#     4   8  16  27  47  72 103 133 157 195 249 313
#     4  12  23  41  56  70  98 137 183 223 255 289
#     4  10  17  31  50  78 103 128 169 204 253 308
#     4  10  18  32  49  74 108 136 157 200 259 309
#     4  12  20  35  58  76  99 138 172 217 260 294
#     4  12  22  35  52  77 107 136 170 204 256 320
#     4  12  24  37  51  73 101 142 179 208 250 305
#
# _framework density 17.568840000000002
#
# number of rings (size 3 to 8) (size 9 to 14) (size 15 to 20)
#    0.000    1.000    5.000    3.750    0.000    0.000 
#    0.000    0.000    0.000    0.000    0.000    1.750 
#    0.000    0.000    0.000    0.000    0.000    0.000 
#
# Total GULP energy -396818.673680 kJ/mol
# GULP energy per Si atom -12400.583552 kJ/mol
# Density = 1.752885 g / cm^3
# Si number density = 17.568840 Si / 1000 Ang^3
#
#
#
# Elastic Constant Matrix: (Units=GPa)
#
#
# Indices 1 2 3 4 5 6 
#
# 1 109.0899 7.1663 48.1979 0.0000 25.6115 0.0000
# 2 7.1663 64.2153 4.5302 0.0000 3.8880 0.0000
# 3 48.1979 4.5302 76.8822 0.0000 0.8791 0.0000
# 4 0.0000 0.0000 0.0000 17.2137 0.0000 -0.2842
# 5 25.6115 3.8880 0.8791 0.0000 43.8498 0.0000
# 6 0.0000 0.0000 0.0000 -0.2842 0.0000 28.0942
#
#
#
# Elastic Compliance Matrix: (Units=1/GPa)
#
#
# Indices 1 2 3 4 5 6 
#
# 1 0.015509 -0.000520 -0.009591 0.000000 -0.008820 0.000000
# 2 -0.000520 0.015738 -0.000589 0.000000 -0.001080 0.000000
# 3 -0.009591 -0.000589 0.018994 0.000000 0.005273 0.000000
# 4 0.000000 0.000000 0.000000 0.058103 0.000000 0.000588
# 5 -0.008820 -0.001080 0.005273 0.000000 0.027947 0.000000
# 6 0.000000 0.000000 0.000000 0.000588 0.000000 0.035600
#
#
# Mechanical properties :
#
#
# Convention : Reuss Voigt Hill
#
# Bulk Modulus (GPa) = 34.67371 41.10845 37.89108
# Shear Modulus (GPa) = 24.64202 30.51774 27.57988
#
# Velocity S-wave (km/s) = 3.74919 4.17230 3.96639
# Velocity P-wave (km/s) = 6.20650 6.83082 6.52613
#
# Compressibility (1/GPa) = 0.02884030
#
# Stress axis : x y z
#
# Youngs Moduli (GPa) = 64.47747 63.54214 52.64767
#
# Poissons Ratio (x) = 0.03305 0.50496
# Poissons Ratio (y) = 0.03354 0.03100
# Poissons Ratio (z) = 0.61843 0.03742
#
# Static dielectric constant tensor:
#      x y z
#    x 3.415660 0.000000 0.359740 
#    y 0.000000 3.547780 0.000000 
#    z 0.359740 0.000000 3.157240 
# 
# 
# High freq. dielectric constant tensor:
#      x y z
#    x 1.669150 0.000000 0.031690 
#    y 0.000000 1.706880 0.000000 
#    z 0.031690 0.000000 1.640500 
# 
# From -- ./inp_files/68922.got.cif
#   From: 2010.03.12/outbox.cif.g09.slc.cpg/sg14_35_cif.got.tgz:68922.got - 2010.03.31 13:35:05.
