data_PCOD8123829
_publ_section_title
;
Structure prediction by ZEFSAII (Michael W. Deem and Ramdas Pophale) SiO2 
 PCOD8123829
Probable space group: P 21/C
;
_chemical_formula_sum "Si O2"
_cell_formula_units_Z 32
_cell_length_a 12.896718
_cell_length_b 14.326083
_cell_length_c 18.620743
_cell_angle_alpha 90.000000
_cell_angle_beta 25.525829
_cell_angle_gamma 90.000000
_cell_volume 1482.512102
_symmetry_space_group_name_H-M "P 21/C"
_symmetry_group_IT_number 14
_symmetry_cell_setting 'monoclinic'
loop_
_space_group_symop_operation_xyz
x,y,z
-x,1/2+y,1/2-z
-x,-y,-z
x,1/2-y,1/2+z
loop_
_atom_site_type_symbol
_atom_site_label
_atom_site_fract_x
_atom_site_fract_y
_atom_site_fract_z
Si Si1 0.824086 0.146842 0.228396
Si Si2 0.342609 0.621974 0.486072
Si Si3 0.256922 0.115623 0.154047
Si Si4 0.970606 0.076148 0.699150
Si Si5 0.672102 0.551294 0.607477
Si Si6 0.232492 0.684098 0.071843
Si Si7 0.514624 0.998021 0.622875
Si Si8 0.360630 0.834583 0.200926
O O1 0.817285 0.192584 0.311516
O O2 0.659895 0.054728 0.323524
O O3 0.727351 0.227324 0.233584
O O4 0.094892 0.116979 0.040382
O O5 0.592435 0.595492 0.368470
O O6 0.110806 0.641582 0.684048
O O7 0.288189 0.545435 0.460400
O O8 0.371607 0.730490 0.444833
O O9 0.016325 0.175478 0.317512
O O10 0.161121 0.016247 0.186975
O O11 0.417021 0.164025 0.993407
O O12 0.864762 0.107177 0.688886
O O13 0.253243 0.067848 0.510874
O O14 0.623231 0.515899 0.717355
O O15 0.448130 0.614520 0.719195
O O16 0.408308 0.596114 0.957342
#
# Coordination Sequence:
#
# PCOD8123829 Si02
#       8
#     4   4   4   4   4   4   4   4
#     4  12  25  43  71  95 135 182 223 279 332 387
#     4  11  21  39  72  95 129 173 224 289 328 383
#     4  10  18  38  64 101 127 161 223 284 332 371
#     4  10  19  40  65  98 120 169 225 280 314 383
#     4  12  25  47  65  98 141 180 216 269 348 406
#     4  11  23  41  66 103 128 176 232 283 322 389
#     4  11  28  43  63  96 145 176 221 262 343 408
#     4  11  21  38  73  97 125 169 229 273 326 389
#
# _framework density 21.584983999999999
#
# number of rings (size 3 to 8) (size 9 to 14) (size 15 to 20)
#    0.000    1.000    6.250    2.250    3.500    2.500 
#    0.000    0.000    0.000    0.000    0.000    0.000 
#    0.000    0.000    0.000    0.000    0.000    0.000 
#
# Total GULP energy -396589.491326 kJ/mol
# GULP energy per Si atom -12393.421604 kJ/mol
# Density = 2.153586 g / cm^3
# Si number density = 21.584984 Si / 1000 Ang^3
#
#
#
# Elastic Constant Matrix: (Units=GPa)
#
#
# Indices 1 2 3 4 5 6 
#
# 1 46.0660 24.9598 32.1436 0.0000 -5.7779 0.0000
# 2 24.9598 95.4521 21.8642 0.0000 -5.1638 0.0000
# 3 32.1436 21.8642 72.7467 0.0000 -8.1181 0.0000
# 4 0.0000 0.0000 0.0000 18.3357 0.0000 -8.3053
# 5 -5.7779 -5.1638 -8.1181 0.0000 24.9809 0.0000
# 6 0.0000 0.0000 0.0000 -8.3053 0.0000 21.1270
#
#
#
# Elastic Compliance Matrix: (Units=1/GPa)
#
#
# Indices 1 2 3 4 5 6 
#
# 1 0.034357 -0.005838 -0.013151 0.000000 0.002466 0.000000
# 2 -0.005838 0.012282 -0.001016 0.000000 0.000858 0.000000
# 3 -0.013151 -0.001016 0.020233 0.000000 0.003324 0.000000
# 4 0.000000 0.000000 0.000000 0.066353 0.000000 0.026084
# 5 0.002466 0.000858 0.003324 0.000000 0.041858 0.000000
# 6 0.000000 0.000000 0.000000 0.026084 0.000000 0.057587
#
#
# Mechanical properties :
#
#
# Convention : Reuss Voigt Hill
#
# Bulk Modulus (GPa) = 37.22701 41.35555 39.29128
# Shear Modulus (GPa) = 17.75341 21.90854 19.83097
#
# Velocity S-wave (km/s) = 2.87102 3.18935 3.03436
# Velocity P-wave (km/s) = 5.31738 5.72395 5.52440
#
# Compressibility (1/GPa) = 0.02686222
#
# Stress axis : x y z
#
# Youngs Moduli (GPa) = 29.10614 81.41821 49.42316
#
# Poissons Ratio (x) = 0.47534 0.64996
# Poissons Ratio (y) = 0.16993 0.05021
# Poissons Ratio (z) = 0.38277 0.08272
#
# Static dielectric constant tensor:
#      x y z
#    x 3.788160 0.000000 -0.302910 
#    y 0.000000 4.299070 0.000000 
#    z -0.302910 0.000000 3.706130 
# 
# 
# High freq. dielectric constant tensor:
#      x y z
#    x 1.828170 0.000000 -0.026780 
#    y 0.000000 1.869280 0.000000 
#    z -0.026780 0.000000 1.828880 
# 
# From -- ./inp_files/68629.got.cif
#   From: 2010.03.12/outbox.cif.g09.slc.cpg/sg14_35_cif.got.tgz:68629.got - 2010.03.31 13:35:05.
