data_PCOD8123386
_publ_section_title
;
Structure prediction by ZEFSAII (Michael W. Deem and Ramdas Pophale) SiO2 
 PCOD8123386
Probable space group: P 21/C
;
_chemical_formula_sum "Si O2"
_cell_formula_units_Z 32
_cell_length_a 8.591094
_cell_length_b 11.097909
_cell_length_c 20.442349
_cell_angle_alpha 90.000000
_cell_angle_beta 48.707828
_cell_angle_gamma 90.000000
_cell_volume 1464.418492
_symmetry_space_group_name_H-M "P 21/C"
_symmetry_group_IT_number 14
_symmetry_cell_setting 'monoclinic'
loop_
_space_group_symop_operation_xyz
x,y,z
-x,1/2+y,1/2-z
-x,-y,-z
x,1/2-y,1/2+z
loop_
_atom_site_type_symbol
_atom_site_label
_atom_site_fract_x
_atom_site_fract_y
_atom_site_fract_z
Si Si1 0.112374 0.394055 0.382055
Si Si2 0.851385 0.975303 0.786454
Si Si3 0.037447 0.848551 0.942407
Si Si4 0.731244 0.177529 0.916853
Si Si5 0.842596 0.149247 0.676971
Si Si6 0.508590 0.925238 0.313489
Si Si7 0.471272 0.686774 0.392743
Si Si8 0.724929 0.150972 0.303998
O O1 0.014044 0.529118 0.407198
O O2 0.333280 0.390527 0.287689
O O3 0.129673 0.348502 0.452447
O O4 0.958050 0.305231 0.386112
O O5 0.736662 0.059250 0.870770
O O6 0.942167 0.055596 0.700743
O O7 0.672592 0.885162 0.811489
O O8 0.045342 0.906507 0.763812
O O9 0.992757 0.730990 0.909714
O O10 0.272111 0.852104 0.905751
O O11 0.682062 0.295873 0.887730
O O12 0.560163 0.164881 0.021128
O O13 0.712907 0.072646 0.660334
O O14 0.702931 0.245138 0.755661
O O15 0.516578 0.827413 0.368885
O O16 0.551820 0.052651 0.335201
#
# Coordination Sequence:
#
# PCOD8123386 Si02
#       8
#     4   4   4   4   4   4   4   4
#     4  10  17  34  62  85 117 157 194 249 292 349
#     4  11  21  36  64  89 118 155 202 245 302 349
#     4   9  18  34  58  90 120 149 199 248 294 343
#     4  10  21  38  56  89 123 151 198 254 292 354
#     4  10  22  37  60  91 120 151 198 254 291 360
#     4  11  21  38  62  83 116 162 197 243 298 354
#     4  10  22  35  60  88 118 161 202 241 298 353
#     4  11  23  40  61  89 120 157 199 245 303 362
#
# _framework density 21.851678
#
# number of rings (size 3 to 8) (size 9 to 14) (size 15 to 20)
#    0.000    1.750    2.500    1.875    3.500    0.500 
#    0.000    2.500    2.750    3.000    0.000    0.000 
#    0.000    0.000    0.000    0.000    0.000    0.000 
#
# Total GULP energy -396736.119308 kJ/mol
# GULP energy per Si atom -12398.003728 kJ/mol
# Density = 2.180194 g / cm^3
# Si number density = 21.851678 Si / 1000 Ang^3
#
#
#
# Elastic Constant Matrix: (Units=GPa)
#
#
# Indices 1 2 3 4 5 6 
#
# 1 47.4245 31.4277 12.6949 0.0000 20.5090 0.0000
# 2 31.4277 83.9748 14.9439 0.0000 13.2571 0.0000
# 3 12.6949 14.9439 66.0681 0.0000 19.0866 0.0000
# 4 0.0000 0.0000 0.0000 35.4676 0.0000 6.8855
# 5 20.5090 13.2571 19.0866 0.0000 24.4636 0.0000
# 6 0.0000 0.0000 0.0000 6.8855 0.0000 40.6334
#
#
#
# Elastic Compliance Matrix: (Units=1/GPa)
#
#
# Indices 1 2 3 4 5 6 
#
# 1 0.040891 -0.011035 0.003634 0.000000 -0.031136 0.000000
# 2 -0.011035 0.016071 -0.002158 0.000000 0.002225 0.000000
# 3 0.003634 -0.002158 0.019969 0.000000 -0.017457 0.000000
# 4 0.000000 0.000000 0.000000 0.029154 0.000000 -0.004940
# 5 -0.031136 0.002225 -0.017457 0.000000 0.079394 0.000000
# 6 0.000000 0.000000 0.000000 -0.004940 0.000000 0.025447
#
#
# Mechanical properties :
#
#
# Convention : Reuss Voigt Hill
#
# Bulk Modulus (GPa) = 17.29699 35.06671 26.18185
# Shear Modulus (GPa) = 20.05500 29.33965 24.69732
#
# Velocity S-wave (km/s) = 3.03277 3.66822 3.36553
# Velocity P-wave (km/s) = 4.49404 5.83298 5.20673
#
# Compressibility (1/GPa) = 0.05781352
#
# Stress axis : x y z
#
# Youngs Moduli (GPa) = 24.45522 62.22484 50.07788
#
# Poissons Ratio (x) = 0.68664 -0.18197
# Poissons Ratio (y) = 0.26986 0.10805
# Poissons Ratio (z) = -0.08887 0.13426
#
# Static dielectric constant tensor:
#      x y z
#    x 3.728580 0.000000 0.332040 
#    y 0.000000 3.983090 0.000000 
#    z 0.332040 0.000000 3.919900 
# 
# 
# High freq. dielectric constant tensor:
#      x y z
#    x 1.846240 0.000000 0.028930 
#    y 0.000000 1.856120 0.000000 
#    z 0.028930 0.000000 1.847100 
# 
# From -- ./inp_files/65599.got.cif
#   From: 2010.03.12/outbox.cif.g09.slc.cpg/sg14_33_cif.got.tgz:65599.got - 2010.03.31 13:35:05.
