data_PCOD8123215
_publ_section_title
;
Structure prediction by ZEFSAII (Michael W. Deem and Ramdas Pophale) SiO2 
 PCOD8123215
Probable space group: P 2/C
;
_chemical_formula_sum "Si O2"
_cell_formula_units_Z 32
_cell_length_a 28.762974
_cell_length_b 10.034512
_cell_length_c 22.917638
_cell_angle_alpha 90.000000
_cell_angle_beta 18.278576
_cell_angle_gamma 90.000000
_cell_volume 2074.568507
_symmetry_space_group_name_H-M "P 2/C"
_symmetry_group_IT_number 13
_symmetry_cell_setting 'monoclinic'
loop_
_space_group_symop_operation_xyz
x,y,z
-x,y,1/2-z
-x,-y,-z
x,-y,1/2+z
loop_
_atom_site_type_symbol
_atom_site_label
_atom_site_fract_x
_atom_site_fract_y
_atom_site_fract_z
Si Si1 0.154548 0.408555 0.042499
Si Si2 0.451372 0.091441 0.745671
Si Si3 0.154548 0.908555 0.542499
Si Si4 0.288500 0.601591 0.264457
Si Si5 0.394377 0.898404 0.552674
Si Si6 0.288500 0.101591 0.764456
Si Si7 0.605623 0.398404 0.447326
Si Si8 0.548628 0.591440 0.254329
O O1 0.154644 0.250000 0.047179
O O2 0.000000 0.469326 0.250000
O O3 0.176307 0.448703 0.948695
O O4 0.289668 0.465962 0.920669
O O5 0.500000 0.030692 0.750000
O O6 0.573714 0.051301 0.551281
O O7 0.441731 0.250000 0.760087
O O8 0.289667 0.034038 0.920670
O O9 0.176308 0.948703 0.448695
O O10 0.000000 0.969326 0.750000
O O11 0.244384 0.750000 0.295281
O O12 0.280674 0.500012 0.219329
O O13 0.451836 0.606460 0.096341
O O14 0.548164 0.893540 0.403660
O O15 0.323672 0.750000 0.636674
O O16 0.280674 0.000012 0.719329
O O17 0.573715 0.448699 0.551281
O O18 0.500000 0.530691 0.250000
#
# Coordination Sequence:
#
# PCOD8123215 Si02
#       8
#     4   4   4   4   4   4   4   4
#     4   8  13  21  34  52  71  90 115 147 178 207
#     4   8  13  21  34  52  71  90 115 147 178 207
#     4   8  13  21  34  52  71  90 115 147 178 207
#     4   8  13  21  34  52  71  90 115 147 178 207
#     4   8  13  21  34  52  71  90 115 147 178 207
#     4   8  13  21  34  52  71  90 115 147 178 207
#     4   8  13  21  34  52  71  90 115 147 178 207
#     4   8  13  21  34  52  71  90 115 147 178 207
#
# _framework density 15.424894999999999
#
# number of rings (size 3 to 8) (size 9 to 14) (size 15 to 20)
#    0.000    4.000    0.000    3.000    0.000    0.000 
#    0.000    0.000    0.000    3.000    0.000    0.000 
#    0.000    0.000    0.000    0.000    0.000    0.000 
#
# Total GULP energy -396452.671661 kJ/mol
# GULP energy per Si atom -12389.145989 kJ/mol
# Density = 1.538979 g / cm^3
# Si number density = 15.424895 Si / 1000 Ang^3
#
#
#
# Elastic Constant Matrix: (Units=GPa)
#
#
# Indices 1 2 3 4 5 6 
#
# 1 97.2281 34.8841 55.0995 0.0000 29.7860 0.0000
# 2 34.8841 43.1198 37.4454 0.0000 17.4483 0.0000
# 3 55.0995 37.4454 105.9803 0.0000 29.9814 0.0000
# 4 0.0000 0.0000 0.0000 14.8605 0.0000 9.0264
# 5 29.7860 17.4483 29.9814 0.0000 24.6804 0.0000
# 6 0.0000 0.0000 0.0000 9.0264 0.0000 13.5245
#
#
#
# Elastic Compliance Matrix: (Units=1/GPa)
#
#
# Indices 1 2 3 4 5 6 
#
# 1 0.018919 -0.006595 -0.003604 0.000000 -0.013792 0.000000
# 2 -0.006595 0.039352 -0.007399 0.000000 -0.010873 0.000000
# 3 -0.003604 -0.007399 0.017085 0.000000 -0.011173 0.000000
# 4 0.000000 0.000000 0.000000 0.113171 0.000000 -0.075532
# 5 -0.013792 -0.010873 -0.011173 0.000000 0.078423 0.000000
# 6 0.000000 0.000000 0.000000 -0.075532 0.000000 0.124351
#
#
# Mechanical properties :
#
#
# Convention : Reuss Voigt Hill
#
# Bulk Modulus (GPa) = 24.90109 55.68737 40.29423
# Shear Modulus (GPa) = 11.36662 18.53969 14.95315
#
# Velocity S-wave (km/s) = 2.71754 3.47065 3.11692
# Velocity P-wave (km/s) = 5.10149 7.22781 6.25565
#
# Compressibility (1/GPa) = 0.04015888
#
# Stress axis : x y z
#
# Youngs Moduli (GPa) = 52.85721 25.41186 58.53114
#
# Poissons Ratio (x) = 0.16758 0.21096
# Poissons Ratio (y) = 0.34857 0.43310
# Poissons Ratio (z) = 0.19051 0.18803
#
# Static dielectric constant tensor:
#      x y z
#    x 3.050210 0.000000 0.290330 
#    y 0.000000 2.780530 0.000000 
#    z 0.290330 0.000000 3.092750 
# 
# 
# High freq. dielectric constant tensor:
#      x y z
#    x 1.570900 0.000000 0.032900 
#    y 0.000000 1.540310 0.000000 
#    z 0.032900 0.000000 1.575700 
# 
# From -- ./inp_files/82579.got.cif
#   From: 2010.06.25/outbox.cif.g09.slc.cpg/sg13_42_cif.got.tgz:82579.got - 2010.06.28 04:50:58.
