data_PCOD8123652
_publ_section_title
;
Structure prediction by ZEFSAII (Michael W. Deem and Ramdas Pophale) SiO2 
 PCOD8123652
Probable space group: P 21/C
;
_chemical_formula_sum "Si O2"
_cell_formula_units_Z 28
_cell_length_a 9.503618
_cell_length_b 9.070496
_cell_length_c 27.927158
_cell_angle_alpha 90.000000
_cell_angle_beta 35.101814
_cell_angle_gamma 90.000000
_cell_volume 1384.325199
_symmetry_space_group_name_H-M "P 21/C"
_symmetry_group_IT_number 14
_symmetry_cell_setting 'monoclinic'
loop_
_space_group_symop_operation_xyz
x,y,z
-x,1/2+y,1/2-z
-x,-y,-z
x,1/2-y,1/2+z
loop_
_atom_site_type_symbol
_atom_site_label
_atom_site_fract_x
_atom_site_fract_y
_atom_site_fract_z
Si Si1 0.996890 0.639028 0.897017
Si Si2 0.290729 0.519076 0.424457
Si Si3 0.722903 0.915072 0.628014
Si Si4 0.442955 0.211850 0.419054
Si Si5 0.716211 0.079611 0.179571
Si Si6 0.266664 0.910985 0.583237
Si Si7 0.922822 0.174579 0.935217
O O1 0.080902 0.545265 0.920336
O O2 0.196385 0.759509 0.827289
O O3 0.954720 0.529215 0.862982
O O4 0.752288 0.719540 0.983427
O O5 0.451124 0.374335 0.393225
O O6 0.382053 0.583088 0.348210
O O7 0.299661 0.634975 0.465957
O O8 0.000000 0.500000 0.500000
O O9 0.617191 0.910905 0.604037
O O10 0.511590 0.958878 0.724137
O O11 0.852764 0.758843 0.601595
O O12 0.695531 0.151764 0.373267
O O13 0.944130 0.968992 0.124067
O O14 0.210987 0.766803 0.567909
O O15 0.500000 0.000000 0.500000
#
# Coordination Sequence:
#
# PCOD8123652 Si02
#       7
#     4   4   4   4   4   4   4
#     4  10  20  36  57  84 117 145 189 236 282 339
#     4  10  18  34  60  86 110 142 191 239 278 331
#     4  11  21  33  60  86 114 147 188 236 287 335
#     4  11  19  38  58  84 113 151 192 233 281 343
#     4  11  20  35  58  89 113 148 189 238 289 335
#     4   9  22  37  57  84 115 148 190 238 283 337
#     4  10  19  39  59  82 116 149 188 237 286 336
#
# _framework density 20.226462999999999
#
# number of rings (size 3 to 8) (size 9 to 14) (size 15 to 20)
#    0.000    1.714    5.714    1.286    0.000    2.857 
#    0.000    1.429    0.000    0.000    0.000    0.000 
#    0.000    0.000    0.000    0.000    0.000    0.000 
#
# Total GULP energy -346937.997415 kJ/mol
# GULP energy per Si atom -12390.642765 kJ/mol
# Density = 2.018043 g / cm^3
# Si number density = 20.226463 Si / 1000 Ang^3
#
#
#
# Elastic Constant Matrix: (Units=GPa)
#
#
# Indices 1 2 3 4 5 6 
#
# 1 145.8304 57.0018 10.2082 0.0000 6.7447 0.0000
# 2 57.0018 111.4504 7.1527 0.0000 -6.0866 0.0000
# 3 10.2082 7.1527 55.6894 0.0000 9.2245 0.0000
# 4 0.0000 0.0000 0.0000 18.5434 0.0000 -4.4133
# 5 6.7447 -6.0866 9.2245 0.0000 11.6514 0.0000
# 6 0.0000 0.0000 0.0000 -4.4133 0.0000 33.2564
#
#
#
# Elastic Compliance Matrix: (Units=1/GPa)
#
#
# Indices 1 2 3 4 5 6 
#
# 1 0.009257 -0.005215 0.000359 0.000000 -0.008367 0.000000
# 2 -0.005215 0.012433 -0.002552 0.000000 0.011534 0.000000
# 3 0.000359 -0.002552 0.021262 0.000000 -0.018374 0.000000
# 4 0.000000 0.000000 0.000000 0.055686 0.000000 0.007390
# 5 -0.008367 0.011534 -0.018374 0.000000 0.111242 0.000000
# 6 0.000000 0.000000 0.000000 0.007390 0.000000 0.031050
#
#
# Mechanical properties :
#
#
# Convention : Reuss Voigt Hill
#
# Bulk Modulus (GPa) = 35.53908 51.29953 43.41931
# Shear Modulus (GPa) = 18.85897 28.59740 23.72819
#
# Velocity S-wave (km/s) = 3.05682 3.76421 3.42881
# Velocity P-wave (km/s) = 5.48339 6.65658 6.09826
#
# Compressibility (1/GPa) = 0.02813804
#
# Stress axis : x y z
#
# Youngs Moduli (GPa) = 108.02090 80.42893 47.03179
#
# Poissons Ratio (x) = 0.41942 -0.01687
# Poissons Ratio (y) = 0.56330 0.12000
# Poissons Ratio (z) = -0.03875 0.20522
#
# Static dielectric constant tensor:
#      x y z
#    x 4.051770 0.000000 0.118430 
#    y 0.000000 3.875320 0.000000 
#    z 0.118430 0.000000 3.432140 
# 
# 
# High freq. dielectric constant tensor:
#      x y z
#    x 1.781600 0.000000 0.005630 
#    y 0.000000 1.801260 0.000000 
#    z 0.005630 0.000000 1.750970 
# 
# From -- ./inp_files/54855.got.cif
#   From: 2010.03.12/outbox.cif.g09.slc.cpg/sg14_28_cif.got.tgz:54855.got - 2010.03.31 13:35:05.
