data_PCOD8123722
_publ_section_title
;
Structure prediction by ZEFSAII (Michael W. Deem and Ramdas Pophale) SiO2 
 PCOD8123722
Probable space group: P 21/C
;
_chemical_formula_sum "Si O2"
_cell_formula_units_Z 28
_cell_length_a 14.340297
_cell_length_b 17.836905
_cell_length_c 12.565216
_cell_angle_alpha 90.000000
_cell_angle_beta 150.742937
_cell_angle_gamma 90.000000
_cell_volume 1570.780602
_symmetry_space_group_name_H-M "P 21/C"
_symmetry_group_IT_number 14
_symmetry_cell_setting 'monoclinic'
loop_
_space_group_symop_operation_xyz
x,y,z
-x,1/2+y,1/2-z
-x,-y,-z
x,1/2-y,1/2+z
loop_
_atom_site_type_symbol
_atom_site_label
_atom_site_fract_x
_atom_site_fract_y
_atom_site_fract_z
Si Si1 0.071371 0.225096 0.515072
Si Si2 0.806094 0.281170 0.942121
Si Si3 0.947613 0.479721 0.568446
Si Si4 0.598298 0.777809 0.516398
Si Si5 0.900796 0.371583 0.238600
Si Si6 0.917462 0.836983 0.695207
Si Si7 0.608638 0.076436 0.622656
O O1 0.079884 0.163617 0.430045
O O2 0.916029 0.194783 0.444366
O O3 0.008567 0.306076 0.408584
O O4 0.280567 0.233005 0.774604
O O5 0.826474 0.345490 0.050245
O O6 0.893176 0.202972 0.070258
O O7 0.582965 0.271679 0.695802
O O8 0.743280 0.438403 0.359914
O O9 0.000000 0.500000 0.500000
O O10 0.953152 0.558841 0.636841
O O11 0.092171 0.421610 0.769604
O O12 0.731494 0.790548 0.546322
O O13 0.539672 0.858061 0.503414
O O14 0.724042 0.401533 0.131490
O O15 0.500000 0.000000 0.500000
#
# Coordination Sequence:
#
# PCOD8123722 Si02
#       7
#     4   4   4   4   4   4   4
#     4  10  21  37  54  83 115 148 186 230 275 339
#     4  10  20  37  55  81 111 149 191 225 277 334
#     4  10  18  36  54  80 113 143 177 235 282 326
#     4  11  19  33  55  85 109 142 187 230 276 330
#     4  10  20  35  57  79 117 145 183 234 281 329
#     4  10  21  35  57  81 114 148 183 230 286 331
#     4  11  19  31  56  87 112 137 179 232 288 331
#
# _framework density 17.825531999999999
#
# number of rings (size 3 to 8) (size 9 to 14) (size 15 to 20)
#    0.000    1.714    2.857    5.143    2.000    0.000 
#    2.571    0.714    0.000    0.857    0.000    0.000 
#    0.000    0.000    0.000    0.000    0.000    0.000 
#
# Total GULP energy -347108.764114 kJ/mol
# GULP energy per Si atom -12396.741576 kJ/mol
# Density = 1.778496 g / cm^3
# Si number density = 17.825532 Si / 1000 Ang^3
#
#
#
# Elastic Constant Matrix: (Units=GPa)
#
#
# Indices 1 2 3 4 5 6 
#
# 1 95.0121 43.8261 64.6198 0.0000 -13.9845 0.0000
# 2 43.8261 93.3798 45.6300 0.0000 -13.7934 0.0000
# 3 64.6198 45.6300 125.9038 0.0000 -0.9460 0.0000
# 4 0.0000 0.0000 0.0000 30.3350 0.0000 -5.8818
# 5 -13.9845 -13.7934 -0.9460 0.0000 29.0561 0.0000
# 6 0.0000 0.0000 0.0000 -5.8818 0.0000 28.5785
#
#
#
# Elastic Compliance Matrix: (Units=1/GPa)
#
#
# Indices 1 2 3 4 5 6 
#
# 1 0.018963 -0.003801 -0.008302 0.000000 0.007052 0.000000
# 2 -0.003801 0.014923 -0.003419 0.000000 0.005143 0.000000
# 3 -0.008302 -0.003419 0.013404 0.000000 -0.005182 0.000000
# 4 0.000000 0.000000 0.000000 0.034335 0.000000 0.007067
# 5 0.007052 0.005143 -0.005182 0.000000 0.040083 0.000000
# 6 0.000000 0.000000 0.000000 0.007067 0.000000 0.036446
#
#
# Mechanical properties :
#
#
# Convention : Reuss Voigt Hill
#
# Bulk Modulus (GPa) = 61.55561 69.16084 65.35823
# Shear Modulus (GPa) = 25.69198 28.27523 26.98360
#
# Velocity S-wave (km/s) = 3.80057 3.98706 3.89493
# Velocity P-wave (km/s) = 7.33937 7.75103 7.54801
#
# Compressibility (1/GPa) = 0.01624547
#
# Stress axis : x y z
#
# Youngs Moduli (GPa) = 52.73529 67.00855 74.60696
#
# Poissons Ratio (x) = 0.25473 0.61937
# Poissons Ratio (y) = 0.20047 0.25507
# Poissons Ratio (z) = 0.43780 0.22909
#
# Static dielectric constant tensor:
#      x y z
#    x 3.339140 0.000000 -0.010090 
#    y 0.000000 3.403270 0.000000 
#    z -0.010090 0.000000 3.616190 
# 
# 
# High freq. dielectric constant tensor:
#      x y z
#    x 1.676230 0.000000 0.006060 
#    y 0.000000 1.677810 0.000000 
#    z 0.006060 0.000000 1.695990 
# 
# From -- ./inp_files/32899.got.cif
#   From: 2010.03.12/outbox.cif.g09.slc.cpg/sg14_17_cif.got.tgz:32899.got - 2010.03.31 13:35:05.
