data_PCOD8123654
_publ_section_title
;
Structure prediction by ZEFSAII (Michael W. Deem and Ramdas Pophale) SiO2 
 PCOD8123654
Probable space group: P 21/C
;
_chemical_formula_sum "Si O2"
_cell_formula_units_Z 32
_cell_length_a 14.947617
_cell_length_b 13.200093
_cell_length_c 13.174021
_cell_angle_alpha 90.000000
_cell_angle_beta 37.446433
_cell_angle_gamma 90.000000
_cell_volume 1580.464588
_symmetry_space_group_name_H-M "P 21/C"
_symmetry_group_IT_number 14
_symmetry_cell_setting 'monoclinic'
loop_
_space_group_symop_operation_xyz
x,y,z
-x,1/2+y,1/2-z
-x,-y,-z
x,1/2-y,1/2+z
loop_
_atom_site_type_symbol
_atom_site_label
_atom_site_fract_x
_atom_site_fract_y
_atom_site_fract_z
Si Si1 0.149834 0.098914 0.293529
Si Si2 0.781587 0.225714 0.371749
Si Si3 0.826571 0.115341 0.662690
Si Si4 0.464404 0.882614 0.531087
Si Si5 0.772269 0.694510 0.697338
Si Si6 0.072515 0.109908 0.142240
Si Si7 0.011986 0.578012 0.580607
Si Si8 0.706180 0.214106 0.151588
O O1 0.219800 0.184913 0.300677
O O2 0.171342 0.119659 0.153960
O O3 0.976556 0.094733 0.468586
O O4 0.232415 0.994325 0.248628
O O5 0.847269 0.312675 0.241271
O O6 0.679432 0.145150 0.405306
O O7 0.690546 0.279629 0.544535
O O8 0.920001 0.168574 0.295251
O O9 0.711979 0.171169 0.690767
O O10 0.601427 0.828199 0.357444
O O11 0.433949 0.844429 0.674002
O O12 0.500000 0.000000 0.500000
O O13 0.834931 0.655677 0.534085
O O14 0.862196 0.644267 0.711122
O O15 0.033592 0.990049 0.161685
O O16 0.000000 0.500000 0.500000
O O17 0.146599 0.655088 0.445396
#
# Coordination Sequence:
#
# PCOD8123654 Si02
#       8
#     4   4   4   4   4   4   4   4
#     4  11  21  35  59  90 118 150 195 249 299 353
#     4  11  21  40  61  85 119 163 200 241 305 363
#     4  10  20  37  57  87 120 151 188 247 303 353
#     4  11  24  41  62  86 123 163 203 247 297 362
#     4  11  21  39  57  89 123 151 198 260 291 346
#     4  11  20  35  63  90 115 152 202 248 303 356
#     4  10  18  34  60  88 115 149 196 253 298 343
#     4  11  21  41  61  88 120 165 199 246 306 363
#
# _framework density 20.247212000000001
#
# number of rings (size 3 to 8) (size 9 to 14) (size 15 to 20)
#    0.000    1.250    3.750    5.250    0.000    1.000 
#    0.000    3.750    0.000    0.000    0.000    0.000 
#    0.000    0.000    0.000    0.000    0.000    0.000 
#
# Total GULP energy -396730.941568 kJ/mol
# GULP energy per Si atom -12397.841924 kJ/mol
# Density = 2.020113 g / cm^3
# Si number density = 20.247212 Si / 1000 Ang^3
#
#
#
# Elastic Constant Matrix: (Units=GPa)
#
#
# Indices 1 2 3 4 5 6 
#
# 1 44.8764 19.7842 21.5841 0.0000 19.2864 0.0000
# 2 19.7842 130.3852 22.6425 0.0000 6.4231 0.0000
# 3 21.5841 22.6425 91.9148 0.0000 13.7858 0.0000
# 4 0.0000 0.0000 0.0000 26.7778 0.0000 -0.0349
# 5 19.2864 6.4231 13.7858 0.0000 34.5434 0.0000
# 6 0.0000 0.0000 0.0000 -0.0349 0.0000 22.6225
#
#
#
# Elastic Compliance Matrix: (Units=1/GPa)
#
#
# Indices 1 2 3 4 5 6 
#
# 1 0.032760 -0.003412 -0.004472 0.000000 -0.015871 0.000000
# 2 -0.003412 0.008386 -0.001400 0.000000 0.000905 0.000000
# 3 -0.004472 -0.001400 0.012616 0.000000 -0.002278 0.000000
# 4 0.000000 0.000000 0.000000 0.037344 0.000000 0.000058
# 5 -0.015871 0.000905 -0.002278 0.000000 0.038551 0.000000
# 6 0.000000 0.000000 0.000000 0.000058 0.000000 0.044204
#
#
# Mechanical properties :
#
#
# Convention : Reuss Voigt Hill
#
# Bulk Modulus (GPa) = 28.41462 43.91088 36.16275
# Shear Modulus (GPa) = 24.49044 30.33311 27.41177
#
# Velocity S-wave (km/s) = 3.48166 3.87478 3.68347
# Velocity P-wave (km/s) = 5.49790 6.46166 5.99916
#
# Compressibility (1/GPa) = 0.03519315
#
# Stress axis : x y z
#
# Youngs Moduli (GPa) = 30.52539 119.24702 79.26241
#
# Poissons Ratio (x) = 0.40692 0.35444
# Poissons Ratio (y) = 0.10417 0.11098
# Poissons Ratio (z) = 0.13650 0.16697
#
# Static dielectric constant tensor:
#      x y z
#    x 3.476760 0.000000 0.213390 
#    y 0.000000 3.978240 0.000000 
#    z 0.213390 0.000000 3.617060 
# 
# 
# High freq. dielectric constant tensor:
#      x y z
#    x 1.765110 0.000000 0.020430 
#    y 0.000000 1.807990 0.000000 
#    z 0.020430 0.000000 1.780020 
# 
# From -- ./inp_files/48989.got.cif
#   From: 2010.03.12/outbox.cif.g09.slc.cpg/sg14_25_cif.got.tgz:48989.got - 2010.03.31 13:35:05.
