data_PCOD8123073
_publ_section_title
;
Structure prediction by ZEFSAII (Michael W. Deem and Ramdas Pophale) SiO2 
 PCOD8123073
Probable space group: P 2/C
;
_chemical_formula_sum "Si O2"
_cell_formula_units_Z 30
_cell_length_a 21.958849
_cell_length_b 5.168104
_cell_length_c 25.323077
_cell_angle_alpha 90.000000
_cell_angle_beta 27.316742
_cell_angle_gamma 90.000000
_cell_volume 1318.815518
_symmetry_space_group_name_H-M "P 2/C"
_symmetry_group_IT_number 13
_symmetry_cell_setting 'monoclinic'
loop_
_space_group_symop_operation_xyz
x,y,z
-x,y,1/2-z
-x,-y,-z
x,-y,1/2+z
loop_
_atom_site_type_symbol
_atom_site_label
_atom_site_fract_x
_atom_site_fract_y
_atom_site_fract_z
Si Si1 0.290141 0.116599 0.949471
Si Si2 0.415749 0.408899 0.516173
Si Si3 0.665226 0.156650 0.189267
Si Si4 0.542586 0.080797 0.583288
Si Si5 0.500000 0.489736 0.250000
Si Si6 0.117088 0.675244 0.268808
Si Si7 0.993855 0.827061 0.694390
Si Si8 0.961486 0.250770 0.996650
O O1 0.332195 0.015169 0.975041
O O2 0.376181 0.357944 0.867280
O O3 0.309816 0.896529 0.891519
O O4 0.139707 0.196769 0.059553
O O5 0.500000 0.500000 0.500000
O O6 0.422218 0.642935 0.469269
O O7 0.275113 0.324709 0.648885
O O8 0.475700 0.148261 0.444932
O O9 0.547028 0.359993 0.269693
O O10 0.597690 0.922202 0.275352
O O11 0.802452 0.254872 0.109251
O O12 0.087375 0.383024 0.275357
O O13 0.048501 0.750254 0.376688
O O14 0.068499 0.887508 0.263835
O O15 0.000000 0.747911 0.750000
O O16 0.000000 0.500000 0.000000
O O17 0.000000 0.000000 0.000000
#
# Coordination Sequence:
#
# PCOD8123073 Si02
#       8
#     4   4   4   4   2   4   4   4
#     4  12  24  43  72 113 150 185 235 307 391 450
#     4  12  29  49  73 101 144 198 253 307 357 439
#     4  12  26  45  74 115 150 194 246 319 392 456
#     4  12  26  46  74 109 143 193 243 306 377 451
#     4  12  22  44  74 112 160 184 234 312 396 456
#     4  12  26  51  70 107 146 188 251 306 361 440
#     4  12  26  45  76 106 148 194 234 298 371 459
#     4  12  30  49  78 106 148 204 257 314 378 460
#
# _framework density 22.747684
#
# number of rings (size 3 to 8) (size 9 to 14) (size 15 to 20)
#    0.000    0.000    4.000    5.600    5.600    0.000 
#    0.000    0.000    0.000    0.000    0.000    0.000 
#    0.000    0.000    0.000    0.000    0.000    0.000 
#
# Total GULP energy -371831.258604 kJ/mol
# GULP energy per Si atom -12394.375287 kJ/mol
# Density = 2.269591 g / cm^3
# Si number density = 22.747684 Si / 1000 Ang^3
#
#
#
# Elastic Constant Matrix: (Units=GPa)
#
#
# Indices 1 2 3 4 5 6 
#
# 1 119.4375 27.0813 34.7887 0.0000 -10.3523 0.0000
# 2 27.0813 107.5205 23.8760 0.0000 -1.6273 0.0000
# 3 34.7887 23.8760 122.6621 0.0000 -14.9332 0.0000
# 4 0.0000 0.0000 0.0000 -69.0972 0.0000 68.7473
# 5 -10.3523 -1.6273 -14.9332 0.0000 47.4675 0.0000
# 6 0.0000 0.0000 0.0000 68.7473 0.0000 -5.8603
#
#
#
# Elastic Compliance Matrix: (Units=1/GPa)
#
#
# Indices 1 2 3 4 5 6 
#
# 1 0.009554 -0.001903 -0.002177 0.000000 0.001334 0.000000
# 2 -0.001903 0.010103 -0.001492 0.000000 -0.000538 0.000000
# 3 -0.002177 -0.001492 0.009355 0.000000 0.002417 0.000000
# 4 0.000000 0.000000 0.000000 0.001356 0.000000 0.015909
# 5 0.001334 -0.000538 0.002417 0.000000 0.022100 0.000000
# 6 0.000000 0.000000 0.000000 0.015909 0.000000 0.015990
#
#
# Mechanical properties :
#
#
# Convention : Reuss Voigt Hill
#
# Bulk Modulus (GPa) = 55.96798 57.90133 56.93465
# Shear Modulus (GPa) = 58.44053 12.09361 35.26707
#
# Velocity S-wave (km/s) = 5.07410 2.30824 3.94173
# Velocity P-wave (km/s) = 7.68023 5.71077 6.76753
#
# Compressibility (1/GPa) = 0.01786736
#
# Stress axis : x y z
#
# Youngs Moduli (GPa) = 104.67216 98.97998 106.89911
#
# Poissons Ratio (x) = 0.18833 0.23270
# Poissons Ratio (y) = 0.19916 0.15954
# Poissons Ratio (z) = 0.22785 0.14772
#
# Static dielectric constant tensor:
#      x y z
#    x 4.066260 0.000000 0.541150 
#    y 0.000000 4.659840 0.000000 
#    z 0.541150 0.000000 3.766640 
# 
# 
# High freq. dielectric constant tensor:
#      x y z
#    x 1.905420 0.000000 0.001840 
#    y 0.000000 1.905130 0.000000 
#    z 0.001840 0.000000 1.916590 
# 
# From -- ./inp_files/88348.got.cif
#   From: 2010.06.25/outbox.cif.g09.slc.cpg/sg13_45_cif.got.tgz:88348.got - 2010.06.28 04:50:58.
