data_PCOD8123341
_publ_section_title
;
Structure prediction by ZEFSAII (Michael W. Deem and Ramdas Pophale) SiO2 
 PCOD8123341
Probable space group: P 21/C
;
_chemical_formula_sum "Si O2"
_cell_formula_units_Z 32
_cell_length_a 26.517440
_cell_length_b 12.191860
_cell_length_c 14.668946
_cell_angle_alpha 90.000000
_cell_angle_beta 160.118695
_cell_angle_gamma 90.000000
_cell_volume 1612.769399
_symmetry_space_group_name_H-M "P 21/C"
_symmetry_group_IT_number 14
_symmetry_cell_setting 'monoclinic'
loop_
_space_group_symop_operation_xyz
x,y,z
-x,1/2+y,1/2-z
-x,-y,-z
x,1/2-y,1/2+z
loop_
_atom_site_type_symbol
_atom_site_label
_atom_site_fract_x
_atom_site_fract_y
_atom_site_fract_z
Si Si1 0.795115 0.058097 0.359965
Si Si2 0.346486 0.486284 0.554606
Si Si3 0.353900 0.992367 0.350426
Si Si4 0.149119 0.837004 0.819951
Si Si5 0.949148 0.077601 0.151884
Si Si6 0.326865 0.178397 0.162739
Si Si7 0.004243 0.725794 0.896036
Si Si8 0.372939 0.757205 0.817565
O O1 0.922909 0.117015 0.519749
O O2 0.688807 0.142343 0.229819
O O3 0.688722 0.988726 0.112280
O O4 0.888663 0.977903 0.585268
O O5 0.226795 0.558978 0.405695
O O6 0.327865 0.361047 0.558754
O O7 0.518036 0.525648 0.859999
O O8 0.355440 0.861743 0.335000
O O9 0.377262 0.066737 0.300601
O O10 0.183462 0.010635 0.094230
O O11 0.062066 0.873168 0.763796
O O12 0.036945 0.775182 0.560221
O O13 0.278535 0.748397 0.063718
O O14 0.927920 0.169834 0.039067
O O15 0.449453 0.272755 0.393250
O O16 0.169546 0.226289 0.922352
#
# Coordination Sequence:
#
# PCOD8123341 Si02
#       8
#     4   4   4   4   4   4   4   4
#     4  11  21  35  57  86 119 149 188 242 292 338
#     4  10  18  32  57  89 111 143 189 243 296 337
#     4  10  17  32  57  84 112 140 185 245 292 332
#     4  10  18  35  57  85 117 144 191 244 283 340
#     4  11  21  37  56  87 117 150 194 243 283 345
#     4  11  18  35  58  88 111 149 192 242 292 344
#     4  11  22  34  59  87 113 154 194 234 294 342
#     4  10  19  36  56  82 118 149 183 242 293 338
#
# _framework density 19.841646999999998
#
# number of rings (size 3 to 8) (size 9 to 14) (size 15 to 20)
#    0.000    1.500    7.500    1.500    0.000    2.000 
#    0.000    7.500    0.000    0.000    0.000    0.000 
#    0.000    0.000    0.000    0.000    0.000    0.000 
#
# Total GULP energy -396481.578439 kJ/mol
# GULP energy per Si atom -12390.049326 kJ/mol
# Density = 1.979649 g / cm^3
# Si number density = 19.841647 Si / 1000 Ang^3
#
#
#
# Elastic Constant Matrix: (Units=GPa)
#
#
# Indices 1 2 3 4 5 6 
#
# 1 39.1916 23.1183 30.7840 0.0000 5.8256 0.0000
# 2 23.1183 45.7293 28.3519 0.0000 -1.2966 0.0000
# 3 30.7840 28.3519 144.8433 0.0000 4.2932 0.0000
# 4 0.0000 0.0000 0.0000 27.1577 0.0000 10.1453
# 5 5.8256 -1.2966 4.2932 0.0000 17.7940 0.0000
# 6 0.0000 0.0000 0.0000 10.1453 0.0000 21.5250
#
#
#
# Elastic Compliance Matrix: (Units=1/GPa)
#
#
# Indices 1 2 3 4 5 6 
#
# 1 0.042650 -0.018896 -0.004947 0.000000 -0.014147 0.000000
# 2 -0.018896 0.033421 -0.002801 0.000000 0.009298 0.000000
# 3 -0.004947 -0.002801 0.008523 0.000000 -0.000641 0.000000
# 4 0.000000 0.000000 0.000000 0.044691 0.000000 -0.021064
# 5 -0.014147 0.009298 -0.000641 0.000000 0.061662 0.000000
# 6 0.000000 0.000000 0.000000 -0.021064 0.000000 0.056386
#
#
# Mechanical properties :
#
#
# Convention : Reuss Voigt Hill
#
# Bulk Modulus (GPa) = 31.94266 43.80806 37.87536
# Shear Modulus (GPa) = 16.07425 23.12934 19.60179
#
# Velocity S-wave (km/s) = 2.84936 3.41793 3.14652
# Velocity P-wave (km/s) = 5.19219 6.14029 5.68604
#
# Compressibility (1/GPa) = 0.03130609
#
# Stress axis : x y z
#
# Youngs Moduli (GPa) = 23.44649 29.92112 117.33395
#
# Poissons Ratio (x) = 0.56539 0.58040
# Poissons Ratio (y) = 0.44305 0.32871
# Poissons Ratio (z) = 0.11598 0.08382
#
# Static dielectric constant tensor:
#      x y z
#    x 3.288700 0.000000 -0.027070 
#    y 0.000000 3.215920 0.000000 
#    z -0.027070 0.000000 4.379800 
# 
# 
# High freq. dielectric constant tensor:
#      x y z
#    x 1.730040 0.000000 0.000980 
#    y 0.000000 1.732760 0.000000 
#    z 0.000980 0.000000 1.807210 
# 
# From -- ./inp_files/52054.got.cif
#   From: 2010.03.12/outbox.cif.g09.slc.cpg/sg14_27_cif.got.tgz:52054.got - 2010.03.31 13:35:05.
