data_PCOD8123034
_publ_section_title
;
Structure prediction by ZEFSAII (Michael W. Deem and Ramdas Pophale) SiO2 
 PCOD8123034
Probable space group: P 2/C
;
_chemical_formula_sum "Si O2"
_cell_formula_units_Z 26
_cell_length_a 14.534388
_cell_length_b 13.985574
_cell_length_c 9.696223
_cell_angle_alpha 90.000000
_cell_angle_beta 37.133240
_cell_angle_gamma 90.000000
_cell_volume 1189.815624
_symmetry_space_group_name_H-M "P 2/C"
_symmetry_group_IT_number 13
_symmetry_cell_setting 'monoclinic'
loop_
_space_group_symop_operation_xyz
x,y,z
-x,y,1/2-z
-x,-y,-z
x,-y,1/2+z
loop_
_atom_site_type_symbol
_atom_site_label
_atom_site_fract_x
_atom_site_fract_y
_atom_site_fract_z
Si Si1 0.294885 0.715288 0.214350
Si Si2 0.634833 0.782751 0.775642
Si Si3 0.500000 0.918457 0.750000
Si Si4 0.605481 0.461210 0.750390
Si Si5 0.703864 0.952879 0.871858
Si Si6 0.173874 0.632135 0.078931
Si Si7 0.165939 0.910167 0.493661
O O1 0.293107 0.629457 0.326596
O O2 0.195631 0.681196 0.201885
O O3 0.224799 0.810816 0.361674
O O4 0.471346 0.731729 0.966451
O O5 0.640307 0.853097 0.636285
O O6 0.665858 0.844924 0.874489
O O7 0.768284 0.705543 0.607130
O O8 0.554418 0.978813 0.551171
O O9 0.500000 0.428914 0.750000
O O10 0.724829 0.537919 0.550480
O O11 0.500000 0.500000 0.000000
O O12 0.737768 0.948349 0.993472
O O13 0.831314 0.005376 0.625390
O O14 0.000000 0.607529 0.250000
O O15 0.000000 0.891358 0.750000
#
# Coordination Sequence:
#
# PCOD8123034 Si02
#       7
#     4   4   2   4   4   4   4
#     4  12  26  48  75 105 148 189 251 304 358 443
#     4  12  22  42  73 100 140 189 246 294 357 430
#     4  12  20  44  70 100 134 188 252 302 346 422
#     4  12  25  50  80 108 143 191 242 300 369 443
#     4  12  25  43  70 106 144 197 249 304 365 434
#     4  12  27  46  76 110 146 194 237 302 380 439
#     4  12  28  46  68 106 154 197 243 306 374 435
#
# _framework density 21.852125999999998
#
# number of rings (size 3 to 8) (size 9 to 14) (size 15 to 20)
#    0.000    0.000    7.692    1.846    4.308    1.846 
#    0.000    0.000    0.000    0.000    0.000    0.000 
#    0.000    0.000    0.000    0.000    0.000    0.000 
#
# Total GULP energy -322354.660556 kJ/mol
# GULP energy per Si atom -12398.256175 kJ/mol
# Density = 2.180239 g / cm^3
# Si number density = 21.852126 Si / 1000 Ang^3
#
#
#
# Elastic Constant Matrix: (Units=GPa)
#
#
# Indices 1 2 3 4 5 6 
#
# 1 99.3881 41.0815 39.4462 0.0000 9.7065 0.0000
# 2 41.0815 120.8670 30.1894 0.0000 6.5107 0.0000
# 3 39.4462 30.1894 92.6933 0.0000 -0.7640 0.0000
# 4 0.0000 0.0000 0.0000 37.1462 0.0000 11.7328
# 5 9.7065 6.5107 -0.7640 0.0000 39.6355 0.0000
# 6 0.0000 0.0000 0.0000 11.7328 0.0000 34.2642
#
#
#
# Elastic Compliance Matrix: (Units=1/GPa)
#
#
# Indices 1 2 3 4 5 6 
#
# 1 0.013576 -0.003277 -0.004734 0.000000 -0.002878 0.000000
# 2 -0.003277 0.009892 -0.001834 0.000000 -0.000858 0.000000
# 3 -0.004734 -0.001834 0.013414 0.000000 0.001719 0.000000
# 4 0.000000 0.000000 0.000000 0.030185 0.000000 -0.010336
# 5 -0.002878 -0.000858 0.001719 0.000000 0.026109 0.000000
# 6 0.000000 0.000000 0.000000 -0.010336 0.000000 0.032724
#
#
# Mechanical properties :
#
#
# Convention : Reuss Voigt Hill
#
# Bulk Modulus (GPa) = 58.16619 59.37585 58.77102
# Shear Modulus (GPa) = 33.04242 35.69127 34.36685
#
# Velocity S-wave (km/s) = 3.89278 4.04581 3.97003
# Velocity P-wave (km/s) = 6.84696 7.00395 6.92590
#
# Compressibility (1/GPa) = 0.01719212
#
# Stress axis : x y z
#
# Youngs Moduli (GPa) = 73.65998 101.09498 74.54734
#
# Poissons Ratio (x) = 0.33128 0.35289
# Poissons Ratio (y) = 0.24138 0.13673
# Poissons Ratio (z) = 0.34869 0.18543
#
# Static dielectric constant tensor:
#      x y z
#    x 4.036690 0.000000 0.135250 
#    y 0.000000 4.289160 0.000000 
#    z 0.135250 0.000000 3.922750 
# 
# 
# High freq. dielectric constant tensor:
#      x y z
#    x 1.858970 0.000000 0.015680 
#    y 0.000000 1.878450 0.000000 
#    z 0.015680 0.000000 1.852720 
# 
# From -- ./inp_files/19844.got.cif
#   From: 2010.06.25/outbox.cif.g09.slc.cpg/sg13_10_cif.got.tgz:19844.got - 2010.06.28 04:50:58.
