data_PCOD8123087
_publ_section_title
;
Structure prediction by ZEFSAII (Michael W. Deem and Ramdas Pophale) SiO2 
 PCOD8123087
Probable space group: P 2/C
;
_chemical_formula_sum "Si O2"
_cell_formula_units_Z 20
_cell_length_a 8.934531
_cell_length_b 4.849628
_cell_length_c 25.105075
_cell_angle_alpha 90.000000
_cell_angle_beta 50.954367
_cell_angle_gamma 90.000000
_cell_volume 844.819594
_symmetry_space_group_name_H-M "P 2/C"
_symmetry_group_IT_number 13
_symmetry_cell_setting 'monoclinic'
loop_
_space_group_symop_operation_xyz
x,y,z
-x,y,1/2-z
-x,-y,-z
x,-y,1/2+z
loop_
_atom_site_type_symbol
_atom_site_label
_atom_site_fract_x
_atom_site_fract_y
_atom_site_fract_z
Si Si1 0.877795 0.249506 0.548321
Si Si2 0.937968 0.419264 0.651745
Si Si3 0.850506 0.093021 0.238278
Si Si4 0.346710 0.384524 0.075186
Si Si5 0.442743 0.133730 0.618827
O O1 0.850532 0.292393 0.617544
O O2 0.667684 0.200048 0.571541
O O3 0.000000 0.500000 0.500000
O O4 0.000000 0.000000 0.500000
O O5 0.802170 0.653675 0.709145
O O6 0.137060 0.583913 0.595581
O O7 0.961671 0.159262 0.685342
O O8 0.000000 0.199241 0.250000
O O9 0.645338 0.991606 0.307357
O O10 0.343629 0.572774 0.129074
O O11 0.399837 0.072764 0.079057
O O12 0.500000 0.500000 0.000000
#
# Coordination Sequence:
#
# PCOD8123087 Si02
#       5
#     4   4   4   4   4
#     4  12  27  49  68 100 147 190 237 295 359 434
#     4  12  24  43  72 101 138 189 233 297 364 428
#     4  12  23  44  71 105 141 177 242 302 358 428
#     4  12  23  40  68 102 132 180 242 289 350 424
#     4  12  25  43  69  99 140 183 229 299 358 418
#
# _framework density 23.673696
#
# number of rings (size 3 to 8) (size 9 to 14) (size 15 to 20)
#    0.000    0.000    4.000    7.200    0.000    0.800 
#    0.000    2.000    0.000    0.000    0.000    0.000 
#    0.000    0.000    0.000    0.000    0.000    0.000 
#
# Total GULP energy -247974.303324 kJ/mol
# GULP energy per Si atom -12398.715166 kJ/mol
# Density = 2.361981 g / cm^3
# Si number density = 23.673696 Si / 1000 Ang^3
#
#
#
# Elastic Constant Matrix: (Units=GPa)
#
#
# Indices 1 2 3 4 5 6 
#
# 1 66.8595 21.0980 -1.8235 0.0000 -8.8985 0.0000
# 2 21.0980 128.9275 20.7799 0.0000 5.6520 0.0000
# 3 -1.8235 20.7799 98.1069 0.0000 2.5716 0.0000
# 4 0.0000 0.0000 0.0000 55.4745 0.0000 3.7619
# 5 -8.8985 5.6520 2.5716 0.0000 37.2535 0.0000
# 6 0.0000 0.0000 0.0000 3.7619 0.0000 34.7107
#
#
#
# Elastic Compliance Matrix: (Units=1/GPa)
#
#
# Indices 1 2 3 4 5 6 
#
# 1 0.016513 -0.003027 0.000834 0.000000 0.004346 0.000000
# 2 -0.003027 0.008631 -0.001834 0.000000 -0.001906 0.000000
# 3 0.000834 -0.001834 0.010604 0.000000 -0.000254 0.000000
# 4 0.000000 0.000000 0.000000 0.018160 0.000000 -0.001968
# 5 0.004346 -0.001906 -0.000254 0.000000 0.028188 0.000000
# 6 0.000000 0.000000 0.000000 -0.001968 0.000000 0.029023
#
#
# Mechanical properties :
#
#
# Convention : Reuss Voigt Hill
#
# Bulk Modulus (GPa) = 36.11036 41.55586 38.83311
# Shear Modulus (GPa) = 38.93954 42.41038 40.67496
#
# Velocity S-wave (km/s) = 4.06007 4.23715 4.14955
# Velocity P-wave (km/s) = 6.10453 6.44435 6.27674
#
# Compressibility (1/GPa) = 0.02769288
#
# Stress axis : x y z
#
# Youngs Moduli (GPa) = 60.55765 115.86286 94.30684
#
# Poissons Ratio (x) = 0.35074 -0.07867
# Poissons Ratio (y) = 0.18332 0.17300
# Poissons Ratio (z) = -0.05052 0.21254
#
# Static dielectric constant tensor:
#      x y z
#    x 4.070710 0.000000 0.094730 
#    y 0.000000 4.608090 0.000000 
#    z 0.094730 0.000000 4.365850 
# 
# 
# High freq. dielectric constant tensor:
#      x y z
#    x 1.910540 0.000000 -0.002360 
#    y 0.000000 1.963380 0.000000 
#    z -0.002360 0.000000 1.956730 
# 
# From -- ./inp_files/84268.got.cif
#   From: 2010.06.25/outbox.cif.g09.slc.cpg/sg13_43_cif.got.tgz:84268.got - 2010.06.28 04:50:58.
