data_PCOD8123142
_publ_section_title
;
Structure prediction by ZEFSAII (Michael W. Deem and Ramdas Pophale) SiO2 
 PCOD8123142
Probable space group: P 2/C
;
_chemical_formula_sum "Si O2"
_cell_formula_units_Z 20
_cell_length_a 7.779512
_cell_length_b 6.665005
_cell_length_c 16.962786
_cell_angle_alpha 90.000000
_cell_angle_beta 84.816639
_cell_angle_gamma 90.000000
_cell_volume 875.932027
_symmetry_space_group_name_H-M "P 2/C"
_symmetry_group_IT_number 13
_symmetry_cell_setting 'monoclinic'
loop_
_space_group_symop_operation_xyz
x,y,z
-x,y,1/2-z
-x,-y,-z
x,-y,1/2+z
loop_
_atom_site_type_symbol
_atom_site_label
_atom_site_fract_x
_atom_site_fract_y
_atom_site_fract_z
Si Si1 0.301493 0.471191 0.499838
Si Si2 0.799656 0.694289 0.663246
Si Si3 0.097122 0.147008 0.055207
Si Si4 0.500000 0.029697 0.250000
Si Si5 0.270063 0.164067 0.637491
Si Si6 0.000000 0.632087 0.250000
O O1 0.500000 0.500000 0.500000
O O2 0.275706 0.361871 0.418566
O O3 0.172218 0.661482 0.505863
O O4 0.266117 0.349146 0.579361
O O5 0.660239 0.831526 0.715263
O O6 0.976407 0.807670 0.635506
O O7 0.852280 0.502112 0.713466
O O8 0.260541 0.037788 0.086337
O O9 0.000000 0.000000 0.000000
O O10 0.561374 0.874798 0.315626
O O11 0.097851 0.208413 0.692490
#
# Coordination Sequence:
#
# PCOD8123142 Si02
#       6
#     4   4   4   2   4   2
#     4  12  28  46  76 107 148 192 250 307 362 442
#     4  12  26  49  74 109 144 196 246 305 371 444
#     4  12  24  48  77 106 141 191 252 304 365 438
#     4  12  30  44  76 110 156 192 246 312 376 440
#     4  12  27  49  72 109 145 197 243 304 373 440
#     4  12  26  46  78 102 154 194 244 304 378 440
#
# _framework density 22.832822
#
# number of rings (size 3 to 8) (size 9 to 14) (size 15 to 20)
#    0.000    0.000    4.000    5.400    8.400    1.600 
#    0.000    0.000    0.000    0.000    0.000    0.000 
#    0.000    0.000    0.000    0.000    0.000    0.000 
#
# Total GULP energy -247825.276585 kJ/mol
# GULP energy per Si atom -12391.263829 kJ/mol
# Density = 2.278085 g / cm^3
# Si number density = 22.832822 Si / 1000 Ang^3
#
#
#
# Elastic Constant Matrix: (Units=GPa)
#
#
# Indices 1 2 3 4 5 6 
#
# 1 104.5297 33.7727 25.9077 0.0000 9.8304 0.0000
# 2 33.7727 99.0709 28.2184 0.0000 10.1952 0.0000
# 3 25.9077 28.2184 94.1597 0.0000 13.8158 0.0000
# 4 0.0000 0.0000 0.0000 10.0935 0.0000 -13.7787
# 5 9.8304 10.1952 13.8158 0.0000 59.4344 0.0000
# 6 0.0000 0.0000 0.0000 -13.7787 0.0000 26.0840
#
#
#
# Elastic Compliance Matrix: (Units=1/GPa)
#
#
# Indices 1 2 3 4 5 6 
#
# 1 0.011159 -0.003147 -0.002004 0.000000 -0.000840 0.000000
# 2 -0.003147 0.012001 -0.002594 0.000000 -0.000935 0.000000
# 3 -0.002004 -0.002594 0.012253 0.000000 -0.002072 0.000000
# 4 0.000000 0.000000 0.000000 0.355236 0.000000 0.187651
# 5 -0.000840 -0.000935 -0.002072 0.000000 0.017606 0.000000
# 6 0.000000 0.000000 0.000000 0.187651 0.000000 0.137463
#
#
# Mechanical properties :
#
#
# Convention : Reuss Voigt Hill
#
# Bulk Modulus (GPa) = 50.18934 52.61754 51.40344
# Shear Modulus (GPa) = 8.80516 33.11316 20.95916
#
# Velocity S-wave (km/s) = 1.96589 3.81234 3.03304
# Velocity P-wave (km/s) = 5.21363 6.51715 5.90149
#
# Compressibility (1/GPa) = 0.01992455
#
# Stress axis : x y z
#
# Youngs Moduli (GPa) = 89.61316 83.32293 81.61307
#
# Poissons Ratio (x) = 0.26220 0.16356
# Poissons Ratio (y) = 0.28199 0.21167
# Poissons Ratio (z) = 0.17959 0.21611
#
# Static dielectric constant tensor:
#      x y z
#    x 4.249630 0.000000 0.062900 
#    y 0.000000 4.242610 0.000000 
#    z 0.062900 0.000000 4.355090 
# 
# 
# High freq. dielectric constant tensor:
#      x y z
#    x 1.912300 0.000000 0.006800 
#    y 0.000000 1.909920 0.000000 
#    z 0.006800 0.000000 1.923420 
# 
# From -- ./inp_files/62365.got.cif
#   From: 2010.06.25/outbox.cif.g09.slc.cpg/sg13_32_cif.got.tgz:62365.got - 2010.06.28 04:50:58.
