data_PCOD8123448
_publ_section_title
;
Structure prediction by ZEFSAII (Michael W. Deem and Ramdas Pophale) SiO2 
 PCOD8123448
Probable space group: P 21/C
;
_chemical_formula_sum "Si O2"
_cell_formula_units_Z 24
_cell_length_a 9.526914
_cell_length_b 8.060391
_cell_length_c 17.475935
_cell_angle_alpha 90.000000
_cell_angle_beta 61.095943
_cell_angle_gamma 90.000000
_cell_volume 1174.817349
_symmetry_space_group_name_H-M "P 21/C"
_symmetry_group_IT_number 14
_symmetry_cell_setting 'monoclinic'
loop_
_space_group_symop_operation_xyz
x,y,z
-x,1/2+y,1/2-z
-x,-y,-z
x,1/2-y,1/2+z
loop_
_atom_site_type_symbol
_atom_site_label
_atom_site_fract_x
_atom_site_fract_y
_atom_site_fract_z
Si Si1 0.348802 0.344029 0.615994
Si Si2 0.406240 0.689646 0.200448
Si Si3 0.989664 0.341545 0.854912
Si Si4 0.156651 0.064753 0.726436
Si Si5 0.310140 0.476429 0.795744
Si Si6 0.333477 0.814861 0.051660
O O1 0.237722 0.180564 0.638922
O O2 0.343007 0.392650 0.705816
O O3 0.531406 0.294865 0.547981
O O4 0.287661 0.490583 0.575500
O O5 0.285445 0.537182 0.241500
O O6 0.582966 0.618790 0.170176
O O7 0.353490 0.829502 0.276116
O O8 0.402798 0.754042 0.114595
O O9 0.966907 0.443067 0.782603
O O10 0.816413 0.298756 0.938195
O O11 0.058743 0.163181 0.815362
O O12 0.121952 0.444454 0.869497
#
# Coordination Sequence:
#
# PCOD8123448 Si02
#       6
#     4   4   4   4   4   4
#     4   9  18  33  54  76 103 136 167 202 250 305
#     4  10  20  33  53  75 100 135 171 205 250 306
#     4  10  18  29  50  76 101 128 169 212 246 288
#     4  10  18  31  51  74 101 131 168 208 246 295
#     4  10  19  33  52  74 100 132 170 208 251 298
#     4   9  19  34  54  77 103 134 169 205 249 299
#
# _framework density 20.428708
#
# number of rings (size 3 to 8) (size 9 to 14) (size 15 to 20)
#    0.000    2.333    0.000    6.000    0.000    2.667 
#    0.000    0.000    0.000   33.000    0.000    0.000 
#    0.000    0.000    0.000    0.000    0.000    0.000 
#
# Total GULP energy -297429.447764 kJ/mol
# GULP energy per Si atom -12392.893657 kJ/mol
# Density = 2.038221 g / cm^3
# Si number density = 20.428708 Si / 1000 Ang^3
#
#
#
# Elastic Constant Matrix: (Units=GPa)
#
#
# Indices 1 2 3 4 5 6 
#
# 1 112.4704 29.0273 6.1189 0.0000 -29.2197 0.0000
# 2 29.0273 84.7686 7.2723 0.0000 -7.7566 0.0000
# 3 6.1189 7.2723 51.4880 0.0000 -14.3431 0.0000
# 4 0.0000 0.0000 0.0000 24.0619 0.0000 -11.9631
# 5 -29.2197 -7.7566 -14.3431 0.0000 19.3186 0.0000
# 6 0.0000 0.0000 0.0000 -11.9631 0.0000 33.5926
#
#
#
# Elastic Compliance Matrix: (Units=1/GPa)
#
#
# Indices 1 2 3 4 5 6 
#
# 1 0.017117 -0.003749 0.006667 0.000000 0.029335 0.000000
# 2 -0.003749 0.013076 -0.001914 0.000000 -0.001842 0.000000
# 3 0.006667 -0.001914 0.027100 0.000000 0.029436 0.000000
# 4 0.000000 0.000000 0.000000 0.050501 0.000000 0.017984
# 5 0.029335 -0.001842 0.029436 0.000000 0.117248 0.000000
# 6 0.000000 0.000000 0.000000 0.017984 0.000000 0.036173
#
#
# Mechanical properties :
#
#
# Convention : Reuss Voigt Hill
#
# Bulk Modulus (GPa) = 16.86321 37.06267 26.96294
# Shear Modulus (GPa) = 17.92272 29.14854 23.53563
#
# Velocity S-wave (km/s) = 2.96519 3.78145 3.39792
# Velocity P-wave (km/s) = 4.47166 6.10309 5.34993
#
# Compressibility (1/GPa) = 0.05930068
#
# Stress axis : x y z
#
# Youngs Moduli (GPa) = 58.42059 76.47388 36.90028
#
# Poissons Ratio (x) = 0.28672 -0.24602
# Poissons Ratio (y) = 0.21903 0.07064
# Poissons Ratio (z) = -0.38950 0.14641
#
# Static dielectric constant tensor:
#      x y z
#    x 3.691320 0.000000 -0.478870 
#    y 0.000000 4.169550 0.000000 
#    z -0.478870 0.000000 3.432230 
# 
# 
# High freq. dielectric constant tensor:
#      x y z
#    x 1.781810 0.000000 -0.037480 
#    y 0.000000 1.820570 0.000000 
#    z -0.037480 0.000000 1.761870 
# 
# From -- ./inp_files/54520.got.cif
#   From: 2010.03.12/outbox.cif.g09.slc.cpg/sg14_28_cif.got.tgz:54520.got - 2010.03.31 13:35:05.
