data_PCOD8123932
_publ_section_title
;
Structure prediction by ZEFSAII (Michael W. Deem and Ramdas Pophale) SiO2 
 PCOD8123932
Probable space group: P 21/C
;
_chemical_formula_sum "Si O2"
_cell_formula_units_Z 24
_cell_length_a 31.707736
_cell_length_b 5.072113
_cell_length_c 25.291016
_cell_angle_alpha 90.000000
_cell_angle_beta 163.460186
_cell_angle_gamma 90.000000
_cell_volume 1157.923174
_symmetry_space_group_name_H-M "P 21/C"
_symmetry_group_IT_number 14
_symmetry_cell_setting 'monoclinic'
loop_
_space_group_symop_operation_xyz
x,y,z
-x,1/2+y,1/2-z
-x,-y,-z
x,1/2-y,1/2+z
loop_
_atom_site_type_symbol
_atom_site_label
_atom_site_fract_x
_atom_site_fract_y
_atom_site_fract_z
Si Si1 0.040970 0.403380 0.923933
Si Si2 0.918234 0.247938 0.879357
Si Si3 0.455762 0.765853 0.393330
Si Si4 0.073704 0.126265 0.815807
Si Si5 0.297798 0.252446 0.162886
Si Si6 0.295840 0.888437 0.799124
O O1 0.928301 0.244569 0.827314
O O2 0.939562 0.580311 0.763128
O O3 0.149584 0.209200 0.020944
O O4 0.145123 0.587562 0.084847
O O5 0.748067 0.254622 0.697314
O O6 0.000000 0.500000 0.000000
O O7 0.000000 0.000000 0.000000
O O8 0.359877 0.543050 0.247824
O O9 0.627796 0.675285 0.598550
O O10 0.408837 0.788693 0.399421
O O11 0.427035 0.041940 0.329927
O O12 0.956732 0.350505 0.691081
O O13 0.239804 0.219450 0.032725
#
# Coordination Sequence:
#
# PCOD8123932 Si02
#       6
#     4   4   4   4   4   4
#     4   9  19  33  53  77 103 131 168 217 264 310
#     4  10  20  33  50  73 104 134 165 207 255 310
#     4  10  20  32  51  72 102 133 165 207 246 309
#     4  10  19  32  52  75 101 129 166 214 257 301
#     4  10  19  33  50  74  99 130 167 205 256 300
#     4   9  19  33  50  75 101 132 167 203 257 305
#
# _framework density 20.726763999999999
#
# number of rings (size 3 to 8) (size 9 to 14) (size 15 to 20)
#    0.000    2.333    0.000    4.000    0.000   12.667 
#    0.000    0.000    0.000    2.000    0.000    0.000 
#    0.000    0.000    0.000    0.000    0.000    0.000 
#
# Total GULP energy -297353.210803 kJ/mol
# GULP energy per Si atom -12389.717117 kJ/mol
# Density = 2.067959 g / cm^3
# Si number density = 20.726764 Si / 1000 Ang^3
#
#
#
# Elastic Constant Matrix: (Units=GPa)
#
#
# Indices 1 2 3 4 5 6 
#
# 1 108.7852 14.1610 40.3543 0.0000 -0.2820 0.0000
# 2 14.1610 68.5861 4.1947 0.0000 -3.6832 0.0000
# 3 40.3543 4.1947 77.2976 0.0000 -17.9663 0.0000
# 4 0.0000 0.0000 0.0000 36.9285 0.0000 -5.8915
# 5 -0.2820 -3.6832 -17.9663 0.0000 39.4961 0.0000
# 6 0.0000 0.0000 0.0000 -5.8915 0.0000 23.9374
#
#
#
# Elastic Compliance Matrix: (Units=1/GPa)
#
#
# Indices 1 2 3 4 5 6 
#
# 1 0.012045 -0.002239 -0.006928 0.000000 -0.003274 0.000000
# 2 -0.002239 0.015090 0.000753 0.000000 0.001734 0.000000
# 3 -0.006928 0.000753 0.018471 0.000000 0.008423 0.000000
# 4 0.000000 0.000000 0.000000 0.028186 0.000000 0.006937
# 5 -0.003274 0.001734 0.008423 0.000000 0.029289 0.000000
# 6 0.000000 0.000000 0.000000 0.006937 0.000000 0.043483
#
#
# Mechanical properties :
#
#
# Convention : Reuss Voigt Hill
#
# Bulk Modulus (GPa) = 34.74924 41.34320 38.04622
# Shear Modulus (GPa) = 28.90442 33.13633 31.02037
#
# Velocity S-wave (km/s) = 3.73841 4.00274 3.87283
# Velocity P-wave (km/s) = 5.95282 6.43060 6.19632
#
# Compressibility (1/GPa) = 0.02877761
#
# Stress axis : x y z
#
# Youngs Moduli (GPa) = 83.01945 66.27087 54.13982
#
# Poissons Ratio (x) = 0.14839 0.37508
# Poissons Ratio (y) = 0.18589 -0.04077
# Poissons Ratio (z) = 0.57516 -0.04991
#
# Static dielectric constant tensor:
#      x y z
#    x 4.633800 0.000000 0.157850 
#    y 0.000000 3.620730 0.000000 
#    z 0.157850 0.000000 3.924240 
# 
# 
# High freq. dielectric constant tensor:
#      x y z
#    x 1.781440 0.000000 -0.015350 
#    y 0.000000 1.815110 0.000000 
#    z -0.015350 0.000000 1.797300 
# 
# From -- ./inp_files/74456.got.cif
#   From: 2010.03.12/outbox.cif.g09.slc.cpg/sg14_38_cif.got.tgz:74456.got - 2010.03.31 13:35:05.
