data_PCOD8123675
_publ_section_title
;
Structure prediction by ZEFSAII (Michael W. Deem and Ramdas Pophale) SiO2 
 PCOD8123675
Probable space group: P 21/C
;
_chemical_formula_sum "Si O2"
_cell_formula_units_Z 20
_cell_length_a 10.500135
_cell_length_b 5.035808
_cell_length_c 17.695475
_cell_angle_alpha 90.000000
_cell_angle_beta 96.319537
_cell_angle_gamma 90.000000
_cell_volume 929.992019
_symmetry_space_group_name_H-M "P 21/C"
_symmetry_group_IT_number 14
_symmetry_cell_setting 'monoclinic'
loop_
_space_group_symop_operation_xyz
x,y,z
-x,1/2+y,1/2-z
-x,-y,-z
x,1/2-y,1/2+z
loop_
_atom_site_type_symbol
_atom_site_label
_atom_site_fract_x
_atom_site_fract_y
_atom_site_fract_z
Si Si1 0.184766 0.263195 0.130108
Si Si2 0.960952 0.248295 0.402657
Si Si3 0.814885 0.015406 0.521021
Si Si4 0.456585 0.330571 0.704770
Si Si5 0.444026 0.746965 0.953947
O O1 0.119188 0.536963 0.154173
O O2 0.239193 0.313930 0.047889
O O3 0.302779 0.180438 0.190138
O O4 0.072856 0.041265 0.127830
O O5 0.916628 0.217599 0.488051
O O6 0.111914 0.166819 0.410993
O O7 0.709178 0.206804 0.551064
O O8 0.495667 0.629944 0.727584
O O9 0.522139 0.250017 0.631273
O O10 0.500000 0.500000 0.000000
O O11 0.500000 0.000000 0.000000
#
# Coordination Sequence:
#
# PCOD8123675 Si02
#       5
#     4   4   4   4   4
#     4  10  18  35  56  82 119 156 201 248 306 377
#     4   9  18  31  56  93 114 147 195 271 318 356
#     4   9  20  31  60  89 120 144 205 266 312 360
#     4  12  25  41  59  88 130 174 208 255 331 395
#     4  12  23  39  63  92 122 163 218 275 315 373
#
# _framework density 21.505559000000002
#
# number of rings (size 3 to 8) (size 9 to 14) (size 15 to 20)
#    1.200    0.400    2.000    4.200    0.000    0.000 
#    0.000    0.000    0.000    4.800    0.000    0.000 
#    0.000    0.000    0.000    0.000    0.000    0.000 
#
# Total GULP energy -247809.360985 kJ/mol
# GULP energy per Si atom -12390.468049 kJ/mol
# Density = 2.145661 g / cm^3
# Si number density = 21.505559 Si / 1000 Ang^3
#
#
#
# Elastic Constant Matrix: (Units=GPa)
#
#
# Indices 1 2 3 4 5 6 
#
# 1 92.1353 22.1310 27.7432 0.0000 16.3619 0.0000
# 2 22.1310 115.1519 17.8333 0.0000 3.5407 0.0000
# 3 27.7432 17.8333 63.5249 0.0000 14.2461 0.0000
# 4 0.0000 0.0000 0.0000 39.0306 0.0000 14.8794
# 5 16.3619 3.5407 14.2461 0.0000 35.6671 0.0000
# 6 0.0000 0.0000 0.0000 14.8794 0.0000 39.4675
#
#
#
# Elastic Compliance Matrix: (Units=1/GPa)
#
#
# Indices 1 2 3 4 5 6 
#
# 1 0.013343 -0.001755 -0.004395 0.000000 -0.004191 0.000000
# 2 -0.001755 0.009310 -0.002000 0.000000 0.000679 0.000000
# 3 -0.004395 -0.002000 0.019470 0.000000 -0.005562 0.000000
# 4 0.000000 0.000000 0.000000 0.029921 0.000000 -0.011280
# 5 -0.004191 0.000679 -0.005562 0.000000 0.032114 0.000000
# 6 0.000000 0.000000 0.000000 -0.011280 0.000000 0.029590
#
#
# Mechanical properties :
#
#
# Convention : Reuss Voigt Hill
#
# Bulk Modulus (GPa) = 38.72272 45.13635 41.92953
# Shear Modulus (GPa) = 31.51504 36.37334 33.94419
#
# Velocity S-wave (km/s) = 3.83226 4.11706 3.97721
# Velocity P-wave (km/s) = 6.13405 6.60561 6.37419
#
# Compressibility (1/GPa) = 0.02582463
#
# Stress axis : x y z
#
# Youngs Moduli (GPa) = 74.94728 107.40864 51.36158
#
# Poissons Ratio (x) = 0.18849 0.22571
# Poissons Ratio (y) = 0.13152 0.10270
# Poissons Ratio (z) = 0.32936 0.21478
#
# Static dielectric constant tensor:
#      x y z
#    x 5.145760 0.000000 0.277280 
#    y 0.000000 3.593750 0.000000 
#    z 0.277280 0.000000 3.540790 
# 
# 
# High freq. dielectric constant tensor:
#      x y z
#    x 1.832270 0.000000 0.040690 
#    y 0.000000 1.856320 0.000000 
#    z 0.040690 0.000000 1.803530 
# 
# From -- ./inp_files/56467.got.cif
#   From: 2010.03.12/outbox.cif.g09.slc.cpg/sg14_29_cif.got.tgz:56467.got - 2010.03.31 13:35:05.
