data_PCOD8123438
_publ_section_title
;
Structure prediction by ZEFSAII (Michael W. Deem and Ramdas Pophale) SiO2 
 PCOD8123438
Probable space group: P 21/C
;
_chemical_formula_sum "Si O2"
_cell_formula_units_Z 32
_cell_length_a 11.771066
_cell_length_b 18.689698
_cell_length_c 8.595459
_cell_angle_alpha 90.000000
_cell_angle_beta 65.039821
_cell_angle_gamma 90.000000
_cell_volume 1714.365763
_symmetry_space_group_name_H-M "P 21/C"
_symmetry_group_IT_number 14
_symmetry_cell_setting 'monoclinic'
loop_
_space_group_symop_operation_xyz
x,y,z
-x,1/2+y,1/2-z
-x,-y,-z
x,1/2-y,1/2+z
loop_
_atom_site_type_symbol
_atom_site_label
_atom_site_fract_x
_atom_site_fract_y
_atom_site_fract_z
Si Si1 0.835185 0.698061 0.298534
Si Si2 0.961910 0.594137 0.015709
Si Si3 0.631680 0.917319 0.992112
Si Si4 0.193664 0.023425 0.859045
Si Si5 0.648039 0.067871 0.828650
Si Si6 0.126515 0.602658 0.613960
Si Si7 0.815099 0.475154 0.972147
Si Si8 0.922798 0.672795 0.585534
O O1 0.705845 0.653678 0.388836
O O2 0.911884 0.694261 0.413434
O O3 0.827379 0.781292 0.251311
O O4 0.918453 0.670135 0.106045
O O5 0.043101 0.595852 0.814971
O O6 0.834900 0.549277 0.056359
O O7 0.046091 0.560377 0.105963
O O8 0.639033 0.983007 0.868475
O O9 0.684110 0.943769 0.127623
O O10 0.487272 0.894520 0.097866
O O11 0.105942 0.089660 0.866263
O O12 0.232959 0.984277 0.676410
O O13 0.119787 0.969453 0.014488
O O14 0.729402 0.110819 0.911934
O O15 0.712465 0.073143 0.621518
O O16 0.070961 0.672384 0.553024
#
# Coordination Sequence:
#
# PCOD8123438 Si02
#       8
#     4   4   4   4   4   4   4   4
#     4  11  22  36  52  79 112 144 185 228 275 343
#     4  10  19  30  51  81 112 145 176 227 291 333
#     4   9  19  35  52  75 110 146 182 226 274 333
#     4  10  20  32  52  83 115 144 182 234 282 328
#     4   9  18  33  55  79 105 146 183 222 281 326
#     4  10  19  34  55  83 113 141 183 230 282 329
#     4  10  18  28  53  79 110 138 179 228 284 326
#     4  11  22  32  52  76 110 145 182 225 282 333
#
# _framework density 18.665794000000002
#
# number of rings (size 3 to 8) (size 9 to 14) (size 15 to 20)
#    0.000    2.000    2.500    1.875    5.250    0.500 
#    0.000    0.000    0.000    9.000    0.000    0.000 
#    0.000    0.000    0.000    0.000    0.000    0.000 
#
# Total GULP energy -396427.891572 kJ/mol
# GULP energy per Si atom -12388.371612 kJ/mol
# Density = 1.862331 g / cm^3
# Si number density = 18.665794 Si / 1000 Ang^3
#
#
#
# Elastic Constant Matrix: (Units=GPa)
#
#
# Indices 1 2 3 4 5 6 
#
# 1 117.0619 41.5397 55.0472 0.0000 -7.6859 0.0000
# 2 41.5397 62.2771 38.2615 0.0000 0.7407 0.0000
# 3 55.0472 38.2615 105.5520 0.0000 3.5166 0.0000
# 4 0.0000 0.0000 0.0000 31.0182 0.0000 -2.6960
# 5 -7.6859 0.7407 3.5166 0.0000 20.7211 0.0000
# 6 0.0000 0.0000 0.0000 -2.6960 0.0000 18.8089
#
#
#
# Elastic Compliance Matrix: (Units=1/GPa)
#
#
# Indices 1 2 3 4 5 6 
#
# 1 0.013415 -0.005915 -0.005053 0.000000 0.006045 0.000000
# 2 -0.005915 0.023272 -0.005280 0.000000 -0.002130 0.000000
# 3 -0.005053 -0.005280 0.014160 0.000000 -0.004089 0.000000
# 4 0.000000 0.000000 0.000000 0.032646 0.000000 0.004679
# 5 0.006045 -0.002130 -0.004089 0.000000 0.051272 0.000000
# 6 0.000000 0.000000 0.000000 0.004679 0.000000 0.053837
#
#
# Mechanical properties :
#
#
# Convention : Reuss Voigt Hill
#
# Bulk Modulus (GPa) = 54.49761 61.62087 58.05924
# Shear Modulus (GPa) = 22.00566 24.11246 23.05906
#
# Velocity S-wave (km/s) = 3.43728 3.59806 3.51859
# Velocity P-wave (km/s) = 6.70918 7.09548 6.90503
#
# Compressibility (1/GPa) = 0.01834943
#
# Stress axis : x y z
#
# Youngs Moduli (GPa) = 74.54595 42.97010 70.62387
#
# Poissons Ratio (x) = 0.25417 0.35687
# Poissons Ratio (y) = 0.44094 0.37290
# Poissons Ratio (z) = 0.37669 0.22689
#
# Static dielectric constant tensor:
#      x y z
#    x 3.624870 0.000000 0.179330 
#    y 0.000000 3.357580 0.000000 
#    z 0.179330 0.000000 3.354180 
# 
# 
# High freq. dielectric constant tensor:
#      x y z
#    x 1.714430 0.000000 0.020610 
#    y 0.000000 1.694380 0.000000 
#    z 0.020610 0.000000 1.724760 
# 
# From -- ./inp_files/14013.got.cif
#   From: 2010.03.12/outbox.cif.g09.slc.cpg/sg14_8_cif.got.tgz:14013.got - 2010.03.31 13:35:05.
