data_PCOD8123562
_publ_section_title
;
Structure prediction by ZEFSAII (Michael W. Deem and Ramdas Pophale) SiO2 
 PCOD8123562
Probable space group: P 21/C
;
_chemical_formula_sum "Si O2"
_cell_formula_units_Z 28
_cell_length_a 11.321190
_cell_length_b 19.915599
_cell_length_c 5.362844
_cell_angle_alpha 90.000000
_cell_angle_beta 89.864347
_cell_angle_gamma 90.000000
_cell_volume 1209.147825
_symmetry_space_group_name_H-M "P 21/C"
_symmetry_group_IT_number 14
_symmetry_cell_setting 'monoclinic'
loop_
_space_group_symop_operation_xyz
x,y,z
-x,1/2+y,1/2-z
-x,-y,-z
x,1/2-y,1/2+z
loop_
_atom_site_type_symbol
_atom_site_label
_atom_site_fract_x
_atom_site_fract_y
_atom_site_fract_z
Si Si1 0.902005 0.642227 0.250625
Si Si2 0.409321 0.672914 0.255224
Si Si3 0.149289 0.707122 0.271083
Si Si4 0.105341 0.517157 0.749722
Si Si5 0.163655 0.494138 0.249366
Si Si6 0.226931 0.349543 0.249124
Si Si7 0.506859 0.823023 0.254779
O O1 0.885888 0.563071 0.252172
O O2 0.842085 0.673491 0.500135
O O3 0.040357 0.656874 0.247751
O O4 0.842582 0.673146 0.000655
O O5 0.268771 0.663827 0.251443
O O6 0.444068 0.751046 0.258648
O O7 0.463483 0.638106 0.504545
O O8 0.465031 0.638170 0.006863
O O9 0.144934 0.740985 0.542673
O O10 0.173206 0.541037 0.497264
O O11 0.969204 0.540647 0.751263
O O12 0.173983 0.540660 0.000783
O O13 0.250977 0.430637 0.249673
O O14 0.352874 0.313482 0.247883
#
# Coordination Sequence:
#
# PCOD8123562 Si02
#       7
#     4   4   4   4   4   4   4
#     4  10  21  33  47  74 103 126 151 192 244 294
#     4  10  19  35  51  64  81 122 176 200 222 260
#     4  12  21  38  52  66  93 125 169 206 229 272
#     4   8  14  27  44  66  94 125 155 176 221 280
#     4   8  14  25  46  66  94 127 148 182 216 284
#     4  10  19  33  47  76 105 121 152 186 249 295
#     4  10  18  33  51  66  90 120 157 206 223 273
#
# _framework density 23.156804000000001
#
# number of rings (size 3 to 8) (size 9 to 14) (size 15 to 20)
#    0.000    2.286    2.857    1.714    0.000    0.000 
#   15.429    0.000    0.000    0.000    0.000    2.000 
#    0.000    0.000    0.000    0.000    0.000    0.000 
#
# Total GULP energy -346915.005056 kJ/mol
# GULP energy per Si atom -12389.821609 kJ/mol
# Density = 2.310410 g / cm^3
# Si number density = 23.156804 Si / 1000 Ang^3
#
#
#
# Elastic Constant Matrix: (Units=GPa)
#
#
# Indices 1 2 3 4 5 6 
#
# 1 154.9216 11.7356 60.4271 0.0000 4.0015 0.0000
# 2 11.7356 5.0724 2.5766 0.0000 0.8666 0.0000
# 3 60.4271 2.5766 258.1352 0.0000 -10.3756 0.0000
# 4 0.0000 0.0000 0.0000 6.2803 0.0000 0.3274
# 5 4.0015 0.8666 -10.3756 0.0000 35.4410 0.0000
# 6 0.0000 0.0000 0.0000 0.3274 0.0000 10.0749
#
#
#
# Elastic Compliance Matrix: (Units=1/GPa)
#
#
# Indices 1 2 3 4 5 6 
#
# 1 0.008644 -0.018863 -0.001878 0.000000 -0.001064 0.000000
# 2 -0.018863 0.240376 0.001888 0.000000 -0.003195 0.000000
# 3 -0.001878 0.001888 0.004353 0.000000 0.001440 0.000000
# 4 0.000000 0.000000 0.000000 0.159499 0.000000 -0.005183
# 5 -0.001064 -0.003195 0.001440 0.000000 0.028836 0.000000
# 6 0.000000 0.000000 0.000000 -0.005183 0.000000 0.099425
#
#
# Mechanical properties :
#
#
# Convention : Reuss Voigt Hill
#
# Bulk Modulus (GPa) = 4.63679 63.06754 33.85217
# Shear Modulus (GPa) = 7.68373 33.25189 20.46781
#
# Velocity S-wave (km/s) = 1.82355 3.79350 2.97624
# Velocity P-wave (km/s) = 2.53781 6.81774 5.14403
#
# Compressibility (1/GPa) = 0.21566627
#
# Stress axis : x y z
#
# Youngs Moduli (GPa) = 115.69053 4.16015 229.74850
#
# Poissons Ratio (x) = 0.07847 0.43145
# Poissons Ratio (y) = 2.18224 -0.43372
# Poissons Ratio (z) = 0.21726 -0.00785
#
# Static dielectric constant tensor:
#      x y z
#    x 3.927050 0.000000 -0.297420 
#    y 0.000000 3.372050 0.000000 
#    z -0.297420 0.000000 6.932460 
# 
# 
# High freq. dielectric constant tensor:
#      x y z
#    x 1.887080 0.000000 -0.008120 
#    y 0.000000 1.846070 0.000000 
#    z -0.008120 0.000000 1.969250 
# 
# From -- ./inp_files/1894.got.cif
#   From: 2010.03.12/outbox.cif.g09.slc.cpg/sg14_1_cif.got.tgz:1894.got - 2010.03.31 13:35:05.
