data_PCOD8123272
_publ_section_title
;
Structure prediction by ZEFSAII (Michael W. Deem and Ramdas Pophale) SiO2 
 PCOD8123272
Probable space group: P 21/C
;
_chemical_formula_sum "Si O2"
_cell_formula_units_Z 28
_cell_length_a 14.726596
_cell_length_b 18.649139
_cell_length_c 8.956678
_cell_angle_alpha 90.000000
_cell_angle_beta 142.793891
_cell_angle_gamma 90.000000
_cell_volume 1487.430304
_symmetry_space_group_name_H-M "P 21/C"
_symmetry_group_IT_number 14
_symmetry_cell_setting 'monoclinic'
loop_
_space_group_symop_operation_xyz
x,y,z
-x,1/2+y,1/2-z
-x,-y,-z
x,1/2-y,1/2+z
loop_
_atom_site_type_symbol
_atom_site_label
_atom_site_fract_x
_atom_site_fract_y
_atom_site_fract_z
Si Si1 0.584337 0.591133 0.476010
Si Si2 0.396917 0.177739 0.477298
Si Si3 0.641201 0.281927 0.828638
Si Si4 0.508902 0.064115 0.813256
Si Si5 0.106122 0.340808 0.109268
Si Si6 0.774021 0.168244 0.211896
Si Si7 0.222373 0.249402 0.502952
O O1 0.480690 0.656750 0.281139
O O2 0.575015 0.579772 0.641325
O O3 0.532567 0.520266 0.320241
O O4 0.760785 0.604423 0.669826
O O5 0.549057 0.218167 0.625274
O O6 0.415581 0.094073 0.547169
O O7 0.358004 0.216934 0.583911
O O8 0.278034 0.187650 0.188947
O O9 0.757141 0.318877 0.866604
O O10 0.740011 0.245355 0.088916
O O11 0.664636 0.106226 0.013916
O O12 0.100545 0.279122 0.228037
O O13 0.143906 0.312532 0.994475
O O14 0.935349 0.367811 0.885017
#
# Coordination Sequence:
#
# PCOD8123272 Si02
#       7
#     4   4   4   4   4   4   4
#     4  10  18  32  55  76 102 136 182 205 257 303
#     4  10  16  32  53  77  99 127 176 222 246 294
#     4  10  18  33  54  76 100 133 167 222 251 299
#     4   9  19  33  51  79 100 139 174 215 250 305
#     4  11  20  32  51  80 103 138 166 213 260 312
#     4  10  21  33  51  77 110 129 169 211 269 300
#     4  10  18  29  53  79  99 129 173 217 250 300
#
# _framework density 18.824411000000001
#
# number of rings (size 3 to 8) (size 9 to 14) (size 15 to 20)
#    0.000    2.000    4.286    2.571    0.000    0.571 
#    0.000    0.714    0.000    0.000    0.000    5.000 
#    0.000    0.000    0.000    0.000    0.000    0.000 
#
# Total GULP energy -346896.818914 kJ/mol
# GULP energy per Si atom -12389.172104 kJ/mol
# Density = 1.878157 g / cm^3
# Si number density = 18.824411 Si / 1000 Ang^3
#
#
#
# Elastic Constant Matrix: (Units=GPa)
#
#
# Indices 1 2 3 4 5 6 
#
# 1 75.4810 13.3708 30.0191 0.0000 14.6758 0.0000
# 2 13.3708 84.1304 16.0147 0.0000 5.2150 0.0000
# 3 30.0191 16.0147 52.2840 0.0000 10.8655 0.0000
# 4 0.0000 0.0000 0.0000 20.0627 0.0000 -4.8903
# 5 14.6758 5.2150 10.8655 0.0000 31.3156 0.0000
# 6 0.0000 0.0000 0.0000 -4.8903 0.0000 17.1328
#
#
#
# Elastic Compliance Matrix: (Units=1/GPa)
#
#
# Indices 1 2 3 4 5 6 
#
# 1 0.017976 -0.000824 -0.008995 0.000000 -0.005166 0.000000
# 2 -0.000824 0.012680 -0.003289 0.000000 -0.000584 0.000000
# 3 -0.008995 -0.003289 0.026197 0.000000 -0.004326 0.000000
# 4 0.000000 0.000000 0.000000 0.053571 0.000000 0.015291
# 5 -0.005166 -0.000584 -0.004326 0.000000 0.035952 0.000000
# 6 0.000000 0.000000 0.000000 0.015291 0.000000 0.062732
#
#
# Mechanical properties :
#
#
# Convention : Reuss Voigt Hill
#
# Bulk Modulus (GPa) = 32.64116 36.74497 34.69306
# Shear Modulus (GPa) = 20.36347 23.86828 22.11588
#
# Velocity S-wave (km/s) = 3.29258 3.56468 3.43133
# Velocity P-wave (km/s) = 5.64200 6.04192 5.84538
#
# Compressibility (1/GPa) = 0.03063617
#
# Stress axis : x y z
#
# Youngs Moduli (GPa) = 55.62906 78.86659 38.17177
#
# Poissons Ratio (x) = 0.06502 0.34335
# Poissons Ratio (y) = 0.04586 0.12555
# Poissons Ratio (z) = 0.50038 0.25940
#
# Static dielectric constant tensor:
#      x y z
#    x 3.509990 0.000000 -0.015270 
#    y 0.000000 3.407400 0.000000 
#    z -0.015270 0.000000 3.242300 
# 
# 
# High freq. dielectric constant tensor:
#      x y z
#    x 1.733830 0.000000 -0.002740 
#    y 0.000000 1.704770 0.000000 
#    z -0.002740 0.000000 1.710940 
# 
# From -- ./inp_files/9381.got.cif
#   From: 2010.03.12/outbox.cif.g09.slc.cpg/sg14_5_cif.got.tgz:9381.got - 2010.03.31 13:35:05.
