data_PCOD8123811
_publ_section_title
;
Structure prediction by ZEFSAII (Michael W. Deem and Ramdas Pophale) SiO2 
 PCOD8123811
Probable space group: P 21/C
;
_chemical_formula_sum "Si O2"
_cell_formula_units_Z 32
_cell_length_a 17.419168
_cell_length_b 8.359822
_cell_length_c 25.962348
_cell_angle_alpha 90.000000
_cell_angle_beta 154.225923
_cell_angle_gamma 90.000000
_cell_volume 1643.923582
_symmetry_space_group_name_H-M "P 21/C"
_symmetry_group_IT_number 14
_symmetry_cell_setting 'monoclinic'
loop_
_space_group_symop_operation_xyz
x,y,z
-x,1/2+y,1/2-z
-x,-y,-z
x,1/2-y,1/2+z
loop_
_atom_site_type_symbol
_atom_site_label
_atom_site_fract_x
_atom_site_fract_y
_atom_site_fract_z
Si Si1 0.208421 0.526287 0.852228
Si Si2 0.052781 0.641536 0.109353
Si Si3 0.936375 0.793679 0.648669
Si Si4 0.265457 0.300677 0.634255
Si Si5 0.585748 0.859981 0.611487
Si Si6 0.588164 0.814449 0.884587
Si Si7 0.702248 0.074527 0.773857
Si Si8 0.351284 0.409207 0.275207
O O1 0.106917 0.426056 0.834633
O O2 0.280374 0.396824 0.854433
O O3 0.067860 0.654218 0.746487
O O4 0.378631 0.627520 0.973062
O O5 0.158132 0.803322 0.163805
O O6 0.153574 0.482575 0.151533
O O7 0.020421 0.616617 0.150436
O O8 0.876247 0.668838 0.969770
O O9 0.756417 0.714202 0.521337
O O10 0.366032 0.370215 0.645484
O O11 0.199515 0.457459 0.625845
O O12 0.388997 0.206602 0.749479
O O13 0.625069 0.681946 0.656250
O O14 0.623628 0.986353 0.677928
O O15 0.465283 0.660255 0.801396
O O16 0.490251 0.949288 0.857859
#
# Coordination Sequence:
#
# PCOD8123811 Si02
#       8
#     4   4   4   4   4   4   4   4
#     4  11  24  42  62  88 119 159 198 254 300 360
#     4  10  21  38  57  89 119 153 195 249 292 355
#     4  11  24  39  62  87 121 149 201 253 301 344
#     4  10  20  35  61  86 118 153 198 243 298 348
#     4  10  22  41  61  86 118 160 201 236 303 362
#     4  10  21  38  57  89 118 153 197 249 292 355
#     4  10  18  38  58  80 118 159 190 237 298 360
#     4  10  22  37  62  87 121 159 198 238 299 369
#
# _framework density 19.465626
#
# number of rings (size 3 to 8) (size 9 to 14) (size 15 to 20)
#    0.000    1.750    2.500    1.500    3.500    0.000 
#    0.000    1.250    0.000    0.000    0.000    0.000 
#    0.000    0.000    0.000    0.000    0.000    0.000 
#
# Total GULP energy -396627.335469 kJ/mol
# GULP energy per Si atom -12394.604233 kJ/mol
# Density = 1.942132 g / cm^3
# Si number density = 19.465626 Si / 1000 Ang^3
#
#
#
# Elastic Constant Matrix: (Units=GPa)
#
#
# Indices 1 2 3 4 5 6 
#
# 1 101.3318 30.6842 26.5834 0.0000 -8.1583 0.0000
# 2 30.6842 83.3640 25.4604 0.0000 -4.0809 0.0000
# 3 26.5834 25.4604 75.8782 0.0000 -1.4258 0.0000
# 4 0.0000 0.0000 0.0000 19.2980 0.0000 -9.6847
# 5 -8.1583 -4.0809 -1.4258 0.0000 30.6098 0.0000
# 6 0.0000 0.0000 0.0000 -9.6847 0.0000 -25.0001
#
#
#
# Elastic Compliance Matrix: (Units=1/GPa)
#
#
# Indices 1 2 3 4 5 6 
#
# 1 0.011869 -0.003328 -0.002993 0.000000 0.002580 0.000000
# 2 -0.003328 0.014375 -0.003641 0.000000 0.000860 0.000000
# 3 -0.002993 -0.003641 0.015439 0.000000 -0.000564 0.000000
# 4 0.000000 0.000000 0.000000 0.043384 0.000000 -0.016807
# 5 0.002580 0.000860 -0.000564 0.000000 0.033445 0.000000
# 6 0.000000 0.000000 0.000000 -0.016807 0.000000 -0.033489
#
#
# Mechanical properties :
#
#
# Convention : Reuss Voigt Hill
#
# Bulk Modulus (GPa) = 45.96051 47.33667 46.64859
# Shear Modulus (GPa) = 44.56278 16.83795 30.70036
#
# Velocity S-wave (km/s) = 4.78986 2.94429 3.97565
# Velocity P-wave (km/s) = 7.36564 5.99411 6.71499
#
# Compressibility (1/GPa) = 0.02175781
#
# Stress axis : x y z
#
# Youngs Moduli (GPa) = 84.25041 69.56609 64.77204
#
# Poissons Ratio (x) = 0.23154 0.19387
# Poissons Ratio (y) = 0.28042 0.23584
# Poissons Ratio (z) = 0.25217 0.25330
#
# Static dielectric constant tensor:
#      x y z
#    x 3.995570 0.000000 0.180140 
#    y 0.000000 3.493420 0.000000 
#    z 0.180140 0.000000 3.700370 
# 
# 
# High freq. dielectric constant tensor:
#      x y z
#    x 1.769870 0.000000 -0.003850 
#    y 0.000000 1.755900 0.000000 
#    z -0.003850 0.000000 1.759470 
# 
# From -- ./inp_files/61706.got.cif
#   From: 2010.03.12/outbox.cif.g09.slc.cpg/sg14_31_cif.got.tgz:61706.got - 2010.03.31 13:35:05.
