data_PCOD8123392
_publ_section_title
;
Structure prediction by ZEFSAII (Michael W. Deem and Ramdas Pophale) SiO2 
 PCOD8123392
Probable space group: P 21/C
;
_chemical_formula_sum "Si O2"
_cell_formula_units_Z 32
_cell_length_a 16.452108
_cell_length_b 15.463586
_cell_length_c 13.811647
_cell_angle_alpha 90.000000
_cell_angle_beta 32.057051
_cell_angle_gamma 90.000000
_cell_volume 1864.997375
_symmetry_space_group_name_H-M "P 21/C"
_symmetry_group_IT_number 14
_symmetry_cell_setting 'monoclinic'
loop_
_space_group_symop_operation_xyz
x,y,z
-x,1/2+y,1/2-z
-x,-y,-z
x,1/2-y,1/2+z
loop_
_atom_site_type_symbol
_atom_site_label
_atom_site_fract_x
_atom_site_fract_y
_atom_site_fract_z
Si Si1 0.171733 0.449754 0.111444
Si Si2 0.302143 0.627723 0.973334
Si Si3 0.828013 0.042521 0.005386
Si Si4 0.879399 0.731280 0.898815
Si Si5 0.652650 0.620424 0.670005
Si Si6 0.080765 0.698144 0.358712
Si Si7 0.162183 0.735201 0.480589
Si Si8 0.182848 0.424136 0.318065
O O1 0.262139 0.531283 0.975822
O O2 0.204022 0.362333 0.018132
O O3 0.236422 0.436683 0.154782
O O4 0.991341 0.469641 0.288955
O O5 0.202317 0.649260 0.168456
O O6 0.477900 0.635599 0.823467
O O7 0.270905 0.692926 0.917068
O O8 0.769122 0.140933 0.059263
O O9 0.709858 0.974623 0.074335
O O10 0.848421 0.016665 0.098355
O O11 0.980925 0.737067 0.893672
O O12 0.988416 0.741695 0.695156
O O13 0.752712 0.805573 0.017630
O O14 0.683324 0.624991 0.755411
O O15 0.163652 0.749485 0.362686
O O16 0.973111 0.629881 0.521199
#
# Coordination Sequence:
#
# PCOD8123392 Si02
#       8
#     4   4   4   4   4   4   4   4
#     4  11  17  31  56  78  98 131 179 212 256 292
#     4  11  22  33  46  78 115 138 162 208 255 322
#     4   9  16  30  54  76  94 131 167 217 253 289
#     4   9  19  33  54  78  98 134 174 219 249 299
#     4   9  21  34  45  78 115 131 161 205 268 312
#     4  10  17  35  55  77 104 129 174 221 251 293
#     4  10  19  33  56  77  97 136 177 212 259 287
#     4   9  16  31  56  77 101 124 170 222 260 285
#
# _framework density 17.158200000000001
#
# number of rings (size 3 to 8) (size 9 to 14) (size 15 to 20)
#    0.750    1.500    3.750    1.875    0.000    1.500 
#    2.250    0.625    0.000    0.000    0.000    9.625 
#    0.000    0.000    0.000    0.000    0.000    0.000 
#
# Total GULP energy -396573.424817 kJ/mol
# GULP energy per Si atom -12392.919526 kJ/mol
# Density = 1.711915 g / cm^3
# Si number density = 17.158200 Si / 1000 Ang^3
#
#
#
# Elastic Constant Matrix: (Units=GPa)
#
#
# Indices 1 2 3 4 5 6 
#
# 1 60.1787 49.4571 27.5523 0.0000 -6.9669 0.0000
# 2 49.4571 138.3378 38.4323 0.0000 -3.5733 0.0000
# 3 27.5523 38.4323 36.3439 0.0000 -10.5292 0.0000
# 4 0.0000 0.0000 0.0000 14.4235 0.0000 3.5433
# 5 -6.9669 -3.5733 -10.5292 0.0000 22.2204 0.0000
# 6 0.0000 0.0000 0.0000 3.5433 0.0000 29.8546
#
#
#
# Elastic Compliance Matrix: (Units=1/GPa)
#
#
# Indices 1 2 3 4 5 6 
#
# 1 0.028533 -0.006001 -0.015037 0.000000 0.000856 0.000000
# 2 -0.006001 0.011820 -0.009208 0.000000 -0.004344 0.000000
# 3 -0.015037 -0.009208 0.054313 0.000000 0.019541 0.000000
# 4 0.000000 0.000000 0.000000 0.071414 0.000000 -0.008476
# 5 0.000856 -0.004344 0.019541 0.000000 0.053833 0.000000
# 6 0.000000 0.000000 0.000000 -0.008476 0.000000 0.034502
#
#
# Mechanical properties :
#
#
# Convention : Reuss Voigt Hill
#
# Bulk Modulus (GPa) = 29.26260 51.74931 40.50596
# Shear Modulus (GPa) = 15.32343 21.26094 18.29218
#
# Velocity S-wave (km/s) = 2.99167 3.52392 3.26865
# Velocity P-wave (km/s) = 5.38749 6.83981 6.15662
#
# Compressibility (1/GPa) = 0.03417331
#
# Stress axis : x y z
#
# Youngs Moduli (GPa) = 35.04753 84.60086 18.41179
#
# Poissons Ratio (x) = 0.50771 0.27685
# Poissons Ratio (y) = 0.21033 0.16954
# Poissons Ratio (z) = 0.52700 0.77904
#
# Static dielectric constant tensor:
#      x y z
#    x 3.089110 0.000000 0.034340 
#    y 0.000000 3.351860 0.000000 
#    z 0.034340 0.000000 2.885060 
# 
# 
# High freq. dielectric constant tensor:
#      x y z
#    x 1.646740 0.000000 -0.008770 
#    y 0.000000 1.667130 0.000000 
#    z -0.008770 0.000000 1.628140 
# 
# From -- ./inp_files/49155.got.cif
#   From: 2010.03.12/outbox.cif.g09.slc.cpg/sg14_25_cif.got.tgz:49155.got - 2010.03.31 13:35:05.
