data_PCOD8123506
_publ_section_title
;
Structure prediction by ZEFSAII (Michael W. Deem and Ramdas Pophale) SiO2 
 PCOD8123506
Probable space group: P 21/C
;
_chemical_formula_sum "Si O2"
_cell_formula_units_Z 24
_cell_length_a 16.960152
_cell_length_b 15.662735
_cell_length_c 16.125772
_cell_angle_alpha 90.000000
_cell_angle_beta 18.118634
_cell_angle_gamma 90.000000
_cell_volume 1332.165117
_symmetry_space_group_name_H-M "P 21/C"
_symmetry_group_IT_number 14
_symmetry_cell_setting 'monoclinic'
loop_
_space_group_symop_operation_xyz
x,y,z
-x,1/2+y,1/2-z
-x,-y,-z
x,1/2-y,1/2+z
loop_
_atom_site_type_symbol
_atom_site_label
_atom_site_fract_x
_atom_site_fract_y
_atom_site_fract_z
Si Si1 0.978369 0.634190 0.642637
Si Si2 0.503432 0.607842 0.748866
Si Si3 0.995930 0.197382 0.065632
Si Si4 0.496212 0.252714 0.126982
Si Si5 0.521866 0.211971 0.280387
Si Si6 0.996292 0.451213 0.698025
O O1 0.004324 0.645662 0.519014
O O2 0.201485 0.684179 0.465987
O O3 0.002115 0.534208 0.635252
O O4 0.703015 0.666309 0.946099
O O5 0.504161 0.648932 0.840624
O O6 0.500153 0.684989 0.684600
O O7 0.757046 0.550327 0.488004
O O8 0.251960 0.548976 0.994116
O O9 0.242198 0.259510 0.825967
O O10 0.995130 0.133392 0.143716
O O11 0.747457 0.258531 0.319292
O O12 0.499591 0.189982 0.204029
#
# Coordination Sequence:
#
# PCOD8123506 Si02
#       6
#     4   4   4   4   4   4
#     4  12  21  28  50  82 108 113 176 212 242 260
#     4   8  17  32  50  57  94 147 170 174 243 291
#     4  10  18  32  47  73 102 144 152 188 241 325
#     4   8  17  32  50  57  94 147 170 174 243 291
#     4  10  20  34  47  69 100 140 164 222 218 278
#     4  10  18  32  47  73 102 144 152 188 241 325
#
# _framework density 18.015785000000001
#
# number of rings (size 3 to 8) (size 9 to 14) (size 15 to 20)
#    1.000    1.333    0.000    4.500    0.000    0.000 
#    0.000    6.667    0.000    0.000    0.000    0.000 
#    0.000   93.333    0.000    0.000    0.000    0.000 
#
# Total GULP energy -297338.150218 kJ/mol
# GULP energy per Si atom -12389.089592 kJ/mol
# Density = 1.797478 g / cm^3
# Si number density = 18.015785 Si / 1000 Ang^3
#
#
#
# Elastic Constant Matrix: (Units=GPa)
#
#
# Indices 1 2 3 4 5 6 
#
# 1 24.5202 13.3556 19.9789 0.0000 -13.6138 0.0000
# 2 13.3556 9.3941 16.6322 0.0000 1.5631 0.0000
# 3 19.9789 16.6322 144.7057 0.0000 -19.2479 0.0000
# 4 0.0000 0.0000 0.0000 22.8650 0.0000 -2.7553
# 5 -13.6138 1.5631 -19.2479 0.0000 27.3416 0.0000
# 6 0.0000 0.0000 0.0000 -2.7553 0.0000 13.8515
#
#
#
# Elastic Compliance Matrix: (Units=1/GPa)
#
#
# Indices 1 2 3 4 5 6 
#
# 1 -0.152955 0.281861 -0.025986 0.000000 -0.110566 0.000000
# 2 0.281861 -0.374630 0.028311 0.000000 0.181691 0.000000
# 3 -0.025986 0.028311 0.005856 0.000000 -0.010434 0.000000
# 4 0.000000 0.000000 0.000000 0.044809 0.000000 0.008913
# 5 -0.110566 0.181691 -0.010434 0.000000 -0.036211 0.000000
# 6 0.000000 0.000000 0.000000 0.008913 0.000000 0.073967
#
#
# Mechanical properties :
#
#
# Convention : Reuss Voigt Hill
#
# Bulk Modulus (GPa) = 21.43869 30.95040 26.19454
# Shear Modulus (GPa) = -5.04038 21.38850 8.17406
#
# Velocity S-wave (km/s) = -1.67447 3.44933 2.13237
# Velocity P-wave (km/s) = 2.86135 5.75158 4.54247
#
# Compressibility (1/GPa) = 0.04664465
#
# Stress axis : x y z
#
# Youngs Moduli (GPa) = -6.53789 -2.66930 170.75580
#
# Poissons Ratio (x) = 0.75237 4.43718
# Poissons Ratio (y) = 1.84277 -4.83433
# Poissons Ratio (z) = -0.16989 0.07557
#
# Static dielectric constant tensor:
#      x y z
#    x 2.990530 0.000000 -0.266970 
#    y 0.000000 2.876930 0.000000 
#    z -0.266970 0.000000 3.858130 
# 
# 
# High freq. dielectric constant tensor:
#      x y z
#    x 1.659560 0.000000 -0.020620 
#    y 0.000000 1.649590 0.000000 
#    z -0.020620 0.000000 1.729150 
# 
# From -- ./inp_files/47510.got.cif
#   From: 2010.03.12/outbox.cif.g09.slc.cpg/sg14_24_cif.got.tgz:47510.got - 2010.03.31 13:35:05.
