data_PCOD8123909
_publ_section_title
;
Structure prediction by ZEFSAII (Michael W. Deem and Ramdas Pophale) SiO2 
 PCOD8123909
Probable space group: P 21/C
;
_chemical_formula_sum "Si O2"
_cell_formula_units_Z 32
_cell_length_a 19.565933
_cell_length_b 8.771312
_cell_length_c 20.027971
_cell_angle_alpha 90.000000
_cell_angle_beta 29.742210
_cell_angle_gamma 90.000000
_cell_volume 1705.178909
_symmetry_space_group_name_H-M "P 21/C"
_symmetry_group_IT_number 14
_symmetry_cell_setting 'monoclinic'
loop_
_space_group_symop_operation_xyz
x,y,z
-x,1/2+y,1/2-z
-x,-y,-z
x,1/2-y,1/2+z
loop_
_atom_site_type_symbol
_atom_site_label
_atom_site_fract_x
_atom_site_fract_y
_atom_site_fract_z
Si Si1 0.297146 0.687275 0.121335
Si Si2 0.599209 0.844085 0.681506
Si Si3 0.356812 0.336178 0.078205
Si Si4 0.176546 0.210492 0.609818
Si Si5 0.895129 0.364820 0.834062
Si Si6 0.673764 0.311441 0.123699
Si Si7 0.636834 0.318347 0.304628
Si Si8 0.422056 0.168016 0.150626
O O1 0.356646 0.518262 0.080842
O O2 0.163750 0.689791 0.187483
O O3 0.258634 0.760566 0.226064
O O4 0.416847 0.789347 0.986822
O O5 0.701704 0.751780 0.545976
O O6 0.441227 0.810280 0.798638
O O7 0.636870 0.799481 0.725606
O O8 0.614013 0.023420 0.655972
O O9 0.233184 0.274677 0.136923
O O10 0.336952 0.268098 0.169273
O O11 0.500562 0.285075 0.923907
O O12 0.055974 0.331067 0.701821
O O13 0.116785 0.044324 0.646334
O O14 0.811944 0.280153 0.964095
O O15 0.710366 0.297603 0.170988
O O16 0.593225 0.491502 0.355274
#
# Coordination Sequence:
#
# PCOD8123909 Si02
#       8
#     4   4   4   4   4   4   4   4
#     4  10  19  33  53  77 109 142 174 218 267 316
#     4  10  20  35  55  81 109 138 179 225 266 314
#     4  10  19  33  53  77 109 142 174 218 267 316
#     4  10  22  38  55  78 108 144 182 219 267 321
#     4  10  22  38  55  78 108 144 182 219 267 321
#     4  10  20  35  55  81 109 138 179 225 266 314
#     4  10  19  31  53  82 108 136 175 221 267 315
#     4  10  19  31  53  82 108 136 175 221 267 315
#
# _framework density 18.766358
#
# number of rings (size 3 to 8) (size 9 to 14) (size 15 to 20)
#    0.000    2.000    2.500    3.000    0.000    4.000 
#    0.000    1.250    0.000    7.500    0.000    0.000 
#    0.000    0.000    0.000    0.000    0.000    0.000 
#
# Total GULP energy -396811.552191 kJ/mol
# GULP energy per Si atom -12400.361006 kJ/mol
# Density = 1.872364 g / cm^3
# Si number density = 18.766358 Si / 1000 Ang^3
#
#
#
# Elastic Constant Matrix: (Units=GPa)
#
#
# Indices 1 2 3 4 5 6 
#
# 1 80.1179 16.2775 17.9317 0.0000 15.8346 0.0000
# 2 16.2775 38.3523 1.7848 0.0000 10.1445 0.0000
# 3 17.9317 1.7848 48.4140 0.0000 10.5324 0.0000
# 4 0.0000 0.0000 0.0000 23.8793 0.0000 -1.0128
# 5 15.8346 10.1445 10.5324 0.0000 27.9172 0.0000
# 6 0.0000 0.0000 0.0000 -1.0128 0.0000 32.3376
#
#
#
# Elastic Compliance Matrix: (Units=1/GPa)
#
#
# Indices 1 2 3 4 5 6 
#
# 1 0.015535 -0.004976 -0.004409 0.000000 -0.005340 0.000000
# 2 -0.004976 0.030519 0.002741 0.000000 -0.009302 0.000000
# 3 -0.004409 0.002741 0.023814 0.000000 -0.007480 0.000000
# 4 0.000000 0.000000 0.000000 0.041933 0.000000 0.001313
# 5 -0.005340 -0.009302 -0.007480 0.000000 0.045051 0.000000
# 6 0.000000 0.000000 0.000000 0.001313 0.000000 0.030965
#
#
# Mechanical properties :
#
#
# Convention : Reuss Voigt Hill
#
# Bulk Modulus (GPa) = 17.67346 26.54134 22.10740
# Shear Modulus (GPa) = 22.73113 25.55285 24.14199
#
# Velocity S-wave (km/s) = 3.48411 3.69403 3.59060
# Velocity P-wave (km/s) = 5.06196 5.68931 5.38478
#
# Compressibility (1/GPa) = 0.05658200
#
# Stress axis : x y z
#
# Youngs Moduli (GPa) = 64.37247 32.76685 41.99157
#
# Poissons Ratio (x) = 0.16303 0.18512
# Poissons Ratio (y) = 0.32029 -0.11512
# Poissons Ratio (z) = 0.28379 -0.08983
#
# Static dielectric constant tensor:
#      x y z
#    x 3.673030 0.000000 0.328480 
#    y 0.000000 3.413850 0.000000 
#    z 0.328480 0.000000 3.308370 
# 
# 
# High freq. dielectric constant tensor:
#      x y z
#    x 1.739240 0.000000 0.022690 
#    y 0.000000 1.731570 0.000000 
#    z 0.022690 0.000000 1.697780 
# 
# From -- ./inp_files/69784.got.cif
#   From: 2010.03.12/outbox.cif.g09.slc.cpg/sg14_35_cif.got.tgz:69784.got - 2010.03.31 13:35:05.
