data_PCOD8123888
_publ_section_title
;
Structure prediction by ZEFSAII (Michael W. Deem and Ramdas Pophale) SiO2 
 PCOD8123888
Probable space group: P 21/C
;
_chemical_formula_sum "Si O2"
_cell_formula_units_Z 24
_cell_length_a 32.549000
_cell_length_b 8.360611
_cell_length_c 4.995876
_cell_angle_alpha 90.000000
_cell_angle_beta 73.367148
_cell_angle_gamma 90.000000
_cell_volume 1302.640944
_symmetry_space_group_name_H-M "P 21/C"
_symmetry_group_IT_number 14
_symmetry_cell_setting 'monoclinic'
loop_
_space_group_symop_operation_xyz
x,y,z
-x,1/2+y,1/2-z
-x,-y,-z
x,1/2-y,1/2+z
loop_
_atom_site_type_symbol
_atom_site_label
_atom_site_fract_x
_atom_site_fract_y
_atom_site_fract_z
Si Si1 0.213752 0.354382 0.006353
Si Si2 0.966449 0.860381 0.103213
Si Si3 0.469062 0.645509 0.613699
Si Si4 0.371577 0.645474 0.741781
Si Si5 0.126254 0.354563 0.317439
Si Si6 0.307449 0.360156 0.875698
O O1 0.212037 0.303564 0.699815
O O2 0.259425 0.439404 0.982104
O O3 0.170090 0.455430 0.162334
O O4 0.972652 0.784174 0.383062
O O5 0.918965 0.941811 0.160571
O O6 0.000000 0.000000 0.000000
O O7 0.500000 0.500000 0.500000
O O8 0.478091 0.709395 0.893684
O O9 0.420318 0.584022 0.677414
O O10 0.362421 0.709585 0.462283
O O11 0.341239 0.498272 0.864390
O O12 0.127425 0.303804 0.625124
O O13 0.314433 0.279806 0.576171
#
# Coordination Sequence:
#
# PCOD8123888 Si02
#       6
#     4   4   4   4   4   4
#     4   8  14  25  42  66  91 113 149 198 232 261
#     4  10  19  31  48  69  93 123 157 193 236 283
#     4  10  21  36  54  75  99 129 163 199 238 280
#     4  10  21  36  51  71 103 135 157 187 241 296
#     4   8  14  25  42  63  87 117 151 187 230 277
#     4  10  19  31  51  76  96 121 162 204 233 267
#
# _framework density 18.424111
#
# number of rings (size 3 to 8) (size 9 to 14) (size 15 to 20)
#    0.000    2.667    0.000    2.000    0.000    1.333 
#    0.000    0.000    0.000    2.000    0.000    0.000 
#    0.000    0.000    0.000    0.000    0.000    0.000 
#
# Total GULP energy -297349.932123 kJ/mol
# GULP energy per Si atom -12389.580505 kJ/mol
# Density = 1.838218 g / cm^3
# Si number density = 18.424111 Si / 1000 Ang^3
#
#
#
# Elastic Constant Matrix: (Units=GPa)
#
#
# Indices 1 2 3 4 5 6 
#
# 1 129.5345 52.2101 29.2982 0.0000 -33.5274 0.0000
# 2 52.2101 44.6606 8.2605 0.0000 -23.7652 0.0000
# 3 29.2982 8.2605 70.6615 0.0000 -6.8026 0.0000
# 4 0.0000 0.0000 0.0000 16.3131 0.0000 -8.4299
# 5 -33.5274 -23.7652 -6.8026 0.0000 41.8149 0.0000
# 6 0.0000 0.0000 0.0000 -8.4299 0.0000 19.9963
#
#
#
# Elastic Compliance Matrix: (Units=1/GPa)
#
#
# Indices 1 2 3 4 5 6 
#
# 1 0.016119 -0.016522 -0.004482 0.000000 0.002805 0.000000
# 2 -0.016522 0.049323 0.002548 0.000000 0.015199 0.000000
# 3 -0.004482 0.002548 0.015753 0.000000 0.000417 0.000000
# 4 0.000000 0.000000 0.000000 0.078374 0.000000 0.033040
# 5 0.002805 0.015199 0.000417 0.000000 0.034870 0.000000
# 6 0.000000 0.000000 0.000000 0.033040 0.000000 0.063938
#
#
# Mechanical properties :
#
#
# Convention : Reuss Voigt Hill
#
# Bulk Modulus (GPa) = 22.58251 47.15489 34.86870
# Shear Modulus (GPa) = 16.12637 25.96404 21.04521
#
# Velocity S-wave (km/s) = 2.96173 3.75806 3.38341
# Velocity P-wave (km/s) = 4.89688 6.66936 5.85063
#
# Compressibility (1/GPa) = 0.04428206
#
# Stress axis : x y z
#
# Youngs Moduli (GPa) = 62.03790 20.27447 63.48159
#
# Poissons Ratio (x) = 0.33498 0.28452
# Poissons Ratio (y) = 1.02502 -0.16174
# Poissons Ratio (z) = 0.27805 -0.05166
#
# Static dielectric constant tensor:
#      x y z
#    x 3.906720 0.000000 -0.158710 
#    y 0.000000 2.641190 0.000000 
#    z -0.158710 0.000000 3.719690 
# 
# 
# High freq. dielectric constant tensor:
#      x y z
#    x 1.743670 0.000000 -0.002890 
#    y 0.000000 1.630370 0.000000 
#    z -0.002890 0.000000 1.744760 
# 
# From -- ./inp_files/4519.got.cif
#   From: 2010.03.12/outbox.cif.g09.slc.cpg/sg14_3_cif.got.tgz:4519.got - 2010.03.31 13:35:05.
