data_PCOD8123659
_publ_section_title
;
Structure prediction by ZEFSAII (Michael W. Deem and Ramdas Pophale) SiO2 
 PCOD8123659
Probable space group: P 21/C
;
_chemical_formula_sum "Si O2"
_cell_formula_units_Z 32
_cell_length_a 14.811154
_cell_length_b 15.603794
_cell_length_c 21.582604
_cell_angle_alpha 90.000000
_cell_angle_beta 161.204313
_cell_angle_gamma 90.000000
_cell_volume 1607.092899
_symmetry_space_group_name_H-M "P 21/C"
_symmetry_group_IT_number 14
_symmetry_cell_setting 'monoclinic'
loop_
_space_group_symop_operation_xyz
x,y,z
-x,1/2+y,1/2-z
-x,-y,-z
x,1/2-y,1/2+z
loop_
_atom_site_type_symbol
_atom_site_label
_atom_site_fract_x
_atom_site_fract_y
_atom_site_fract_z
Si Si1 0.117214 0.916787 0.633608
Si Si2 0.323469 0.631234 0.739925
Si Si3 0.276856 0.144882 0.092638
Si Si4 0.658340 0.484062 0.909554
Si Si5 0.351241 0.704951 0.624366
Si Si6 0.411099 0.203163 0.045646
Si Si7 0.309141 0.095552 0.743209
Si Si8 0.060869 0.336127 0.198711
O O1 0.282179 0.837200 0.770731
O O2 0.997361 0.888930 0.488185
O O3 0.342171 0.993551 0.773132
O O4 0.849671 0.943933 0.500628
O O5 0.461072 0.536446 0.828764
O O6 0.254749 0.663077 0.625917
O O7 0.542208 0.695665 0.914920
O O8 0.038871 0.625238 0.593281
O O9 0.471605 0.064776 0.237475
O O10 0.384606 0.231560 0.195827
O O11 0.289764 0.156921 0.027475
O O12 0.848395 0.415941 0.070168
O O13 0.436327 0.630545 0.631826
O O14 0.089418 0.752176 0.424396
O O15 0.194915 0.186899 0.850825
O O16 0.302074 0.139856 0.805910
#
# Coordination Sequence:
#
# PCOD8123659 Si02
#       8
#     4   4   4   4   4   4   4   4
#     4  10  19  37  62  88 117 143 201 254 289 336
#     4  11  22  38  64  88 114 154 205 247 297 344
#     4  10  21  38  60  87 119 152 199 250 292 340
#     4  10  21  40  64  90 114 152 200 255 294 340
#     4  10  19  36  60  88 114 154 198 249 293 338
#     4  11  24  38  56  88 125 163 190 238 293 360
#     4  10  18  34  62  88 107 148 196 251 285 337
#     4  10  23  39  54  87 129 154 192 237 298 360
#
# _framework density 19.911729999999999
#
# number of rings (size 3 to 8) (size 9 to 14) (size 15 to 20)
#    0.000    1.750    1.250    5.625    1.750    3.000 
#    2.250    0.625    0.000    0.000    0.000    0.000 
#    0.000    0.000    0.000    0.000    0.000    0.000 
#
# Total GULP energy -396846.732572 kJ/mol
# GULP energy per Si atom -12401.460393 kJ/mol
# Density = 1.986641 g / cm^3
# Si number density = 19.911730 Si / 1000 Ang^3
#
#
#
# Elastic Constant Matrix: (Units=GPa)
#
#
# Indices 1 2 3 4 5 6 
#
# 1 98.5232 23.4656 49.9767 0.0000 1.8581 0.0000
# 2 23.4656 59.0089 21.8275 0.0000 -5.2347 0.0000
# 3 49.9767 21.8275 78.9859 0.0000 -16.3185 0.0000
# 4 0.0000 0.0000 0.0000 19.3741 0.0000 4.3230
# 5 1.8581 -5.2347 -16.3185 0.0000 39.2308 0.0000
# 6 0.0000 0.0000 0.0000 4.3230 0.0000 30.1857
#
#
#
# Elastic Compliance Matrix: (Units=1/GPa)
#
#
# Indices 1 2 3 4 5 6 
#
# 1 0.016417 -0.003069 -0.010705 0.000000 -0.005640 0.000000
# 2 -0.003069 0.019455 -0.003138 0.000000 0.001436 0.000000
# 3 -0.010705 -0.003138 0.022229 0.000000 0.009335 0.000000
# 4 0.000000 0.000000 0.000000 0.053319 0.000000 -0.007636
# 5 -0.005640 0.001436 0.009335 0.000000 0.029832 0.000000
# 6 0.000000 0.000000 0.000000 -0.007636 0.000000 0.034222
#
#
# Mechanical properties :
#
#
# Convention : Reuss Voigt Hill
#
# Bulk Modulus (GPa) = 41.18856 47.45084 44.31970
# Shear Modulus (GPa) = 23.00001 27.17465 25.08733
#
# Velocity S-wave (km/s) = 3.40236 3.69827 3.55340
# Velocity P-wave (km/s) = 6.01375 6.48988 6.25635
#
# Compressibility (1/GPa) = 0.02427858
#
# Stress axis : x y z
#
# Youngs Moduli (GPa) = 60.91119 51.40033 44.98539
#
# Poissons Ratio (x) = 0.15776 0.48156
# Poissons Ratio (y) = 0.18695 0.14115
# Poissons Ratio (z) = 0.65204 0.16128
#
# Static dielectric constant tensor:
#      x y z
#    x 3.477290 0.000000 0.076130 
#    y 0.000000 3.822000 0.000000 
#    z 0.076130 0.000000 3.314630 
# 
# 
# High freq. dielectric constant tensor:
#      x y z
#    x 1.768370 0.000000 0.012540 
#    y 0.000000 1.787630 0.000000 
#    z 0.012540 0.000000 1.749420 
# 
# From -- ./inp_files/68727.got.cif
#   From: 2010.03.12/outbox.cif.g09.slc.cpg/sg14_35_cif.got.tgz:68727.got - 2010.03.31 13:35:05.
