data_PCOD8123917
_publ_section_title
;
Structure prediction by ZEFSAII (Michael W. Deem and Ramdas Pophale) SiO2 
 PCOD8123917
Probable space group: P 21/C
;
_chemical_formula_sum "Si O2"
_cell_formula_units_Z 20
_cell_length_a 8.234657
_cell_length_b 13.949222
_cell_length_c 15.177895
_cell_angle_alpha 90.000000
_cell_angle_beta 144.049791
_cell_angle_gamma 90.000000
_cell_volume 1023.542299
_symmetry_space_group_name_H-M "P 21/C"
_symmetry_group_IT_number 14
_symmetry_cell_setting 'monoclinic'
loop_
_space_group_symop_operation_xyz
x,y,z
-x,1/2+y,1/2-z
-x,-y,-z
x,1/2-y,1/2+z
loop_
_atom_site_type_symbol
_atom_site_label
_atom_site_fract_x
_atom_site_fract_y
_atom_site_fract_z
Si Si1 0.397226 0.000801 0.251337
Si Si2 0.794024 0.539870 0.525542
Si Si3 0.756607 0.841962 0.338759
Si Si4 0.524026 0.861461 0.058421
Si Si5 0.378187 0.693102 0.101905
O O1 0.642102 0.922679 0.354877
O O2 0.125045 0.950603 0.170636
O O3 0.499040 0.087071 0.358839
O O4 0.330690 0.045267 0.126559
O O5 0.722456 0.438819 0.540870
O O6 0.670086 0.628428 0.527806
O O7 0.749303 0.882481 0.234822
O O8 0.555118 0.749028 0.254533
O O9 0.065750 0.812940 0.500671
O O10 0.395747 0.754427 0.017765
#
# Coordination Sequence:
#
# PCOD8123917 Si02
#       5
#     4   4   4   4   4
#     4  10  19  31  62  83 117 140 189 237 284 324
#     4   9  17  35  56  85 106 154 184 228 279 343
#     4   9  20  34  57  82 112 150 189 229 283 331
#     4   8  18  33  58  74 114 146 193 215 280 344
#     4  10  19  35  58  80 115 149 183 230 281 330
#
# _framework density 19.539982999999999
#
# number of rings (size 3 to 8) (size 9 to 14) (size 15 to 20)
#    1.200    1.600    0.000    1.800    2.800    0.000 
#    0.000    3.000    4.400    0.000    0.000    0.000 
#    0.000    0.000    0.000    0.000    0.000    0.000 
#
# Total GULP energy -247820.563652 kJ/mol
# GULP energy per Si atom -12391.028183 kJ/mol
# Density = 1.949551 g / cm^3
# Si number density = 19.539983 Si / 1000 Ang^3
#
#
#
# Elastic Constant Matrix: (Units=GPa)
#
#
# Indices 1 2 3 4 5 6 
#
# 1 106.4386 47.9959 29.6292 0.0000 25.3086 0.0000
# 2 47.9959 107.6461 30.7070 0.0000 24.0687 0.0000
# 3 29.6292 30.7070 79.9080 0.0000 38.4303 0.0000
# 4 0.0000 0.0000 0.0000 29.9436 0.0000 2.7206
# 5 25.3086 24.0687 38.4303 0.0000 26.4997 0.0000
# 6 0.0000 0.0000 0.0000 2.7206 0.0000 36.3217
#
#
#
# Elastic Compliance Matrix: (Units=1/GPa)
#
#
# Indices 1 2 3 4 5 6 
#
# 1 0.013596 -0.003801 0.003318 0.000000 -0.014345 0.000000
# 2 -0.003801 0.012820 0.001114 0.000000 -0.009628 0.000000
# 3 0.003318 0.001114 0.042528 0.000000 -0.065856 0.000000
# 4 0.000000 0.000000 0.000000 0.033625 0.000000 -0.002519
# 5 -0.014345 -0.009628 -0.065856 0.000000 0.155686 0.000000
# 6 0.000000 0.000000 0.000000 -0.002519 0.000000 0.027720
#
#
# Mechanical properties :
#
#
# Convention : Reuss Voigt Hill
#
# Bulk Modulus (GPa) = 14.24395 56.73966 35.49180
# Shear Modulus (GPa) = 16.22764 30.93038 23.57901
#
# Velocity S-wave (km/s) = 2.88494 3.98292 3.47754
# Velocity P-wave (km/s) = 4.28983 7.08888 5.85896
#
# Compressibility (1/GPa) = 0.07020526
#
# Stress axis : x y z
#
# Youngs Moduli (GPa) = 73.54899 78.00483 23.51388
#
# Poissons Ratio (x) = 0.29653 -0.07802
# Poissons Ratio (y) = 0.27959 -0.02619
# Poissons Ratio (z) = -0.24405 -0.08688
#
# Static dielectric constant tensor:
#      x y z
#    x 3.322550 0.000000 0.172260 
#    y 0.000000 3.461080 0.000000 
#    z 0.172260 0.000000 3.239610 
# 
# 
# High freq. dielectric constant tensor:
#      x y z
#    x 1.734000 0.000000 0.026790 
#    y 0.000000 1.756490 0.000000 
#    z 0.026790 0.000000 1.738190 
# 
# From -- ./inp_files/29465.got.cif
#   From: 2010.03.12/outbox.cif.g09.slc.cpg/sg14_15_cif.got.tgz:29465.got - 2010.03.31 13:35:05.
