data_PCOD8123782
_publ_section_title
;
Structure prediction by ZEFSAII (Michael W. Deem and Ramdas Pophale) SiO2 
 PCOD8123782
Probable space group: P 21/C
;
_chemical_formula_sum "Si O2"
_cell_formula_units_Z 24
_cell_length_a 24.429963
_cell_length_b 8.612971
_cell_length_c 8.945731
_cell_angle_alpha 90.000000
_cell_angle_beta 136.729290
_cell_angle_gamma 90.000000
_cell_volume 1290.223700
_symmetry_space_group_name_H-M "P 21/C"
_symmetry_group_IT_number 14
_symmetry_cell_setting 'monoclinic'
loop_
_space_group_symop_operation_xyz
x,y,z
-x,1/2+y,1/2-z
-x,-y,-z
x,1/2-y,1/2+z
loop_
_atom_site_type_symbol
_atom_site_label
_atom_site_fract_x
_atom_site_fract_y
_atom_site_fract_z
Si Si1 0.591193 0.045090 0.678990
Si Si2 0.089787 0.446477 0.684611
Si Si3 0.729818 0.693886 0.437983
Si Si4 0.338645 0.759518 0.922863
Si Si5 0.746457 0.061434 0.499935
Si Si6 0.160647 0.273022 0.093210
O O1 0.601346 0.166471 0.564854
O O2 0.500000 0.000000 0.500000
O O3 0.645346 0.892234 0.759216
O O4 0.611169 0.120831 0.878032
O O5 0.099037 0.319805 0.573334
O O6 0.000000 0.500000 0.500000
O O7 0.157278 0.577790 0.790544
O O8 0.106679 0.382063 0.883743
O O9 0.782840 0.660359 0.395457
O O10 0.779173 0.629239 0.679472
O O11 0.720298 0.880633 0.436616
O O12 0.276341 0.852458 0.697622
O O13 0.292887 0.637487 0.934592
#
# Coordination Sequence:
#
# PCOD8123782 Si02
#       6
#     4   4   4   4   4   4
#     4  11  23  37  57  83 110 140 178 229 273 311
#     4  10  19  33  52  78 107 136 178 228 269 309
#     4  10  18  37  60  76 102 150 190 210 258 339
#     4  10  22  38  54  82 114 140 178 224 272 318
#     4   9  20  37  58  79 108 148 182 215 264 329
#     4   8  18  34  54  76 100 140 186 216 254 328
#
# _framework density 18.601426
#
# number of rings (size 3 to 8) (size 9 to 14) (size 15 to 20)
#    0.000    2.667    0.000    4.000    0.000    5.333 
#    0.000    6.667    0.000    0.000    0.000    0.000 
#    0.000    0.000    0.000    0.000    0.000    0.000 
#
# Total GULP energy -297420.458558 kJ/mol
# GULP energy per Si atom -12392.519107 kJ/mol
# Density = 1.855909 g / cm^3
# Si number density = 18.601426 Si / 1000 Ang^3
#
#
#
# Elastic Constant Matrix: (Units=GPa)
#
#
# Indices 1 2 3 4 5 6 
#
# 1 64.6828 5.1071 37.3778 0.0000 12.7552 0.0000
# 2 5.1071 57.5049 13.4970 0.0000 13.6467 0.0000
# 3 37.3778 13.4970 90.1297 0.0000 17.6737 0.0000
# 4 0.0000 0.0000 0.0000 31.7255 0.0000 5.2530
# 5 12.7552 13.6467 17.6737 0.0000 48.2375 0.0000
# 6 0.0000 0.0000 0.0000 5.2530 0.0000 25.4761
#
#
#
# Elastic Compliance Matrix: (Units=1/GPa)
#
#
# Indices 1 2 3 4 5 6 
#
# 1 0.020635 0.000713 -0.008140 0.000000 -0.002676 0.000000
# 2 0.000713 0.018971 -0.002206 0.000000 -0.004747 0.000000
# 3 -0.008140 -0.002206 0.015360 0.000000 -0.002852 0.000000
# 4 0.000000 0.000000 0.000000 0.032635 0.000000 -0.006729
# 5 -0.002676 -0.004747 -0.002852 0.000000 0.023826 0.000000
# 6 0.000000 0.000000 0.000000 -0.006729 0.000000 0.040640
#
#
# Mechanical properties :
#
#
# Convention : Reuss Voigt Hill
#
# Bulk Modulus (GPa) = 28.01027 36.03124 32.02075
# Shear Modulus (GPa) = 27.28783 31.51017 29.39900
#
# Velocity S-wave (km/s) = 3.83427 4.12025 3.97983
# Velocity P-wave (km/s) = 5.89007 6.48440 6.19437
#
# Compressibility (1/GPa) = 0.03570120
#
# Stress axis : x y z
#
# Youngs Moduli (GPa) = 48.46131 52.71263 65.10355
#
# Poissons Ratio (x) = -0.03757 0.52992
# Poissons Ratio (y) = -0.03454 0.14359
# Poissons Ratio (z) = 0.39446 0.11626
#
# Static dielectric constant tensor:
#      x y z
#    x 3.525240 0.000000 -0.256140 
#    y 0.000000 3.334410 0.000000 
#    z -0.256140 0.000000 3.566290 
# 
# 
# High freq. dielectric constant tensor:
#      x y z
#    x 1.732370 0.000000 -0.021820 
#    y 0.000000 1.707070 0.000000 
#    z -0.021820 0.000000 1.729700 
# 
# From -- ./inp_files/17457.got.cif
#   From: 2010.03.12/outbox.cif.g09.slc.cpg/sg14_9_cif.got.tgz:17457.got - 2010.03.31 13:35:05.
