data_PCOD8123243
_publ_section_title
;
Structure prediction by ZEFSAII (Michael W. Deem and Ramdas Pophale) SiO2 
 PCOD8123243
Probable space group: P 21/C
;
_chemical_formula_sum "Si O2"
_cell_formula_units_Z 32
_cell_length_a 8.844736
_cell_length_b 12.523609
_cell_length_c 28.152420
_cell_angle_alpha 90.000000
_cell_angle_beta 148.249702
_cell_angle_gamma 90.000000
_cell_volume 1640.952814
_symmetry_space_group_name_H-M "P 21/C"
_symmetry_group_IT_number 14
_symmetry_cell_setting 'monoclinic'
loop_
_space_group_symop_operation_xyz
x,y,z
-x,1/2+y,1/2-z
-x,-y,-z
x,1/2-y,1/2+z
loop_
_atom_site_type_symbol
_atom_site_label
_atom_site_fract_x
_atom_site_fract_y
_atom_site_fract_z
Si Si1 0.011065 0.811412 0.715754
Si Si2 0.591338 0.622086 0.023291
Si Si3 0.632091 0.809985 0.854126
Si Si4 0.230988 0.911969 0.868943
Si Si5 0.204948 0.289172 0.494780
Si Si6 0.602266 0.872098 0.118849
Si Si7 0.123704 0.779290 0.924207
Si Si8 0.769879 0.043343 0.901757
O O1 0.780952 0.867160 0.620783
O O2 0.865058 0.706902 0.698424
O O3 0.296221 0.780519 0.761993
O O4 0.089684 0.887299 0.780405
O O5 0.500000 0.500000 0.000000
O O6 0.776472 0.674103 0.028337
O O7 0.283016 0.680058 0.942810
O O8 0.752090 0.774379 0.937639
O O9 0.818929 0.743282 0.865710
O O10 0.672029 0.935061 0.848975
O O11 0.543437 0.860702 0.959214
O O12 0.047405 0.869240 0.864260
O O13 0.270602 0.038388 0.882374
O O14 0.909748 0.359293 0.407859
O O15 0.512172 0.915218 0.146276
O O16 0.322250 0.823042 0.019584
O O17 0.000000 0.000000 0.000000
#
# Coordination Sequence:
#
# PCOD8123243 Si02
#       8
#     4   4   4   4   4   4   4   4
#     4  10  23  36  54  84 119 151 196 233 285 363
#     4  10  23  42  57  78 116 169 198 228 288 374
#     4  10  18  37  57  89 117 140 187 252 298 332
#     4  10  19  35  56  87 115 149 184 245 304 336
#     4   9  17  34  61  84 105 146 195 236 291 345
#     4  11  18  34  60  87 115 151 193 239 292 356
#     4  10  20  35  62  86 111 141 202 249 288 351
#     4  10  15  31  63  89 111 143 186 243 306 334
#
# _framework density 19.500865999999998
#
# number of rings (size 3 to 8) (size 9 to 14) (size 15 to 20)
#    0.000    2.000    6.250    0.375    0.000    5.000 
#    2.250    1.875    0.000    0.000    0.000    0.000 
#    0.000    0.000    0.000    0.000    0.000    0.000 
#
# Total GULP energy -396418.194660 kJ/mol
# GULP energy per Si atom -12388.068583 kJ/mol
# Density = 1.945648 g / cm^3
# Si number density = 19.500866 Si / 1000 Ang^3
#
#
#
# Elastic Constant Matrix: (Units=GPa)
#
#
# Indices 1 2 3 4 5 6 
#
# 1 103.8824 31.3798 20.5892 0.0000 24.1511 0.0000
# 2 31.3798 96.3937 16.6837 0.0000 13.3786 0.0000
# 3 20.5892 16.6837 57.1499 0.0000 20.2341 0.0000
# 4 0.0000 0.0000 0.0000 14.6078 0.0000 9.3063
# 5 24.1511 13.3786 20.2341 0.0000 25.8092 0.0000
# 6 0.0000 0.0000 0.0000 9.3063 0.0000 34.3732
#
#
#
# Elastic Compliance Matrix: (Units=1/GPa)
#
#
# Indices 1 2 3 4 5 6 
#
# 1 0.012936 -0.002720 -0.000110 0.000000 -0.010609 0.000000
# 2 -0.002720 0.011867 -0.001672 0.000000 -0.002296 0.000000
# 3 -0.000110 -0.001672 0.024476 0.000000 -0.018219 0.000000
# 4 0.000000 0.000000 0.000000 0.082725 0.000000 -0.022397
# 5 -0.010609 -0.002296 -0.018219 0.000000 0.064147 0.000000
# 6 0.000000 0.000000 0.000000 -0.022397 0.000000 0.035156
#
#
# Mechanical properties :
#
#
# Convention : Reuss Voigt Hill
#
# Bulk Modulus (GPa) = 24.82869 43.85905 34.34387
# Shear Modulus (GPa) = 19.70547 27.54292 23.62420
#
# Velocity S-wave (km/s) = 3.18227 3.76226 3.48436
# Velocity P-wave (km/s) = 5.12467 6.43525 5.81699
#
# Compressibility (1/GPa) = 0.04027598
#
# Stress axis : x y z
#
# Youngs Moduli (GPa) = 77.30342 84.26376 40.85608
#
# Poissons Ratio (x) = 0.22917 0.00451
# Poissons Ratio (y) = 0.21024 0.06830
# Poissons Ratio (z) = 0.00854 0.14086
#
# Static dielectric constant tensor:
#      x y z
#    x 3.887360 0.000000 0.209470 
#    y 0.000000 3.640170 0.000000 
#    z 0.209470 0.000000 3.396510 
# 
# 
# High freq. dielectric constant tensor:
#      x y z
#    x 1.763840 0.000000 0.013440 
#    y 0.000000 1.741100 0.000000 
#    z 0.013440 0.000000 1.733250 
# 
# From -- ./inp_files/79618.got.cif
#   From: 2010.03.12/outbox.cif.g09.slc.cpg/sg14_40_cif.got.tgz:79618.got - 2010.03.31 13:35:05.
