data_PCOD8123293
_publ_section_title
;
Structure prediction by ZEFSAII (Michael W. Deem and Ramdas Pophale) SiO2 
 PCOD8123293
Probable space group: P 21/C
;
_chemical_formula_sum "Si O2"
_cell_formula_units_Z 32
_cell_length_a 9.745810
_cell_length_b 19.612014
_cell_length_c 16.252726
_cell_angle_alpha 90.000000
_cell_angle_beta 36.264484
_cell_angle_gamma 90.000000
_cell_volume 1837.515473
_symmetry_space_group_name_H-M "P 21/C"
_symmetry_group_IT_number 14
_symmetry_cell_setting 'monoclinic'
loop_
_space_group_symop_operation_xyz
x,y,z
-x,1/2+y,1/2-z
-x,-y,-z
x,1/2-y,1/2+z
loop_
_atom_site_type_symbol
_atom_site_label
_atom_site_fract_x
_atom_site_fract_y
_atom_site_fract_z
Si Si1 0.041146 0.836061 0.710523
Si Si2 0.680080 0.409639 0.455908
Si Si3 0.411744 0.154513 0.854299
Si Si4 0.607603 0.814339 0.808622
Si Si5 0.767048 0.557534 0.433684
Si Si6 0.676167 0.314703 0.076249
Si Si7 0.899393 0.779411 0.525069
Si Si8 0.170451 0.698648 0.739371
O O1 0.221272 0.856821 0.550672
O O2 0.144796 0.773411 0.712476
O O3 0.798009 0.815392 0.788090
O O4 0.993932 0.901658 0.791184
O O5 0.593135 0.370295 0.579785
O O6 0.826064 0.476954 0.410499
O O7 0.449899 0.432093 0.520522
O O8 0.845745 0.360282 0.321840
O O9 0.550200 0.135723 0.703355
O O10 0.196360 0.203920 0.942064
O O11 0.578718 0.193487 0.838418
O O12 0.307818 0.084668 0.940280
O O13 0.507203 0.739132 0.868421
O O14 0.711719 0.825310 0.666175
O O15 0.875524 0.271922 0.026340
O O16 0.966632 0.813807 0.405260
#
# Coordination Sequence:
#
# PCOD8123293 Si02
#       8
#     4   4   4   4   4   4   4   4
#     4  10  17  27  46  71  92 115 154 189 225 266
#     4   9  17  29  45  66  94 120 148 185 227 271
#     4   9  17  29  44  67  94 118 149 185 231 262
#     4   9  17  29  44  67  94 118 149 185 231 262
#     4   9  17  29  45  66  94 120 148 185 227 271
#     4   9  17  28  44  68  93 115 149 193 224 262
#     4   9  17  28  44  68  93 115 149 193 224 262
#     4  10  17  27  46  71  92 115 154 189 225 266
#
# _framework density 17.414821
#
# number of rings (size 3 to 8) (size 9 to 14) (size 15 to 20)
#    0.000    2.750    2.500    0.000    0.000    0.000 
#    0.000    1.250    0.000    8.250    0.000    3.500 
#    0.000    0.000    0.000    0.000    0.000    0.000 
#
# Total GULP energy -396511.274351 kJ/mol
# GULP energy per Si atom -12390.977323 kJ/mol
# Density = 1.737518 g / cm^3
# Si number density = 17.414821 Si / 1000 Ang^3
#
#
#
# Elastic Constant Matrix: (Units=GPa)
#
#
# Indices 1 2 3 4 5 6 
#
# 1 17.3812 -3.0095 12.2739 0.0000 8.7907 0.0000
# 2 -3.0095 40.8363 21.7610 0.0000 11.5816 0.0000
# 3 12.2739 21.7610 127.5307 0.0000 27.0600 0.0000
# 4 0.0000 0.0000 0.0000 25.8085 0.0000 0.8458
# 5 8.7907 11.5816 27.0600 0.0000 23.5919 0.0000
# 6 0.0000 0.0000 0.0000 0.8458 0.0000 14.3058
#
#
#
# Elastic Compliance Matrix: (Units=1/GPa)
#
#
# Indices 1 2 3 4 5 6 
#
# 1 0.080558 0.017601 -0.003375 0.000000 -0.034786 0.000000
# 2 0.017601 0.032910 -0.003291 0.000000 -0.018940 0.000000
# 3 -0.003375 -0.003291 0.010729 0.000000 -0.009433 0.000000
# 4 0.000000 0.000000 0.000000 0.038822 0.000000 -0.002295
# 5 -0.034786 -0.018940 -0.009433 0.000000 0.075467 0.000000
# 6 0.000000 0.000000 0.000000 -0.002295 0.000000 0.070037
#
#
# Mechanical properties :
#
#
# Convention : Reuss Voigt Hill
#
# Bulk Modulus (GPa) = 6.84616 27.53323 17.18969
# Shear Modulus (GPa) = 14.91010 23.05609 18.98310
#
# Velocity S-wave (km/s) = 2.92922 3.64254 3.30518
# Velocity P-wave (km/s) = 3.92176 5.79097 4.94548
#
# Compressibility (1/GPa) = 0.14606723
#
# Stress axis : x y z
#
# Youngs Moduli (GPa) = 12.41343 30.38560 93.20353
#
# Poissons Ratio (x) = -0.53482 0.31460
# Poissons Ratio (y) = -0.21849 0.30672
# Poissons Ratio (z) = 0.04190 0.09999
#
# Static dielectric constant tensor:
#      x y z
#    x 3.074150 0.000000 0.209080 
#    y 0.000000 3.126280 0.000000 
#    z 0.209080 0.000000 3.716560 
# 
# 
# High freq. dielectric constant tensor:
#      x y z
#    x 1.647410 0.000000 0.015560 
#    y 0.000000 1.631640 0.000000 
#    z 0.015560 0.000000 1.693900 
# 
# From -- ./inp_files/26631.got.cif
#   From: 2010.03.12/outbox.cif.g09.slc.cpg/sg14_14_cif.got.tgz:26631.got - 2010.03.31 13:35:05.
