data_PCOD8123067
_publ_section_title
;
Structure prediction by ZEFSAII (Michael W. Deem and Ramdas Pophale) SiO2 
 PCOD8123067
Probable space group: P 2/C
;
_chemical_formula_sum "Si O2"
_cell_formula_units_Z 20
_cell_length_a 4.943488
_cell_length_b 18.369624
_cell_length_c 11.383130
_cell_angle_alpha 90.000000
_cell_angle_beta 120.704030
_cell_angle_gamma 90.000000
_cell_volume 888.794076
_symmetry_space_group_name_H-M "P 2/C"
_symmetry_group_IT_number 13
_symmetry_cell_setting 'monoclinic'
loop_
_space_group_symop_operation_xyz
x,y,z
-x,y,1/2-z
-x,-y,-z
x,-y,1/2+z
loop_
_atom_site_type_symbol
_atom_site_label
_atom_site_fract_x
_atom_site_fract_y
_atom_site_fract_z
Si Si1 0.500000 0.258094 0.750000
Si Si2 0.000000 0.350277 0.750000
Si Si3 0.500000 0.662925 0.750000
Si Si4 0.764411 0.058782 0.594673
Si Si5 0.000000 0.229689 0.250000
Si Si6 0.802381 0.149035 0.972785
Si Si7 0.753646 0.447332 0.498177
O O1 0.679115 0.304730 0.691852
O O2 0.215150 0.214543 0.623694
O O3 0.958644 0.400771 0.630788
O O4 0.265128 0.717062 0.762483
O O5 0.370434 0.609584 0.623411
O O6 0.561917 0.124090 0.603816
O O7 0.000000 0.029953 0.750000
O O8 0.960889 0.086079 0.523470
O O9 0.500000 0.000000 0.500000
O O10 0.902022 0.175402 0.123552
O O11 0.500000 0.500000 0.500000
O O12 0.000000 0.500000 0.500000
#
# Coordination Sequence:
#
# PCOD8123067 Si02
#       7
#     2   2   2   4   2   4   4
#     4  12  22  43  70  97 136 176 236 294 346 420
#     4  12  24  39  66  99 124 180 234 284 352 418
#     4  12  24  45  66  99 144 184 240 296 362 430
#     4  12  26  49  76 108 144 191 240 297 354 430
#     4  12  26  45  70 107 142 192 234 298 366 434
#     4  12  25  47  73 105 145 186 238 295 364 419
#     4  12  24  42  64  95 135 182 232 294 355 422
#
# _framework density 22.502402
#
# number of rings (size 3 to 8) (size 9 to 14) (size 15 to 20)
#    0.000    0.000    2.000    9.000    1.400    0.000 
#    0.000    0.000    0.000    0.000    0.000    0.000 
#    0.000    0.000    0.000    0.000    0.000    0.000 
#
# Total GULP energy -247936.362197 kJ/mol
# GULP energy per Si atom -12396.818110 kJ/mol
# Density = 2.245119 g / cm^3
# Si number density = 22.502402 Si / 1000 Ang^3
#
#
#
# Elastic Constant Matrix: (Units=GPa)
#
#
# Indices 1 2 3 4 5 6 
#
# 1 169.5895 62.8241 54.4562 0.0000 1.4911 0.0000
# 2 62.8241 119.6100 78.5824 0.0000 1.0945 0.0000
# 3 54.4562 78.5824 188.9762 0.0000 -5.7027 0.0000
# 4 0.0000 0.0000 0.0000 35.2685 0.0000 -3.0560
# 5 1.4911 1.0945 -5.7027 0.0000 35.5156 0.0000
# 6 0.0000 0.0000 0.0000 -3.0560 0.0000 60.7126
#
#
#
# Elastic Compliance Matrix: (Units=1/GPa)
#
#
# Indices 1 2 3 4 5 6 
#
# 1 0.007393 -0.003404 -0.000725 0.000000 -0.000322 0.000000
# 2 -0.003404 0.013116 -0.004503 0.000000 -0.000984 0.000000
# 3 -0.000725 -0.004503 0.007414 0.000000 0.001360 0.000000
# 4 0.000000 0.000000 0.000000 0.028478 0.000000 0.001433
# 5 -0.000322 -0.000984 0.001360 0.000000 0.028419 0.000000
# 6 0.000000 0.000000 0.000000 0.001433 0.000000 0.016543
#
#
# Mechanical properties :
#
#
# Convention : Reuss Voigt Hill
#
# Bulk Modulus (GPa) = 93.81010 96.65569 95.23289
# Shear Modulus (GPa) = 40.92351 45.12020 43.02185
#
# Velocity S-wave (km/s) = 4.26916 4.48272 4.37725
# Velocity P-wave (km/s) = 8.12899 8.35702 8.24379
#
# Compressibility (1/GPa) = 0.01065983
#
# Stress axis : x y z
#
# Youngs Moduli (GPa) = 135.25994 76.24415 134.88249
#
# Poissons Ratio (x) = 0.25955 0.09773
# Poissons Ratio (y) = 0.46045 0.60733
# Poissons Ratio (z) = 0.09801 0.34330
#
# Static dielectric constant tensor:
#      x y z
#    x 4.346180 0.000000 -0.047120 
#    y 0.000000 4.429300 0.000000 
#    z -0.047120 0.000000 4.026620 
# 
# 
# High freq. dielectric constant tensor:
#      x y z
#    x 1.909700 0.000000 -0.004710 
#    y 0.000000 1.907570 0.000000 
#    z -0.004710 0.000000 1.897850 
# 
# From -- ./inp_files/26468.got.cif
#   From: 2010.06.25/outbox.cif.g09.slc.cpg/sg13_14_cif.got.tgz:26468.got - 2010.06.28 04:50:58.
