data_PCOD8123848
_publ_section_title
;
Structure prediction by ZEFSAII (Michael W. Deem and Ramdas Pophale) SiO2 
 PCOD8123848
Probable space group: P 21/C
;
_chemical_formula_sum "Si O2"
_cell_formula_units_Z 24
_cell_length_a 14.661700
_cell_length_b 7.901886
_cell_length_c 14.908732
_cell_angle_alpha 90.000000
_cell_angle_beta 142.304319
_cell_angle_gamma 90.000000
_cell_volume 1056.158507
_symmetry_space_group_name_H-M "P 21/C"
_symmetry_group_IT_number 14
_symmetry_cell_setting 'monoclinic'
loop_
_space_group_symop_operation_xyz
x,y,z
-x,1/2+y,1/2-z
-x,-y,-z
x,1/2-y,1/2+z
loop_
_atom_site_type_symbol
_atom_site_label
_atom_site_fract_x
_atom_site_fract_y
_atom_site_fract_z
Si Si1 0.346046 0.752181 0.228901
Si Si2 0.445740 0.375620 0.747752
Si Si3 0.994810 0.190312 0.033327
Si Si4 0.403033 0.651918 0.960365
Si Si5 0.868017 0.738227 0.036746
Si Si6 0.905370 0.514342 0.228964
O O1 0.428155 0.613364 0.231586
O O2 0.386666 0.716134 0.365162
O O3 0.401059 0.936822 0.241112
O O4 0.169625 0.738554 0.077746
O O5 0.307547 0.272530 0.600967
O O6 0.514857 0.274427 0.887579
O O7 0.082971 0.180784 0.196771
O O8 0.076745 0.304211 0.021654
O O9 0.000000 0.000000 0.000000
O O10 0.238150 0.593974 0.858381
O O11 0.500000 0.500000 0.000000
O O12 0.898575 0.573869 0.120958
O O13 0.948702 0.900422 0.143018
#
# Coordination Sequence:
#
# PCOD8123848 Si02
#       6
#     4   4   4   4   4   4
#     4  11  21  40  65  91 124 164 206 251 311 367
#     4  11  23  38  64  94 125 160 206 260 304 368
#     4  10  18  39  66  86 120 166 206 248 305 368
#     4  10  20  38  63  88 118 165 202 244 311 372
#     4  11  22  40  64  93 122 162 213 254 303 366
#     4  11  22  39  67  90 121 164 207 252 305 369
#
# _framework density 22.723862
#
# number of rings (size 3 to 8) (size 9 to 14) (size 15 to 20)
#    0.000    1.333    6.667    3.000    2.333    0.000 
#    0.000    1.667    7.333    0.000    0.000    0.000 
#    0.000    0.000    0.000    0.000    0.000    0.000 
#
# Total GULP energy -297515.602375 kJ/mol
# GULP energy per Si atom -12396.483432 kJ/mol
# Density = 2.267214 g / cm^3
# Si number density = 22.723862 Si / 1000 Ang^3
#
#
#
# Elastic Constant Matrix: (Units=GPa)
#
#
# Indices 1 2 3 4 5 6 
#
# 1 139.4589 12.1552 40.8034 0.0000 2.4892 0.0000
# 2 12.1552 14.7361 12.3605 0.0000 -7.6434 0.0000
# 3 40.8034 12.3605 137.2587 0.0000 -0.0148 0.0000
# 4 0.0000 0.0000 0.0000 22.8811 0.0000 -8.6243
# 5 2.4892 -7.6434 -0.0148 0.0000 42.5216 0.0000
# 6 0.0000 0.0000 0.0000 -8.6243 0.0000 36.0193
#
#
#
# Elastic Compliance Matrix: (Units=1/GPa)
#
#
# Indices 1 2 3 4 5 6 
#
# 1 0.008287 -0.006040 -0.001920 0.000000 -0.001572 0.000000
# 2 -0.006040 0.086038 -0.005951 0.000000 0.015817 0.000000
# 3 -0.001920 -0.005951 0.008392 0.000000 -0.000954 0.000000
# 4 0.000000 0.000000 0.000000 0.048040 0.000000 0.011502
# 5 -0.001572 0.015817 -0.000954 0.000000 0.026452 0.000000
# 6 0.000000 0.000000 0.000000 0.011502 0.000000 0.030517
#
#
# Mechanical properties :
#
#
# Convention : Reuss Voigt Hill
#
# Bulk Modulus (GPa) = 13.35189 46.89910 30.12549
# Shear Modulus (GPa) = 19.19296 35.36006 27.27651
#
# Velocity S-wave (km/s) = 2.90938 3.94899 3.46836
# Velocity P-wave (km/s) = 4.14421 6.44020 5.41529
#
# Compressibility (1/GPa) = 0.07489579
#
# Stress axis : x y z
#
# Youngs Moduli (GPa) = 120.67458 11.62273 119.16189
#
# Poissons Ratio (x) = 0.07020 0.22875
# Poissons Ratio (y) = 0.72891 0.70909
# Poissons Ratio (z) = 0.23165 0.06916
#
# Static dielectric constant tensor:
#      x y z
#    x 4.788530 0.000000 -0.509930 
#    y 0.000000 3.453340 0.000000 
#    z -0.509930 0.000000 4.742240 
# 
# 
# High freq. dielectric constant tensor:
#      x y z
#    x 1.915730 0.000000 -0.005850 
#    y 0.000000 1.836370 0.000000 
#    z -0.005850 0.000000 1.918340 
# 
# From -- ./inp_files/46609.got.cif
#   From: 2010.03.12/outbox.cif.g09.slc.cpg/sg14_24_cif.got.tgz:46609.got - 2010.03.31 13:35:05.
