data_PCOD8123473
_publ_section_title
;
Structure prediction by ZEFSAII (Michael W. Deem and Ramdas Pophale) SiO2 
 PCOD8123473
Probable space group: P 21/C
;
_chemical_formula_sum "Si O2"
_cell_formula_units_Z 28
_cell_length_a 16.802276
_cell_length_b 9.046104
_cell_length_c 22.417017
_cell_angle_alpha 90.000000
_cell_angle_beta 19.435731
_cell_angle_gamma 90.000000
_cell_volume 1133.769162
_symmetry_space_group_name_H-M "P 21/C"
_symmetry_group_IT_number 14
_symmetry_cell_setting 'monoclinic'
loop_
_space_group_symop_operation_xyz
x,y,z
-x,1/2+y,1/2-z
-x,-y,-z
x,1/2-y,1/2+z
loop_
_atom_site_type_symbol
_atom_site_label
_atom_site_fract_x
_atom_site_fract_y
_atom_site_fract_z
Si Si1 0.561156 0.672039 0.285459
Si Si2 0.399646 0.853218 0.771170
Si Si3 0.113530 0.202466 0.858857
Si Si4 0.096413 0.300292 0.236271
Si Si5 0.481536 0.115517 0.903725
Si Si6 0.029623 0.540610 0.895101
Si Si7 0.186389 0.525244 0.069794
O O1 0.399338 0.696905 0.341095
O O2 0.648969 0.811453 0.266166
O O3 0.425124 0.551246 0.422616
O O4 0.809268 0.608880 0.085204
O O5 0.525773 0.717531 0.649126
O O6 0.549203 0.998530 0.645619
O O7 0.122303 0.881488 0.948798
O O8 0.155365 0.145686 0.761619
O O9 0.049588 0.374789 0.904013
O O10 0.133079 0.445879 0.170406
O O11 0.277751 0.167650 0.092831
O O12 0.841364 0.207833 0.407148
O O13 0.733209 0.133696 0.759206
O O14 0.000403 0.544920 0.844570
#
# Coordination Sequence:
#
# PCOD8123473 Si02
#       7
#     4   4   4   4   4   4   4
#     4  10  18  30  56  84 106 142 195 242 283 328
#     4  10  19  33  56  80 107 153 183 237 287 335
#     4  10  18  33  53  82 111 137 190 247 274 333
#     4  10  22  36  54  88 121 148 189 238 296 347
#     4  10  18  34  56  81 114 145 187 246 298 324
#     4   9  16  33  58  82 108 139 197 249 280 326
#     4   9  21  36  55  84 116 152 188 237 288 349
#
# _framework density 24.696386
#
# number of rings (size 3 to 8) (size 9 to 14) (size 15 to 20)
#    0.000    2.286    2.857    0.857    2.000    5.143 
#    0.000    0.000    0.000    6.000    0.000    0.000 
#    0.000    0.000    0.000    0.000    0.000    0.000 
#
# Total GULP energy -346977.269371 kJ/mol
# GULP energy per Si atom -12392.045335 kJ/mol
# Density = 2.464018 g / cm^3
# Si number density = 24.696386 Si / 1000 Ang^3
#
#
#
# Elastic Constant Matrix: (Units=GPa)
#
#
# Indices 1 2 3 4 5 6 
#
# 1 95.4301 13.2939 -10.4960 0.0000 7.4939 0.0000
# 2 13.2939 53.0133 9.3907 0.0000 4.8643 0.0000
# 3 -10.4960 9.3907 47.6428 0.0000 10.6043 0.0000
# 4 0.0000 0.0000 0.0000 19.9043 0.0000 2.8708
# 5 7.4939 4.8643 10.6043 0.0000 36.9455 0.0000
# 6 0.0000 0.0000 0.0000 2.8708 0.0000 27.2144
#
#
#
# Elastic Compliance Matrix: (Units=1/GPa)
#
#
# Indices 1 2 3 4 5 6 
#
# 1 0.011607 -0.003321 0.003887 0.000000 -0.003033 0.000000
# 2 -0.003321 0.020581 -0.004631 0.000000 -0.000707 0.000000
# 3 0.003887 -0.004631 0.024354 0.000000 -0.007169 0.000000
# 4 0.000000 0.000000 0.000000 0.051017 0.000000 -0.005382
# 5 -0.003033 -0.000707 -0.007169 0.000000 0.029833 0.000000
# 6 0.000000 0.000000 0.000000 -0.005382 0.000000 0.037313
#
#
# Mechanical properties :
#
#
# Convention : Reuss Voigt Hill
#
# Bulk Modulus (GPa) = 20.65592 24.49594 22.57593
# Shear Modulus (GPa) = 25.12910 29.07268 27.10089
#
# Velocity S-wave (km/s) = 3.19332 3.43476 3.31624
# Velocity P-wave (km/s) = 4.68812 5.06661 4.88103
#
# Compressibility (1/GPa) = 0.04841226
#
# Stress axis : x y z
#
# Youngs Moduli (GPa) = 86.15400 48.58822 41.06065
#
# Poissons Ratio (x) = 0.16136 -0.15959
# Poissons Ratio (y) = 0.28611 0.19015
# Poissons Ratio (z) = -0.33486 0.22501
#
# Static dielectric constant tensor:
#      x y z
#    x 5.221400 0.000000 -0.326180 
#    y 0.000000 4.118950 0.000000 
#    z -0.326180 0.000000 4.821210 
# 
# 
# High freq. dielectric constant tensor:
#      x y z
#    x 1.993440 0.000000 0.000990 
#    y 0.000000 1.954940 0.000000 
#    z 0.000990 0.000000 1.999400 
# 
# From -- ./inp_files/48750.got.cif
#   From: 2010.03.12/outbox.cif.g09.slc.cpg/sg14_25_cif.got.tgz:48750.got - 2010.03.31 13:35:05.
