data_PCOD8123014
_publ_section_title
;
Structure prediction by ZEFSAII (Michael W. Deem and Ramdas Pophale) SiO2 
 PCOD8123014
Probable space group: P 2/C
;
_chemical_formula_sum "Si O2"
_cell_formula_units_Z 20
_cell_length_a 8.652251
_cell_length_b 5.397449
_cell_length_c 18.443377
_cell_angle_alpha 90.000000
_cell_angle_beta 94.277655
_cell_angle_gamma 90.000000
_cell_volume 858.907902
_symmetry_space_group_name_H-M "P 2/C"
_symmetry_group_IT_number 13
_symmetry_cell_setting 'monoclinic'
loop_
_space_group_symop_operation_xyz
x,y,z
-x,y,1/2-z
-x,-y,-z
x,-y,1/2+z
loop_
_atom_site_type_symbol
_atom_site_label
_atom_site_fract_x
_atom_site_fract_y
_atom_site_fract_z
Si Si1 0.700864 0.804272 0.682960
Si Si2 0.885688 0.154156 0.945217
Si Si3 0.658855 0.818391 0.846997
Si Si4 0.824575 0.709918 0.117924
Si Si5 0.327470 0.460727 0.016389
O O1 0.719476 0.761181 0.769296
O O2 0.524461 0.878549 0.657608
O O3 0.758274 0.546123 0.649732
O O4 0.801857 0.045083 0.665894
O O5 0.788143 0.310122 0.000882
O O6 0.992838 0.316225 0.893785
O O7 0.760191 0.026772 0.889037
O O8 0.000000 0.000000 0.000000
O O9 0.683091 0.578833 0.897850
O O10 0.735423 0.758725 0.037883
O O11 0.500000 0.500000 0.000000
#
# Coordination Sequence:
#
# PCOD8123014 Si02
#       5
#     4   4   4   4   4
#     4  11  28  50  76 110 153 203 254 315 378 467
#     4  12  27  46  74 116 152 193 253 323 383 451
#     4  11  27  47  77 109 151 202 258 311 381 453
#     4  12  26  48  75 112 152 197 251 312 390 446
#     4  12  25  46  80 107 149 203 261 311 371 455
#
# _framework density 23.285385000000002
#
# number of rings (size 3 to 8) (size 9 to 14) (size 15 to 20)
#    0.000    0.400    4.000    3.000    5.600    4.000 
#    0.000    0.000    0.000    0.000    0.000    0.000 
#    0.000    0.000    0.000    0.000    0.000    0.000 
#
# Total GULP energy -247790.670492 kJ/mol
# GULP energy per Si atom -12389.533525 kJ/mol
# Density = 2.323239 g / cm^3
# Si number density = 23.285385 Si / 1000 Ang^3
#
#
#
# Elastic Constant Matrix: (Units=GPa)
#
#
# Indices 1 2 3 4 5 6 
#
# 1 152.9525 67.5709 57.9364 0.0000 -31.5524 0.0000
# 2 67.5709 123.1239 56.6846 0.0000 -15.9809 0.0000
# 3 57.9364 56.6846 162.0504 0.0000 -2.7526 0.0000
# 4 0.0000 0.0000 0.0000 36.2785 0.0000 -5.1439
# 5 -31.5524 -15.9809 -2.7526 0.0000 32.3386 0.0000
# 6 0.0000 0.0000 0.0000 -5.1439 0.0000 44.9467
#
#
#
# Elastic Compliance Matrix: (Units=1/GPa)
#
#
# Indices 1 2 3 4 5 6 
#
# 1 0.010877 -0.003737 -0.002436 0.000000 0.008559 0.000000
# 2 -0.003737 0.011667 -0.002713 0.000000 0.001888 0.000000
# 3 -0.002436 -0.002713 0.007939 0.000000 -0.003042 0.000000
# 4 0.000000 0.000000 0.000000 0.028019 0.000000 0.003207
# 5 0.008559 0.001888 -0.003042 0.000000 0.039948 0.000000
# 6 0.000000 0.000000 0.000000 0.003207 0.000000 0.022616
#
#
# Mechanical properties :
#
#
# Convention : Reuss Voigt Hill
#
# Bulk Modulus (GPa) = 78.67175 89.16783 83.91979
# Shear Modulus (GPa) = 34.94664 39.77509 37.36086
#
# Velocity S-wave (km/s) = 3.87821 4.13747 4.00994
# Velocity P-wave (km/s) = 7.34257 7.82314 7.58666
#
# Compressibility (1/GPa) = 0.01271104
#
# Stress axis : x y z
#
# Youngs Moduli (GPa) = 91.93451 85.71293 125.95662
#
# Poissons Ratio (x) = 0.32031 0.30687
# Poissons Ratio (y) = 0.34356 0.34171
# Poissons Ratio (z) = 0.22398 0.23253
#
# Static dielectric constant tensor:
#      x y z
#    x 4.496230 0.000000 -0.357580 
#    y 0.000000 4.168690 0.000000 
#    z -0.357580 0.000000 4.685360 
# 
# 
# High freq. dielectric constant tensor:
#      x y z
#    x 1.944570 0.000000 -0.007350 
#    y 0.000000 1.909910 0.000000 
#    z -0.007350 0.000000 1.937260 
# 
# From -- ./inp_files/62331.got.cif
#   From: 2010.06.25/outbox.cif.g09.slc.cpg/sg13_32_cif.got.tgz:62331.got - 2010.06.28 04:50:58.
