data_PCOD8123271
_publ_section_title
;
Structure prediction by ZEFSAII (Michael W. Deem and Ramdas Pophale) SiO2 
 PCOD8123271
Probable space group: P 21/C
;
_chemical_formula_sum "Si O2"
_cell_formula_units_Z 28
_cell_length_a 10.847958
_cell_length_b 16.628493
_cell_length_c 17.492004
_cell_angle_alpha 90.000000
_cell_angle_beta 26.881737
_cell_angle_gamma 90.000000
_cell_volume 1426.669575
_symmetry_space_group_name_H-M "P 21/C"
_symmetry_group_IT_number 14
_symmetry_cell_setting 'monoclinic'
loop_
_space_group_symop_operation_xyz
x,y,z
-x,1/2+y,1/2-z
-x,-y,-z
x,1/2-y,1/2+z
loop_
_atom_site_type_symbol
_atom_site_label
_atom_site_fract_x
_atom_site_fract_y
_atom_site_fract_z
Si Si1 0.420578 0.429698 0.790214
Si Si2 0.956195 0.616956 0.560775
Si Si3 0.428373 0.733020 0.677542
Si Si4 0.876617 0.518649 0.746241
Si Si5 0.646141 0.566789 0.581121
Si Si6 0.850502 0.722812 0.065679
Si Si7 0.577269 0.600918 0.036610
O O1 0.400541 0.515435 0.757273
O O2 0.198262 0.367798 0.875726
O O3 0.358965 0.433986 0.914616
O O4 0.725273 0.398148 0.609210
O O5 0.798001 0.567220 0.712561
O O6 0.859219 0.591768 0.529794
O O7 0.896620 0.712051 0.607163
O O8 0.528230 0.643221 0.600262
O O9 0.566507 0.755665 0.681320
O O10 0.517857 0.802706 0.568266
O O11 0.102153 0.729701 0.867024
O O12 0.682162 0.441291 0.858997
O O13 0.189164 0.487647 0.571043
O O14 0.838423 0.578366 0.839646
#
# Coordination Sequence:
#
# PCOD8123271 Si02
#       7
#     4   4   4   4   4   4   4
#     4  10  17  31  55  76 106 135 185 218 264 311
#     4  10  16  32  52  81 103 138 175 226 259 309
#     4  10  20  33  55  78 110 138 181 212 279 312
#     4  10  18  29  58  79 106 134 190 218 263 305
#     4  10  18  32  55  77 105 143 173 222 266 316
#     4  10  18  31  55  80 105 140 178 228 261 315
#     4  10  17  31  51  83 103 139 176 230 250 319
#
# _framework density 19.626128999999999
#
# number of rings (size 3 to 8) (size 9 to 14) (size 15 to 20)
#    0.000    2.000    5.714    1.714    0.000    0.571 
#    0.000    0.000   28.286    3.429    0.000    0.000 
#    0.000    0.000    0.000    0.000    0.000    0.000 
#
# Total GULP energy -346927.810884 kJ/mol
# GULP energy per Si atom -12390.278960 kJ/mol
# Density = 1.958146 g / cm^3
# Si number density = 19.626129 Si / 1000 Ang^3
#
#
#
# Elastic Constant Matrix: (Units=GPa)
#
#
# Indices 1 2 3 4 5 6 
#
# 1 20.9825 25.0917 17.4193 0.0000 3.9707 0.0000
# 2 25.0917 170.1510 61.2492 0.0000 11.5294 0.0000
# 3 17.4193 61.2492 92.2066 0.0000 14.3882 0.0000
# 4 0.0000 0.0000 0.0000 40.1018 0.0000 -1.4491
# 5 3.9707 11.5294 14.3882 0.0000 18.5514 0.0000
# 6 0.0000 0.0000 0.0000 -1.4491 0.0000 31.0185
#
#
#
# Elastic Compliance Matrix: (Units=1/GPa)
#
#
# Indices 1 2 3 4 5 6 
#
# 1 0.061681 -0.006381 -0.006795 0.000000 -0.003966 0.000000
# 2 -0.006381 0.008398 -0.004291 0.000000 -0.000525 0.000000
# 3 -0.006795 -0.004291 0.016310 0.000000 -0.008529 0.000000
# 4 0.000000 0.000000 0.000000 0.024979 0.000000 0.001167
# 5 -0.003966 -0.000525 -0.008529 0.000000 0.061695 0.000000
# 6 0.000000 0.000000 0.000000 0.001167 0.000000 0.032293
#
#
# Mechanical properties :
#
#
# Convention : Reuss Voigt Hill
#
# Bulk Modulus (GPa) = 19.43441 54.54006 36.98723
# Shear Modulus (GPa) = 19.42178 29.90632 24.66405
#
# Velocity S-wave (km/s) = 3.14918 3.90782 3.54883
# Velocity P-wave (km/s) = 4.81113 6.94344 5.97320
#
# Compressibility (1/GPa) = 0.05145513
#
# Stress axis : x y z
#
# Youngs Moduli (GPa) = 16.21243 119.06898 61.31119
#
# Poissons Ratio (x) = 0.75981 0.41660
# Poissons Ratio (y) = 0.10346 0.26310
# Poissons Ratio (z) = 0.11016 0.51096
#
# Static dielectric constant tensor:
#      x y z
#    x 3.048610 0.000000 -0.033710 
#    y 0.000000 4.468760 0.000000 
#    z -0.033710 0.000000 3.626000 
# 
# 
# High freq. dielectric constant tensor:
#      x y z
#    x 1.696330 0.000000 -0.016110 
#    y 0.000000 1.787620 0.000000 
#    z -0.016110 0.000000 1.756810 
# 
# From -- ./inp_files/25782.got.cif
#   From: 2010.03.12/outbox.cif.g09.slc.cpg/sg14_13_cif.got.tgz:25782.got - 2010.03.31 13:35:05.
