data_PCOD8123906
_publ_section_title
;
Structure prediction by ZEFSAII (Michael W. Deem and Ramdas Pophale) SiO2 
 PCOD8123906
Probable space group: P 21/C
;
_chemical_formula_sum "Si O2"
_cell_formula_units_Z 20
_cell_length_a 29.432143
_cell_length_b 5.084333
_cell_length_c 19.454226
_cell_angle_alpha 90.000000
_cell_angle_beta 19.536340
_cell_angle_gamma 90.000000
_cell_volume 973.513898
_symmetry_space_group_name_H-M "P 21/C"
_symmetry_group_IT_number 14
_symmetry_cell_setting 'monoclinic'
loop_
_space_group_symop_operation_xyz
x,y,z
-x,1/2+y,1/2-z
-x,-y,-z
x,1/2-y,1/2+z
loop_
_atom_site_type_symbol
_atom_site_label
_atom_site_fract_x
_atom_site_fract_y
_atom_site_fract_z
Si Si1 0.503704 0.514599 0.156092
Si Si2 0.278240 0.249604 0.061617
Si Si3 0.559857 0.002389 0.989911
Si Si4 0.851910 0.549553 0.117274
Si Si5 0.014594 0.462965 0.398911
O O1 0.365291 0.454254 0.393203
O O2 0.542473 0.288224 0.047541
O O3 0.481393 0.789153 0.148441
O O4 0.625796 0.538335 0.037190
O O5 0.192099 0.081674 0.240058
O O6 0.174222 0.400868 0.158344
O O7 0.500000 0.000000 0.000000
O O8 0.718879 0.927429 0.759182
O O9 0.920314 0.271120 0.006483
O O10 0.960617 0.772616 0.939085
O O11 0.000000 0.500000 0.500000
#
# Coordination Sequence:
#
# PCOD8123906 Si02
#       5
#     4   4   4   4   4
#     4  11  23  35  58  87 116 148 181 240 292 339
#     4  10  20  35  55  88 118 136 176 230 298 345
#     4  11  23  40  58  80 112 154 202 235 270 328
#     4  10  20  33  54  82 109 146 183 224 274 334
#     4  10  19  31  52  81 115 144 172 219 282 346
#
# _framework density 20.544132000000001
#
# number of rings (size 3 to 8) (size 9 to 14) (size 15 to 20)
#    0.000    1.600    0.000    9.000    0.000    8.000 
#    0.000    0.000    0.000    4.800    0.000    0.000 
#    0.000    0.000    0.000    0.000    0.000    0.000 
#
# Total GULP energy -248003.291382 kJ/mol
# GULP energy per Si atom -12400.164569 kJ/mol
# Density = 2.049737 g / cm^3
# Si number density = 20.544132 Si / 1000 Ang^3
#
#
#
# Elastic Constant Matrix: (Units=GPa)
#
#
# Indices 1 2 3 4 5 6 
#
# 1 93.0124 28.9509 42.6362 0.0000 -25.6292 0.0000
# 2 28.9509 107.0075 27.1978 0.0000 -9.9400 0.0000
# 3 42.6362 27.1978 100.0701 0.0000 -17.8467 0.0000
# 4 0.0000 0.0000 0.0000 44.5521 0.0000 -1.0495
# 5 -25.6292 -9.9400 -17.8467 0.0000 22.4999 0.0000
# 6 0.0000 0.0000 0.0000 -1.0495 0.0000 23.4922
#
#
#
# Elastic Compliance Matrix: (Units=1/GPa)
#
#
# Indices 1 2 3 4 5 6 
#
# 1 0.017728 -0.002275 -0.004092 0.000000 0.015943 0.000000
# 2 -0.002275 0.010468 -0.001762 0.000000 0.000635 0.000000
# 3 -0.004092 -0.001762 0.013098 0.000000 0.004950 0.000000
# 4 0.000000 0.000000 0.000000 0.022469 0.000000 0.001004
# 5 0.015943 0.000635 0.004950 0.000000 0.066812 0.000000
# 6 0.000000 0.000000 0.000000 0.001004 0.000000 0.042612
#
#
# Mechanical properties :
#
#
# Convention : Reuss Voigt Hill
#
# Bulk Modulus (GPa) = 39.94381 55.29553 47.61967
# Shear Modulus (GPa) = 25.27928 31.52919 28.40423
#
# Velocity S-wave (km/s) = 3.51163 3.92178 3.72236
# Velocity P-wave (km/s) = 5.99393 6.89065 6.45788
#
# Compressibility (1/GPa) = 0.02503517
#
# Stress axis : x y z
#
# Youngs Moduli (GPa) = 56.40774 95.53259 76.34741
#
# Poissons Ratio (x) = 0.21738 0.31238
# Poissons Ratio (y) = 0.12835 0.13455
# Poissons Ratio (z) = 0.23079 0.16836
#
# Static dielectric constant tensor:
#      x y z
#    x 3.468280 0.000000 -0.542770 
#    y 0.000000 4.115360 0.000000 
#    z -0.542770 0.000000 4.316720 
# 
# 
# High freq. dielectric constant tensor:
#      x y z
#    x 1.749740 0.000000 -0.033660 
#    y 0.000000 1.823530 0.000000 
#    z -0.033660 0.000000 1.806020 
# 
# From -- ./inp_files/70587.got.cif
#   From: 2010.03.12/outbox.cif.g09.slc.cpg/sg14_36_cif.got.tgz:70587.got - 2010.03.31 13:35:05.
