data_PCOD8123027
_publ_section_title
;
Structure prediction by ZEFSAII (Michael W. Deem and Ramdas Pophale) SiO2 
 PCOD8123027
Probable space group: P 2/C
;
_chemical_formula_sum "Si O2"
_cell_formula_units_Z 14
_cell_length_a 8.200949
_cell_length_b 4.878679
_cell_length_c 18.390037
_cell_angle_alpha 90.000000
_cell_angle_beta 47.374994
_cell_angle_gamma 90.000000
_cell_volume 541.389325
_symmetry_space_group_name_H-M "P 2/C"
_symmetry_group_IT_number 13
_symmetry_cell_setting 'monoclinic'
loop_
_space_group_symop_operation_xyz
x,y,z
-x,y,1/2-z
-x,-y,-z
x,-y,1/2+z
loop_
_atom_site_type_symbol
_atom_site_label
_atom_site_fract_x
_atom_site_fract_y
_atom_site_fract_z
Si Si1 0.500000 0.359002 0.250000
Si Si2 0.893532 0.694936 0.161265
Si Si3 0.403522 0.965125 0.144449
Si Si4 0.811443 0.809662 0.934573
O O1 0.706547 0.558677 0.165789
O O2 0.443238 0.174957 0.198039
O O3 0.771817 0.735085 0.276095
O O4 0.106118 0.499403 0.100370
O O5 0.983314 0.989505 0.106303
O O6 0.295851 0.117610 0.109580
O O7 0.631383 0.818457 0.052900
#
# Coordination Sequence:
#
# PCOD8123027 Si02
#       4
#     2   4   4   4
#     4  12  28  48  74 116 162 194 242 328 370 450
#     4  12  27  49  77 112 150 202 248 318 371 447
#     4  11  28  52  75 118 152 197 258 315 365 469
#     4  11  29  48  85 106 150 207 259 299 384 445
#
# _framework density 25.859394999999999
#
# number of rings (size 3 to 8) (size 9 to 14) (size 15 to 20)
#    0.000    0.571    2.857    1.714   12.000    4.571 
#    0.000    0.000    0.000    0.000    0.000    0.000 
#    0.000    0.000    0.000    0.000    0.000    0.000 
#
# Total GULP energy -173606.017115 kJ/mol
# GULP energy per Si atom -12400.429794 kJ/mol
# Density = 2.580054 g / cm^3
# Si number density = 25.859395 Si / 1000 Ang^3
#
#
#
# Elastic Constant Matrix: (Units=GPa)
#
#
# Indices 1 2 3 4 5 6 
#
# 1 73.8635 2.8728 5.7117 0.0000 2.0288 0.0000
# 2 2.8728 87.9310 31.7936 0.0000 6.4859 0.0000
# 3 5.7117 31.7936 148.8355 0.0000 -28.2544 0.0000
# 4 0.0000 0.0000 0.0000 37.2516 0.0000 -12.4811
# 5 2.0288 6.4859 -28.2544 0.0000 33.7931 0.0000
# 6 0.0000 0.0000 0.0000 -12.4811 0.0000 29.4892
#
#
#
# Elastic Compliance Matrix: (Units=1/GPa)
#
#
# Indices 1 2 3 4 5 6 
#
# 1 0.013642 -0.000051 -0.000792 0.000000 -0.001471 0.000000
# 2 -0.000051 0.013223 -0.003927 0.000000 -0.005819 0.000000
# 3 -0.000792 -0.003927 0.009201 0.000000 0.008494 0.000000
# 4 0.000000 0.000000 0.000000 0.031280 0.000000 0.013239
# 5 -0.001471 -0.005819 0.008494 0.000000 0.037899 0.000000
# 6 0.000000 0.000000 0.000000 0.013239 0.000000 0.039514
#
#
# Mechanical properties :
#
#
# Convention : Reuss Voigt Hill
#
# Bulk Modulus (GPa) = 37.69909 43.48736 40.59322
# Shear Modulus (GPa) = 30.64823 38.12357 34.38590
#
# Velocity S-wave (km/s) = 3.44639 3.84378 3.65050
# Velocity P-wave (km/s) = 5.51787 6.04590 5.78791
#
# Compressibility (1/GPa) = 0.02652584
#
# Stress axis : x y z
#
# Youngs Moduli (GPa) = 73.30241 75.62326 108.68819
#
# Poissons Ratio (x) = 0.00384 0.08608
# Poissons Ratio (y) = 0.00372 0.42686
# Poissons Ratio (z) = 0.05806 0.29700
#
# Static dielectric constant tensor:
#      x y z
#    x 4.656160 0.000000 -0.337070 
#    y 0.000000 4.846290 0.000000 
#    z -0.337070 0.000000 5.070000 
# 
# 
# High freq. dielectric constant tensor:
#      x y z
#    x 2.032360 0.000000 -0.020840 
#    y 0.000000 2.045660 0.000000 
#    z -0.020840 0.000000 2.045400 
# 
# From -- ./inp_files/44714.got.cif
#   From: 2010.06.25/outbox.cif.g09.slc.cpg/sg13_23_cif.got.tgz:44714.got - 2010.06.28 04:50:58.
