data_PCOD8123605
_publ_section_title
;
Structure prediction by ZEFSAII (Michael W. Deem and Ramdas Pophale) SiO2 
 PCOD8123605
Probable space group: P 21/C
;
_chemical_formula_sum "Si O2"
_cell_formula_units_Z 32
_cell_length_a 13.952218
_cell_length_b 17.810384
_cell_length_c 14.158325
_cell_angle_alpha 90.000000
_cell_angle_beta 149.195263
_cell_angle_gamma 90.000000
_cell_volume 1801.751779
_symmetry_space_group_name_H-M "P 21/C"
_symmetry_group_IT_number 14
_symmetry_cell_setting 'monoclinic'
loop_
_space_group_symop_operation_xyz
x,y,z
-x,1/2+y,1/2-z
-x,-y,-z
x,1/2-y,1/2+z
loop_
_atom_site_type_symbol
_atom_site_label
_atom_site_fract_x
_atom_site_fract_y
_atom_site_fract_z
Si Si1 0.893118 0.786817 0.698204
Si Si2 0.722157 0.065536 0.873419
Si Si3 0.972980 0.192769 0.994536
Si Si4 0.720014 0.597326 0.328411
Si Si5 0.691969 0.180367 0.994995
Si Si6 0.403205 0.116979 0.478588
Si Si7 0.447534 0.297540 0.672521
Si Si8 0.618642 0.271415 0.633196
O O1 0.783937 0.866931 0.617756
O O2 0.763386 0.729482 0.530215
O O3 0.091230 0.794456 0.812827
O O4 0.928422 0.760298 0.837214
O O5 0.873463 0.120650 0.956604
O O6 0.535321 0.064047 0.651798
O O7 0.795931 0.979917 0.939293
O O8 0.679028 0.095662 0.942843
O O9 0.835199 0.248536 0.824445
O O10 0.118781 0.160198 0.042242
O O11 0.640795 0.576869 0.157821
O O12 0.561647 0.632802 0.262963
O O13 0.594776 0.183674 0.015121
O O14 0.576576 0.231717 0.824168
O O15 0.492831 0.197270 0.528624
O O16 0.551289 0.323551 0.663544
#
# Coordination Sequence:
#
# PCOD8123605 Si02
#       8
#     4   4   4   4   4   4   4   4
#     4   9  17  32  53  76 103 131 173 215 260 308
#     4  10  19  34  50  79 114 140 171 213 271 325
#     4   9  18  33  54  79 108 135 174 223 272 310
#     4  11  20  30  52  82 110 142 169 217 274 316
#     4  11  19  34  56  72 106 143 174 217 264 311
#     4   9  17  31  52  77 106 130 170 216 263 311
#     4  11  20  34  53  80 107 133 183 220 256 316
#     4  10  18  34  53  78 102 138 177 222 256 304
#
# _framework density 17.760494000000001
#
# number of rings (size 3 to 8) (size 9 to 14) (size 15 to 20)
#    0.000    2.000    6.250    1.500    0.000    0.000 
#    0.000    0.625    0.000    0.000    0.000    1.750 
#    0.000    0.000    0.000    0.000    0.000    0.000 
#
# Total GULP energy -396560.808237 kJ/mol
# GULP energy per Si atom -12392.525257 kJ/mol
# Density = 1.772007 g / cm^3
# Si number density = 17.760494 Si / 1000 Ang^3
#
#
#
# Elastic Constant Matrix: (Units=GPa)
#
#
# Indices 1 2 3 4 5 6 
#
# 1 101.4917 20.4329 16.8841 0.0000 -7.0800 0.0000
# 2 20.4329 33.1119 5.3210 0.0000 -3.7733 0.0000
# 3 16.8841 5.3210 86.1254 0.0000 6.4774 0.0000
# 4 0.0000 0.0000 0.0000 13.4506 0.0000 -1.6934
# 5 -7.0800 -3.7733 6.4774 0.0000 20.9433 0.0000
# 6 0.0000 0.0000 0.0000 -1.6934 0.0000 18.1618
#
#
#
# Elastic Compliance Matrix: (Units=1/GPa)
#
#
# Indices 1 2 3 4 5 6 
#
# 1 0.011768 -0.006518 -0.002166 0.000000 0.003474 0.000000
# 2 -0.006518 0.034927 -0.001216 0.000000 0.004465 0.000000
# 3 -0.002166 -0.001216 0.012472 0.000000 -0.004809 0.000000
# 4 0.000000 0.000000 0.000000 0.075229 0.000000 0.007014
# 5 0.003474 0.004465 -0.004809 0.000000 0.051214 0.000000
# 6 0.000000 0.000000 0.000000 0.007014 0.000000 0.055715
#
#
# Mechanical properties :
#
#
# Convention : Reuss Voigt Hill
#
# Bulk Modulus (GPa) = 25.40110 34.00056 29.70083
# Shear Modulus (GPa) = 18.23176 22.38386 20.30781
#
# Velocity S-wave (km/s) = 3.20743 3.55395 3.38513
# Velocity P-wave (km/s) = 5.29622 6.00218 5.66022
#
# Compressibility (1/GPa) = 0.03936838
#
# Stress axis : x y z
#
# Youngs Moduli (GPa) = 84.97746 28.63112 80.17786
#
# Poissons Ratio (x) = 0.18662 0.17363
# Poissons Ratio (y) = 0.55388 0.09749
# Poissons Ratio (z) = 0.18402 0.03481
#
# Static dielectric constant tensor:
#      x y z
#    x 3.368320 0.000000 0.020580 
#    y 0.000000 2.845600 0.000000 
#    z 0.020580 0.000000 3.541810 
# 
# 
# High freq. dielectric constant tensor:
#      x y z
#    x 1.687540 0.000000 0.001460 
#    y 0.000000 1.632780 0.000000 
#    z 0.001460 0.000000 1.701320 
# 
# From -- ./inp_files/30630.got.cif
#   From: 2010.03.12/outbox.cif.g09.slc.cpg/sg14_16_cif.got.tgz:30630.got - 2010.03.31 13:35:05.
