data_PCOD8123677
_publ_section_title
;
Structure prediction by ZEFSAII (Michael W. Deem and Ramdas Pophale) SiO2 
 PCOD8123677
Probable space group: P 21/C
;
_chemical_formula_sum "Si O2"
_cell_formula_units_Z 24
_cell_length_a 11.510976
_cell_length_b 12.508608
_cell_length_c 14.307887
_cell_angle_alpha 90.000000
_cell_angle_beta 142.821660
_cell_angle_gamma 90.000000
_cell_volume 1244.938092
_symmetry_space_group_name_H-M "P 21/C"
_symmetry_group_IT_number 14
_symmetry_cell_setting 'monoclinic'
loop_
_space_group_symop_operation_xyz
x,y,z
-x,1/2+y,1/2-z
-x,-y,-z
x,1/2-y,1/2+z
loop_
_atom_site_type_symbol
_atom_site_label
_atom_site_fract_x
_atom_site_fract_y
_atom_site_fract_z
Si Si1 0.573923 0.274809 0.228629
Si Si2 0.092248 0.991221 0.828011
Si Si3 0.669488 0.284649 0.493691
Si Si4 0.820529 0.660850 0.064356
Si Si5 0.358764 0.169485 0.937417
Si Si6 0.889831 0.173138 0.795246
O O1 0.632193 0.233078 0.368233
O O2 0.515178 0.174321 0.123966
O O3 0.748313 0.339687 0.292355
O O4 0.387959 0.354540 0.118267
O O5 0.007379 0.063142 0.857476
O O6 0.198050 0.888321 0.937548
O O7 0.244482 0.057969 0.863829
O O8 0.915505 0.952814 0.649088
O O9 0.465802 0.319118 0.407734
O O10 0.771363 0.197187 0.624133
O O11 0.963367 0.729445 0.089433
O O12 0.789826 0.731885 0.140332
#
# Coordination Sequence:
#
# PCOD8123677 Si02
#       6
#     4   4   4   4   4   4
#     4   9  19  37  52  80 110 137 181 222 262 312
#     4  10  18  35  57  77 107 146 177 215 275 314
#     4  10  19  36  59  76 106 147 180 215 272 315
#     4   8  18  36  54  77 110 136 176 222 263 311
#     4   8  18  37  55  74 110 142 171 225 260 313
#     4   9  19  37  54  77 111 141 173 227 262 319
#
# _framework density 19.278065999999999
#
# number of rings (size 3 to 8) (size 9 to 14) (size 15 to 20)
#    1.000    2.000    0.000    0.500    0.000    1.333 
#   12.000    0.833    0.000    0.000    0.000    0.000 
#    0.000    0.000    0.000    0.000    0.000    0.000 
#
# Total GULP energy -297367.284690 kJ/mol
# GULP energy per Si atom -12390.303529 kJ/mol
# Density = 1.923419 g / cm^3
# Si number density = 19.278066 Si / 1000 Ang^3
#
#
#
# Elastic Constant Matrix: (Units=GPa)
#
#
# Indices 1 2 3 4 5 6 
#
# 1 98.3427 12.9789 59.9648 0.0000 3.5528 0.0000
# 2 12.9789 53.6256 8.9769 0.0000 0.3489 0.0000
# 3 59.9648 8.9769 47.0848 0.0000 1.4212 0.0000
# 4 0.0000 0.0000 0.0000 15.5014 0.0000 4.3823
# 5 3.5528 0.3489 1.4212 0.0000 36.7904 0.0000
# 6 0.0000 0.0000 0.0000 4.3823 0.0000 11.9125
#
#
#
# Elastic Compliance Matrix: (Units=1/GPa)
#
#
# Indices 1 2 3 4 5 6 
#
# 1 0.045775 -0.001360 -0.057972 0.000000 -0.002168 0.000000
# 2 -0.001360 0.019303 -0.001949 0.000000 0.000024 0.000000
# 3 -0.057972 -0.001949 0.095381 0.000000 0.001932 0.000000
# 4 0.000000 0.000000 0.000000 0.071998 0.000000 -0.026487
# 5 -0.002168 0.000024 0.001932 0.000000 0.027316 0.000000
# 6 0.000000 0.000000 0.000000 -0.026487 0.000000 0.093689
#
#
# Mechanical properties :
#
#
# Convention : Reuss Voigt Hill
#
# Bulk Modulus (GPa) = 26.38651 40.32156 33.35404
# Shear Modulus (GPa) = 10.23214 20.64968 15.44091
#
# Velocity S-wave (km/s) = 2.30633 3.27639 2.83319
# Velocity P-wave (km/s) = 4.56172 5.93921 5.29544
#
# Compressibility (1/GPa) = 0.03789815
#
# Stress axis : x y z
#
# Youngs Moduli (GPa) = 21.84606 51.80522 10.48423
#
# Poissons Ratio (x) = 0.07047 0.60779
# Poissons Ratio (y) = 0.02972 0.02043
# Poissons Ratio (z) = 1.26645 0.10095
#
# Static dielectric constant tensor:
#      x y z
#    x 3.489230 0.000000 0.418960 
#    y 0.000000 3.161220 0.000000 
#    z 0.418960 0.000000 3.360260 
# 
# 
# High freq. dielectric constant tensor:
#      x y z
#    x 1.751980 0.000000 0.035930 
#    y 0.000000 1.718510 0.000000 
#    z 0.035930 0.000000 1.730300 
# 
# From -- ./inp_files/44831.got.cif
#   From: 2010.03.12/outbox.cif.g09.slc.cpg/sg14_23_cif.got.tgz:44831.got - 2010.03.31 13:35:05.
