data_PCOD8123425
_publ_section_title
;
Structure prediction by ZEFSAII (Michael W. Deem and Ramdas Pophale) SiO2 
 PCOD8123425
Probable space group: P 21/C
;
_chemical_formula_sum "Si O2"
_cell_formula_units_Z 32
_cell_length_a 23.041364
_cell_length_b 16.881659
_cell_length_c 9.070052
_cell_angle_alpha 90.000000
_cell_angle_beta 152.339888
_cell_angle_gamma 90.000000
_cell_volume 1637.804718
_symmetry_space_group_name_H-M "P 21/C"
_symmetry_group_IT_number 14
_symmetry_cell_setting 'monoclinic'
loop_
_space_group_symop_operation_xyz
x,y,z
-x,1/2+y,1/2-z
-x,-y,-z
x,1/2-y,1/2+z
loop_
_atom_site_type_symbol
_atom_site_label
_atom_site_fract_x
_atom_site_fract_y
_atom_site_fract_z
Si Si1 0.883366 0.715341 0.230854
Si Si2 0.626937 0.781745 0.775622
Si Si3 0.973125 0.849204 0.224495
Si Si4 0.742506 0.589674 0.727106
Si Si5 0.467521 0.149979 0.722810
Si Si6 0.624382 0.474741 0.694311
Si Si7 0.873817 0.024914 0.296989
Si Si8 0.749039 0.526871 0.247228
O O1 0.959591 0.776643 0.304885
O O2 0.977359 0.685212 0.569074
O O3 0.764026 0.760826 0.026336
O O4 0.840602 0.640814 0.039765
O O5 0.572233 0.705941 0.733447
O O6 0.531038 0.802398 0.427639
O O7 0.640892 0.855657 0.916402
O O8 0.102494 0.893891 0.558821
O O9 0.860088 0.910817 0.979036
O O10 0.659188 0.535646 0.644793
O O11 0.827196 0.541425 0.804385
O O12 0.373547 0.076970 0.492396
O O13 0.602259 0.111520 0.068621
O O14 0.500000 0.500000 0.500000
O O15 0.734433 0.474616 0.065065
O O16 0.000000 0.000000 0.500000
O O17 0.772123 0.033104 0.936458
#
# Coordination Sequence:
#
# PCOD8123425 Si02
#       8
#     4   4   4   4   4   4   4   4
#     4  12  19  34  62  92 123 152 205 264 309 350
#     4  12  19  34  62  92 123 152 205 264 309 350
#     4  11  21  35  59  93 122 155 200 256 310 361
#     4  12  21  38  66  91 124 166 200 260 307 360
#     4  11  21  35  59  93 122 155 200 256 310 361
#     4  10  23  38  59  94 127 160 204 254 311 362
#     4  10  23  38  59  94 127 160 204 254 311 362
#     4  10  17  38  58  83 128 156 194 260 299 360
#
# _framework density 19.538347000000002
#
# number of rings (size 3 to 8) (size 9 to 14) (size 15 to 20)
#    0.000    1.000    7.500    1.500    0.000    1.000 
#    0.000    0.000    0.000    4.500    0.000    0.000 
#    0.000    0.000    0.000    0.000    0.000    0.000 
#
# Total GULP energy -396682.674587 kJ/mol
# GULP energy per Si atom -12396.333581 kJ/mol
# Density = 1.949388 g / cm^3
# Si number density = 19.538347 Si / 1000 Ang^3
#
#
#
# Elastic Constant Matrix: (Units=GPa)
#
#
# Indices 1 2 3 4 5 6 
#
# 1 80.4108 36.7244 42.9796 0.0000 -22.3753 0.0000
# 2 36.7244 83.5922 50.5209 0.0000 -11.9802 0.0000
# 3 42.9796 50.5209 87.9873 0.0000 -36.8815 0.0000
# 4 0.0000 0.0000 0.0000 317.6205 0.0000 -111.1611
# 5 -22.3753 -11.9802 -36.8815 0.0000 36.9435 0.0000
# 6 0.0000 0.0000 0.0000 -111.1611 0.0000 60.6613
#
#
#
# Elastic Compliance Matrix: (Units=1/GPa)
#
#
# Indices 1 2 3 4 5 6 
#
# 1 0.018278 -0.005021 -0.003590 0.000000 0.005858 0.000000
# 2 -0.005021 0.021124 -0.013894 0.000000 -0.010061 0.000000
# 3 -0.003590 -0.013894 0.031462 0.000000 0.024730 0.000000
# 4 0.000000 0.000000 0.000000 0.008778 0.000000 0.016086
# 5 0.005858 -0.010061 0.024730 0.000000 0.052042 0.000000
# 6 0.000000 0.000000 0.000000 0.016086 0.000000 0.045962
#
#
# Mechanical properties :
#
#
# Convention : Reuss Voigt Hill
#
# Bulk Modulus (GPa) = 38.67677 56.93780 47.80728
# Shear Modulus (GPa) = 21.61938 91.16276 56.39107
#
# Velocity S-wave (km/s) = 3.33003 6.83810 5.37814
# Velocity P-wave (km/s) = 5.88420 9.56823 7.94276
#
# Compressibility (1/GPa) = 0.02585531
#
# Stress axis : x y z
#
# Youngs Moduli (GPa) = 54.71007 47.34025 31.78397
#
# Poissons Ratio (x) = 0.23769 0.11410
# Poissons Ratio (y) = 0.27469 0.44160
# Poissons Ratio (z) = 0.19640 0.65773
#
# Static dielectric constant tensor:
#      x y z
#    x 3.550650 0.000000 -0.595100 
#    y 0.000000 3.782130 0.000000 
#    z -0.595100 0.000000 4.347440 
# 
# 
# High freq. dielectric constant tensor:
#      x y z
#    x 1.753990 0.000000 -0.041280 
#    y 0.000000 1.756100 0.000000 
#    z -0.041280 0.000000 1.750930 
# 
# From -- ./inp_files/19573.got.cif
#   From: 2010.03.12/outbox.cif.g09.slc.cpg/sg14_10_cif.got.tgz:19573.got - 2010.03.31 13:35:05.
