data_PCOD8123307
_publ_section_title
;
Structure prediction by ZEFSAII (Michael W. Deem and Ramdas Pophale) SiO2 
 PCOD8123307
Probable space group: P 21/C
;
_chemical_formula_sum "Si O2"
_cell_formula_units_Z 24
_cell_length_a 7.221163
_cell_length_b 5.447637
_cell_length_c 26.132656
_cell_angle_alpha 90.000000
_cell_angle_beta 73.848412
_cell_angle_gamma 90.000000
_cell_volume 987.436955
_symmetry_space_group_name_H-M "P 21/C"
_symmetry_group_IT_number 14
_symmetry_cell_setting 'monoclinic'
loop_
_space_group_symop_operation_xyz
x,y,z
-x,1/2+y,1/2-z
-x,-y,-z
x,1/2-y,1/2+z
loop_
_atom_site_type_symbol
_atom_site_label
_atom_site_fract_x
_atom_site_fract_y
_atom_site_fract_z
Si Si1 0.055334 0.291655 0.817961
Si Si2 0.389025 0.823625 0.666050
Si Si3 0.965628 0.714217 0.365582
Si Si4 0.336380 0.317148 0.701612
Si Si5 0.461267 0.702037 0.044818
Si Si6 0.178430 0.044755 0.022593
O O1 0.203068 0.321290 0.760801
O O2 0.841423 0.290234 0.810819
O O3 0.089641 0.536117 0.849522
O O4 0.089522 0.037613 0.847204
O O5 0.467473 0.565671 0.684685
O O6 0.460393 0.881504 0.603397
O O7 0.459666 0.060505 0.693955
O O8 0.786014 0.713845 0.341020
O O9 0.884684 0.740510 0.429620
O O10 0.248136 0.809095 0.049960
O O11 0.500000 0.500000 0.000000
O O12 0.638625 0.890090 0.026457
O O13 0.000000 0.000000 0.000000
#
# Coordination Sequence:
#
# PCOD8123307 Si02
#       6
#     4   4   4   4   4   4
#     4  10  17  29  53  86 125 152 206 270 322 376
#     4  10  18  30  52  83 124 153 203 264 313 380
#     4  10  18  33  51  83 125 156 207 266 307 388
#     4  10  17  29  52  88 124 152 205 270 319 382
#     4  11  23  41  65  91 132 173 220 278 323 392
#     4  11  25  42  63  94 134 177 223 271 333 393
#
# _framework density 24.305351999999999
#
# number of rings (size 3 to 8) (size 9 to 14) (size 15 to 20)
#    0.000    1.667    3.333    7.000    2.333    0.667 
#    0.000    0.000    0.000    0.000    0.000    7.000 
#    0.000    0.000    0.000    0.000    0.000    0.000 
#
# Total GULP energy -297338.565857 kJ/mol
# GULP energy per Si atom -12389.106911 kJ/mol
# Density = 2.425003 g / cm^3
# Si number density = 24.305352 Si / 1000 Ang^3
#
#
#
# Elastic Constant Matrix: (Units=GPa)
#
#
# Indices 1 2 3 4 5 6 
#
# 1 70.1737 0.2602 13.2120 0.0000 2.4098 0.0000
# 2 0.2602 213.8946 35.1567 0.0000 -14.1129 0.0000
# 3 13.2120 35.1567 128.0569 0.0000 -25.2898 0.0000
# 4 0.0000 0.0000 0.0000 49.1674 0.0000 -8.1921
# 5 2.4098 -14.1129 -25.2898 0.0000 13.0139 0.0000
# 6 0.0000 0.0000 0.0000 -8.1921 0.0000 -4.3663
#
#
#
# Elastic Compliance Matrix: (Units=1/GPa)
#
#
# Indices 1 2 3 4 5 6 
#
# 1 0.015229 -0.000086 -0.003445 0.000000 -0.009608 0.000000
# 2 -0.000086 0.005055 -0.000476 0.000000 0.004574 0.000000
# 3 -0.003445 -0.000476 0.013500 0.000000 0.026357 0.000000
# 4 0.000000 0.000000 0.000000 0.015495 0.000000 -0.029072
# 5 -0.009608 0.004574 0.026357 0.000000 0.134800 0.000000
# 6 0.000000 0.000000 0.000000 -0.029072 0.000000 -0.174484
#
#
# Mechanical properties :
#
#
# Convention : Reuss Voigt Hill
#
# Bulk Modulus (GPa) = 38.80382 56.59810 47.70096
# Shear Modulus (GPa) = 190.83834 35.79609 113.31722
#
# Velocity S-wave (km/s) = 8.87060 3.84183 6.83546
# Velocity P-wave (km/s) = 10.99620 6.55868 9.05353
#
# Compressibility (1/GPa) = 0.02577066
#
# Stress axis : x y z
#
# Youngs Moduli (GPa) = 65.66303 197.81328 74.07241
#
# Poissons Ratio (x) = 0.01706 0.25519
# Poissons Ratio (y) = 0.00566 0.03524
# Poissons Ratio (z) = 0.22622 0.09410
#
# Static dielectric constant tensor:
#      x y z
#    x 3.892410 0.000000 -0.384610 
#    y 0.000000 5.716990 0.000000 
#    z -0.384610 0.000000 4.857390 
# 
# 
# High freq. dielectric constant tensor:
#      x y z
#    x 1.906230 0.000000 -0.018620 
#    y 0.000000 1.990940 0.000000 
#    z -0.018620 0.000000 1.980110 
# 
# From -- ./inp_files/75936.got.cif
#   From: 2010.03.12/outbox.cif.g09.slc.cpg/sg14_38_cif.got.tgz:75936.got - 2010.03.31 13:35:05.
