data_PCOD8123657
_publ_section_title
;
Structure prediction by ZEFSAII (Michael W. Deem and Ramdas Pophale) SiO2 
 PCOD8123657
Probable space group: P 21/C
;
_chemical_formula_sum "Si O2"
_cell_formula_units_Z 32
_cell_length_a 8.219252
_cell_length_b 9.031751
_cell_length_c 22.172267
_cell_angle_alpha 90.000000
_cell_angle_beta 112.826695
_cell_angle_gamma 90.000000
_cell_volume 1517.035327
_symmetry_space_group_name_H-M "P 21/C"
_symmetry_group_IT_number 14
_symmetry_cell_setting 'monoclinic'
loop_
_space_group_symop_operation_xyz
x,y,z
-x,1/2+y,1/2-z
-x,-y,-z
x,1/2-y,1/2+z
loop_
_atom_site_type_symbol
_atom_site_label
_atom_site_fract_x
_atom_site_fract_y
_atom_site_fract_z
Si Si1 0.297587 0.919611 0.708625
Si Si2 0.327488 0.483911 0.702792
Si Si3 0.591446 0.962049 0.600769
Si Si4 0.248733 0.417859 0.998048
Si Si5 0.797684 0.322658 0.219356
Si Si6 0.086976 0.287355 0.167499
Si Si7 0.946484 0.215121 0.517406
Si Si8 0.662850 0.285406 0.391870
O O1 0.495581 0.982964 0.730889
O O2 0.293617 0.830594 0.771815
O O3 0.245293 0.816183 0.645345
O O4 0.154214 0.046576 0.681389
O O5 0.176805 0.580604 0.715744
O O6 0.255731 0.318394 0.686941
O O7 0.380491 0.556657 0.645799
O O8 0.737284 0.912705 0.572308
O O9 0.512450 0.804641 0.612463
O O10 0.445687 0.073853 0.552833
O O11 0.686513 0.067096 0.661818
O O12 0.147523 0.560014 0.007444
O O13 0.136675 0.280357 0.010023
O O14 0.974651 0.266075 0.212231
O O15 0.967039 0.254060 0.091441
O O16 0.804161 0.325336 0.465410
#
# Coordination Sequence:
#
# PCOD8123657 Si02
#       8
#     4   4   4   4   4   4   4   4
#     4  11  23  40  63  89 122 164 212 257 311 386
#     4  11  25  42  62  90 128 175 208 255 321 388
#     4  10  18  34  61  87 128 153 206 259 311 372
#     4   9  18  32  56  95 117 161 204 257 305 374
#     4  11  23  39  61  96 124 160 212 268 325 366
#     4  12  23  41  65  90 129 165 211 265 321 381
#     4  10  20  35  62  91 124 159 213 261 320 368
#     4  10  22  40  60  92 124 158 211 262 306 379
#
# _framework density 21.093772999999999
#
# number of rings (size 3 to 8) (size 9 to 14) (size 15 to 20)
#    0.000    1.500    2.500    4.500    1.750    0.500 
#    0.000    1.250    0.000    1.500    0.000    0.000 
#    0.000    0.000    0.000    0.000    0.000    0.000 
#
# Total GULP energy -396443.922173 kJ/mol
# GULP energy per Si atom -12388.872568 kJ/mol
# Density = 2.104576 g / cm^3
# Si number density = 21.093773 Si / 1000 Ang^3
#
#
#
# Elastic Constant Matrix: (Units=GPa)
#
#
# Indices 1 2 3 4 5 6 
#
# 1 85.7807 16.2079 13.3495 0.0000 -16.2800 0.0000
# 2 16.2079 58.5912 9.5967 0.0000 -9.0532 0.0000
# 3 13.3495 9.5967 80.3827 0.0000 -3.7426 0.0000
# 4 0.0000 0.0000 0.0000 18.2310 0.0000 -0.9819
# 5 -16.2800 -9.0532 -3.7426 0.0000 32.9228 0.0000
# 6 0.0000 0.0000 0.0000 -0.9819 0.0000 15.9628
#
#
#
# Elastic Compliance Matrix: (Units=1/GPa)
#
#
# Indices 1 2 3 4 5 6 
#
# 1 0.013499 -0.002568 -0.001666 0.000000 0.005779 0.000000
# 2 -0.002568 0.018610 -0.001625 0.000000 0.003663 0.000000
# 3 -0.001666 -0.001625 0.012920 0.000000 0.000198 0.000000
# 4 0.000000 0.000000 0.000000 0.055034 0.000000 0.003385
# 5 0.005779 0.003663 0.000198 0.000000 0.034262 0.000000
# 6 0.000000 0.000000 0.000000 0.003385 0.000000 0.062854
#
#
# Mechanical properties :
#
#
# Convention : Reuss Voigt Hill
#
# Bulk Modulus (GPa) = 30.02005 33.67364 31.84684
# Shear Modulus (GPa) = 22.72717 25.79668 24.26192
#
# Velocity S-wave (km/s) = 3.28599 3.50087 3.39513
# Velocity P-wave (km/s) = 5.35347 5.68682 5.52266
#
# Compressibility (1/GPa) = 0.03331107
#
# Stress axis : x y z
#
# Youngs Moduli (GPa) = 74.07928 53.73478 77.39709
#
# Poissons Ratio (x) = 0.13801 0.12895
# Poissons Ratio (y) = 0.19026 0.12575
# Poissons Ratio (z) = 0.12343 0.08730
#
# Static dielectric constant tensor:
#      x y z
#    x 4.025890 0.000000 -0.133430 
#    y 0.000000 3.574770 0.000000 
#    z -0.133430 0.000000 3.923350 
# 
# 
# High freq. dielectric constant tensor:
#      x y z
#    x 1.828630 0.000000 -0.011830 
#    y 0.000000 1.795960 0.000000 
#    z -0.011830 0.000000 1.829000 
# 
# From -- ./inp_files/72090.got.cif
#   From: 2010.03.12/outbox.cif.g09.slc.cpg/sg14_37_cif.got.tgz:72090.got - 2010.03.31 13:35:05.
