data_PCOD8123299
_publ_section_title
;
Structure prediction by ZEFSAII (Michael W. Deem and Ramdas Pophale) SiO2 
 PCOD8123299
Probable space group: P 21/C
;
_chemical_formula_sum "Si O2"
_cell_formula_units_Z 28
_cell_length_a 13.619684
_cell_length_b 19.703207
_cell_length_c 5.367894
_cell_angle_alpha 90.000000
_cell_angle_beta 78.634787
_cell_angle_gamma 90.000000
_cell_volume 1412.235742
_symmetry_space_group_name_H-M "P 21/C"
_symmetry_group_IT_number 14
_symmetry_cell_setting 'monoclinic'
loop_
_space_group_symop_operation_xyz
x,y,z
-x,1/2+y,1/2-z
-x,-y,-z
x,1/2-y,1/2+z
loop_
_atom_site_type_symbol
_atom_site_label
_atom_site_fract_x
_atom_site_fract_y
_atom_site_fract_z
Si Si1 0.407147 0.436937 0.796426
Si Si2 0.241240 0.748007 0.379380
Si Si3 0.174770 0.900820 0.912615
Si Si4 0.908105 0.708546 0.045947
Si Si5 0.370062 0.512443 0.314969
Si Si6 0.094144 0.876894 0.452928
Si Si7 0.678074 0.791655 0.660960
O O1 0.357889 0.467732 0.570799
O O2 0.525347 0.448673 0.737327
O O3 0.391996 0.356913 0.804001
O O4 0.357889 0.467732 0.071312
O O5 0.309613 0.750000 0.595194
O O6 0.175284 0.680659 0.412359
O O7 0.164022 0.810108 0.417989
O O8 0.285856 0.930366 0.857071
O O9 0.116953 0.922404 0.688068
O O10 0.116954 0.922404 0.194979
O O11 0.932625 0.750000 0.283688
O O12 0.793374 0.684410 0.103312
O O13 0.977305 0.642062 0.011346
O O14 0.653529 0.750001 0.423229
#
# Coordination Sequence:
#
# PCOD8123299 Si02
#       7
#     4   4   4   4   4   4   4
#     4  10  21  40  60  80 107 140 186 228 268 324
#     4   8  14  23  37  60  94 128 157 198 247 292
#     4  10  18  29  47  74 103 136 180 218 257 308
#     4  10  18  30  51  78 107 144 183 216 270 333
#     4  10  21  37  60  80 103 149 189 217 261 331
#     4  10  17  28  47  73 110 142 173 219 266 322
#     4  10  21  37  60  87 110 136 176 232 283 314
#
# _framework density 19.826718
#
# number of rings (size 3 to 8) (size 9 to 14) (size 15 to 20)
#    0.000    2.286    0.000    5.143    0.000    0.000 
#    0.000    4.286    0.000    5.143    0.000    0.000 
#    0.000    0.000    0.000    0.000    0.000    0.000 
#
# Total GULP energy -346899.011071 kJ/mol
# GULP energy per Si atom -12389.250395 kJ/mol
# Density = 1.978159 g / cm^3
# Si number density = 19.826718 Si / 1000 Ang^3
#
#
#
# Elastic Constant Matrix: (Units=GPa)
#
#
# Indices 1 2 3 4 5 6 
#
# 1 45.9981 34.8508 45.2093 0.0000 7.4607 0.0000
# 2 34.8508 59.9325 41.9482 0.0000 2.1818 0.0000
# 3 45.2093 41.9482 225.5323 0.0000 47.7673 0.0000
# 4 0.0000 0.0000 0.0000 22.9014 0.0000 -2.1149
# 5 7.4607 2.1818 47.7673 0.0000 24.9214 0.0000
# 6 0.0000 0.0000 0.0000 -2.1149 0.0000 29.7749
#
#
#
# Elastic Compliance Matrix: (Units=1/GPa)
#
#
# Indices 1 2 3 4 5 6 
#
# 1 0.042726 -0.022179 -0.003605 0.000000 -0.003939 0.000000
# 2 -0.022179 0.031881 -0.003870 0.000000 0.011267 0.000000
# 3 -0.003605 -0.003870 0.009387 0.000000 -0.016574 0.000000
# 4 0.000000 0.000000 0.000000 0.043954 0.000000 0.003122
# 5 -0.003939 0.011267 -0.016574 0.000000 0.072086 0.000000
# 6 0.000000 0.000000 0.000000 0.003122 0.000000 0.033807
#
#
# Mechanical properties :
#
#
# Convention : Reuss Voigt Hill
#
# Bulk Modulus (GPa) = 40.50896 63.94216 52.22556
# Shear Modulus (GPa) = 16.59049 29.48316 23.03682
#
# Velocity S-wave (km/s) = 2.89584 3.86040 3.41238
# Velocity P-wave (km/s) = 5.62646 7.22432 6.47487
#
# Compressibility (1/GPa) = 0.02468589
#
# Stress axis : x y z
#
# Youngs Moduli (GPa) = 23.40486 31.36668 106.53298
#
# Poissons Ratio (x) = 0.69567 0.38409
# Poissons Ratio (y) = 0.51908 0.41230
# Poissons Ratio (z) = 0.08438 0.12139
#
# Static dielectric constant tensor:
#      x y z
#    x 3.390140 0.000000 0.436170 
#    y 0.000000 3.158690 0.000000 
#    z 0.436170 0.000000 4.807940 
# 
# 
# High freq. dielectric constant tensor:
#      x y z
#    x 1.746070 0.000000 0.021190 
#    y 0.000000 1.736170 0.000000 
#    z 0.021190 0.000000 1.814970 
# 
# From -- ./inp_files/2897.got.cif
#   From: 2010.03.12/outbox.cif.g09.slc.cpg/sg14_2_cif.got.tgz:2897.got - 2010.03.31 13:35:05.
