data_PCOD8123176
_publ_section_title
;
Structure prediction by ZEFSAII (Michael W. Deem and Ramdas Pophale) SiO2 
 PCOD8123176
Probable space group: P 2/C
;
_chemical_formula_sum "Si O2"
_cell_formula_units_Z 22
_cell_length_a 14.588066
_cell_length_b 6.530619
_cell_length_c 10.210517
_cell_angle_alpha 90.000000
_cell_angle_beta 101.733719
_cell_angle_gamma 90.000000
_cell_volume 952.419577
_symmetry_space_group_name_H-M "P 2/C"
_symmetry_group_IT_number 13
_symmetry_cell_setting 'monoclinic'
loop_
_space_group_symop_operation_xyz
x,y,z
-x,y,1/2-z
-x,-y,-z
x,-y,1/2+z
loop_
_atom_site_type_symbol
_atom_site_label
_atom_site_fract_x
_atom_site_fract_y
_atom_site_fract_z
Si Si1 0.730703 0.400199 0.384473
Si Si2 0.607707 0.782764 0.290883
Si Si3 0.000000 0.865022 0.250000
Si Si4 0.679862 0.048592 0.545664
Si Si5 0.846294 0.844973 0.715829
Si Si6 0.084389 0.487729 0.926903
O O1 0.665242 0.570444 0.299389
O O2 0.676879 0.275117 0.481445
O O3 0.767716 0.236007 0.290997
O O4 0.819130 0.515457 0.469457
O O5 0.500000 0.721694 0.250000
O O6 0.634524 0.931173 0.177313
O O7 0.623362 0.893830 0.435161
O O8 0.069681 0.732790 0.358408
O O9 0.076268 0.005237 0.193802
O O10 0.786659 0.966003 0.587918
O O11 0.912058 0.663960 0.680309
O O12 0.000000 0.500000 0.000000
#
# Coordination Sequence:
#
# PCOD8123176 Si02
#       6
#     4   4   2   4   4   4
#     4  12  26  47  77 108 155 200 249 322 385 448
#     4  12  29  52  81 115 151 198 257 320 390 465
#     4  12  26  42  68 104 146 198 252 304 370 448
#     4  12  26  50  81 111 153 201 253 317 390 459
#     4  12  26  46  69 111 150 198 254 311 380 449
#     4  12  26  42  69 105 149 201 253 312 373 449
#
# _framework density 23.099063000000001
#
# number of rings (size 3 to 8) (size 9 to 14) (size 15 to 20)
#    0.000    0.000    5.455    4.364    5.091    2.909 
#    0.000    0.000    0.000    0.000    0.000    0.000 
#    0.000    0.000    0.000    0.000    0.000    0.000 
#
# Total GULP energy -272715.720618 kJ/mol
# GULP energy per Si atom -12396.169119 kJ/mol
# Density = 2.304649 g / cm^3
# Si number density = 23.099063 Si / 1000 Ang^3
#
#
#
# Elastic Constant Matrix: (Units=GPa)
#
#
# Indices 1 2 3 4 5 6 
#
# 1 139.0044 64.5393 42.8250 0.0000 16.4346 0.0000
# 2 64.5393 124.9867 49.4816 0.0000 6.2953 0.0000
# 3 42.8250 49.4816 100.6952 0.0000 0.9389 0.0000
# 4 0.0000 0.0000 0.0000 41.5002 0.0000 3.8293
# 5 16.4346 6.2953 0.9389 0.0000 40.9308 0.0000
# 6 0.0000 0.0000 0.0000 3.8293 0.0000 38.1626
#
#
#
# Elastic Compliance Matrix: (Units=1/GPa)
#
#
# Indices 1 2 3 4 5 6 
#
# 1 0.010257 -0.004233 -0.002250 0.000000 -0.003416 0.000000
# 2 -0.004233 0.011763 -0.003980 0.000000 -0.000018 0.000000
# 3 -0.002250 -0.003980 0.012832 0.000000 0.001221 0.000000
# 4 0.000000 0.000000 0.000000 0.024321 0.000000 -0.002440
# 5 -0.003416 -0.000018 0.001221 0.000000 0.025778 0.000000
# 6 0.000000 0.000000 0.000000 -0.002440 0.000000 0.026449
#
#
# Mechanical properties :
#
#
# Convention : Reuss Voigt Hill
#
# Bulk Modulus (GPa) = 71.80991 75.37537 73.59264
# Shear Modulus (GPa) = 36.50483 37.97474 37.23979
#
# Velocity S-wave (km/s) = 3.97969 4.05902 4.01955
# Velocity P-wave (km/s) = 7.22997 7.39390 7.31239
#
# Compressibility (1/GPa) = 0.01392565
#
# Stress axis : x y z
#
# Youngs Moduli (GPa) = 97.49857 85.00938 77.92909
#
# Poissons Ratio (x) = 0.35988 0.17533
# Poissons Ratio (y) = 0.41275 0.31015
# Poissons Ratio (z) = 0.21936 0.33833
#
# Static dielectric constant tensor:
#      x y z
#    x 3.995730 0.000000 0.089500 
#    y 0.000000 95.558010 0.000000 
#    z 0.089500 0.000000 4.241620 
# 
# 
# High freq. dielectric constant tensor:
#      x y z
#    x 1.912490 0.000000 0.010140 
#    y 0.000000 1.928180 0.000000 
#    z 0.010140 0.000000 1.909560 
# 
# From -- ./inp_files/35321.got.cif
#   From: 2010.06.25/outbox.cif.g09.slc.cpg/sg13_18_cif.got.tgz:35321.got - 2010.06.28 04:50:58.
