data_PCOD8123694
_publ_section_title
;
Structure prediction by ZEFSAII (Michael W. Deem and Ramdas Pophale) SiO2 
 PCOD8123694
Probable space group: P 21/C
;
_chemical_formula_sum "Si O2"
_cell_formula_units_Z 32
_cell_length_a 16.290150
_cell_length_b 17.736009
_cell_length_c 5.542367
_cell_angle_alpha 90.000000
_cell_angle_beta 93.583884
_cell_angle_gamma 90.000000
_cell_volume 1598.181520
_symmetry_space_group_name_H-M "P 21/C"
_symmetry_group_IT_number 14
_symmetry_cell_setting 'monoclinic'
loop_
_space_group_symop_operation_xyz
x,y,z
-x,1/2+y,1/2-z
-x,-y,-z
x,1/2-y,1/2+z
loop_
_atom_site_type_symbol
_atom_site_label
_atom_site_fract_x
_atom_site_fract_y
_atom_site_fract_z
Si Si1 0.606282 0.447391 0.348677
Si Si2 0.433416 0.401606 0.404717
Si Si3 0.311725 0.471573 0.019821
Si Si4 0.196671 0.087970 0.129242
Si Si5 0.225194 0.942747 0.882920
Si Si6 0.876064 0.207939 0.165624
Si Si7 0.068751 0.207658 0.202564
Si Si8 0.300603 0.206898 0.945705
O O1 0.529711 0.390031 0.355072
O O2 0.575803 0.532450 0.401551
O O3 0.641391 0.455826 0.086725
O O4 0.681581 0.419063 0.527911
O O5 0.395555 0.321686 0.482874
O O6 0.380687 0.423983 0.164360
O O7 0.270935 0.411288 0.834314
O O8 0.234930 0.507887 0.145832
O O9 0.113623 0.126664 0.210577
O O10 0.237451 0.135671 0.917095
O O11 0.180442 0.999963 0.062040
O O12 0.169641 0.870996 0.831679
O O13 0.850915 0.251973 0.407636
O O14 0.972376 0.191508 0.184942
O O15 0.093988 0.249430 0.457558
O O16 0.280912 0.250746 0.694153
#
# Coordination Sequence:
#
# PCOD8123694 Si02
#       8
#     4   4   4   4   4   4   4   4
#     4   9  19  35  61  85 116 155 216 264 301 361
#     4  10  19  36  55  84 117 166 212 253 304 363
#     4  10  18  35  59  92 118 158 211 264 305 365
#     4  11  22  37  61  92 129 160 217 254 304 381
#     4  10  22  38  64  94 119 161 213 266 315 368
#     4  10  24  46  68  91 126 165 206 259 325 383
#     4  10  23  42  64  93 129 173 210 245 311 386
#     4  12  24  37  56  85 129 169 198 250 315 367
#
# _framework density 20.022756000000001
#
# number of rings (size 3 to 8) (size 9 to 14) (size 15 to 20)
#    0.000    1.750    3.750    1.875    5.250    0.500 
#    0.000    1.875    0.000    0.000    0.000    0.000 
#    0.000    0.000    0.000    0.000    0.000    0.000 
#
# Total GULP energy -396465.811091 kJ/mol
# GULP energy per Si atom -12389.556597 kJ/mol
# Density = 1.997718 g / cm^3
# Si number density = 20.022756 Si / 1000 Ang^3
#
#
#
# Elastic Constant Matrix: (Units=GPa)
#
#
# Indices 1 2 3 4 5 6 
#
# 1 64.9578 38.3546 20.7585 0.0000 2.3798 0.0000
# 2 38.3546 74.5830 27.3368 0.0000 10.9788 0.0000
# 3 20.7585 27.3368 110.4010 0.0000 0.4972 0.0000
# 4 0.0000 0.0000 0.0000 16.8253 0.0000 -5.2273
# 5 2.3798 10.9788 0.4972 0.0000 11.6063 0.0000
# 6 0.0000 0.0000 0.0000 -5.2273 0.0000 45.9504
#
#
#
# Elastic Compliance Matrix: (Units=1/GPa)
#
#
# Indices 1 2 3 4 5 6 
#
# 1 0.022802 -0.012289 -0.001276 0.000000 0.007004 0.000000
# 2 -0.012289 0.023967 -0.003534 0.000000 -0.020000 0.000000
# 3 -0.001276 -0.003534 0.010159 0.000000 0.003169 0.000000
# 4 0.000000 0.000000 0.000000 0.061612 0.000000 0.007009
# 5 0.007004 -0.020000 0.003169 0.000000 0.103507 0.000000
# 6 0.000000 0.000000 0.000000 0.007009 0.000000 0.022560
#
#
# Mechanical properties :
#
#
# Convention : Reuss Voigt Hill
#
# Bulk Modulus (GPa) = 43.99581 46.98240 45.48910
# Shear Modulus (GPa) = 17.45922 25.77585 21.61753
#
# Velocity S-wave (km/s) = 2.95612 3.59183 3.28936
# Velocity P-wave (km/s) = 5.80277 6.38099 6.09874
#
# Compressibility (1/GPa) = 0.02272944
#
# Stress axis : x y z
#
# Youngs Moduli (GPa) = 43.85554 41.72387 98.43942
#
# Poissons Ratio (x) = 0.51276 0.12560
# Poissons Ratio (y) = 0.53896 0.34786
# Poissons Ratio (z) = 0.05596 0.14744
#
# Static dielectric constant tensor:
#      x y z
#    x 3.726520 0.000000 -0.215110 
#    y 0.000000 3.436430 0.000000 
#    z -0.215110 0.000000 3.945870 
# 
# 
# High freq. dielectric constant tensor:
#      x y z
#    x 1.777030 0.000000 -0.007540 
#    y 0.000000 1.753050 0.000000 
#    z -0.007540 0.000000 1.794430 
# 
# From -- ./inp_files/3810.got.cif
#   From: 2010.03.12/outbox.cif.g09.slc.cpg/sg14_2_cif.got.tgz:3810.got - 2010.03.31 13:35:05.
