data_PCOD8123546
_publ_section_title
;
Structure prediction by ZEFSAII (Michael W. Deem and Ramdas Pophale) SiO2 
 PCOD8123546
Probable space group: P 21/C
;
_chemical_formula_sum "Si O2"
_cell_formula_units_Z 28
_cell_length_a 9.135069
_cell_length_b 17.969365
_cell_length_c 8.916893
_cell_angle_alpha 90.000000
_cell_angle_beta 90.277272
_cell_angle_gamma 90.000000
_cell_volume 1463.703234
_symmetry_space_group_name_H-M "P 21/C"
_symmetry_group_IT_number 14
_symmetry_cell_setting 'monoclinic'
loop_
_space_group_symop_operation_xyz
x,y,z
-x,1/2+y,1/2-z
-x,-y,-z
x,1/2-y,1/2+z
loop_
_atom_site_type_symbol
_atom_site_label
_atom_site_fract_x
_atom_site_fract_y
_atom_site_fract_z
Si Si1 0.513285 0.546453 0.653118
Si Si2 0.707935 0.059623 0.336870
Si Si3 0.773495 0.851138 0.170930
Si Si4 0.692508 0.754222 0.922435
Si Si5 0.263262 0.501558 0.837096
Si Si6 0.559845 0.651945 0.165707
Si Si7 0.961416 0.996397 0.172316
O O1 0.500000 0.500000 0.500000
O O2 0.599272 0.504324 0.783556
O O3 0.605116 0.622272 0.633877
O O4 0.351294 0.556337 0.722558
O O5 0.614726 0.135677 0.331974
O O6 0.758217 0.041531 0.504817
O O7 0.847001 0.060586 0.224326
O O8 0.784654 0.801395 0.319268
O O9 0.888903 0.916075 0.198477
O O10 0.808901 0.800686 0.024815
O O11 0.596439 0.810189 0.823325
O O12 0.585538 0.707113 0.028101
O O13 0.342313 0.422045 0.853931
O O14 0.103193 0.490168 0.771125
O O15 0.000000 0.000000 0.000000
#
# Coordination Sequence:
#
# PCOD8123546 Si02
#       7
#     4   4   4   4   4   4   4
#     4  10  18  32  56  84 110 134 174 229 272 314
#     4  10  20  34  54  81 110 137 177 231 276 318
#     4  10  20  36  55  82 107 141 185 219 275 324
#     4  10  20  33  57  78 109 146 181 222 255 338
#     4  11  20  34  59  85 111 142 178 234 282 321
#     4  10  19  35  56  82 107 141 183 219 275 323
#     4  11  22  36  57  84 111 141 181 236 283 322
#
# _framework density 19.129559
#
# number of rings (size 3 to 8) (size 9 to 14) (size 15 to 20)
#    0.000    1.714    0.000    9.000    0.000    0.000 
#    0.000    0.000    0.000   29.143    0.000    0.000 
#    0.000    0.000    0.000    0.000    0.000    0.000 
#
# Total GULP energy -347040.658048 kJ/mol
# GULP energy per Si atom -12394.309216 kJ/mol
# Density = 1.908602 g / cm^3
# Si number density = 19.129559 Si / 1000 Ang^3
#
#
#
# Elastic Constant Matrix: (Units=GPa)
#
#
# Indices 1 2 3 4 5 6 
#
# 1 86.1896 1.9949 16.4041 0.0000 -3.5210 0.0000
# 2 1.9949 36.1471 3.1391 0.0000 -2.6949 0.0000
# 3 16.4041 3.1391 118.7896 0.0000 -6.3135 0.0000
# 4 0.0000 0.0000 0.0000 30.8958 0.0000 3.4622
# 5 -3.5210 -2.6949 -6.3135 0.0000 29.2760 0.0000
# 6 0.0000 0.0000 0.0000 3.4622 0.0000 20.7224
#
#
#
# Elastic Compliance Matrix: (Units=1/GPa)
#
#
# Indices 1 2 3 4 5 6 
#
# 1 0.011957 -0.000444 -0.001583 0.000000 0.001056 0.000000
# 2 -0.000444 0.027916 -0.000549 0.000000 0.002398 0.000000
# 3 -0.001583 -0.000549 0.008739 0.000000 0.001644 0.000000
# 4 0.000000 0.000000 0.000000 0.032984 0.000000 -0.005511
# 5 0.001056 0.002398 0.001644 0.000000 0.034860 0.000000
# 6 0.000000 0.000000 0.000000 -0.005511 0.000000 0.049178
#
#
# Mechanical properties :
#
#
# Convention : Reuss Voigt Hill
#
# Bulk Modulus (GPa) = 23.00991 31.57804 27.29397
# Shear Modulus (GPa) = 26.98734 30.81805 28.90270
#
# Velocity S-wave (km/s) = 3.76009 4.01810 3.89124
# Velocity P-wave (km/s) = 5.55928 6.17010 5.87264
#
# Compressibility (1/GPa) = 0.04345954
#
# Stress axis : x y z
#
# Youngs Moduli (GPa) = 83.63244 35.82214 114.43276
#
# Poissons Ratio (x) = 0.01589 0.18119
# Poissons Ratio (y) = 0.03711 0.06282
# Poissons Ratio (z) = 0.13242 0.01967
#
# Static dielectric constant tensor:
#      x y z
#    x 1.436240 0.000000 -0.617850 
#    y 0.000000 3.659520 0.000000 
#    z -0.617850 0.000000 3.705060 
# 
# 
# High freq. dielectric constant tensor:
#      x y z
#    x 1.723510 0.000000 -0.001620 
#    y 0.000000 1.727500 0.000000 
#    z -0.001620 0.000000 1.772930 
# 
# From -- ./inp_files/9443.got.cif
#   From: 2010.03.12/outbox.cif.g09.slc.cpg/sg14_5_cif.got.tgz:9443.got - 2010.03.31 13:35:05.
