data_PCOD8123931
_publ_section_title
;
Structure prediction by ZEFSAII (Michael W. Deem and Ramdas Pophale) SiO2 
 PCOD8123931
Probable space group: P 21/C
;
_chemical_formula_sum "Si O2"
_cell_formula_units_Z 24
_cell_length_a 12.716175
_cell_length_b 4.960088
_cell_length_c 20.725449
_cell_angle_alpha 90.000000
_cell_angle_beta 119.600560
_cell_angle_gamma 90.000000
_cell_volume 1136.617839
_symmetry_space_group_name_H-M "P 21/C"
_symmetry_group_IT_number 14
_symmetry_cell_setting 'monoclinic'
loop_
_space_group_symop_operation_xyz
x,y,z
-x,1/2+y,1/2-z
-x,-y,-z
x,1/2-y,1/2+z
loop_
_atom_site_type_symbol
_atom_site_label
_atom_site_fract_x
_atom_site_fract_y
_atom_site_fract_z
Si Si1 0.074591 0.301953 0.790461
Si Si2 0.484145 0.630476 0.787369
Si Si3 0.270515 0.266757 0.602258
Si Si4 0.992268 0.616136 0.601512
Si Si5 0.877572 0.219115 0.478181
Si Si6 0.765881 0.914651 0.769878
O O1 0.198580 0.264831 0.786331
O O2 0.025114 0.605198 0.770935
O O3 0.100718 0.241465 0.874452
O O4 0.470773 0.842122 0.725251
O O5 0.586159 0.733561 0.869585
O O6 0.352676 0.596295 0.780486
O O7 0.191657 0.062966 0.534912
O O8 0.224650 0.565593 0.573693
O O9 0.258360 0.214251 0.676432
O O10 0.016583 0.803414 0.545284
O O11 0.118814 0.596563 0.677075
O O12 0.942143 0.323372 0.563137
#
# Coordination Sequence:
#
# PCOD8123931 Si02
#       6
#     4   4   4   4   4   4
#     4  10  20  33  50  73 104 134 164 204 251 303
#     4  10  19  32  52  75 101 129 165 212 253 293
#     4  10  19  33  50  74  99 129 166 202 252 292
#     4   9  19  33  50  75 101 131 166 200 253 297
#     4  10  20  32  51  72 102 133 163 205 241 302
#     4   9  19  33  53  77 103 129 166 213 254 296
#
# _framework density 21.115275
#
# number of rings (size 3 to 8) (size 9 to 14) (size 15 to 20)
#    0.000    2.333    0.000    4.000    0.000   12.667 
#    0.000    0.000    0.000    2.000    0.000    0.000 
#    0.000    0.000    0.000    0.000    0.000    0.000 
#
# Total GULP energy -297382.915278 kJ/mol
# GULP energy per Si atom -12390.954803 kJ/mol
# Density = 2.106722 g / cm^3
# Si number density = 21.115275 Si / 1000 Ang^3
#
#
#
# Elastic Constant Matrix: (Units=GPa)
#
#
# Indices 1 2 3 4 5 6 
#
# 1 119.2507 13.2109 49.0301 0.0000 6.2497 0.0000
# 2 13.2109 42.0621 -2.0448 0.0000 3.3661 0.0000
# 3 49.0301 -2.0448 68.0016 0.0000 2.7038 0.0000
# 4 0.0000 0.0000 0.0000 25.3963 0.0000 6.0031
# 5 6.2497 3.3661 2.7038 0.0000 45.4097 0.0000
# 6 0.0000 0.0000 0.0000 6.0031 0.0000 30.5905
#
#
#
# Elastic Compliance Matrix: (Units=1/GPa)
#
#
# Indices 1 2 3 4 5 6 
#
# 1 0.012730 -0.004379 -0.009276 0.000000 -0.000875 0.000000
# 2 -0.004379 0.025465 0.003984 0.000000 -0.001522 0.000000
# 3 -0.009276 0.003984 0.021525 0.000000 -0.000300 0.000000
# 4 0.000000 0.000000 0.000000 0.041291 0.000000 -0.008103
# 5 -0.000875 -0.001522 -0.000300 0.000000 0.022273 0.000000
# 6 0.000000 0.000000 0.000000 -0.008103 0.000000 0.034280
#
#
# Mechanical properties :
#
#
# Convention : Reuss Voigt Hill
#
# Bulk Modulus (GPa) = 24.76565 38.85634 31.81100
# Shear Modulus (GPa) = 26.26507 31.55385 28.90946
#
# Velocity S-wave (km/s) = 3.53071 3.86989 3.70418
# Velocity P-wave (km/s) = 5.32686 6.19758 5.77864
#
# Compressibility (1/GPa) = 0.04037850
#
# Stress axis : x y z
#
# Youngs Moduli (GPa) = 78.55193 39.26909 46.45720
#
# Poissons Ratio (x) = 0.17197 0.43092
# Poissons Ratio (y) = 0.34400 -0.18508
# Poissons Ratio (z) = 0.72863 -0.15644
#
# Static dielectric constant tensor:
#      x y z
#    x 4.157460 0.000000 -0.035430 
#    y 0.000000 3.703740 0.000000 
#    z -0.035430 0.000000 3.847360 
# 
# 
# High freq. dielectric constant tensor:
#      x y z
#    x 1.806480 0.000000 0.018430 
#    y 0.000000 1.831440 0.000000 
#    z 0.018430 0.000000 1.803540 
# 
# From -- ./inp_files/66347.got.cif
#   From: 2010.03.12/outbox.cif.g09.slc.cpg/sg14_34_cif.got.tgz:66347.got - 2010.03.31 13:35:05.
