data_PCOD8123311
_publ_section_title
;
Structure prediction by ZEFSAII (Michael W. Deem and Ramdas Pophale) SiO2 
 PCOD8123311
Probable space group: P 21/C
;
_chemical_formula_sum "Si O2"
_cell_formula_units_Z 32
_cell_length_a 17.103250
_cell_length_b 4.967686
_cell_length_c 22.815599
_cell_angle_alpha 90.000000
_cell_angle_beta 118.926865
_cell_angle_gamma 90.000000
_cell_volume 1696.644040
_symmetry_space_group_name_H-M "P 21/C"
_symmetry_group_IT_number 14
_symmetry_cell_setting 'monoclinic'
loop_
_space_group_symop_operation_xyz
x,y,z
-x,1/2+y,1/2-z
-x,-y,-z
x,1/2-y,1/2+z
loop_
_atom_site_type_symbol
_atom_site_label
_atom_site_fract_x
_atom_site_fract_y
_atom_site_fract_z
Si Si1 0.185025 0.957587 0.524205
Si Si2 0.802963 0.933029 0.692384
Si Si3 0.201376 0.457514 0.161757
Si Si4 0.292674 0.541032 0.951191
Si Si5 0.065100 0.042746 0.969330
Si Si6 0.904483 0.457516 0.334723
Si Si7 0.295587 0.566668 0.304538
Si Si8 0.398033 0.458778 0.447957
O O1 0.148393 0.657881 0.501128
O O2 0.227081 0.990927 0.603874
O O3 0.265398 0.010466 0.508189
O O4 0.102247 0.156293 0.484671
O O5 0.895145 0.001382 0.760433
O O6 0.726417 0.118272 0.695575
O O7 0.798074 0.005286 0.621463
O O8 0.781486 0.618128 0.693048
O O9 0.124761 0.659873 0.156541
O O10 0.292355 0.494730 0.233875
O O11 0.161219 0.160019 0.154376
O O12 0.333474 0.836890 0.958987
O O13 0.369266 0.337111 0.957791
O O14 0.007858 0.001091 0.889161
O O15 0.000000 0.000000 0.000000
O O16 0.386749 0.496514 0.372856
O O17 0.500000 0.500000 0.500000
#
# Coordination Sequence:
#
# PCOD8123311 Si02
#       8
#     4   4   4   4   4   4   4   4
#     4  12  22  33  50  73 106 139 162 209 259 295
#     4   8  16  31  48  67  96 130 163 208 242 287
#     4  10  17  30  48  71  97 132 169 206 242 285
#     4  10  21  36  52  78 106 130 163 197 256 316
#     4  12  21  33  48  74 102 134 182 215 243 280
#     4  10  18  30  49  69  94 128 181 220 235 270
#     4   8  16  28  50  75  94 121 166 203 236 289
#     4  10  19  36  60  80  98 125 163 208 246 297
#
# _framework density 18.860764
#
# number of rings (size 3 to 8) (size 9 to 14) (size 15 to 20)
#    0.000    2.000    2.500    2.250    0.000    0.000 
#    0.000    1.250    0.000    1.500    0.000    0.000 
#    0.000    0.000    0.000    0.000    0.000    0.000 
#
# Total GULP energy -396587.306483 kJ/mol
# GULP energy per Si atom -12393.353328 kJ/mol
# Density = 1.881784 g / cm^3
# Si number density = 18.860764 Si / 1000 Ang^3
#
#
#
# Elastic Constant Matrix: (Units=GPa)
#
#
# Indices 1 2 3 4 5 6 
#
# 1 42.5294 3.1635 45.4571 0.0000 -0.9638 0.0000
# 2 3.1635 71.7769 10.4212 0.0000 -0.2643 0.0000
# 3 45.4571 10.4212 161.9164 0.0000 8.6858 0.0000
# 4 0.0000 0.0000 0.0000 24.7403 0.0000 1.9597
# 5 -0.9638 -0.2643 8.6858 0.0000 25.5968 0.0000
# 6 0.0000 0.0000 0.0000 1.9597 0.0000 16.5306
#
#
#
# Elastic Compliance Matrix: (Units=1/GPa)
#
#
# Indices 1 2 3 4 5 6 
#
# 1 0.034122 -0.000061 -0.009823 0.000000 0.004617 0.000000
# 2 -0.000061 0.014069 -0.000913 0.000000 0.000453 0.000000
# 3 -0.009823 -0.000913 0.009180 0.000000 -0.003494 0.000000
# 4 0.000000 0.000000 0.000000 0.040803 0.000000 -0.004837
# 5 0.004617 0.000453 -0.003494 0.000000 0.040432 0.000000
# 6 0.000000 0.000000 0.000000 -0.004837 0.000000 0.061067
#
#
# Mechanical properties :
#
#
# Convention : Reuss Voigt Hill
#
# Bulk Modulus (GPa) = 27.95064 43.81184 35.88124
# Shear Modulus (GPa) = 21.44154 27.85225 24.64690
#
# Velocity S-wave (km/s) = 3.37535 3.84699 3.61886
# Velocity P-wave (km/s) = 5.48109 6.55835 6.04377
#
# Compressibility (1/GPa) = 0.03577735
#
# Stress axis : x y z
#
# Youngs Moduli (GPa) = 29.30677 71.07864 108.93173
#
# Poissons Ratio (x) = 0.00431 1.07007
# Poissons Ratio (y) = 0.00178 0.09943
# Poissons Ratio (z) = 0.28789 0.06488
#
# Static dielectric constant tensor:
#      x y z
#    x 2.721980 0.000000 0.063920 
#    y 0.000000 3.671200 0.000000 
#    z 0.063920 0.000000 4.052930 
# 
# 
# High freq. dielectric constant tensor:
#      x y z
#    x 1.643860 0.000000 0.004370 
#    y 0.000000 1.760140 0.000000 
#    z 0.004370 0.000000 1.757590 
# 
# From -- ./inp_files/67857.got.cif
#   From: 2010.03.12/outbox.cif.g09.slc.cpg/sg14_34_cif.got.tgz:67857.got - 2010.03.31 13:35:05.
