data_PCOD8123146
_publ_section_title
;
Structure prediction by ZEFSAII (Michael W. Deem and Ramdas Pophale) SiO2 
 PCOD8123146
Probable space group: P 2/C
;
_chemical_formula_sum "Si O2"
_cell_formula_units_Z 14
_cell_length_a 8.675550
_cell_length_b 10.363780
_cell_length_c 8.946175
_cell_angle_alpha 90.000000
_cell_angle_beta 45.648552
_cell_angle_gamma 90.000000
_cell_volume 575.172751
_symmetry_space_group_name_H-M "P 2/C"
_symmetry_group_IT_number 13
_symmetry_cell_setting 'monoclinic'
loop_
_space_group_symop_operation_xyz
x,y,z
-x,y,1/2-z
-x,-y,-z
x,-y,1/2+z
loop_
_atom_site_type_symbol
_atom_site_label
_atom_site_fract_x
_atom_site_fract_y
_atom_site_fract_z
Si Si1 0.500000 0.765826 0.250000
Si Si2 0.231184 0.051868 0.129452
Si Si3 0.945783 0.635279 0.963194
Si Si4 0.732886 0.829739 0.601496
O O1 0.420252 0.857924 0.437607
O O2 0.302684 0.672439 0.336330
O O3 0.274450 0.048759 0.277313
O O4 0.000000 0.119512 0.250000
O O5 0.219981 0.902582 0.085889
O O6 0.000000 0.632697 0.750000
O O7 0.089817 0.732066 0.963229
O O8 0.000000 0.500000 0.000000
O O9 0.500000 0.759594 0.750000
#
# Coordination Sequence:
#
# PCOD8123146 Si02
#       4
#     2   4   4   4
#     4  12  24  50  80 104 156 188 256 312 372 440
#     4  12  25  45  75 113 157 190 245 310 387 442
#     4  12  30  54  76 110 151 205 258 308 366 456
#     4  12  26  46  76 116 153 198 248 310 384 449
#
# _framework density 24.340515
#
# number of rings (size 3 to 8) (size 9 to 14) (size 15 to 20)
#    0.000    0.000    7.143    1.714    2.000    4.571 
#    0.000    0.000    0.000    0.000    0.000    0.000 
#    0.000    0.000    0.000    0.000    0.000    0.000 
#
# Total GULP energy -173512.340359 kJ/mol
# GULP energy per Si atom -12393.738597 kJ/mol
# Density = 2.428511 g / cm^3
# Si number density = 24.340515 Si / 1000 Ang^3
#
#
#
# Elastic Constant Matrix: (Units=GPa)
#
#
# Indices 1 2 3 4 5 6 
#
# 1 159.8534 59.9515 38.1466 0.0000 -52.9428 0.0000
# 2 59.9515 145.5314 35.8797 0.0000 -15.7245 0.0000
# 3 38.1466 35.8797 83.6306 0.0000 -42.4376 0.0000
# 4 0.0000 0.0000 0.0000 18.8153 0.0000 -9.0953
# 5 -52.9428 -15.7245 -42.4376 0.0000 50.8207 0.0000
# 6 0.0000 0.0000 0.0000 -9.0953 0.0000 42.7976
#
#
#
# Elastic Compliance Matrix: (Units=1/GPa)
#
#
# Indices 1 2 3 4 5 6 
#
# 1 0.011449 -0.004092 0.003372 0.000000 0.013477 0.000000
# 2 -0.004092 0.009159 -0.004838 0.000000 -0.005469 0.000000
# 3 0.003372 -0.004838 0.023458 0.000000 0.021604 0.000000
# 4 0.000000 0.000000 0.000000 0.059233 0.000000 0.012588
# 5 0.013477 -0.005469 0.021604 0.000000 0.050065 0.000000
# 6 0.000000 0.000000 0.000000 0.012588 0.000000 0.026041
#
#
# Mechanical properties :
#
#
# Convention : Reuss Voigt Hill
#
# Bulk Modulus (GPa) = 30.34914 72.99678 51.67296
# Shear Modulus (GPa) = 24.81345 39.48924 32.15134
#
# Velocity S-wave (km/s) = 3.19632 4.03223 3.63836
# Velocity P-wave (km/s) = 5.11053 7.19260 6.23903
#
# Compressibility (1/GPa) = 0.03294986
#
# Stress axis : x y z
#
# Youngs Moduli (GPa) = 87.34346 109.18463 42.62986
#
# Poissons Ratio (x) = 0.44674 -0.14374
# Poissons Ratio (y) = 0.35737 0.20625
# Poissons Ratio (z) = -0.29450 0.52824
#
# Static dielectric constant tensor:
#      x y z
#    x 4.811960 0.000000 -0.188720 
#    y 0.000000 4.253310 0.000000 
#    z -0.188720 0.000000 4.840540 
# 
# 
# High freq. dielectric constant tensor:
#      x y z
#    x 2.001040 0.000000 -0.012130 
#    y 0.000000 1.945690 0.000000 
#    z -0.012130 0.000000 1.974930 
# 
# From -- ./inp_files/11477.got.cif
#   From: 2010.06.25/outbox.cif.g09.slc.cpg/sg13_6_cif.got.tgz:11477.got - 2010.06.28 04:50:58.
