data_PCOD8123685
_publ_section_title
;
Structure prediction by ZEFSAII (Michael W. Deem and Ramdas Pophale) SiO2 
 PCOD8123685
Probable space group: P 21/C
;
_chemical_formula_sum "Si O2"
_cell_formula_units_Z 32
_cell_length_a 11.337207
_cell_length_b 9.075143
_cell_length_c 21.181232
_cell_angle_alpha 90.000000
_cell_angle_beta 130.916712
_cell_angle_gamma 90.000000
_cell_volume 1646.791511
_symmetry_space_group_name_H-M "P 21/C"
_symmetry_group_IT_number 14
_symmetry_cell_setting 'monoclinic'
loop_
_space_group_symop_operation_xyz
x,y,z
-x,1/2+y,1/2-z
-x,-y,-z
x,1/2-y,1/2+z
loop_
_atom_site_type_symbol
_atom_site_label
_atom_site_fract_x
_atom_site_fract_y
_atom_site_fract_z
Si Si1 0.929520 0.278078 0.942233
Si Si2 0.784517 0.849729 0.631935
Si Si3 0.329100 0.850391 0.061136
Si Si4 0.085677 0.095891 0.614117
Si Si5 0.773896 0.153762 0.582028
Si Si6 0.861326 0.595991 0.571946
Si Si7 0.117135 0.590558 0.301386
Si Si8 0.682652 0.643579 0.701471
O O1 0.772490 0.217930 0.918495
O O2 0.886919 0.422976 0.887732
O O3 0.995319 0.151782 0.919885
O O4 0.062489 0.317366 0.040411
O O5 0.765921 0.731361 0.569191
O O6 0.708996 0.791347 0.669938
O O7 0.967546 0.883255 0.705769
O O8 0.699203 0.000122 0.579888
O O9 0.500023 0.882602 0.147852
O O10 0.341967 0.735647 0.007043
O O11 0.257407 0.003977 0.012601
O O12 0.237104 0.162703 0.702084
O O13 0.936495 0.120777 0.605150
O O14 0.805157 0.253348 0.654495
O O15 0.933023 0.492541 0.651775
O O16 0.243316 0.496390 0.307670
#
# Coordination Sequence:
#
# PCOD8123685 Si02
#       8
#     4   4   4   4   4   4   4   4
#     4  10  20  39  63  85 108 160 208 232 279 348
#     4  11  19  34  64  89 111 149 198 241 289 354
#     4  10  24  38  54  88 125 157 187 241 296 352
#     4  10  19  36  65  82 113 151 197 252 278 333
#     4  10  18  35  58  90 112 149 197 234 291 351
#     4  10  20  36  61  85 115 152 198 237 287 352
#     4  10  19  33  61  88 116 147 193 247 293 345
#     4  11  22  39  57  88 125 150 187 246 308 339
#
# _framework density 19.431726000000001
#
# number of rings (size 3 to 8) (size 9 to 14) (size 15 to 20)
#    0.000    1.750    3.750    1.125    0.000    5.000 
#    2.250    0.000    0.000    0.000    0.000    0.000 
#    0.000    0.000    0.000    0.000    0.000    0.000 
#
# Total GULP energy -396879.176095 kJ/mol
# GULP energy per Si atom -12402.474253 kJ/mol
# Density = 1.938750 g / cm^3
# Si number density = 19.431726 Si / 1000 Ang^3
#
#
#
# Elastic Constant Matrix: (Units=GPa)
#
#
# Indices 1 2 3 4 5 6 
#
# 1 59.5145 26.8645 36.6733 0.0000 6.1306 0.0000
# 2 26.8645 104.4731 15.6671 0.0000 0.8769 0.0000
# 3 36.6733 15.6671 82.4224 0.0000 9.0729 0.0000
# 4 0.0000 0.0000 0.0000 20.6940 0.0000 -4.8882
# 5 6.1306 0.8769 9.0729 0.0000 23.9621 0.0000
# 6 0.0000 0.0000 0.0000 -4.8882 0.0000 18.4284
#
#
#
# Elastic Compliance Matrix: (Units=1/GPa)
#
#
# Indices 1 2 3 4 5 6 
#
# 1 0.025592 -0.005037 -0.010152 0.000000 -0.002519 0.000000
# 2 -0.005037 0.010847 0.000085 0.000000 0.000860 0.000000
# 3 -0.010152 0.000085 0.017059 0.000000 -0.003865 0.000000
# 4 0.000000 0.000000 0.000000 0.051553 0.000000 0.013675
# 5 -0.002519 0.000860 -0.003865 0.000000 0.043809 0.000000
# 6 0.000000 0.000000 0.000000 0.013675 0.000000 0.057891
#
#
# Mechanical properties :
#
#
# Convention : Reuss Voigt Hill
#
# Bulk Modulus (GPa) = 42.93875 44.97999 43.95937
# Shear Modulus (GPa) = 20.43122 23.76390 22.09756
#
# Velocity S-wave (km/s) = 3.24610 3.50085 3.37588
# Velocity P-wave (km/s) = 6.01621 6.28803 6.15362
#
# Compressibility (1/GPa) = 0.02328899
#
# Stress axis : x y z
#
# Youngs Moduli (GPa) = 39.07524 92.18983 58.61995
#
# Poissons Ratio (x) = 0.46437 0.59511
# Poissons Ratio (y) = 0.19683 -0.00497
# Poissons Ratio (z) = 0.39669 -0.00781
#
# Static dielectric constant tensor:
#      x y z
#    x 3.328670 0.000000 -0.301830 
#    y 0.000000 3.851920 0.000000 
#    z -0.301830 0.000000 3.549540 
# 
# 
# High freq. dielectric constant tensor:
#      x y z
#    x 1.734680 0.000000 -0.021060 
#    y 0.000000 1.771190 0.000000 
#    z -0.021060 0.000000 1.744730 
# 
# From -- ./inp_files/73117.got.cif
#   From: 2010.03.12/outbox.cif.g09.slc.cpg/sg14_37_cif.got.tgz:73117.got - 2010.03.31 13:35:05.
