data_PCOD8123336
_publ_section_title
;
Structure prediction by ZEFSAII (Michael W. Deem and Ramdas Pophale) SiO2 
 PCOD8123336
Probable space group: P 21/C
;
_chemical_formula_sum "Si O2"
_cell_formula_units_Z 32
_cell_length_a 12.280107
_cell_length_b 16.581474
_cell_length_c 12.724998
_cell_angle_alpha 90.000000
_cell_angle_beta 43.086371
_cell_angle_gamma 90.000000
_cell_volume 1769.975838
_symmetry_space_group_name_H-M "P 21/C"
_symmetry_group_IT_number 14
_symmetry_cell_setting 'monoclinic'
loop_
_space_group_symop_operation_xyz
x,y,z
-x,1/2+y,1/2-z
-x,-y,-z
x,1/2-y,1/2+z
loop_
_atom_site_type_symbol
_atom_site_label
_atom_site_fract_x
_atom_site_fract_y
_atom_site_fract_z
Si Si1 0.933881 0.170014 0.101136
Si Si2 0.683951 0.955498 0.472770
Si Si3 0.103966 0.658663 0.789795
Si Si4 0.688618 0.003544 0.864764
Si Si5 0.673536 0.044289 0.268261
Si Si6 0.045873 0.372583 0.313362
Si Si7 0.141801 0.447544 0.943200
Si Si8 0.860194 0.533992 0.460732
O O1 0.858520 0.251353 0.200061
O O2 0.778297 0.122398 0.173048
O O3 0.045976 0.119591 0.102767
O O4 0.038614 0.183605 0.921426
O O5 0.507077 0.932486 0.635198
O O6 0.774289 0.877348 0.359583
O O7 0.779129 0.987406 0.508416
O O8 0.677894 0.024495 0.388886
O O9 0.246167 0.593770 0.710485
O O10 0.076715 0.663111 0.684523
O O11 0.938281 0.636565 0.965887
O O12 0.733282 0.940541 0.740196
O O13 0.763787 0.972438 0.920263
O O14 0.500000 0.000000 0.000000
O O15 0.737980 0.972827 0.145913
O O16 0.995565 0.465252 0.375709
O O17 0.000000 0.500000 0.000000
#
# Coordination Sequence:
#
# PCOD8123336 Si02
#       8
#     4   4   4   4   4   4   4   4
#     4  11  19  34  52  80 108 139 181 229 279 323
#     4  10  17  32  54  80 105 134 183 224 267 313
#     4   9  21  35  53  79 109 139 183 231 276 313
#     4  10  20  37  59  78 107 149 189 222 266 339
#     4  10  19  30  55  82 106 136 179 230 269 322
#     4   9  17  35  54  74 103 143 178 225 264 333
#     4   9  19  35  55  75 104 144 179 216 259 328
#     4  10  18  33  57  78 103 143 191 218 267 335
#
# _framework density 18.079342
#
# number of rings (size 3 to 8) (size 9 to 14) (size 15 to 20)
#    0.000    2.250    2.500    2.250    0.000    1.000 
#    2.250    3.750    0.000    0.000    0.000    0.000 
#    0.000    0.000    0.000    0.000    0.000    0.000 
#
# Total GULP energy -396504.859638 kJ/mol
# GULP energy per Si atom -12390.776864 kJ/mol
# Density = 1.803819 g / cm^3
# Si number density = 18.079342 Si / 1000 Ang^3
#
#
#
# Elastic Constant Matrix: (Units=GPa)
#
#
# Indices 1 2 3 4 5 6 
#
# 1 106.5469 30.9784 50.5855 0.0000 0.4796 0.0000
# 2 30.9784 74.7398 28.4954 0.0000 2.1095 0.0000
# 3 50.5855 28.4954 109.0386 0.0000 -4.0064 0.0000
# 4 0.0000 0.0000 0.0000 22.1933 0.0000 2.8786
# 5 0.4796 2.1095 -4.0064 0.0000 39.7875 0.0000
# 6 0.0000 0.0000 0.0000 2.8786 0.0000 13.9246
#
#
#
# Elastic Compliance Matrix: (Units=1/GPa)
#
#
# Indices 1 2 3 4 5 6 
#
# 1 0.012766 -0.003346 -0.005066 0.000000 -0.000487 0.000000
# 2 -0.003346 0.015793 -0.002614 0.000000 -0.001060 0.000000
# 3 -0.005066 -0.002614 0.012257 0.000000 0.001434 0.000000
# 4 0.000000 0.000000 0.000000 0.046300 0.000000 -0.009572
# 5 -0.000487 -0.001060 0.001434 0.000000 0.025340 0.000000
# 6 0.000000 0.000000 0.000000 -0.009572 0.000000 0.073794
#
#
# Mechanical properties :
#
#
# Convention : Reuss Voigt Hill
#
# Bulk Modulus (GPa) = 53.29250 56.71601 55.00426
# Shear Modulus (GPa) = 23.30391 27.19881 25.25136
#
# Velocity S-wave (km/s) = 3.59413 3.88289 3.74130
# Velocity P-wave (km/s) = 6.83847 7.17921 7.01091
#
# Compressibility (1/GPa) = 0.01876437
#
# Stress axis : x y z
#
# Youngs Moduli (GPa) = 78.33518 63.31859 81.58630
#
# Poissons Ratio (x) = 0.21187 0.41329
# Poissons Ratio (y) = 0.26211 0.21326
# Poissons Ratio (z) = 0.39682 0.16551
#
# Static dielectric constant tensor:
#      x y z
#    x 3.486620 0.000000 0.199790 
#    y 0.000000 3.357540 0.000000 
#    z 0.199790 0.000000 4.115660 
# 
# 
# High freq. dielectric constant tensor:
#      x y z
#    x 1.705840 0.000000 0.009200 
#    y 0.000000 1.644370 0.000000 
#    z 0.009200 0.000000 1.718310 
# 
# From -- ./inp_files/30294.got.cif
#   From: 2010.03.12/outbox.cif.g09.slc.cpg/sg14_16_cif.got.tgz:30294.got - 2010.03.31 13:35:05.
