data_PCOD8123196
_publ_section_title
;
Structure prediction by ZEFSAII (Michael W. Deem and Ramdas Pophale) SiO2 
 PCOD8123196
Probable space group: P 2/C
;
_chemical_formula_sum "Si O2"
_cell_formula_units_Z 14
_cell_length_a 11.071593
_cell_length_b 4.991582
_cell_length_c 15.758202
_cell_angle_alpha 90.000000
_cell_angle_beta 141.127098
_cell_angle_gamma 90.000000
_cell_volume 546.555670
_symmetry_space_group_name_H-M "P 2/C"
_symmetry_group_IT_number 13
_symmetry_cell_setting 'monoclinic'
loop_
_space_group_symop_operation_xyz
x,y,z
-x,y,1/2-z
-x,-y,-z
x,-y,1/2+z
loop_
_atom_site_type_symbol
_atom_site_label
_atom_site_fract_x
_atom_site_fract_y
_atom_site_fract_z
Si Si1 0.000000 0.200746 0.250000
Si Si2 0.487397 0.402395 0.838484
Si Si3 0.281971 0.105048 0.991095
Si Si4 0.951741 0.411874 0.879671
O O1 0.986538 0.373004 0.157257
O O2 0.194678 0.013736 0.354813
O O3 0.500000 0.520402 0.750000
O O4 0.595830 0.622593 0.957105
O O5 0.272983 0.352814 0.753796
O O6 0.588932 0.115600 0.892501
O O7 0.086817 0.153020 0.939354
O O8 0.000000 0.500000 0.000000
#
# Coordination Sequence:
#
# PCOD8123196 Si02
#       4
#     2   4   4   4
#     4  12  28  52  80 120 172 210 272 336 406 476
#     4  12  27  47  84 117 159 213 274 325 408 479
#     4  12  27  51  76 121 159 208 269 333 399 478
#     4  12  28  55  84 118 167 216 267 341 401 484
#
# _framework density 25.614957
#
# number of rings (size 3 to 8) (size 9 to 14) (size 15 to 20)
#    0.000    0.000    5.714    1.714    4.000    4.571 
#    0.000    0.000    0.000    0.000    0.000    0.000 
#    0.000    0.000    0.000    0.000    0.000    0.000 
#
# Total GULP energy -173557.211710 kJ/mol
# GULP energy per Si atom -12396.943694 kJ/mol
# Density = 2.555666 g / cm^3
# Si number density = 25.614957 Si / 1000 Ang^3
#
#
#
# Elastic Constant Matrix: (Units=GPa)
#
#
# Indices 1 2 3 4 5 6 
#
# 1 122.6856 62.2656 72.0731 0.0000 33.2752 0.0000
# 2 62.2656 166.9317 74.8338 0.0000 23.5836 0.0000
# 3 72.0731 74.8338 151.8479 0.0000 31.8535 0.0000
# 4 0.0000 0.0000 0.0000 52.4714 0.0000 18.5749
# 5 33.2752 23.5836 31.8535 0.0000 67.6364 0.0000
# 6 0.0000 0.0000 0.0000 18.5749 0.0000 26.7571
#
#
#
# Elastic Compliance Matrix: (Units=1/GPa)
#
#
# Indices 1 2 3 4 5 6 
#
# 1 0.012746 -0.002410 -0.004131 0.000000 -0.003485 0.000000
# 2 -0.002410 0.008206 -0.002828 0.000000 -0.000344 0.000000
# 3 -0.004131 -0.002828 0.010327 0.000000 -0.001845 0.000000
# 4 0.000000 0.000000 0.000000 0.025267 0.000000 -0.017541
# 5 -0.003485 -0.000344 -0.001845 0.000000 0.017488 0.000000
# 6 0.000000 0.000000 0.000000 -0.017541 0.000000 0.049550
#
#
# Mechanical properties :
#
#
# Convention : Reuss Voigt Hill
#
# Bulk Modulus (GPa) = 79.74023 95.53446 87.63735
# Shear Modulus (GPa) = 34.12904 44.85916 39.49410
#
# Velocity S-wave (km/s) = 3.65415 4.18938 3.93088
# Velocity P-wave (km/s) = 7.00012 7.79606 7.40878
#
# Compressibility (1/GPa) = 0.01254072
#
# Stress axis : x y z
#
# Youngs Moduli (GPa) = 78.45551 121.86617 96.83330
#
# Poissons Ratio (x) = 0.29370 0.40002
# Poissons Ratio (y) = 0.18908 0.27384
# Poissons Ratio (z) = 0.32410 0.34463
#
# Static dielectric constant tensor:
#      x y z
#    x 4.296040 0.000000 -0.248500 
#    y 0.000000 4.783900 0.000000 
#    z -0.248500 0.000000 4.190200 
# 
# 
# High freq. dielectric constant tensor:
#      x y z
#    x 2.001510 0.000000 0.022170 
#    y 0.000000 2.034740 0.000000 
#    z 0.022170 0.000000 2.053870 
# 
# From -- ./inp_files/48782.got.cif
#   From: 2010.06.25/outbox.cif.g09.slc.cpg/sg13_25_cif.got.tgz:48782.got - 2010.06.28 04:50:58.
