data_PCOD8123743
_publ_section_title
;
Structure prediction by ZEFSAII (Michael W. Deem and Ramdas Pophale) SiO2 
 PCOD8123743
Probable space group: P 21/C
;
_chemical_formula_sum "Si O2"
_cell_formula_units_Z 32
_cell_length_a 20.881585
_cell_length_b 9.358265
_cell_length_c 18.973828
_cell_angle_alpha 90.000000
_cell_angle_beta 154.369997
_cell_angle_gamma 90.000000
_cell_volume 1603.828927
_symmetry_space_group_name_H-M "P 21/C"
_symmetry_group_IT_number 14
_symmetry_cell_setting 'monoclinic'
loop_
_space_group_symop_operation_xyz
x,y,z
-x,1/2+y,1/2-z
-x,-y,-z
x,1/2-y,1/2+z
loop_
_atom_site_type_symbol
_atom_site_label
_atom_site_fract_x
_atom_site_fract_y
_atom_site_fract_z
Si Si1 0.381821 0.334587 0.364907
Si Si2 0.667561 0.902135 0.779906
Si Si3 0.319988 0.601022 0.217693
Si Si4 0.337010 0.953426 0.475191
Si Si5 0.841746 0.837795 0.086738
Si Si6 0.684401 0.166221 0.691539
Si Si7 0.626924 0.787957 0.994314
Si Si8 0.860691 0.500371 0.091436
O O1 0.284235 0.240825 0.214227
O O2 0.407017 0.487102 0.353294
O O3 0.524779 0.236711 0.521435
O O4 0.308479 0.356916 0.369053
O O5 0.501506 0.887899 0.647639
O O6 0.674460 0.032162 0.733007
O O7 0.786198 0.912899 0.960107
O O8 0.226800 0.709948 0.176943
O O9 0.451518 0.684647 0.307812
O O10 0.210152 0.527875 0.054775
O O11 0.254982 0.881352 0.325170
O O12 0.346245 0.120762 0.473196
O O13 0.239185 0.925206 0.447376
O O14 0.878902 0.670020 0.117569
O O15 0.712803 0.860495 0.015572
O O16 0.982079 0.925111 0.251860
#
# Coordination Sequence:
#
# PCOD8123743 Si02
#       8
#     4   4   4   4   4   4   4   4
#     4  10  18  36  60  95 126 145 187 255 304 353
#     4  11  18  38  65  91 116 153 198 245 301 356
#     4  11  21  38  63  95 124 150 198 251 305 354
#     4  10  19  38  65  92 118 151 202 244 297 360
#     4  11  26  43  59  81 124 167 204 248 294 351
#     4  10  19  34  65  97 119 148 193 251 305 360
#     4  10  19  38  63  92 119 154 195 249 301 354
#     4  11  26  45  57  83 124 166 205 246 293 356
#
# _framework density 19.952252999999999
#
# number of rings (size 3 to 8) (size 9 to 14) (size 15 to 20)
#    0.000    1.500    5.000    3.000    1.750    0.000 
#    6.750    2.500    0.000    0.000    0.000    0.000 
#    0.000    0.000    0.000    0.000    0.000    0.000 
#
# Total GULP energy -396526.563326 kJ/mol
# GULP energy per Si atom -12391.455104 kJ/mol
# Density = 1.990684 g / cm^3
# Si number density = 19.952253 Si / 1000 Ang^3
#
#
#
# Elastic Constant Matrix: (Units=GPa)
#
#
# Indices 1 2 3 4 5 6 
#
# 1 48.8024 24.5791 33.2082 0.0000 -22.7426 0.0000
# 2 24.5791 81.7550 15.5399 0.0000 -5.1083 0.0000
# 3 33.2082 15.5399 75.4324 0.0000 -9.0085 0.0000
# 4 0.0000 0.0000 0.0000 30.4448 0.0000 -5.0682
# 5 -22.7426 -5.1083 -9.0085 0.0000 20.6983 0.0000
# 6 0.0000 0.0000 0.0000 -5.0682 0.0000 25.6815
#
#
#
# Elastic Compliance Matrix: (Units=1/GPa)
#
#
# Indices 1 2 3 4 5 6 
#
# 1 0.074220 -0.013914 -0.021602 0.000000 0.068715 0.000000
# 2 -0.013914 0.015427 0.001663 0.000000 -0.010757 0.000000
# 3 -0.021602 0.001663 0.020715 0.000000 -0.014309 0.000000
# 4 0.000000 0.000000 0.000000 0.033962 0.000000 0.006702
# 5 0.068715 -0.010757 -0.014309 0.000000 0.114932 0.000000
# 6 0.000000 0.000000 0.000000 0.006702 0.000000 0.040261
#
#
# Mechanical properties :
#
#
# Convention : Reuss Voigt Hill
#
# Bulk Modulus (GPa) = 23.44352 39.18268 31.31310
# Shear Modulus (GPa) = 13.10816 24.20907 18.65862
#
# Velocity S-wave (km/s) = 2.56594 3.48710 3.06136
# Velocity P-wave (km/s) = 4.53365 5.99116 5.31263
#
# Compressibility (1/GPa) = 0.04265571
#
# Stress axis : x y z
#
# Youngs Moduli (GPa) = 13.47353 64.82287 48.27336
#
# Poissons Ratio (x) = 0.90195 1.04278
# Poissons Ratio (y) = 0.18747 -0.08027
# Poissons Ratio (z) = 0.29105 -0.10778
#
# Static dielectric constant tensor:
#      x y z
#    x 3.996490 0.000000 -0.431110 
#    y 0.000000 3.815670 0.000000 
#    z -0.431110 0.000000 3.489410 
# 
# 
# High freq. dielectric constant tensor:
#      x y z
#    x 1.771880 0.000000 -0.038920 
#    y 0.000000 1.792270 0.000000 
#    z -0.038920 0.000000 1.754400 
# 
# From -- ./inp_files/61150.got.cif
#   From: 2010.03.12/outbox.cif.g09.slc.cpg/sg14_31_cif.got.tgz:61150.got - 2010.03.31 13:35:05.
