data_PCOD8123536
_publ_section_title
;
Structure prediction by ZEFSAII (Michael W. Deem and Ramdas Pophale) SiO2 
 PCOD8123536
Probable space group: P 21/C
;
_chemical_formula_sum "Si O2"
_cell_formula_units_Z 32
_cell_length_a 9.503869
_cell_length_b 8.244433
_cell_length_c 26.720185
_cell_angle_alpha 90.000000
_cell_angle_beta 47.640635
_cell_angle_gamma 90.000000
_cell_volume 1547.055808
_symmetry_space_group_name_H-M "P 21/C"
_symmetry_group_IT_number 14
_symmetry_cell_setting 'monoclinic'
loop_
_space_group_symop_operation_xyz
x,y,z
-x,1/2+y,1/2-z
-x,-y,-z
x,1/2-y,1/2+z
loop_
_atom_site_type_symbol
_atom_site_label
_atom_site_fract_x
_atom_site_fract_y
_atom_site_fract_z
Si Si1 0.677597 0.686177 0.747759
Si Si2 0.017532 0.603825 0.845864
Si Si3 0.669553 0.137661 0.210974
Si Si4 0.067359 0.294128 0.894184
Si Si5 0.341704 0.081950 0.881713
Si Si6 0.713393 0.646621 0.409904
Si Si7 0.282355 0.916472 0.998999
Si Si8 0.745014 0.970629 0.797779
O O1 0.517454 0.751830 0.747107
O O2 0.641386 0.493846 0.763091
O O3 0.879789 0.711807 0.671661
O O4 0.670103 0.789036 0.800519
O O5 0.146072 0.759397 0.822820
O O6 0.044173 0.485897 0.887465
O O7 0.075934 0.520106 0.779156
O O8 0.802988 0.672559 0.892524
O O9 0.709394 0.041699 0.150268
O O10 0.233107 0.252506 0.895619
O O11 0.867330 0.228920 0.962112
O O12 0.572255 0.100093 0.831013
O O13 0.258472 0.008934 0.952577
O O14 0.759032 0.547846 0.448600
O O15 0.488363 0.666074 0.455448
O O16 0.803457 0.544387 0.341669
#
# Coordination Sequence:
#
# PCOD8123536 Si02
#       8
#     4   4   4   4   4   4   4   4
#     4   9  17  31  53  81 111 137 172 226 288 343
#     4  11  22  34  55  86 114 144 184 236 291 337
#     4  10  18  32  55  83 113 138 174 232 295 347
#     4  10  19  33  56  82 110 140 179 229 282 335
#     4   9  18  36  60  82 109 145 185 232 289 346
#     4  10  22  39  56  77 110 151 194 228 266 332
#     4  10  21  39  58  76 107 156 197 226 268 333
#     4   9  20  36  56  83 111 145 185 234 288 337
#
# _framework density 20.684450999999999
#
# number of rings (size 3 to 8) (size 9 to 14) (size 15 to 20)
#    0.000    2.250    0.000    4.875    0.000    3.500 
#    0.000    2.500    0.000   10.500    0.000    0.000 
#    0.000    0.000    0.000    0.000    0.000    0.000 
#
# Total GULP energy -396606.922244 kJ/mol
# GULP energy per Si atom -12393.966320 kJ/mol
# Density = 2.063737 g / cm^3
# Si number density = 20.684451 Si / 1000 Ang^3
#
#
#
# Elastic Constant Matrix: (Units=GPa)
#
#
# Indices 1 2 3 4 5 6 
#
# 1 72.1300 49.1288 40.0875 0.0000 -0.8031 0.0000
# 2 49.1288 120.0847 39.6901 0.0000 -11.9260 0.0000
# 3 40.0875 39.6901 94.1474 0.0000 0.7426 0.0000
# 4 0.0000 0.0000 0.0000 30.4454 0.0000 -8.8836
# 5 -0.8031 -11.9260 0.7426 0.0000 30.1826 0.0000
# 6 0.0000 0.0000 0.0000 -8.8836 0.0000 34.7345
#
#
#
# Elastic Compliance Matrix: (Units=1/GPa)
#
#
# Indices 1 2 3 4 5 6 
#
# 1 0.022343 -0.007216 -0.006455 0.000000 -0.002098 0.000000
# 2 -0.007216 0.012494 -0.002233 0.000000 0.004800 0.000000
# 3 -0.006455 -0.002233 0.014322 0.000000 -0.001406 0.000000
# 4 0.000000 0.000000 0.000000 0.035495 0.000000 0.009078
# 5 -0.002098 0.004800 -0.001406 0.000000 0.035007 0.000000
# 6 0.000000 0.000000 0.000000 0.009078 0.000000 0.031112
#
#
# Mechanical properties :
#
#
# Convention : Reuss Voigt Hill
#
# Bulk Modulus (GPa) = 57.62781 60.46388 59.04584
# Shear Modulus (GPa) = 26.54450 29.56954 28.05702
#
# Velocity S-wave (km/s) = 3.58621 3.78505 3.68697
# Velocity P-wave (km/s) = 6.71333 6.95680 6.83615
#
# Compressibility (1/GPa) = 0.01735273
#
# Stress axis : x y z
#
# Youngs Moduli (GPa) = 44.75756 80.03760 69.82050
#
# Poissons Ratio (x) = 0.57752 0.45068
# Poissons Ratio (y) = 0.32295 0.15589
# Poissons Ratio (z) = 0.28891 0.17870
#
# Static dielectric constant tensor:
#      x y z
#    x 3.705690 0.000000 -0.066430 
#    y 0.000000 3.771010 0.000000 
#    z -0.066430 0.000000 3.812760 
# 
# 
# High freq. dielectric constant tensor:
#      x y z
#    x 1.800660 0.000000 -0.005590 
#    y 0.000000 1.792140 0.000000 
#    z -0.005590 0.000000 1.807570 
# 
# From -- ./inp_files/76369.got.cif
#   From: 2010.03.12/outbox.cif.g09.slc.cpg/sg14_39_cif.got.tgz:76369.got - 2010.03.31 13:35:05.
