data_PCOD8123810
_publ_section_title
;
Structure prediction by ZEFSAII (Michael W. Deem and Ramdas Pophale) SiO2 
 PCOD8123810
Probable space group: P 21/C
;
_chemical_formula_sum "Si O2"
_cell_formula_units_Z 32
_cell_length_a 20.681106
_cell_length_b 15.457953
_cell_length_c 5.244541
_cell_angle_alpha 90.000000
_cell_angle_beta 63.603817
_cell_angle_gamma 90.000000
_cell_volume 1501.813020
_symmetry_space_group_name_H-M "P 21/C"
_symmetry_group_IT_number 14
_symmetry_cell_setting 'monoclinic'
loop_
_space_group_symop_operation_xyz
x,y,z
-x,1/2+y,1/2-z
-x,-y,-z
x,1/2-y,1/2+z
loop_
_atom_site_type_symbol
_atom_site_label
_atom_site_fract_x
_atom_site_fract_y
_atom_site_fract_z
Si Si1 0.649566 0.193791 0.646643
Si Si2 0.485910 0.153054 0.923820
Si Si3 0.767157 0.441554 0.837888
Si Si4 0.261256 0.386303 0.339948
Si Si5 0.877110 0.305777 0.479599
Si Si6 0.041015 0.304123 0.172640
Si Si7 0.818919 0.599258 0.007927
Si Si8 0.576095 0.845683 0.467563
O O1 0.660935 0.238864 0.354417
O O2 0.707989 0.118612 0.573988
O O3 0.571500 0.150315 0.802450
O O4 0.457310 0.250618 0.941810
O O5 0.448339 0.105042 0.230250
O O6 0.459583 0.105062 0.711683
O O7 0.728993 0.509556 0.710959
O O8 0.825973 0.388747 0.573851
O O9 0.807598 0.495946 0.991268
O O10 0.221616 0.364757 0.672667
O O11 0.338228 0.339802 0.207983
O O12 0.214074 0.350630 0.182599
O O13 0.859721 0.247261 0.755496
O O14 0.959491 0.339348 0.338658
O O15 0.054606 0.266863 0.867213
O O16 0.095822 0.383341 0.118077
#
# Coordination Sequence:
#
# PCOD8123810 Si02
#       8
#     4   4   4   4   4   4   4   4
#     4  12  22  39  64  90 118 156 205 259 303 358
#     4  10  19  36  60  84 112 149 206 248 295 354
#     4  10  26  39  63  90 129 160 204 243 310 363
#     4  10  23  40  56  85 125 160 199 242 303 362
#     4  10  22  40  66  95 121 160 205 252 297 353
#     4  10  21  42  65  91 125 158 204 253 297 350
#     4  10  23  42  58  91 127 162 204 241 305 367
#     4  10  18  38  56  82 116 148 198 250 291 359
#
# _framework density 21.307580000000002
#
# number of rings (size 3 to 8) (size 9 to 14) (size 15 to 20)
#    0.750    1.000    2.500    2.250    3.500    0.500 
#   13.500    1.875    0.000    0.000    0.000    0.000 
#    0.000    0.000    0.000    0.000    0.000    0.000 
#
# Total GULP energy -396683.803712 kJ/mol
# GULP energy per Si atom -12396.368866 kJ/mol
# Density = 2.125908 g / cm^3
# Si number density = 21.307580 Si / 1000 Ang^3
#
#
#
# Elastic Constant Matrix: (Units=GPa)
#
#
# Indices 1 2 3 4 5 6 
#
# 1 65.8781 18.3613 32.2284 0.0000 -2.5588 0.0000
# 2 18.3613 19.3416 10.0525 0.0000 -14.2081 0.0000
# 3 32.2284 10.0525 124.2321 0.0000 10.5904 0.0000
# 4 0.0000 0.0000 0.0000 10.3355 0.0000 -5.0168
# 5 -2.5588 -14.2081 10.5904 0.0000 57.9939 0.0000
# 6 0.0000 0.0000 0.0000 -5.0168 0.0000 18.6176
#
#
#
# Elastic Compliance Matrix: (Units=1/GPa)
#
#
# Indices 1 2 3 4 5 6 
#
# 1 0.023328 -0.023008 -0.003857 0.000000 -0.003903 0.000000
# 2 -0.023008 0.091407 -0.003302 0.000000 0.021982 0.000000
# 3 -0.003857 -0.003302 0.009549 0.000000 -0.002723 0.000000
# 4 0.000000 0.000000 0.000000 0.111314 0.000000 0.029996
# 5 -0.003903 0.021982 -0.002723 0.000000 0.022954 0.000000
# 6 0.000000 0.000000 0.000000 0.029996 0.000000 0.061795
#
#
# Mechanical properties :
#
#
# Convention : Reuss Voigt Hill
#
# Bulk Modulus (GPa) = 15.63694 36.74847 26.19270
# Shear Modulus (GPa) = 12.43790 27.31003 19.87396
#
# Velocity S-wave (km/s) = 2.41867 3.58397 3.05736
# Velocity P-wave (km/s) = 3.89289 5.86606 4.97821
#
# Compressibility (1/GPa) = 0.06395114
#
# Stress axis : x y z
#
# Youngs Moduli (GPa) = 42.86777 10.94006 104.71895
#
# Poissons Ratio (x) = 0.25170 0.40392
# Poissons Ratio (y) = 0.98629 0.34574
# Poissons Ratio (z) = 0.16535 0.03612
#
# Static dielectric constant tensor:
#      x y z
#    x 4.347870 0.000000 0.562330 
#    y 0.000000 3.347350 0.000000 
#    z 0.562330 0.000000 4.663470 
# 
# 
# High freq. dielectric constant tensor:
#      x y z
#    x 1.846950 0.000000 0.005160 
#    y 0.000000 1.790400 0.000000 
#    z 0.005160 0.000000 1.858460 
# 
# From -- ./inp_files/4427.got.cif
#   From: 2010.03.12/outbox.cif.g09.slc.cpg/sg14_3_cif.got.tgz:4427.got - 2010.03.31 13:35:05.
