data_PCOD8123016
_publ_section_title
;
Structure prediction by ZEFSAII (Michael W. Deem and Ramdas Pophale) SiO2 
 PCOD8123016
Probable space group: P 2/C
;
_chemical_formula_sum "Si O2"
_cell_formula_units_Z 18
_cell_length_a 8.099870
_cell_length_b 4.996156
_cell_length_c 18.465033
_cell_angle_alpha 90.000000
_cell_angle_beta 114.864469
_cell_angle_gamma 90.000000
_cell_volume 677.980810
_symmetry_space_group_name_H-M "P 2/C"
_symmetry_group_IT_number 13
_symmetry_cell_setting 'monoclinic'
loop_
_space_group_symop_operation_xyz
x,y,z
-x,y,1/2-z
-x,-y,-z
x,-y,1/2+z
loop_
_atom_site_type_symbol
_atom_site_label
_atom_site_fract_x
_atom_site_fract_y
_atom_site_fract_z
Si Si1 0.719543 0.287290 0.531335
Si Si2 0.830133 0.922513 0.763974
Si Si3 0.500000 0.288817 0.750000
Si Si4 0.050242 0.815017 0.939080
Si Si5 0.553403 0.406986 0.127835
O O1 0.862925 0.520011 0.530036
O O2 0.587175 0.210969 0.439339
O O3 0.604965 0.368019 0.579587
O O4 0.803953 0.007720 0.573171
O O5 0.740858 0.707538 0.693763
O O6 0.000000 0.049191 0.750000
O O7 0.888955 0.783314 0.850695
O O8 0.675051 0.131768 0.754819
O O9 0.565143 0.470095 0.828775
O O10 0.000000 0.000000 0.000000
#
# Coordination Sequence:
#
# PCOD8123016 Si02
#       5
#     4   4   2   4   4
#     4  11  27  50  77 115 157 220 258 340 411 480
#     4  12  27  50  79 116 159 215 266 338 401 487
#     4  12  28  46  80 118 158 210 278 334 402 484
#     4  12  27  48  79 115 164 209 274 328 408 481
#     4  11  27  47  80 111 163 206 274 330 411 484
#
# _framework density 26.549420000000001
#
# number of rings (size 3 to 8) (size 9 to 14) (size 15 to 20)
#    0.000    0.444    2.222    4.000   12.444    2.667 
#    0.000    0.000    0.000    0.000    0.000    0.000 
#    0.000    0.000    0.000    0.000    0.000    0.000 
#
# Total GULP energy -223039.540599 kJ/mol
# GULP energy per Si atom -12391.085589 kJ/mol
# Density = 2.648899 g / cm^3
# Si number density = 26.549420 Si / 1000 Ang^3
#
#
#
# Elastic Constant Matrix: (Units=GPa)
#
#
# Indices 1 2 3 4 5 6 
#
# 1 126.6394 6.4301 36.9372 0.0000 -5.8631 0.0000
# 2 6.4301 31.0051 10.9010 0.0000 36.6151 0.0000
# 3 36.9372 10.9010 214.4611 0.0000 22.4973 0.0000
# 4 0.0000 0.0000 0.0000 22.8840 0.0000 0.7720
# 5 -5.8631 36.6151 22.4973 0.0000 45.0757 0.0000
# 6 0.0000 0.0000 0.0000 0.7720 0.0000 29.4610
#
#
#
# Elastic Compliance Matrix: (Units=1/GPa)
#
#
# Indices 1 2 3 4 5 6 
#
# 1 -0.023541 0.299012 0.015466 0.000000 -0.253669 0.000000
# 2 0.299012 -2.792999 -0.159985 0.000000 2.387502 0.000000
# 3 0.015466 -0.159985 -0.003918 0.000000 0.133923 0.000000
# 4 0.000000 0.000000 0.000000 0.043737 0.000000 -0.001146
# 5 -0.253669 2.387502 0.133923 0.000000 -2.017026 0.000000
# 6 0.000000 0.000000 0.000000 -0.001146 0.000000 0.033973
#
#
# Mechanical properties :
#
#
# Convention : Reuss Voigt Hill
#
# Bulk Modulus (GPa) = -0.39817 53.40468 26.50325
# Shear Modulus (GPa) = -0.84661 40.67331 19.91335
#
# Velocity S-wave (km/s) = -0.56531 3.91830 2.74167
# Velocity P-wave (km/s) = 0.75921 6.37414 4.47511
#
# Compressibility (1/GPa) = -2.51147111
#
# Stress axis : x y z
#
# Youngs Moduli (GPa) = -42.47892 -0.35804 -255.25247
#
# Poissons Ratio (x) = 0.10706 3.94778
# Poissons Ratio (y) = 12.70171 -40.83654
# Poissons Ratio (z) = 0.65699 -0.05728
#
# Static dielectric constant tensor:
#      x y z
#    x 5.171430 0.000000 0.196340 
#    y 0.000000 4.741120 0.000000 
#    z 0.196340 0.000000 5.242790 
# 
# 
# High freq. dielectric constant tensor:
#      x y z
#    x 2.082340 0.000000 -0.010180 
#    y 0.000000 2.043170 0.000000 
#    z -0.010180 0.000000 2.096530 
# 
# From -- ./inp_files/62535.got.cif
#   From: 2010.06.25/outbox.cif.g09.slc.cpg/sg13_32_cif.got.tgz:62535.got - 2010.06.28 04:50:58.
