data_PCOD8123826
_publ_section_title
;
Structure prediction by ZEFSAII (Michael W. Deem and Ramdas Pophale) SiO2 
 PCOD8123826
Probable space group: P 21/C
;
_chemical_formula_sum "Si O2"
_cell_formula_units_Z 28
_cell_length_a 17.887815
_cell_length_b 12.719290
_cell_length_c 9.723205
_cell_angle_alpha 90.000000
_cell_angle_beta 141.727354
_cell_angle_gamma 90.000000
_cell_volume 1370.262647
_symmetry_space_group_name_H-M "P 21/C"
_symmetry_group_IT_number 14
_symmetry_cell_setting 'monoclinic'
loop_
_space_group_symop_operation_xyz
x,y,z
-x,1/2+y,1/2-z
-x,-y,-z
x,1/2-y,1/2+z
loop_
_atom_site_type_symbol
_atom_site_label
_atom_site_fract_x
_atom_site_fract_y
_atom_site_fract_z
Si Si1 0.043457 0.846154 0.959851
Si Si2 0.183814 0.026041 0.301529
Si Si3 0.146541 0.689377 0.322884
Si Si4 0.424445 0.145073 0.977762
Si Si5 0.330532 0.941857 0.969722
Si Si6 0.582591 0.644525 0.861081
Si Si7 0.694445 0.133208 0.347434
O O1 0.053578 0.817247 0.814328
O O2 0.906724 0.879334 0.794206
O O3 0.074458 0.742171 0.092696
O O4 0.130466 0.945542 0.112551
O O5 0.308058 0.073603 0.423914
O O6 0.212005 0.959107 0.479193
O O7 0.209071 0.574811 0.385636
O O8 0.264687 0.757806 0.528768
O O9 0.404429 0.163097 0.785373
O O10 0.333233 0.057175 0.905329
O O11 0.403239 0.248454 0.034970
O O12 0.559660 0.102390 0.202435
O O13 0.308959 0.853595 0.820964
O O14 0.457892 0.912739 0.225113
#
# Coordination Sequence:
#
# PCOD8123826 Si02
#       7
#     4   4   4   4   4   4   4
#     4  10  24  40  65  88 119 168 208 250 302 355
#     4  10  21  42  63  84 123 163 206 250 306 358
#     4  11  21  39  65  93 119 156 209 251 297 373
#     4  11  22  36  60  97 121 165 196 250 318 370
#     4  11  20  38  63  94 119 163 196 253 309 371
#     4  11  22  38  62  89 128 158 201 254 313 362
#     4  10  18  38  63  86 121 156 201 247 307 366
#
# _framework density 20.434038000000001
#
# number of rings (size 3 to 8) (size 9 to 14) (size 15 to 20)
#    0.000    1.429    5.714    0.857    0.000    2.286 
#    0.000    5.000    0.000    0.000    0.000    0.000 
#    0.000    0.000    0.000    0.000    0.000    0.000 
#
# Total GULP energy -347044.776177 kJ/mol
# GULP energy per Si atom -12394.456292 kJ/mol
# Density = 2.038753 g / cm^3
# Si number density = 20.434038 Si / 1000 Ang^3
#
#
#
# Elastic Constant Matrix: (Units=GPa)
#
#
# Indices 1 2 3 4 5 6 
#
# 1 72.0879 19.7060 9.1273 0.0000 -1.0962 0.0000
# 2 19.7060 54.0060 9.4311 0.0000 0.7875 0.0000
# 3 9.1273 9.4311 60.0278 0.0000 13.2753 0.0000
# 4 0.0000 0.0000 0.0000 32.0590 0.0000 6.9956
# 5 -1.0962 0.7875 13.2753 0.0000 22.7887 0.0000
# 6 0.0000 0.0000 0.0000 6.9956 0.0000 37.6560
#
#
#
# Elastic Compliance Matrix: (Units=1/GPa)
#
#
# Indices 1 2 3 4 5 6 
#
# 1 0.015628 -0.005385 -0.001995 0.000000 0.002100 0.000000
# 2 -0.005385 0.020925 -0.002585 0.000000 0.000524 0.000000
# 3 -0.001995 -0.002585 0.019938 0.000000 -0.011622 0.000000
# 4 0.000000 0.000000 0.000000 0.032510 0.000000 -0.006040
# 5 0.002100 0.000524 -0.011622 0.000000 0.050734 0.000000
# 6 0.000000 0.000000 0.000000 -0.006040 0.000000 0.027678
#
#
# Mechanical properties :
#
#
# Convention : Reuss Voigt Hill
#
# Bulk Modulus (GPa) = 27.34955 29.18338 28.26646
# Shear Modulus (GPa) = 25.05878 28.35791 26.70834
#
# Velocity S-wave (km/s) = 3.50569 3.72933 3.61924
# Velocity P-wave (km/s) = 5.45893 5.73207 5.59716
#
# Compressibility (1/GPa) = 0.03656367
#
# Stress axis : x y z
#
# Youngs Moduli (GPa) = 63.98586 47.78961 50.15443
#
# Poissons Ratio (x) = 0.25734 0.10004
# Poissons Ratio (y) = 0.34456 0.12963
# Poissons Ratio (z) = 0.12763 0.12352
#
# Static dielectric constant tensor:
#      x y z
#    x 3.476990 0.000000 0.020960 
#    y 0.000000 3.681850 0.000000 
#    z 0.020960 0.000000 3.808580 
# 
# 
# High freq. dielectric constant tensor:
#      x y z
#    x 1.778160 0.000000 0.000670 
#    y 0.000000 1.793610 0.000000 
#    z 0.000670 0.000000 1.800750 
# 
# From -- ./inp_files/19107.got.cif
#   From: 2010.03.12/outbox.cif.g09.slc.cpg/sg14_10_cif.got.tgz:19107.got - 2010.03.31 13:35:05.
