data_PCOD8123143
_publ_section_title
;
Structure prediction by ZEFSAII (Michael W. Deem and Ramdas Pophale) SiO2 
 PCOD8123143
Probable space group: P 2/C
;
_chemical_formula_sum "Si O2"
_cell_formula_units_Z 18
_cell_length_a 9.199090
_cell_length_b 5.182884
_cell_length_c 15.411275
_cell_angle_alpha 90.000000
_cell_angle_beta 92.625459
_cell_angle_gamma 90.000000
_cell_volume 734.004656
_symmetry_space_group_name_H-M "P 2/C"
_symmetry_group_IT_number 13
_symmetry_cell_setting 'monoclinic'
loop_
_space_group_symop_operation_xyz
x,y,z
-x,y,1/2-z
-x,-y,-z
x,-y,1/2+z
loop_
_atom_site_type_symbol
_atom_site_label
_atom_site_fract_x
_atom_site_fract_y
_atom_site_fract_z
Si Si1 0.336329 0.531077 0.336304
Si Si2 0.221465 0.837267 0.186515
Si Si3 0.000000 0.162909 0.250000
Si Si4 0.495358 0.016733 0.103117
Si Si5 0.029066 0.451365 0.901916
O O1 0.288509 0.577122 0.233713
O O2 0.411762 0.253522 0.354875
O O3 0.201622 0.588474 0.396366
O O4 0.453308 0.746923 0.358440
O O5 0.077347 0.785035 0.124832
O O6 0.329670 0.016917 0.133392
O O7 0.151654 0.003514 0.263969
O O8 0.982796 0.319665 0.337638
O O9 0.500000 0.000000 0.000000
O O10 0.000000 0.500000 0.000000
#
# Coordination Sequence:
#
# PCOD8123143 Si02
#       5
#     4   4   2   4   4
#     4  12  26  51  75 117 153 212 263 325 404 474
#     4  12  27  48  77 114 156 214 260 333 397 481
#     4  12  24  48  78 108 166 198 272 318 408 456
#     4  12  30  50  79 115 160 206 269 326 404 476
#     4  12  27  47  79 113 157 206 269 329 392 478
#
# _framework density 24.523004
#
# number of rings (size 3 to 8) (size 9 to 14) (size 15 to 20)
#    0.000    0.000    4.444    4.000    6.222    4.444 
#    0.000    0.000    0.000    0.000    0.000    0.000 
#    0.000    0.000    0.000    0.000    0.000    0.000 
#
# Total GULP energy -223021.736398 kJ/mol
# GULP energy per Si atom -12390.096467 kJ/mol
# Density = 2.446719 g / cm^3
# Si number density = 24.523004 Si / 1000 Ang^3
#
#
#
# Elastic Constant Matrix: (Units=GPa)
#
#
# Indices 1 2 3 4 5 6 
#
# 1 183.2518 50.9244 61.0218 0.0000 -31.5119 0.0000
# 2 50.9244 96.4528 41.2710 0.0000 -0.8749 0.0000
# 3 61.0218 41.2710 153.4838 0.0000 -29.3407 0.0000
# 4 0.0000 0.0000 0.0000 14.9287 0.0000 -11.9788
# 5 -31.5119 -0.8749 -29.3407 0.0000 41.3610 0.0000
# 6 0.0000 0.0000 0.0000 -11.9788 0.0000 32.3575
#
#
#
# Elastic Compliance Matrix: (Units=1/GPa)
#
#
# Indices 1 2 3 4 5 6 
#
# 1 0.007668 -0.003507 -0.001160 0.000000 0.004945 0.000000
# 2 -0.003507 0.013512 -0.003118 0.000000 -0.004598 0.000000
# 3 -0.001160 -0.003118 0.008831 0.000000 0.005315 0.000000
# 4 0.000000 0.000000 0.000000 0.095292 0.000000 0.035277
# 5 0.004945 -0.004598 0.005315 0.000000 0.031618 0.000000
# 6 0.000000 0.000000 0.000000 0.035277 0.000000 0.043964
#
#
# Mechanical properties :
#
#
# Convention : Reuss Voigt Hill
#
# Bulk Modulus (GPa) = 69.25093 82.18030 75.71562
# Shear Modulus (GPa) = 22.59690 36.39419 29.49555
#
# Velocity S-wave (km/s) = 3.03884 3.85656 3.47186
# Velocity P-wave (km/s) = 6.37285 7.30856 6.85668
#
# Compressibility (1/GPa) = 0.01444024
#
# Stress axis : x y z
#
# Youngs Moduli (GPa) = 130.40584 74.00874 113.23737
#
# Poissons Ratio (x) = 0.25957 0.13140
# Poissons Ratio (y) = 0.45738 0.35306
# Poissons Ratio (z) = 0.15132 0.23075
#
# Static dielectric constant tensor:
#      x y z
#    x 4.580530 0.000000 0.081570 
#    y 0.000000 5.044630 0.000000 
#    z 0.081570 0.000000 4.241690 
# 
# 
# High freq. dielectric constant tensor:
#      x y z
#    x 2.008620 0.000000 -0.008770 
#    y 0.000000 1.978940 0.000000 
#    z -0.008770 0.000000 1.966290 
# 
# From -- ./inp_files/62118.got.cif
#   From: 2010.06.25/outbox.cif.g09.slc.cpg/sg13_32_cif.got.tgz:62118.got - 2010.06.28 04:50:58.
