data_PCOD8123913
_publ_section_title
;
Structure prediction by ZEFSAII (Michael W. Deem and Ramdas Pophale) SiO2 
 PCOD8123913
Probable space group: P 21/C
;
_chemical_formula_sum "Si O2"
_cell_formula_units_Z 32
_cell_length_a 13.860899
_cell_length_b 20.160104
_cell_length_c 8.881994
_cell_angle_alpha 90.000000
_cell_angle_beta 136.054584
_cell_angle_gamma 90.000000
_cell_volume 1722.412098
_symmetry_space_group_name_H-M "P 21/C"
_symmetry_group_IT_number 14
_symmetry_cell_setting 'monoclinic'
loop_
_space_group_symop_operation_xyz
x,y,z
-x,1/2+y,1/2-z
-x,-y,-z
x,1/2-y,1/2+z
loop_
_atom_site_type_symbol
_atom_site_label
_atom_site_fract_x
_atom_site_fract_y
_atom_site_fract_z
Si Si1 0.505907 0.735335 0.771759
Si Si2 0.921358 0.598137 0.912266
Si Si3 0.678425 0.301379 0.181129
Si Si4 0.082976 0.790761 0.457293
Si Si5 0.014793 0.498269 0.263555
Si Si6 0.067738 0.304512 0.516058
Si Si7 0.106352 0.581911 0.628978
Si Si8 0.302621 0.208329 0.770015
O O1 0.403537 0.782254 0.561130
O O2 0.424440 0.685181 0.792801
O O3 0.603661 0.692254 0.770886
O O4 0.599947 0.783979 0.976844
O O5 0.793731 0.645926 0.803583
O O6 0.058462 0.640629 0.020700
O O7 0.891724 0.550038 0.736347
O O8 0.946922 0.555953 0.089183
O O9 0.766115 0.237240 0.334519
O O10 0.767835 0.366504 0.246202
O O11 0.054772 0.796729 0.247526
O O12 0.965775 0.739197 0.376601
O O13 0.890205 0.458348 0.209226
O O14 0.115538 0.531132 0.500571
O O15 0.219622 0.278122 0.638013
O O16 0.047142 0.380996 0.544165
#
# Coordination Sequence:
#
# PCOD8123913 Si02
#       8
#     4   4   4   4   4   4   4   4
#     4  10  22  36  54  88 108 156 186 214 294 314
#     4  10  21  36  57  84 115 141 186 236 287 337
#     4  10  21  36  57  84 116 144 185 236 276 341
#     4  10  19  31  56  87 110 140 172 237 304 328
#     4  10  22  36  54  90 108 152 178 224 304 322
#     4  10  19  31  56  87 110 140 172 237 304 328
#     4  10  21  36  57  84 115 141 186 236 287 337
#     4  10  21  36  57  84 116 144 185 236 276 341
#
# _framework density 18.578596999999998
#
# number of rings (size 3 to 8) (size 9 to 14) (size 15 to 20)
#    0.000    2.000    1.250    3.000   10.500    0.000 
#    0.000    0.000    0.000    4.500    0.000    0.000 
#    0.000    0.000    0.000    0.000    0.000    0.000 
#
# Total GULP energy -396478.284765 kJ/mol
# GULP energy per Si atom -12389.946399 kJ/mol
# Density = 1.853631 g / cm^3
# Si number density = 18.578597 Si / 1000 Ang^3
#
#
#
# Elastic Constant Matrix: (Units=GPa)
#
#
# Indices 1 2 3 4 5 6 
#
# 1 100.6351 38.7760 39.6151 0.0000 -8.8155 0.0000
# 2 38.7760 85.8428 26.0750 0.0000 1.2832 0.0000
# 3 39.6151 26.0750 79.6354 0.0000 -2.3168 0.0000
# 4 0.0000 0.0000 0.0000 19.9370 0.0000 -2.0645
# 5 -8.8155 1.2832 -2.3168 0.0000 32.0541 0.0000
# 6 0.0000 0.0000 0.0000 -2.0645 0.0000 34.0579
#
#
#
# Elastic Compliance Matrix: (Units=1/GPa)
#
#
# Indices 1 2 3 4 5 6 
#
# 1 0.014258 -0.004858 -0.005394 0.000000 0.003726 0.000000
# 2 -0.004858 0.014613 -0.002429 0.000000 -0.002097 0.000000
# 3 -0.005394 -0.002429 0.016029 0.000000 -0.000228 0.000000
# 4 0.000000 0.000000 0.000000 0.050475 0.000000 0.003060
# 5 0.003726 -0.002097 -0.000228 0.000000 0.032289 0.000000
# 6 0.000000 0.000000 0.000000 0.003060 0.000000 0.029547
#
#
# Mechanical properties :
#
#
# Convention : Reuss Voigt Hill
#
# Bulk Modulus (GPa) = 51.18077 52.78283 51.98180
# Shear Modulus (GPa) = 26.44294 27.98629 27.21461
#
# Velocity S-wave (km/s) = 3.77676 3.88541 3.83147
# Velocity P-wave (km/s) = 6.82837 6.97143 6.90027
#
# Compressibility (1/GPa) = 0.01953859
#
# Stress axis : x y z
#
# Youngs Moduli (GPa) = 70.13403 68.43347 62.38627
#
# Poissons Ratio (x) = 0.33245 0.33651
# Poissons Ratio (y) = 0.34071 0.15154
# Poissons Ratio (z) = 0.37830 0.16623
#
# Static dielectric constant tensor:
#      x y z
#    x 3.742770 0.000000 -0.173990 
#    y 0.000000 3.502800 0.000000 
#    z -0.173990 0.000000 3.347240 
# 
# 
# High freq. dielectric constant tensor:
#      x y z
#    x 1.737230 0.000000 -0.030550 
#    y 0.000000 1.706110 0.000000 
#    z -0.030550 0.000000 1.705280 
# 
# From -- ./inp_files/16810.got.cif
#   From: 2010.03.12/outbox.cif.g09.slc.cpg/sg14_9_cif.got.tgz:16810.got - 2010.03.31 13:35:05.
