data_PCOD8123988
_publ_section_title
;
Structure prediction by ZEFSAII (Michael W. Deem and Ramdas Pophale) SiO2 
 PCOD8123988
Probable space group: P 21/C
;
_chemical_formula_sum "Si O2"
_cell_formula_units_Z 28
_cell_length_a 17.156182
_cell_length_b 12.266495
_cell_length_c 17.767509
_cell_angle_alpha 90.000000
_cell_angle_beta 23.002735
_cell_angle_gamma 90.000000
_cell_volume 1461.149058
_symmetry_space_group_name_H-M "P 21/C"
_symmetry_group_IT_number 14
_symmetry_cell_setting 'monoclinic'
loop_
_space_group_symop_operation_xyz
x,y,z
-x,1/2+y,1/2-z
-x,-y,-z
x,1/2-y,1/2+z
loop_
_atom_site_type_symbol
_atom_site_label
_atom_site_fract_x
_atom_site_fract_y
_atom_site_fract_z
Si Si1 0.444140 0.756451 0.758346
Si Si2 0.866798 0.629243 0.581188
Si Si3 0.464015 0.516432 0.727768
Si Si4 0.162451 0.875145 0.108911
Si Si5 0.811412 0.674644 0.027367
Si Si6 0.516679 0.473564 0.851166
Si Si7 0.897923 0.542860 0.707779
O O1 0.430420 0.639850 0.728757
O O2 0.667995 0.771174 0.592138
O O3 0.398488 0.851163 0.738173
O O4 0.283023 0.770241 0.969354
O O5 0.822733 0.750346 0.591279
O O6 0.677452 0.549333 0.747413
O O7 0.933363 0.631743 0.609512
O O8 0.036101 0.577090 0.377868
O O9 0.675282 0.467424 0.511723
O O10 0.280886 0.440667 0.863193
O O11 0.457993 0.525288 0.823376
O O12 0.032297 0.841106 0.296628
O O13 0.018459 0.923555 0.173926
O O14 0.333005 0.465937 0.069751
#
# Coordination Sequence:
#
# PCOD8123988 Si02
#       7
#     4   4   4   4   4   4   4
#     4  10  19  33  54  76 107 135 182 224 251 314
#     4  11  22  34  53  82 117 132 175 222 266 326
#     4  10  20  33  55  78 109 135 182 224 261 308
#     4  10  19  34  54  79 106 140 182 213 271 313
#     4  10  20  34  52  80 107 140 176 222 263 310
#     4  10  19  34  51  80 107 142 172 210 274 313
#     4  11  20  34  53  82 109 144 170 216 276 320
#
# _framework density 19.162998999999999
#
# number of rings (size 3 to 8) (size 9 to 14) (size 15 to 20)
#    0.000    2.000    7.143    0.429    2.000    1.143 
#    0.000    0.000    0.000    1.714    0.000    0.000 
#    0.000    0.000    0.000    0.000    0.000    0.000 
#
# Total GULP energy -347101.950342 kJ/mol
# GULP energy per Si atom -12396.498226 kJ/mol
# Density = 1.911938 g / cm^3
# Si number density = 19.162999 Si / 1000 Ang^3
#
#
#
# Elastic Constant Matrix: (Units=GPa)
#
#
# Indices 1 2 3 4 5 6 
#
# 1 20.2426 -0.2280 7.3317 0.0000 1.5579 0.0000
# 2 -0.2280 113.2151 43.6494 0.0000 -7.3981 0.0000
# 3 7.3317 43.6494 129.5783 0.0000 -2.6090 0.0000
# 4 0.0000 0.0000 0.0000 16.2635 0.0000 -4.6286
# 5 1.5579 -7.3981 -2.6090 0.0000 12.0829 0.0000
# 6 0.0000 0.0000 0.0000 -4.6286 0.0000 19.7566
#
#
#
# Elastic Compliance Matrix: (Units=1/GPa)
#
#
# Indices 1 2 3 4 5 6 
#
# 1 0.051143 0.000955 -0.003351 0.000000 -0.006733 0.000000
# 2 0.000955 0.010546 -0.003494 0.000000 0.005580 0.000000
# 3 -0.003351 -0.003494 0.009089 0.000000 0.000255 0.000000
# 4 0.000000 0.000000 0.000000 0.065880 0.000000 0.015434
# 5 -0.006733 0.005580 0.000255 0.000000 0.087101 0.000000
# 6 0.000000 0.000000 0.000000 0.015434 0.000000 0.054232
#
#
# Mechanical properties :
#
#
# Convention : Reuss Voigt Hill
#
# Bulk Modulus (GPa) = 16.94966 40.50469 28.72718
# Shear Modulus (GPa) = 16.15826 23.77279 19.96553
#
# Velocity S-wave (km/s) = 2.90694 3.52598 3.23132
# Velocity P-wave (km/s) = 4.48679 6.14487 5.38009
#
# Compressibility (1/GPa) = 0.05899822
#
# Stress axis : x y z
#
# Youngs Moduli (GPa) = 19.55290 94.81820 110.02097
#
# Poissons Ratio (x) = -0.09055 0.36868
# Poissons Ratio (y) = -0.01867 0.38445
# Poissons Ratio (z) = 0.06552 0.33133
#
# Static dielectric constant tensor:
#      x y z
#    x 3.119510 0.000000 -0.124390 
#    y 0.000000 3.507900 0.000000 
#    z -0.124390 0.000000 3.762860 
# 
# 
# High freq. dielectric constant tensor:
#      x y z
#    x 1.701850 0.000000 -0.010270 
#    y 0.000000 1.733610 0.000000 
#    z -0.010270 0.000000 1.760330 
# 
# From -- ./inp_files/69878.got.cif
#   From: 2010.03.12/outbox.cif.g09.slc.cpg/sg14_35_cif.got.tgz:69878.got - 2010.03.31 13:35:05.
