data_PCOD8123754
_publ_section_title
;
Structure prediction by ZEFSAII (Michael W. Deem and Ramdas Pophale) SiO2 
 PCOD8123754
Probable space group: P 21/C
;
_chemical_formula_sum "Si O2"
_cell_formula_units_Z 28
_cell_length_a 15.157932
_cell_length_b 18.449756
_cell_length_c 9.043449
_cell_angle_alpha 90.000000
_cell_angle_beta 149.008442
_cell_angle_gamma 90.000000
_cell_volume 1302.259389
_symmetry_space_group_name_H-M "P 21/C"
_symmetry_group_IT_number 14
_symmetry_cell_setting 'monoclinic'
loop_
_space_group_symop_operation_xyz
x,y,z
-x,1/2+y,1/2-z
-x,-y,-z
x,1/2-y,1/2+z
loop_
_atom_site_type_symbol
_atom_site_label
_atom_site_fract_x
_atom_site_fract_y
_atom_site_fract_z
Si Si1 0.010352 0.428291 0.916653
Si Si2 0.444899 0.750762 0.038899
Si Si3 0.668817 0.156963 0.870939
Si Si4 0.473936 0.897297 0.916797
Si Si5 0.294227 0.137330 0.004977
Si Si6 0.252752 0.483403 0.023904
Si Si7 0.625560 0.943961 0.601601
O O1 0.824424 0.397528 0.616654
O O2 0.119170 0.365224 0.157075
O O3 0.089849 0.448751 0.871172
O O4 0.000000 0.500000 0.000000
O O5 0.334195 0.687463 0.800632
O O6 0.328996 0.777527 0.008267
O O7 0.468961 0.813439 0.952733
O O8 0.631548 0.718532 0.357063
O O9 0.492130 0.115353 0.649012
O O10 0.564372 0.905890 0.887417
O O11 0.284685 0.933274 0.624061
O O12 0.575023 0.940198 0.187613
O O13 0.259388 0.094551 0.107347
O O14 0.242354 0.477850 0.829398
O O15 0.500000 0.000000 0.500000
#
# Coordination Sequence:
#
# PCOD8123754 Si02
#       7
#     4   4   4   4   4   4   4
#     4  11  24  45  63  96 136 168 207 270 342 378
#     4  11  21  41  64  92 123 171 220 257 306 393
#     4  11  24  41  65  93 131 168 211 269 325 383
#     4  10  18  36  63  94 116 164 217 258 306 373
#     4  10  22  38  64  94 126 165 214 262 316 389
#     4  10  21  36  68  93 124 166 218 263 317 382
#     4  11  20  38  67  97 122 164 227 270 306 381
#
# _framework density 21.501093000000001
#
# number of rings (size 3 to 8) (size 9 to 14) (size 15 to 20)
#    0.000    1.429    4.286    1.714    2.000    0.000 
#    5.143    4.286    0.000    0.000    0.000    0.000 
#    0.000    0.000    0.000    0.000    0.000    0.000 
#
# Total GULP energy -347038.616017 kJ/mol
# GULP energy per Si atom -12394.236286 kJ/mol
# Density = 2.145216 g / cm^3
# Si number density = 21.501093 Si / 1000 Ang^3
#
#
#
# Elastic Constant Matrix: (Units=GPa)
#
#
# Indices 1 2 3 4 5 6 
#
# 1 119.0524 18.3570 19.0831 0.0000 -20.0399 0.0000
# 2 18.3570 83.8697 19.0338 0.0000 -10.3985 0.0000
# 3 19.0831 19.0338 68.0896 0.0000 -8.0226 0.0000
# 4 0.0000 0.0000 0.0000 32.9451 0.0000 -2.1608
# 5 -20.0399 -10.3985 -8.0226 0.0000 20.3623 0.0000
# 6 0.0000 0.0000 0.0000 -2.1608 0.0000 33.8578
#
#
#
# Elastic Compliance Matrix: (Units=1/GPa)
#
#
# Indices 1 2 3 4 5 6 
#
# 1 0.010310 -0.000762 -0.001601 0.000000 0.009127 0.000000
# 2 -0.000762 0.013368 -0.002944 0.000000 0.004917 0.000000
# 3 -0.001601 -0.002944 0.016355 0.000000 0.003364 0.000000
# 4 0.000000 0.000000 0.000000 0.030481 0.000000 0.001945
# 5 0.009127 0.004917 0.003364 0.000000 0.061930 0.000000
# 6 0.000000 0.000000 0.000000 0.001945 0.000000 0.029659
#
#
# Mechanical properties :
#
#
# Convention : Reuss Voigt Hill
#
# Bulk Modulus (GPa) = 33.99196 42.66216 38.32706
# Shear Modulus (GPa) = 27.39386 31.73555 29.56470
#
# Velocity S-wave (km/s) = 3.57328 3.84604 3.71217
# Velocity P-wave (km/s) = 5.73308 6.29346 6.01979
#
# Compressibility (1/GPa) = 0.02941872
#
# Stress axis : x y z
#
# Youngs Moduli (GPa) = 96.99216 74.80709 61.14461
#
# Poissons Ratio (x) = 0.05697 0.09791
# Poissons Ratio (y) = 0.07387 0.18001
# Poissons Ratio (z) = 0.15531 0.22023
#
# Static dielectric constant tensor:
#      x y z
#    x 3.842770 0.000000 -0.334870 
#    y 0.000000 4.012460 0.000000 
#    z -0.334870 0.000000 3.743680 
# 
# 
# High freq. dielectric constant tensor:
#      x y z
#    x 1.848180 0.000000 -0.033730 
#    y 0.000000 1.843500 0.000000 
#    z -0.033730 0.000000 1.818420 
# 
# From -- ./inp_files/16898.got.cif
#   From: 2010.03.12/outbox.cif.g09.slc.cpg/sg14_9_cif.got.tgz:16898.got - 2010.03.31 13:35:05.
