data_PCOD8123319
_publ_section_title
;
Structure prediction by ZEFSAII (Michael W. Deem and Ramdas Pophale) SiO2 
 PCOD8123319
Probable space group: P 21/C
;
_chemical_formula_sum "Si O2"
_cell_formula_units_Z 32
_cell_length_a 19.717418
_cell_length_b 8.848107
_cell_length_c 23.856168
_cell_angle_alpha 90.000000
_cell_angle_beta 152.006207
_cell_angle_gamma 90.000000
_cell_volume 1953.538112
_symmetry_space_group_name_H-M "P 21/C"
_symmetry_group_IT_number 14
_symmetry_cell_setting 'monoclinic'
loop_
_space_group_symop_operation_xyz
x,y,z
-x,1/2+y,1/2-z
-x,-y,-z
x,1/2-y,1/2+z
loop_
_atom_site_type_symbol
_atom_site_label
_atom_site_fract_x
_atom_site_fract_y
_atom_site_fract_z
Si Si1 0.820877 0.607155 0.633603
Si Si2 0.786310 0.911266 0.324993
Si Si3 0.545077 0.238263 0.034254
Si Si4 0.226289 0.282190 0.791879
Si Si5 0.997833 0.351251 0.924177
Si Si6 0.835657 0.111814 0.749608
Si Si7 0.482257 0.991601 0.077604
Si Si8 0.005837 0.666308 0.202993
O O1 0.820581 0.653067 0.698745
O O2 0.658773 0.561486 0.494385
O O3 0.928184 0.462568 0.708049
O O4 0.869162 0.751452 0.632216
O O5 0.794036 0.777101 0.285610
O O6 0.855681 0.851647 0.433201
O O7 0.619067 0.953529 0.217700
O O8 0.875173 0.050897 0.364874
O O9 0.666616 0.360503 0.137165
O O10 0.553111 0.106314 0.085585
O O11 0.392801 0.324074 0.924923
O O12 0.570893 0.159736 0.992755
O O13 0.132428 0.433817 0.731413
O O14 0.932436 0.181188 0.871068
O O15 0.036102 0.406937 0.888392
O O16 0.877644 0.199168 0.722635
#
# Coordination Sequence:
#
# PCOD8123319 Si02
#       8
#     4   4   4   4   4   4   4   4
#     4  11  19  33  50  74 100 131 168 206 256 305
#     4  10  17  33  53  76  98 135 169 202 257 301
#     4   9  15  27  46  75 105 120 157 204 253 301
#     4  10  19  27  50  78 102 133 156 205 262 301
#     4   9  19  32  52  73 100 130 170 209 243 298
#     4  10  17  31  44  77 105 127 160 209 248 297
#     4   9  15  28  51  72  95 130 164 199 247 301
#     4  10  20  33  49  72 101 131 169 207 245 306
#
# _framework density 16.380534999999998
#
# number of rings (size 3 to 8) (size 9 to 14) (size 15 to 20)
#    0.750    1.500    3.750    1.875    0.000    0.500 
#    0.000    0.000    0.000    1.500    0.000    0.000 
#    0.000    0.000    0.000    0.000    0.000    0.000 
#
# Total GULP energy -396437.269298 kJ/mol
# GULP energy per Si atom -12388.664666 kJ/mol
# Density = 1.634325 g / cm^3
# Si number density = 16.380535 Si / 1000 Ang^3
#
#
#
# Elastic Constant Matrix: (Units=GPa)
#
#
# Indices 1 2 3 4 5 6 
#
# 1 49.2672 7.7237 30.9421 0.0000 7.5622 0.0000
# 2 7.7237 69.7704 33.0527 0.0000 5.2338 0.0000
# 3 30.9421 33.0527 116.6946 0.0000 1.8155 0.0000
# 4 0.0000 0.0000 0.0000 21.0055 0.0000 5.6688
# 5 7.5622 5.2338 1.8155 0.0000 20.1962 0.0000
# 6 0.0000 0.0000 0.0000 5.6688 0.0000 23.4263
#
#
#
# Elastic Compliance Matrix: (Units=1/GPa)
#
#
# Indices 1 2 3 4 5 6 
#
# 1 0.026005 0.001183 -0.007084 0.000000 -0.009407 0.000000
# 2 0.001183 0.016916 -0.005037 0.000000 -0.004374 0.000000
# 3 -0.007084 -0.005037 0.011829 0.000000 0.002894 0.000000
# 4 0.000000 0.000000 0.000000 0.050933 0.000000 -0.012325
# 5 -0.009407 -0.004374 0.002894 0.000000 0.053910 0.000000
# 6 0.000000 0.000000 0.000000 -0.012325 0.000000 0.045669
#
#
# Mechanical properties :
#
#
# Convention : Reuss Voigt Hill
#
# Bulk Modulus (GPa) = 30.41894 42.12992 36.27443
# Shear Modulus (GPa) = 20.99984 23.85985 22.42984
#
# Velocity S-wave (km/s) = 3.58439 3.82068 3.70442
# Velocity P-wave (km/s) = 5.97837 6.72598 6.36316
#
# Compressibility (1/GPa) = 0.03287425
#
# Stress axis : x y z
#
# Youngs Moduli (GPa) = 38.45401 59.11550 84.53536
#
# Poissons Ratio (x) = -0.06992 0.59885
# Poissons Ratio (y) = -0.04548 0.42580
# Poissons Ratio (z) = 0.27241 0.29776
#
# Static dielectric constant tensor:
#      x y z
#    x 2.798720 0.000000 0.084410 
#    y 0.000000 2.939180 0.000000 
#    z 0.084410 0.000000 3.078960 
# 
# 
# High freq. dielectric constant tensor:
#      x y z
#    x 1.593700 0.000000 0.014950 
#    y 0.000000 1.627360 0.000000 
#    z 0.014950 0.000000 1.622210 
# 
# From -- ./inp_files/74188.got.cif
#   From: 2010.03.12/outbox.cif.g09.slc.cpg/sg14_38_cif.got.tgz:74188.got - 2010.03.31 13:35:05.
