data_PCOD8123833
_publ_section_title
;
Structure prediction by ZEFSAII (Michael W. Deem and Ramdas Pophale) SiO2 
 PCOD8123833
Probable space group: P 21/C
;
_chemical_formula_sum "Si O2"
_cell_formula_units_Z 28
_cell_length_a 7.271679
_cell_length_b 24.328088
_cell_length_c 7.917521
_cell_angle_alpha 90.000000
_cell_angle_beta 77.437453
_cell_angle_gamma 90.000000
_cell_volume 1367.124410
_symmetry_space_group_name_H-M "P 21/C"
_symmetry_group_IT_number 14
_symmetry_cell_setting 'monoclinic'
loop_
_space_group_symop_operation_xyz
x,y,z
-x,1/2+y,1/2-z
-x,-y,-z
x,1/2-y,1/2+z
loop_
_atom_site_type_symbol
_atom_site_label
_atom_site_fract_x
_atom_site_fract_y
_atom_site_fract_z
Si Si1 0.959706 0.118548 0.475027
Si Si2 0.032255 0.809831 0.214664
Si Si3 0.368155 0.765481 0.664868
Si Si4 0.845910 0.143533 0.142647
Si Si5 0.606602 0.686824 0.820480
Si Si6 0.299487 0.545292 0.160103
Si Si7 0.320993 0.072572 0.576918
O O1 0.162599 0.096537 0.485894
O O2 0.884019 0.158680 0.638337
O O3 0.968502 0.150857 0.292292
O O4 0.814515 0.067724 0.482038
O O5 0.166679 0.758665 0.145664
O O6 0.819486 0.789563 0.295273
O O7 0.029033 0.849796 0.050488
O O8 0.320220 0.809705 0.822707
O O9 0.508461 0.715739 0.681966
O O10 0.472879 0.800738 0.504249
O O11 0.757746 0.081611 0.163548
O O12 0.615871 0.620349 0.804490
O O13 0.519579 0.552910 0.083293
O O14 0.252179 0.480732 0.197688
#
# Coordination Sequence:
#
# PCOD8123833 Si02
#       7
#     4   4   4   4   4   4   4
#     4   9  21  39  63  89 121 163 205 252 315 364
#     4  11  24  41  62  91 129 159 212 269 304 379
#     4  12  22  43  59  87 131 162 209 261 318 366
#     4  10  22  40  63  91 124 167 206 258 313 375
#     4  11  25  39  64  94 119 168 211 255 319 373
#     4   9  19  37  66  90 123 166 207 250 319 372
#     4  10  18  38  66  91 123 165 207 258 308 380
#
# _framework density 20.480945999999999
#
# number of rings (size 3 to 8) (size 9 to 14) (size 15 to 20)
#    0.857    0.857    2.857    2.143    2.000    1.143 
#    2.571    2.857    0.000    2.571    0.000    0.000 
#    0.000    0.000    0.000    0.000    0.000    0.000 
#
# Total GULP energy -346901.083060 kJ/mol
# GULP energy per Si atom -12389.324395 kJ/mol
# Density = 2.043433 g / cm^3
# Si number density = 20.480946 Si / 1000 Ang^3
#
#
#
# Elastic Constant Matrix: (Units=GPa)
#
#
# Indices 1 2 3 4 5 6 
#
# 1 83.1199 42.1899 7.7578 0.0000 -10.8709 0.0000
# 2 42.1899 125.9151 19.1343 0.0000 6.8193 0.0000
# 3 7.7578 19.1343 76.6582 0.0000 -1.0907 0.0000
# 4 0.0000 0.0000 0.0000 16.4914 0.0000 -2.9573
# 5 -10.8709 6.8193 -1.0907 0.0000 25.6432 0.0000
# 6 0.0000 0.0000 0.0000 -2.9573 0.0000 31.9213
#
#
#
# Elastic Compliance Matrix: (Units=1/GPa)
#
#
# Indices 1 2 3 4 5 6 
#
# 1 0.016094 -0.005838 -0.000052 0.000000 0.008373 0.000000
# 2 -0.005838 0.010509 -0.002108 0.000000 -0.005359 0.000000
# 3 -0.000052 -0.002108 0.013592 0.000000 0.001117 0.000000
# 4 0.000000 0.000000 0.000000 0.061662 0.000000 0.005713
# 5 0.008373 -0.005359 0.001117 0.000000 0.044019 0.000000
# 6 0.000000 0.000000 0.000000 0.005713 0.000000 0.031856
#
#
# Mechanical properties :
#
#
# Convention : Reuss Voigt Hill
#
# Bulk Modulus (GPa) = 41.32694 47.09524 44.21109
# Shear Modulus (GPa) = 24.77752 29.25193 27.01472
#
# Velocity S-wave (km/s) = 3.48197 3.78332 3.63577
# Velocity P-wave (km/s) = 6.03221 6.49071 6.26565
#
# Compressibility (1/GPa) = 0.02419729
#
# Stress axis : x y z
#
# Youngs Moduli (GPa) = 62.13469 95.15969 73.57062
#
# Poissons Ratio (x) = 0.55555 0.00385
# Poissons Ratio (y) = 0.36275 0.15512
# Poissons Ratio (z) = 0.00325 0.20064
#
# Static dielectric constant tensor:
#      x y z
#    x 3.695400 0.000000 -0.064590 
#    y 0.000000 4.006540 0.000000 
#    z -0.064590 0.000000 3.388230 
# 
# 
# High freq. dielectric constant tensor:
#      x y z
#    x 1.801340 0.000000 -0.011070 
#    y 0.000000 1.808730 0.000000 
#    z -0.011070 0.000000 1.767370 
# 
# From -- ./inp_files/10532.got.cif
#   From: 2010.03.12/outbox.cif.g09.slc.cpg/sg14_6_cif.got.tgz:10532.got - 2010.03.31 13:35:05.
