data_PCOD8123667
_publ_section_title
;
Structure prediction by ZEFSAII (Michael W. Deem and Ramdas Pophale) SiO2 
 PCOD8123667
Probable space group: P 21/C
;
_chemical_formula_sum "Si O2"
_cell_formula_units_Z 32
_cell_length_a 18.937567
_cell_length_b 9.016572
_cell_length_c 21.316390
_cell_angle_alpha 90.000000
_cell_angle_beta 153.199639
_cell_angle_gamma 90.000000
_cell_volume 1641.131246
_symmetry_space_group_name_H-M "P 21/C"
_symmetry_group_IT_number 14
_symmetry_cell_setting 'monoclinic'
loop_
_space_group_symop_operation_xyz
x,y,z
-x,1/2+y,1/2-z
-x,-y,-z
x,1/2-y,1/2+z
loop_
_atom_site_type_symbol
_atom_site_label
_atom_site_fract_x
_atom_site_fract_y
_atom_site_fract_z
Si Si1 0.367192 0.995066 0.445856
Si Si2 0.883389 0.252097 0.254422
Si Si3 0.659680 0.617257 0.857170
Si Si4 0.886580 0.747705 0.252674
Si Si5 0.547023 0.379259 0.851750
Si Si6 0.190306 0.845547 0.937714
Si Si7 0.013114 0.005784 0.436715
Si Si8 0.810756 0.656596 0.559037
O O1 0.267291 0.146386 0.359288
O O2 0.500000 0.000000 0.500000
O O3 0.261784 0.855364 0.344409
O O4 0.447688 0.966739 0.577890
O O5 0.854624 0.151523 0.170832
O O6 0.907849 0.144098 0.332396
O O7 0.036465 0.350912 0.363999
O O8 0.533942 0.496374 0.783476
O O9 0.584729 0.747981 0.753860
O O10 0.712168 0.698972 0.962974
O O11 0.805009 0.534246 0.938977
O O12 0.858619 0.845935 0.169264
O O13 0.036398 0.645795 0.358592
O O14 0.933162 0.855599 0.346958
O O15 0.712276 0.300227 0.969615
O O16 0.280772 0.000402 0.024237
O O17 0.000000 0.000000 0.500000
#
# Coordination Sequence:
#
# PCOD8123667 Si02
#       8
#     4   4   4   4   4   4   4   4
#     4  11  24  42  63  90 126 167 206 255 312 374
#     4   9  20  36  60  90 119 154 206 256 303 360
#     4  11  23  41  61  94 130 163 204 255 317 374
#     4  11  20  38  66  90 117 162 218 254 305 374
#     4  11  23  41  61  94 130 163 204 255 317 374
#     4  10  18  34  65  93 117 152 208 266 301 350
#     4  11  24  42  63  90 126 167 206 255 312 374
#     4  10  18  34  65  93 117 152 208 266 301 350
#
# _framework density 19.498745
#
# number of rings (size 3 to 8) (size 9 to 14) (size 15 to 20)
#    0.000    1.500    5.000    0.750    1.750    0.000 
#    2.250    1.250    0.000    0.000    0.000    0.000 
#    0.000    0.000    0.000    0.000    0.000    0.000 
#
# Total GULP energy -396422.240974 kJ/mol
# GULP energy per Si atom -12388.195030 kJ/mol
# Density = 1.945437 g / cm^3
# Si number density = 19.498745 Si / 1000 Ang^3
#
#
#
# Elastic Constant Matrix: (Units=GPa)
#
#
# Indices 1 2 3 4 5 6 
#
# 1 110.2927 64.7697 44.1387 0.0000 -9.9362 0.0000
# 2 64.7697 117.3546 34.8564 0.0000 -9.5852 0.0000
# 3 44.1387 34.8564 83.0242 0.0000 -9.6565 0.0000
# 4 0.0000 0.0000 0.0000 48.5146 0.0000 0.3521
# 5 -9.9362 -9.5852 -9.6565 0.0000 28.5146 0.0000
# 6 0.0000 0.0000 0.0000 0.3521 0.0000 41.2556
#
#
#
# Elastic Compliance Matrix: (Units=1/GPa)
#
#
# Indices 1 2 3 4 5 6 
#
# 1 0.015194 -0.006770 -0.005085 0.000000 0.001297 0.000000
# 2 -0.006770 0.012858 -0.001635 0.000000 0.001410 0.000000
# 3 -0.005085 -0.001635 0.015786 0.000000 0.003024 0.000000
# 4 0.000000 0.000000 0.000000 0.020614 0.000000 -0.000176
# 5 0.001297 0.001410 0.003024 0.000000 0.037020 0.000000
# 6 0.000000 0.000000 0.000000 -0.000176 0.000000 0.024241
#
#
# Mechanical properties :
#
#
# Convention : Reuss Voigt Hill
#
# Bulk Modulus (GPa) = 59.31531 66.46679 62.89105
# Shear Modulus (GPa) = 31.58326 34.78409 33.18367
#
# Velocity S-wave (km/s) = 4.02899 4.22822 4.12981
# Velocity P-wave (km/s) = 7.22009 7.61570 7.42053
#
# Compressibility (1/GPa) = 0.01685905
#
# Stress axis : x y z
#
# Youngs Moduli (GPa) = 65.81562 77.77081 63.34609
#
# Poissons Ratio (x) = 0.52648 0.32210
# Poissons Ratio (y) = 0.44554 0.10360
# Poissons Ratio (z) = 0.33465 0.12719
#
# Static dielectric constant tensor:
#      x y z
#    x 3.179900 0.000000 -0.025750 
#    y 0.000000 3.698120 0.000000 
#    z -0.025750 0.000000 3.605600 
# 
# 
# High freq. dielectric constant tensor:
#      x y z
#    x 1.727310 0.000000 -0.002410 
#    y 0.000000 1.780160 0.000000 
#    z -0.002410 0.000000 1.757700 
# 
# From -- ./inp_files/69178.got.cif
#   From: 2010.03.12/outbox.cif.g09.slc.cpg/sg14_35_cif.got.tgz:69178.got - 2010.03.31 13:35:05.
