data_PCOD8123190
_publ_section_title
;
Structure prediction by ZEFSAII (Michael W. Deem and Ramdas Pophale) SiO2 
 PCOD8123190
Probable space group: P 2/C
;
_chemical_formula_sum "Si O2"
_cell_formula_units_Z 16
_cell_length_a 10.346805
_cell_length_b 4.670980
_cell_length_c 16.480808
_cell_angle_alpha 90.000000
_cell_angle_beta 125.031177
_cell_angle_gamma 90.000000
_cell_volume 652.216414
_symmetry_space_group_name_H-M "P 2/C"
_symmetry_group_IT_number 13
_symmetry_cell_setting 'monoclinic'
loop_
_space_group_symop_operation_xyz
x,y,z
-x,y,1/2-z
-x,-y,-z
x,-y,1/2+z
loop_
_atom_site_type_symbol
_atom_site_label
_atom_site_fract_x
_atom_site_fract_y
_atom_site_fract_z
Si Si1 0.377365 0.531324 0.637718
Si Si2 0.924693 0.797114 0.404472
Si Si3 0.626210 0.059265 0.977399
Si Si4 0.960113 0.722552 0.646686
O O1 0.500000 0.631552 0.750000
O O2 0.237261 0.350447 0.628816
O O3 0.456192 0.314688 0.602505
O O4 0.325737 0.808431 0.568085
O O5 0.910204 0.025867 0.325183
O O6 0.962489 0.465815 0.581494
O O7 0.000000 0.000000 0.500000
O O8 0.500000 0.000000 0.000000
O O9 0.785499 0.150588 0.079924
O O10 0.000000 0.600308 0.750000
#
# Coordination Sequence:
#
# PCOD8123190 Si02
#       4
#     4   4   4   4
#     4  12  28  48  79 111 152 204 253 313 382 448
#     4  12  26  49  80 111 150 199 266 317 367 453
#     4  12  28  49  76 112 157 199 249 312 384 459
#     4  12  28  47  80 113 154 202 249 313 387 446
#
# _framework density 24.531737
#
# number of rings (size 3 to 8) (size 9 to 14) (size 15 to 20)
#    0.000    0.000    2.500    6.000    7.000    0.000 
#    0.000    0.000    0.000    0.000    0.000    0.000 
#    0.000    0.000    0.000    0.000    0.000    0.000 
#
# Total GULP energy -198304.954589 kJ/mol
# GULP energy per Si atom -12394.059662 kJ/mol
# Density = 2.447590 g / cm^3
# Si number density = 24.531737 Si / 1000 Ang^3
#
#
#
# Elastic Constant Matrix: (Units=GPa)
#
#
# Indices 1 2 3 4 5 6 
#
# 1 116.9038 46.6536 87.6002 0.0000 -5.0459 0.0000
# 2 46.6536 153.5405 57.8889 0.0000 3.7754 0.0000
# 3 87.6002 57.8889 143.5522 0.0000 2.9873 0.0000
# 4 0.0000 0.0000 0.0000 40.3009 0.0000 -12.1717
# 5 -5.0459 3.7754 2.9873 0.0000 20.8560 0.0000
# 6 0.0000 0.0000 0.0000 -12.1717 0.0000 48.2746
#
#
#
# Elastic Compliance Matrix: (Units=1/GPa)
#
#
# Indices 1 2 3 4 5 6 
#
# 1 0.016656 -0.001562 -0.009653 0.000000 0.005695 0.000000
# 2 -0.001562 0.007846 -0.002180 0.000000 -0.001486 0.000000
# 3 -0.009653 -0.002180 0.013817 0.000000 -0.003920 0.000000
# 4 0.000000 0.000000 0.000000 0.026859 0.000000 0.006772
# 5 0.005695 -0.001486 -0.003920 0.000000 0.050156 0.000000
# 6 0.000000 0.000000 0.000000 0.006772 0.000000 0.022422
#
#
# Mechanical properties :
#
#
# Convention : Reuss Voigt Hill
#
# Bulk Modulus (GPa) = 86.72847 88.69799 87.71323
# Shear Modulus (GPa) = 29.69298 36.67656 33.18477
#
# Velocity S-wave (km/s) = 3.48284 3.87080 3.68194
# Velocity P-wave (km/s) = 7.18359 7.49749 7.34222
#
# Compressibility (1/GPa) = 0.01153024
#
# Stress axis : x y z
#
# Youngs Moduli (GPa) = 60.03666 127.45469 72.37233
#
# Poissons Ratio (x) = 0.19904 0.69862
# Poissons Ratio (y) = 0.09376 0.15777
# Poissons Ratio (z) = 0.57954 0.27786
#
# Static dielectric constant tensor:
#      x y z
#    x 4.735220 0.000000 -0.395430 
#    y 0.000000 5.426070 0.000000 
#    z -0.395430 0.000000 4.393880 
# 
# 
# High freq. dielectric constant tensor:
#      x y z
#    x 1.980770 0.000000 -0.020440 
#    y 0.000000 2.007350 0.000000 
#    z -0.020440 0.000000 1.966950 
# 
# From -- ./inp_files/31206.got.cif
#   From: 2010.06.25/outbox.cif.g09.slc.cpg/sg13_16_cif.got.tgz:31206.got - 2010.06.28 04:50:58.
