data_PCOD8123231
_publ_section_title
;
Structure prediction by ZEFSAII (Michael W. Deem and Ramdas Pophale) SiO2 
 PCOD8123231
Probable space group: P 21/C
;
_chemical_formula_sum "Si O2"
_cell_formula_units_Z 28
_cell_length_a 21.156440
_cell_length_b 13.325209
_cell_length_c 5.202072
_cell_angle_alpha 90.000000
_cell_angle_beta 60.028313
_cell_angle_gamma 90.000000
_cell_volume 1270.420358
_symmetry_space_group_name_H-M "P 21/C"
_symmetry_group_IT_number 14
_symmetry_cell_setting 'monoclinic'
loop_
_space_group_symop_operation_xyz
x,y,z
-x,1/2+y,1/2-z
-x,-y,-z
x,1/2-y,1/2+z
loop_
_atom_site_type_symbol
_atom_site_label
_atom_site_fract_x
_atom_site_fract_y
_atom_site_fract_z
Si Si1 0.686448 0.686916 0.944210
Si Si2 0.466717 0.315258 0.854523
Si Si3 0.315224 0.646840 0.143194
Si Si4 0.854751 0.310783 0.521882
Si Si5 0.842463 0.815433 0.032605
Si Si6 0.950904 0.505080 0.349834
Si Si7 0.622470 0.368265 0.483143
O O1 0.685881 0.781131 0.744625
O O2 0.762960 0.629328 0.730057
O O3 0.610937 0.626630 0.034645
O O4 0.470610 0.225954 0.636712
O O5 0.535656 0.389315 0.674352
O O6 0.231209 0.673168 0.292481
O O7 0.362420 0.748830 0.062761
O O8 0.334608 0.584251 0.360820
O O9 0.342222 0.581881 0.843301
O O10 0.879320 0.259482 0.207088
O O11 0.893231 0.416367 0.468243
O O12 0.849227 0.772165 0.731176
O O13 0.907479 0.891636 0.943937
O O14 0.000000 0.500000 0.500000
O O15 0.000000 0.500000 0.000000
#
# Coordination Sequence:
#
# PCOD8123231 Si02
#       7
#     4   4   4   4   4   4   4
#     4   8  16  27  46  77 106 142 194 231 280 339
#     4  10  14  20  36  67 109 140 176 243 270 312
#     4  10  16  27  44  72 108 148 189 223 277 349
#     4  12  23  40  63  89 126 159 194 242 299 365
#     4  10  21  42  68  87 120 159 200 253 300 351
#     4  12  28  45  64  96 120 151 204 245 307 374
#     4  10  14  23  41  70 111 141 189 233 267 334
#
# _framework density 22.039950000000001
#
# number of rings (size 3 to 8) (size 9 to 14) (size 15 to 20)
#    0.000    1.714    5.714    1.714    0.000    3.429 
#    0.000    0.000    0.000    0.000    0.000    2.000 
#    0.000    0.000    0.000    0.000    0.000    0.000 
#
# Total GULP energy -346938.424299 kJ/mol
# GULP energy per Si atom -12390.658011 kJ/mol
# Density = 2.198979 g / cm^3
# Si number density = 22.039950 Si / 1000 Ang^3
#
#
#
# Elastic Constant Matrix: (Units=GPa)
#
#
# Indices 1 2 3 4 5 6 
#
# 1 106.6699 24.6787 53.2891 0.0000 13.8377 0.0000
# 2 24.6787 28.8451 13.8200 0.0000 -10.5028 0.0000
# 3 53.2891 13.8200 114.1139 0.0000 11.7451 0.0000
# 4 0.0000 0.0000 0.0000 9.9458 0.0000 8.0350
# 5 13.8377 -10.5028 11.7451 0.0000 50.8088 0.0000
# 6 0.0000 0.0000 0.0000 8.0350 0.0000 2.1254
#
#
#
# Elastic Compliance Matrix: (Units=1/GPa)
#
#
# Indices 1 2 3 4 5 6 
#
# 1 0.015740 -0.013103 -0.005166 0.000000 -0.005801 0.000000
# 2 -0.013103 0.052054 -0.001700 0.000000 0.014722 0.000000
# 3 -0.005166 -0.001700 0.011548 0.000000 -0.001614 0.000000
# 4 0.000000 0.000000 0.000000 -0.048948 0.000000 0.185043
# 5 -0.005801 0.014722 -0.001614 0.000000 0.024678 0.000000
# 6 0.000000 0.000000 0.000000 0.185043 0.000000 -0.229049
#
#
# Mechanical properties :
#
#
# Convention : Reuss Voigt Hill
#
# Bulk Modulus (GPa) = 25.37976 48.13384 36.75680
# Shear Modulus (GPa) = -41.35497 23.09875 -9.12811
#
# Velocity S-wave (km/s) = -4.33640 3.24086 -2.03730
# Velocity P-wave (km/s) = 3.67861 5.99091 3.34356
#
# Compressibility (1/GPa) = 0.03940148
#
# Stress axis : x y z
#
# Youngs Moduli (GPa) = 63.53394 19.21096 86.59740
#
# Poissons Ratio (x) = 0.25173 0.44737
# Poissons Ratio (y) = 0.83250 0.14724
# Poissons Ratio (z) = 0.32823 0.03266
#
# Static dielectric constant tensor:
#      x y z
#    x 5.150250 0.000000 0.893810 
#    y 0.000000 3.039760 0.000000 
#    z 0.893810 0.000000 5.730490 
# 
# 
# High freq. dielectric constant tensor:
#      x y z
#    x 1.898870 0.000000 0.005890 
#    y 0.000000 1.784060 0.000000 
#    z 0.005890 0.000000 1.898720 
# 
# From -- ./inp_files/4399.got.cif
#   From: 2010.03.12/outbox.cif.g09.slc.cpg/sg14_3_cif.got.tgz:4399.got - 2010.03.31 13:35:05.
