data_PCOD8123279
_publ_section_title
;
Structure prediction by ZEFSAII (Michael W. Deem and Ramdas Pophale) SiO2 
 PCOD8123279
Probable space group: P 21/C
;
_chemical_formula_sum "Si O2"
_cell_formula_units_Z 28
_cell_length_a 9.532315
_cell_length_b 16.449497
_cell_length_c 14.504581
_cell_angle_alpha 90.000000
_cell_angle_beta 39.642437
_cell_angle_gamma 90.000000
_cell_volume 1451.019120
_symmetry_space_group_name_H-M "P 21/C"
_symmetry_group_IT_number 14
_symmetry_cell_setting 'monoclinic'
loop_
_space_group_symop_operation_xyz
x,y,z
-x,1/2+y,1/2-z
-x,-y,-z
x,1/2-y,1/2+z
loop_
_atom_site_type_symbol
_atom_site_label
_atom_site_fract_x
_atom_site_fract_y
_atom_site_fract_z
Si Si1 0.934790 0.290697 0.590426
Si Si2 0.005954 0.656059 0.242268
Si Si3 0.646249 0.347857 0.589242
Si Si4 0.855529 0.114096 0.600347
Si Si5 0.222815 0.447099 0.781649
Si Si6 0.100544 0.184829 0.815111
Si Si7 0.427598 0.833433 0.423892
O O1 0.029295 0.338774 0.630304
O O2 0.714206 0.335200 0.662777
O O3 0.881924 0.197228 0.644885
O O4 0.113288 0.287827 0.416965
O O5 0.873432 0.578855 0.269232
O O6 0.909718 0.735112 0.241538
O O7 0.266799 0.646705 0.090424
O O8 0.476354 0.420469 0.662883
O O9 0.548553 0.263430 0.600911
O O10 0.875127 0.367561 0.416693
O O11 0.666550 0.123411 0.619210
O O12 0.084931 0.092530 0.434579
O O13 0.785573 0.044600 0.707668
O O14 0.324269 0.134827 0.679382
#
# Coordination Sequence:
#
# PCOD8123279 Si02
#       7
#     4   4   4   4   4   4   4
#     4   9  18  34  53  82 101 135 182 214 261 313
#     4  10  18  31  55  81 102 135 177 219 261 306
#     4   8  16  30  52  71 103 132 176 205 262 309
#     4   9  18  30  55  78 108 138 179 214 273 309
#     4  10  16  33  56  78 106 141 172 225 267 314
#     4   9  17  33  51  77 105 133 181 213 262 310
#     4   9  15  33  50  74 104 135 174 217 252 315
#
# _framework density 19.296782
#
# number of rings (size 3 to 8) (size 9 to 14) (size 15 to 20)
#    0.857    2.000    4.286    0.000    0.000    0.000 
#    7.714    0.714    3.143    8.571    0.000    0.000 
#    0.000    0.000    0.000    0.000    0.000    0.000 
#
# Total GULP energy -346866.918503 kJ/mol
# GULP energy per Si atom -12388.104232 kJ/mol
# Density = 1.925286 g / cm^3
# Si number density = 19.296782 Si / 1000 Ang^3
#
#
#
# Elastic Constant Matrix: (Units=GPa)
#
#
# Indices 1 2 3 4 5 6 
#
# 1 62.9647 7.7935 40.8324 0.0000 -11.0072 0.0000
# 2 7.7935 37.8243 1.1952 0.0000 -7.5164 0.0000
# 3 40.8324 1.1952 51.9926 0.0000 -22.2635 0.0000
# 4 0.0000 0.0000 0.0000 14.8602 0.0000 1.6472
# 5 -11.0072 -7.5164 -22.2635 0.0000 47.0294 0.0000
# 6 0.0000 0.0000 0.0000 1.6472 0.0000 16.1786
#
#
#
# Elastic Compliance Matrix: (Units=1/GPa)
#
#
# Indices 1 2 3 4 5 6 
#
# 1 0.035720 -0.007895 -0.031145 0.000000 -0.007645 0.000000
# 2 -0.007895 0.029151 0.008446 0.000000 0.006810 0.000000
# 3 -0.031145 0.008446 0.051369 0.000000 0.018378 0.000000
# 4 0.000000 0.000000 0.000000 0.068062 0.000000 -0.006930
# 5 -0.007645 0.006810 0.018378 0.000000 0.029262 0.000000
# 6 0.000000 0.000000 0.000000 -0.006930 0.000000 0.062516
#
#
# Mechanical properties :
#
#
# Convention : Reuss Voigt Hill
#
# Bulk Modulus (GPa) = 18.16473 28.04711 23.10592
# Shear Modulus (GPa) = 14.06002 22.47767 18.26884
#
# Velocity S-wave (km/s) = 2.70222 3.41668 3.08024
# Velocity P-wave (km/s) = 4.37833 5.48918 4.96492
#
# Compressibility (1/GPa) = 0.05505175
#
# Stress axis : x y z
#
# Youngs Moduli (GPa) = 27.99551 34.30412 19.46711
#
# Poissons Ratio (x) = 0.27083 0.60630
# Poissons Ratio (y) = 0.22102 -0.16442
# Poissons Ratio (z) = 0.87192 -0.28974
#
# Static dielectric constant tensor:
#      x y z
#    x 3.346700 0.000000 -0.203830 
#    y 0.000000 3.194240 0.000000 
#    z -0.203830 0.000000 3.343770 
# 
# 
# High freq. dielectric constant tensor:
#      x y z
#    x 1.739760 0.000000 -0.017200 
#    y 0.000000 1.713470 0.000000 
#    z -0.017200 0.000000 1.733790 
# 
# From -- ./inp_files/41552.got.cif
#   From: 2010.03.12/outbox.cif.g09.slc.cpg/sg14_21_cif.got.tgz:41552.got - 2010.03.31 13:35:05.
