data_PCOD8123393
_publ_section_title
;
Structure prediction by ZEFSAII (Michael W. Deem and Ramdas Pophale) SiO2 
 PCOD8123393
Probable space group: P 21/C
;
_chemical_formula_sum "Si O2"
_cell_formula_units_Z 32
_cell_length_a 11.056472
_cell_length_b 24.088740
_cell_length_c 7.951399
_cell_angle_alpha 90.000000
_cell_angle_beta 126.011966
_cell_angle_gamma 90.000000
_cell_volume 1713.033806
_symmetry_space_group_name_H-M "P 21/C"
_symmetry_group_IT_number 14
_symmetry_cell_setting 'monoclinic'
loop_
_space_group_symop_operation_xyz
x,y,z
-x,1/2+y,1/2-z
-x,-y,-z
x,1/2-y,1/2+z
loop_
_atom_site_type_symbol
_atom_site_label
_atom_site_fract_x
_atom_site_fract_y
_atom_site_fract_z
Si Si1 0.504961 0.386700 0.934767
Si Si2 0.898127 0.374841 0.564973
Si Si3 0.321048 0.533281 0.712465
Si Si4 0.626420 0.520826 0.773677
Si Si5 0.463801 0.591811 0.405669
Si Si6 0.226097 0.818325 0.731387
Si Si7 0.240790 0.807438 0.347626
Si Si8 0.211453 0.432907 0.807571
O O1 0.460037 0.390929 0.705476
O O2 0.352993 0.390548 0.918077
O O3 0.623445 0.436306 0.071439
O O4 0.590358 0.329275 0.042004
O O5 0.775609 0.423872 0.476789
O O6 0.901818 0.342827 0.747912
O O7 0.869234 0.335476 0.379134
O O8 0.060512 0.399817 0.667178
O O9 0.469956 0.513007 0.743679
O O10 0.221276 0.479218 0.669456
O O11 0.603319 0.574806 0.636355
O O12 0.648593 0.462116 0.696364
O O13 0.772611 0.533847 0.003704
O O14 0.372248 0.645141 0.395292
O O15 0.187245 0.819963 0.498638
O O16 0.253581 0.756939 0.819925
#
# Coordination Sequence:
#
# PCOD8123393 Si02
#       8
#     4   4   4   4   4   4   4   4
#     4   9  18  34  60  84 106 145 194 240 280 334
#     4  11  23  38  57  87 120 156 190 235 288 349
#     4  10  17  35  55  81 114 158 193 218 277 351
#     4  10  18  32  56  85 120 153 184 234 286 342
#     4  10  18  32  58  88 115 142 196 240 282 332
#     4  11  21  40  65  86 105 153 202 242 283 344
#     4  10  22  39  67  80 107 145 208 245 281 337
#     4  11  20  35  56  84 123 155 183 230 298 345
#
# _framework density 18.680308
#
# number of rings (size 3 to 8) (size 9 to 14) (size 15 to 20)
#    0.000    1.750    5.000    1.125    0.000    0.000 
#    2.250    0.625    8.250    0.000    0.000    0.000 
#    0.000    0.000    0.000    0.000    0.000    0.000 
#
# Total GULP energy -396476.612600 kJ/mol
# GULP energy per Si atom -12389.894144 kJ/mol
# Density = 1.863779 g / cm^3
# Si number density = 18.680308 Si / 1000 Ang^3
#
#
#
# Elastic Constant Matrix: (Units=GPa)
#
#
# Indices 1 2 3 4 5 6 
#
# 1 60.6643 45.1605 31.6116 0.0000 -6.1721 0.0000
# 2 45.1605 123.1642 43.6565 0.0000 6.6934 0.0000
# 3 31.6116 43.6565 82.3829 0.0000 -8.0313 0.0000
# 4 0.0000 0.0000 0.0000 21.9465 0.0000 -2.6668
# 5 -6.1721 6.6934 -8.0313 0.0000 28.3013 0.0000
# 6 0.0000 0.0000 0.0000 -2.6668 0.0000 30.2639
#
#
#
# Elastic Compliance Matrix: (Units=1/GPa)
#
#
# Indices 1 2 3 4 5 6 
#
# 1 0.025637 -0.007942 -0.005040 0.000000 0.006039 0.000000
# 2 -0.007942 0.012913 -0.004383 0.000000 -0.006030 0.000000
# 3 -0.005040 -0.004383 0.016855 0.000000 0.004721 0.000000
# 4 0.000000 0.000000 0.000000 0.046059 0.000000 0.004059
# 5 0.006039 -0.006030 0.004721 0.000000 0.039417 0.000000
# 6 0.000000 0.000000 0.000000 0.004059 0.000000 0.033400
#
#
# Mechanical properties :
#
#
# Convention : Reuss Voigt Hill
#
# Bulk Modulus (GPa) = 48.36776 56.34096 52.35436
# Shear Modulus (GPa) = 23.15857 25.82118 24.48988
#
# Velocity S-wave (km/s) = 3.52480 3.72192 3.62470
# Velocity P-wave (km/s) = 6.52029 6.97828 6.75317
#
# Compressibility (1/GPa) = 0.02067493
#
# Stress axis : x y z
#
# Youngs Moduli (GPa) = 39.00562 77.44328 59.32881
#
# Poissons Ratio (x) = 0.61507 0.29902
# Poissons Ratio (y) = 0.30979 0.26004
# Poissons Ratio (z) = 0.19659 0.33943
#
# Static dielectric constant tensor:
#      x y z
#    x 3.248220 0.000000 -0.389270 
#    y 0.000000 3.546630 0.000000 
#    z -0.389270 0.000000 3.575290 
# 
# 
# High freq. dielectric constant tensor:
#      x y z
#    x 1.698680 0.000000 -0.033830 
#    y 0.000000 1.726530 0.000000 
#    z -0.033830 0.000000 1.719170 
# 
# From -- ./inp_files/10701.got.cif
#   From: 2010.03.12/outbox.cif.g09.slc.cpg/sg14_6_cif.got.tgz:10701.got - 2010.03.31 13:35:05.
