data_PCOD8123662
_publ_section_title
;
Structure prediction by ZEFSAII (Michael W. Deem and Ramdas Pophale) SiO2 
 PCOD8123662
Probable space group: P 21/C
;
_chemical_formula_sum "Si O2"
_cell_formula_units_Z 32
_cell_length_a 5.265584
_cell_length_b 22.056443
_cell_length_c 13.623706
_cell_angle_alpha 90.000000
_cell_angle_beta 70.673945
_cell_angle_gamma 90.000000
_cell_volume 1493.098583
_symmetry_space_group_name_H-M "P 21/C"
_symmetry_group_IT_number 14
_symmetry_cell_setting 'monoclinic'
loop_
_space_group_symop_operation_xyz
x,y,z
-x,1/2+y,1/2-z
-x,-y,-z
x,1/2-y,1/2+z
loop_
_atom_site_type_symbol
_atom_site_label
_atom_site_fract_x
_atom_site_fract_y
_atom_site_fract_z
Si Si1 0.340651 0.943403 0.780057
Si Si2 0.812894 0.005745 0.659157
Si Si3 0.907876 0.096542 0.482113
Si Si4 0.479802 0.091500 0.039027
Si Si5 0.241652 0.688151 0.264230
Si Si6 0.349385 0.284324 0.614863
Si Si7 0.140689 0.984103 0.117408
Si Si8 0.431701 0.325683 0.961888
O O1 0.530482 0.971534 0.670430
O O2 0.513785 0.913858 0.844469
O O3 0.180527 0.884664 0.760879
O O4 0.172901 0.999747 0.846698
O O5 0.045014 0.957546 0.602618
O O6 0.856335 0.067790 0.595847
O O7 0.788830 0.020492 0.777015
O O8 0.632050 0.127143 0.486391
O O9 0.158657 0.142713 0.457439
O O10 0.373696 0.159619 0.033487
O O11 0.271621 0.038799 0.035201
O O12 0.765774 0.078702 0.946593
O O13 0.403926 0.710705 0.339638
O O14 0.419653 0.707514 0.147900
O O15 0.945112 0.717236 0.296995
O O16 0.364248 0.223075 0.552575
#
# Coordination Sequence:
#
# PCOD8123662 Si02
#       8
#     4   4   4   4   4   4   4   4
#     4  10  18  34  63  91 123 168 209 259 314 397
#     4  10  23  37  62  95 128 162 211 262 332 382
#     4  11  25  42  66  97 127 169 212 270 319 390
#     4   9  20  34  56  92 121 164 210 261 315 376
#     4  11  22  42  70  92 124 170 224 257 320 385
#     4  11  24  44  65  95 126 170 220 271 307 384
#     4  10  18  35  60  87 129 161 205 260 325 378
#     4  12  25  45  69  93 130 172 221 266 321 379
#
# _framework density 21.431943
#
# number of rings (size 3 to 8) (size 9 to 14) (size 15 to 20)
#    0.000    1.500    2.500    2.625    3.500    1.000 
#    4.500    0.000    0.000    0.000    0.000    0.000 
#    0.000    0.000    0.000    0.000    0.000    0.000 
#
# Total GULP energy -396458.451310 kJ/mol
# GULP energy per Si atom -12389.326603 kJ/mol
# Density = 2.138316 g / cm^3
# Si number density = 21.431943 Si / 1000 Ang^3
#
#
#
# Elastic Constant Matrix: (Units=GPa)
#
#
# Indices 1 2 3 4 5 6 
#
# 1 65.0875 5.4079 3.5652 0.0000 -13.2439 0.0000
# 2 5.4079 57.1245 30.2461 0.0000 -5.0690 0.0000
# 3 3.5652 30.2461 95.8984 0.0000 -13.3401 0.0000
# 4 0.0000 0.0000 0.0000 34.8892 0.0000 -4.3557
# 5 -13.2439 -5.0690 -13.3401 0.0000 31.2626 0.0000
# 6 0.0000 0.0000 0.0000 -4.3557 0.0000 26.6128
#
#
#
# Elastic Compliance Matrix: (Units=1/GPa)
#
#
# Indices 1 2 3 4 5 6 
#
# 1 0.016918 -0.001391 0.000824 0.000000 0.007293 0.000000
# 2 -0.001391 0.021141 -0.006614 0.000000 0.000016 0.000000
# 3 0.000824 -0.006614 0.013164 0.000000 0.004894 0.000000
# 4 0.000000 0.000000 0.000000 0.029260 0.000000 0.004789
# 5 0.007293 0.000016 0.004894 0.000000 0.037168 0.000000
# 6 0.000000 0.000000 0.000000 0.004789 0.000000 0.038360
#
#
# Mechanical properties :
#
#
# Convention : Reuss Voigt Hill
#
# Bulk Modulus (GPa) = 27.12812 32.94989 30.03901
# Shear Modulus (GPa) = 27.37354 30.47900 28.92627
#
# Velocity S-wave (km/s) = 3.57771 3.77520 3.67779
# Velocity P-wave (km/s) = 5.45454 5.86604 5.66403
#
# Compressibility (1/GPa) = 0.03686211
#
# Stress axis : x y z
#
# Youngs Moduli (GPa) = 59.10728 47.30249 75.96602
#
# Poissons Ratio (x) = 0.06579 -0.06262
# Poissons Ratio (y) = 0.08221 0.50242
# Poissons Ratio (z) = -0.04872 0.31284
#
# Static dielectric constant tensor:
#      x y z
#    x 3.842910 0.000000 -0.162440 
#    y 0.000000 3.821500 0.000000 
#    z -0.162440 0.000000 4.006630 
# 
# 
# High freq. dielectric constant tensor:
#      x y z
#    x 1.841950 0.000000 -0.012310 
#    y 0.000000 1.815390 0.000000 
#    z -0.012310 0.000000 1.845770 
# 
# From -- ./inp_files/38073.got.cif
#   From: 2010.03.12/outbox.cif.g09.slc.cpg/sg14_20_cif.got.tgz:38073.got - 2010.03.31 13:35:05.
