data_PCOD8123912
_publ_section_title
;
Structure prediction by ZEFSAII (Michael W. Deem and Ramdas Pophale) SiO2 
 PCOD8123912
Probable space group: P 21/C
;
_chemical_formula_sum "Si O2"
_cell_formula_units_Z 32
_cell_length_a 12.244129
_cell_length_b 20.170196
_cell_length_c 7.573244
_cell_angle_alpha 90.000000
_cell_angle_beta 108.014361
_cell_angle_gamma 90.000000
_cell_volume 1778.651676
_symmetry_space_group_name_H-M "P 21/C"
_symmetry_group_IT_number 14
_symmetry_cell_setting 'monoclinic'
loop_
_space_group_symop_operation_xyz
x,y,z
-x,1/2+y,1/2-z
-x,-y,-z
x,1/2-y,1/2+z
loop_
_atom_site_type_symbol
_atom_site_label
_atom_site_fract_x
_atom_site_fract_y
_atom_site_fract_z
Si Si1 0.568022 0.410814 0.489177
Si Si2 0.431953 0.589182 0.921183
Si Si3 0.331948 0.050285 0.967998
Si Si4 0.090945 0.904065 0.545452
Si Si5 0.668036 0.949704 0.636057
Si Si6 0.162529 0.055917 0.581235
Si Si7 0.779957 0.173588 0.684719
Si Si8 0.220062 0.673577 0.404745
O O1 0.541145 0.416566 0.270549
O O2 0.631779 0.477663 0.584648
O O3 0.445252 0.402718 0.523797
O O4 0.649847 0.348940 0.576511
O O5 0.368210 0.522326 0.952881
O O6 0.350116 0.651052 0.926679
O O7 0.554716 0.597281 0.078595
O O8 0.233242 0.077374 0.790514
O O9 0.281444 0.047726 0.140720
O O10 0.131035 0.867285 0.388234
O O11 0.131087 0.867329 0.742821
O O12 0.953483 0.901908 0.476769
O O13 0.137576 0.978154 0.568674
O O14 0.766719 0.922593 0.557250
O O15 0.791677 0.250010 0.645894
O O16 0.807737 0.159290 0.903881
#
# Coordination Sequence:
#
# PCOD8123912 Si02
#       8
#     4   4   4   4   4   4   4   4
#     4   9  18  31  52  85 118 141 177 227 282 341
#     4   9  18  31  52  85 118 141 177 227 282 341
#     4  10  19  31  54  83 115 149 180 225 280 344
#     4  11  24  38  57  82 116 155 190 240 287 336
#     4  10  19  31  54  83 115 149 180 225 280 344
#     4  11  22  38  55  82 122 150 191 235 286 350
#     4  11  22  37  59  87 112 146 192 241 287 339
#     4  11  22  37  59  87 112 146 192 241 287 339
#
# _framework density 17.991156
#
# number of rings (size 3 to 8) (size 9 to 14) (size 15 to 20)
#    0.000    1.750    5.000    0.000    3.500    1.000 
#    0.000    2.500    0.000    1.500    0.000    0.000 
#    0.000    0.000    0.000    0.000    0.000    0.000 
#
# Total GULP energy -396815.601849 kJ/mol
# GULP energy per Si atom -12400.487558 kJ/mol
# Density = 1.795021 g / cm^3
# Si number density = 17.991156 Si / 1000 Ang^3
#
#
#
# Elastic Constant Matrix: (Units=GPa)
#
#
# Indices 1 2 3 4 5 6 
#
# 1 132.4089 39.0359 70.8817 0.0000 2.6735 0.0000
# 2 39.0359 68.7223 31.9977 0.0000 4.6621 0.0000
# 3 70.8817 31.9977 123.3494 0.0000 3.3471 0.0000
# 4 0.0000 0.0000 0.0000 17.6345 0.0000 2.7191
# 5 2.6735 4.6621 3.3471 0.0000 28.2997 0.0000
# 6 0.0000 0.0000 0.0000 2.7191 0.0000 21.7524
#
#
#
# Elastic Compliance Matrix: (Units=1/GPa)
#
#
# Indices 1 2 3 4 5 6 
#
# 1 0.011819 -0.004053 -0.005746 0.000000 0.000231 0.000000
# 2 -0.004053 0.018081 -0.002298 0.000000 -0.002324 0.000000
# 3 -0.005746 -0.002298 0.012019 0.000000 -0.000500 0.000000
# 4 0.000000 0.000000 0.000000 0.057822 0.000000 -0.007228
# 5 0.000231 -0.002324 -0.000500 0.000000 0.035756 0.000000
# 6 0.000000 0.000000 0.000000 -0.007228 0.000000 0.046875
#
#
# Mechanical properties :
#
#
# Convention : Reuss Voigt Hill
#
# Bulk Modulus (GPa) = 56.42298 67.59014 62.00656
# Shear Modulus (GPa) = 23.53206 25.70835 24.62020
#
# Velocity S-wave (km/s) = 3.62052 3.78424 3.70329
# Velocity P-wave (km/s) = 6.99337 7.53286 7.26812
#
# Compressibility (1/GPa) = 0.01772328
#
# Stress axis : x y z
#
# Youngs Moduli (GPa) = 84.61026 55.30528 83.20247
#
# Poissons Ratio (x) = 0.22418 0.47811
# Poissons Ratio (y) = 0.34297 0.19121
# Poissons Ratio (z) = 0.48620 0.12710
#
# Static dielectric constant tensor:
#      x y z
#    x 3.364350 0.000000 -0.057010 
#    y 0.000000 3.071400 0.000000 
#    z -0.057010 0.000000 3.450550 
# 
# 
# High freq. dielectric constant tensor:
#      x y z
#    x 1.694040 0.000000 -0.009780 
#    y 0.000000 1.656380 0.000000 
#    z -0.009780 0.000000 1.708830 
# 
# From -- ./inp_files/13901.got.cif
#   From: 2010.03.12/outbox.cif.g09.slc.cpg/sg14_7_cif.got.tgz:13901.got - 2010.03.31 13:35:05.
