data_PCOD8123118
_publ_section_title
;
Structure prediction by ZEFSAII (Michael W. Deem and Ramdas Pophale) SiO2 
 PCOD8123118
Probable space group: P 2/C
;
_chemical_formula_sum "Si O2"
_cell_formula_units_Z 20
_cell_length_a 21.424012
_cell_length_b 6.231155
_cell_length_c 13.465744
_cell_angle_alpha 90.000000
_cell_angle_beta 25.623660
_cell_angle_gamma 90.000000
_cell_volume 777.398622
_symmetry_space_group_name_H-M "P 2/C"
_symmetry_group_IT_number 13
_symmetry_cell_setting 'monoclinic'
loop_
_space_group_symop_operation_xyz
x,y,z
-x,y,1/2-z
-x,-y,-z
x,-y,1/2+z
loop_
_atom_site_type_symbol
_atom_site_label
_atom_site_fract_x
_atom_site_fract_y
_atom_site_fract_z
Si Si1 0.188393 0.512333 0.389891
Si Si2 0.500000 0.133477 0.750000
Si Si3 0.961775 0.838389 0.141522
Si Si4 0.668891 0.261749 0.982321
Si Si5 0.590417 0.484916 0.771824
Si Si6 0.000000 0.138115 0.250000
O O1 0.326181 0.573281 0.119365
O O2 0.246754 0.478145 0.418843
O O3 0.097630 0.312222 0.478407
O O4 0.091049 0.724204 0.540351
O O5 0.569302 0.262956 0.742320
O O6 0.629177 0.986045 0.517535
O O7 0.829698 0.696069 0.292646
O O8 0.906545 0.978601 0.314652
O O9 0.000000 0.000000 0.000000
O O10 0.561796 0.329468 0.229751
O O11 0.500000 0.500000 0.000000
#
# Coordination Sequence:
#
# PCOD8123118 Si02
#       6
#     4   2   4   4   4   2
#     4  12  27  46  75 112 153 200 261 324 400 468
#     4  12  28  50  78 112 150 212 270 320 400 468
#     4  12  27  46  77 114 156 205 261 325 405 479
#     4  12  27  48  76 111 157 205 264 329 393 471
#     4  12  28  48  76 107 154 202 262 333 387 468
#     4  12  24  44  72 110 146 202 246 322 392 468
#
# _framework density 25.72683
#
# number of rings (size 3 to 8) (size 9 to 14) (size 15 to 20)
#    0.000    0.000    2.000    7.800    8.400    4.800 
#    0.000    0.000    0.000    0.000    0.000    0.000 
#    0.000    0.000    0.000    0.000    0.000    0.000 
#
# Total GULP energy -247846.370401 kJ/mol
# GULP energy per Si atom -12392.318520 kJ/mol
# Density = 2.566827 g / cm^3
# Si number density = 25.726830 Si / 1000 Ang^3
#
#
#
# Elastic Constant Matrix: (Units=GPa)
#
#
# Indices 1 2 3 4 5 6 
#
# 1 216.9587 91.7166 42.1147 0.0000 -3.6593 0.0000
# 2 91.7166 152.3419 32.4779 0.0000 6.8210 0.0000
# 3 42.1147 32.4779 94.4505 0.0000 22.1582 0.0000
# 4 0.0000 0.0000 0.0000 47.7151 0.0000 4.9336
# 5 -3.6593 6.8210 22.1582 0.0000 43.6877 0.0000
# 6 0.0000 0.0000 0.0000 4.9336 0.0000 58.9975
#
#
#
# Elastic Compliance Matrix: (Units=1/GPa)
#
#
# Indices 1 2 3 4 5 6 
#
# 1 0.006602 -0.003599 -0.002234 0.000000 0.002248 0.000000
# 2 -0.003599 0.009047 -0.001253 0.000000 -0.001078 0.000000
# 3 -0.002234 -0.001253 0.013635 0.000000 -0.006907 0.000000
# 4 0.000000 0.000000 0.000000 0.021140 0.000000 -0.001768
# 5 0.002248 -0.001078 -0.006907 0.000000 0.026750 0.000000
# 6 0.000000 0.000000 0.000000 -0.001768 0.000000 0.017098
#
#
# Mechanical properties :
#
#
# Convention : Reuss Voigt Hill
#
# Bulk Modulus (GPa) = 66.17261 88.48550 77.32906
# Shear Modulus (GPa) = 44.06072 49.90953 46.98512
#
# Velocity S-wave (km/s) = 4.14289 4.40930 4.27817
# Velocity P-wave (km/s) = 6.97580 7.77119 7.38422
#
# Compressibility (1/GPa) = 0.01511199
#
# Stress axis : x y z
#
# Youngs Moduli (GPa) = 151.46452 110.53999 73.34256
#
# Poissons Ratio (x) = 0.39787 0.16381
# Poissons Ratio (y) = 0.54517 0.09189
# Poissons Ratio (z) = 0.33830 0.13849
#
# Static dielectric constant tensor:
#      x y z
#    x 83.971850 0.000000 -3.687070 
#    y 0.000000 4.481350 0.000000 
#    z -3.687070 0.000000 5.196620 
# 
# 
# High freq. dielectric constant tensor:
#      x y z
#    x 2.081710 0.000000 -0.009120 
#    y 0.000000 2.020440 0.000000 
#    z -0.009120 0.000000 2.039420 
# 
# From -- ./inp_files/58018.got.cif
#   From: 2010.06.25/outbox.cif.g09.slc.cpg/sg13_30_cif.got.tgz:58018.got - 2010.06.28 04:50:58.
