data_PCOD8123787
_publ_section_title
;
Structure prediction by ZEFSAII (Michael W. Deem and Ramdas Pophale) SiO2 
 PCOD8123787
Probable space group: P 21/C
;
_chemical_formula_sum "Si O2"
_cell_formula_units_Z 28
_cell_length_a 8.981418
_cell_length_b 9.079448
_cell_length_c 14.837162
_cell_angle_alpha 90.000000
_cell_angle_beta 102.321324
_cell_angle_gamma 90.000000
_cell_volume 1182.046992
_symmetry_space_group_name_H-M "P 21/C"
_symmetry_group_IT_number 14
_symmetry_cell_setting 'monoclinic'
loop_
_space_group_symop_operation_xyz
x,y,z
-x,1/2+y,1/2-z
-x,-y,-z
x,1/2-y,1/2+z
loop_
_atom_site_type_symbol
_atom_site_label
_atom_site_fract_x
_atom_site_fract_y
_atom_site_fract_z
Si Si1 0.313366 0.403411 0.060839
Si Si2 0.427106 0.440526 0.310987
Si Si3 0.116293 0.011725 0.674336
Si Si4 0.012610 0.681721 0.307535
Si Si5 0.522083 0.833945 0.584210
Si Si6 0.720829 0.913235 0.868706
Si Si7 0.305452 0.896453 0.961948
O O1 0.147919 0.477491 0.069510
O O2 0.452160 0.511189 0.106338
O O3 0.332800 0.253622 0.119722
O O4 0.325347 0.368384 0.955905
O O5 0.291409 0.484487 0.229650
O O6 0.429661 0.262318 0.322915
O O7 0.588496 0.502337 0.295178
O O8 0.414057 0.507083 0.410918
O O9 0.019996 0.146010 0.700818
O O10 0.040582 0.865778 0.706003
O O11 0.873444 0.587106 0.329136
O O12 0.160128 0.656014 0.386794
O O13 0.395472 0.747143 0.508365
O O14 0.755258 0.001804 0.964989
#
# Coordination Sequence:
#
# PCOD8123787 Si02
#       7
#     4   4   4   4   4   4   4
#     4  10  20  35  58  89 124 141 194 252 293 337
#     4  10  19  37  63  85 116 152 203 240 281 356
#     4  10  24  43  55  85 120 161 194 242 298 354
#     4  10  23  40  58  83 123 159 191 238 294 363
#     4  10  19  36  60  94 114 150 194 253 293 332
#     4  10  18  37  62  87 112 152 200 241 286 348
#     4  10  18  37  60  86 114 156 196 236 287 357
#
# _framework density 23.687721
#
# number of rings (size 3 to 8) (size 9 to 14) (size 15 to 20)
#    0.000    2.000    2.857    1.286    0.000    4.571 
#    7.714    2.857    0.000    0.000    0.000    0.000 
#    0.000    0.000    0.000    0.000    0.000    0.000 
#
# Total GULP energy -347006.665069 kJ/mol
# GULP energy per Si atom -12393.095181 kJ/mol
# Density = 2.363381 g / cm^3
# Si number density = 23.687721 Si / 1000 Ang^3
#
#
#
# Elastic Constant Matrix: (Units=GPa)
#
#
# Indices 1 2 3 4 5 6 
#
# 1 96.4179 20.3254 20.4884 0.0000 -20.8222 0.0000
# 2 20.3254 68.0813 11.0058 0.0000 -16.5329 0.0000
# 3 20.4884 11.0058 18.4777 0.0000 -11.7470 0.0000
# 4 0.0000 0.0000 0.0000 21.3966 0.0000 -12.7069
# 5 -20.8222 -16.5329 -11.7470 0.0000 41.5871 0.0000
# 6 0.0000 0.0000 0.0000 -12.7069 0.0000 40.9852
#
#
#
# Elastic Compliance Matrix: (Units=1/GPa)
#
#
# Indices 1 2 3 4 5 6 
#
# 1 0.014022 -0.001416 -0.012919 0.000000 0.002809 0.000000
# 2 -0.001416 0.017132 -0.005796 0.000000 0.004465 0.000000
# 3 -0.012919 -0.005796 0.080835 0.000000 0.014061 0.000000
# 4 0.000000 0.000000 0.000000 0.057284 0.000000 0.017760
# 5 0.002809 0.004465 0.014061 0.000000 0.031199 0.000000
# 6 0.000000 0.000000 0.000000 0.017760 0.000000 0.029905
#
#
# Mechanical properties :
#
#
# Convention : Reuss Voigt Hill
#
# Bulk Modulus (GPa) = 13.94157 31.84623 22.89390
# Shear Modulus (GPa) = 16.97521 29.53759 23.25640
#
# Velocity S-wave (km/s) = 2.67989 3.53506 3.13675
# Velocity P-wave (km/s) = 3.93371 5.48959 4.77544
#
# Compressibility (1/GPa) = 0.07172791
#
# Stress axis : x y z
#
# Youngs Moduli (GPa) = 71.31821 58.36968 12.37087
#
# Poissons Ratio (x) = 0.08263 0.15982
# Poissons Ratio (y) = 0.10096 0.07170
# Poissons Ratio (z) = 0.92134 0.33832
#
# Static dielectric constant tensor:
#      x y z
#    x 4.447140 0.000000 -0.474250 
#    y 0.000000 4.367060 0.000000 
#    z -0.474250 0.000000 4.261520 
# 
# 
# High freq. dielectric constant tensor:
#      x y z
#    x 1.939860 0.000000 -0.023450 
#    y 0.000000 1.943140 0.000000 
#    z -0.023450 0.000000 1.924730 
# 
# From -- ./inp_files/54912.got.cif
#   From: 2010.03.12/outbox.cif.g09.slc.cpg/sg14_28_cif.got.tgz:54912.got - 2010.03.31 13:35:05.
