data_PCOD8123490
_publ_section_title
;
Structure prediction by ZEFSAII (Michael W. Deem and Ramdas Pophale) SiO2 
 PCOD8123490
Probable space group: P 21/C
;
_chemical_formula_sum "Si O2"
_cell_formula_units_Z 32
_cell_length_a 15.853726
_cell_length_b 17.903433
_cell_length_c 20.230082
_cell_angle_alpha 90.000000
_cell_angle_beta 18.446824
_cell_angle_gamma 90.000000
_cell_volume 1816.917676
_symmetry_space_group_name_H-M "P 21/C"
_symmetry_group_IT_number 14
_symmetry_cell_setting 'monoclinic'
loop_
_space_group_symop_operation_xyz
x,y,z
-x,1/2+y,1/2-z
-x,-y,-z
x,1/2-y,1/2+z
loop_
_atom_site_type_symbol
_atom_site_label
_atom_site_fract_x
_atom_site_fract_y
_atom_site_fract_z
Si Si1 0.101485 0.653580 0.106442
Si Si2 0.608272 0.202446 0.085017
Si Si3 0.478565 0.645738 0.051901
Si Si4 0.348293 0.329505 0.340434
Si Si5 0.958037 0.345737 0.515811
Si Si6 0.274023 0.277040 0.709539
Si Si7 0.030781 0.913007 0.793888
Si Si8 0.963529 0.422215 0.379473
O O1 0.849633 0.658021 0.244489
O O2 0.058176 0.591814 0.194833
O O3 0.157734 0.735220 0.098662
O O4 0.364995 0.629167 0.869412
O O5 0.458240 0.185135 0.127959
O O6 0.725389 0.125866 0.024889
O O7 0.394376 0.239789 0.295883
O O8 0.538566 0.725209 0.974545
O O9 0.322416 0.659595 0.236826
O O10 0.308234 0.597401 0.126183
O O11 0.751384 0.601387 0.863207
O O12 0.195332 0.362544 0.390164
O O13 0.176776 0.347134 0.532432
O O14 0.953854 0.412954 0.466044
O O15 0.024564 0.269713 0.425731
O O16 0.905261 0.992392 0.905732
#
# Coordination Sequence:
#
# PCOD8123490 Si02
#       8
#     4   4   4   4   4   4   4   4
#     4  10  18  34  56  69 102 138 174 213 252 308
#     4   9  18  37  53  71 107 134 176 216 252 303
#     4  10  18  31  53  81 108 135 165 213 270 318
#     4   8  18  33  52  74 101 137 175 206 253 310
#     4   9  17  30  50  75 103 131 167 209 260 306
#     4  10  18  34  53  78  98 135 182 221 247 300
#     4  11  21  32  54  79 111 138 171 210 268 318
#     4  11  21  34  49  82 112 139 166 217 266 313
#
# _framework density 17.612245000000001
#
# number of rings (size 3 to 8) (size 9 to 14) (size 15 to 20)
#    0.750    1.500    3.750    1.125    0.000    5.000 
#    0.000    0.625    0.000    0.750    0.000    0.000 
#    0.000    0.000    0.000    0.000    0.000    0.000 
#
# Total GULP energy -396578.301986 kJ/mol
# GULP energy per Si atom -12393.071937 kJ/mol
# Density = 1.757216 g / cm^3
# Si number density = 17.612245 Si / 1000 Ang^3
#
#
#
# Elastic Constant Matrix: (Units=GPa)
#
#
# Indices 1 2 3 4 5 6 
#
# 1 55.8038 11.7806 37.2256 0.0000 -8.7062 0.0000
# 2 11.7806 45.3210 26.1354 0.0000 -8.0000 0.0000
# 3 37.2256 26.1354 91.5975 0.0000 4.1090 0.0000
# 4 0.0000 0.0000 0.0000 18.4700 0.0000 -2.9758
# 5 -8.7062 -8.0000 4.1090 0.0000 32.6559 0.0000
# 6 0.0000 0.0000 0.0000 -2.9758 0.0000 15.6674
#
#
#
# Elastic Compliance Matrix: (Units=1/GPa)
#
#
# Indices 1 2 3 4 5 6 
#
# 1 0.026831 0.001348 -0.011690 0.000000 0.008954 0.000000
# 2 0.001348 0.028418 -0.009036 0.000000 0.008458 0.000000
# 3 -0.011690 -0.009036 0.018591 0.000000 -0.007670 0.000000
# 4 0.000000 0.000000 0.000000 0.055851 0.000000 0.010608
# 5 0.008954 0.008458 -0.007670 0.000000 0.036047 0.000000
# 6 0.000000 0.000000 0.000000 0.010608 0.000000 0.065842
#
#
# Mechanical properties :
#
#
# Convention : Reuss Voigt Hill
#
# Bulk Modulus (GPa) = 28.50387 38.11175 33.30781
# Shear Modulus (GPa) = 17.72860 21.19737 19.46299
#
# Velocity S-wave (km/s) = 3.17615 3.47300 3.32788
# Velocity P-wave (km/s) = 5.44700 6.14562 5.80682
#
# Compressibility (1/GPa) = 0.03508296
#
# Stress axis : x y z
#
# Youngs Moduli (GPa) = 37.27046 35.18877 53.79060
#
# Poissons Ratio (x) = -0.04743 0.62884
# Poissons Ratio (y) = -0.05024 0.48604
# Poissons Ratio (z) = 0.43571 0.31796
#
# Static dielectric constant tensor:
#      x y z
#    x 3.218070 0.000000 0.027240 
#    y 0.000000 2.867820 0.000000 
#    z 0.027240 0.000000 3.308810 
# 
# 
# High freq. dielectric constant tensor:
#      x y z
#    x 1.674730 0.000000 -0.000700 
#    y 0.000000 1.635610 0.000000 
#    z -0.000700 0.000000 1.680950 
# 
# From -- ./inp_files/68820.got.cif
#   From: 2010.03.12/outbox.cif.g09.slc.cpg/sg14_35_cif.got.tgz:68820.got - 2010.03.31 13:35:05.
