data_PCOD8123144
_publ_section_title
;
Structure prediction by ZEFSAII (Michael W. Deem and Ramdas Pophale) SiO2 
 PCOD8123144
Probable space group: P 2/C
;
_chemical_formula_sum "Si O2"
_cell_formula_units_Z 20
_cell_length_a 8.888991
_cell_length_b 9.887487
_cell_length_c 19.094477
_cell_angle_alpha 90.000000
_cell_angle_beta 28.857767
_cell_angle_gamma 90.000000
_cell_volume 809.965873
_symmetry_space_group_name_H-M "P 2/C"
_symmetry_group_IT_number 13
_symmetry_cell_setting 'monoclinic'
loop_
_space_group_symop_operation_xyz
x,y,z
-x,y,1/2-z
-x,-y,-z
x,-y,1/2+z
loop_
_atom_site_type_symbol
_atom_site_label
_atom_site_fract_x
_atom_site_fract_y
_atom_site_fract_z
Si Si1 0.130456 0.465418 0.771375
Si Si2 0.197807 0.137650 0.418804
Si Si3 0.366010 0.127636 0.592983
Si Si4 0.595687 0.247306 0.632745
Si Si5 0.581146 0.682170 0.550513
O O1 0.431152 0.384280 0.675940
O O2 0.257072 0.619598 0.712669
O O3 0.000000 0.413307 0.750000
O O4 0.843376 0.438689 0.941671
O O5 0.500000 0.116516 0.250000
O O6 0.300973 0.189752 0.453167
O O7 0.973861 0.255167 0.477368
O O8 0.000000 0.000000 0.500000
O O9 0.498861 0.130307 0.617616
O O10 0.471552 0.261294 0.506426
O O11 0.000000 0.116557 0.750000
O O12 0.500000 0.000000 0.500000
O O13 0.500000 0.202601 0.750000
#
# Coordination Sequence:
#
# PCOD8123144 Si02
#       5
#     4   4   4   4   4
#     4  12  26  48  81 110 161 207 264 328 395 473
#     4  12  29  49  76 114 157 207 263 328 406 475
#     4  12  26  49  77 115 153 206 269 329 394 476
#     4  12  24  49  78 108 160 207 255 331 401 465
#     4  12  27  50  78 114 158 212 266 324 402 475
#
# _framework density 24.692398000000001
#
# number of rings (size 3 to 8) (size 9 to 14) (size 15 to 20)
#    0.000    0.000    6.000    2.400    2.800    7.200 
#    0.000    0.000    0.000    0.000    0.000    0.000 
#    0.000    0.000    0.000    0.000    0.000    0.000 
#
# Total GULP energy -247861.771804 kJ/mol
# GULP energy per Si atom -12393.088590 kJ/mol
# Density = 2.463620 g / cm^3
# Si number density = 24.692398 Si / 1000 Ang^3
#
#
#
# Elastic Constant Matrix: (Units=GPa)
#
#
# Indices 1 2 3 4 5 6 
#
# 1 163.5883 39.7632 54.7932 0.0000 15.7168 0.0000
# 2 39.7632 100.2198 56.9300 0.0000 14.0399 0.0000
# 3 54.7932 56.9300 151.0519 0.0000 2.7623 0.0000
# 4 0.0000 0.0000 0.0000 39.2535 0.0000 -4.1634
# 5 15.7168 14.0399 2.7623 0.0000 37.4039 0.0000
# 6 0.0000 0.0000 0.0000 -4.1634 0.0000 37.2908
#
#
#
# Elastic Compliance Matrix: (Units=1/GPa)
#
#
# Indices 1 2 3 4 5 6 
#
# 1 0.007392 -0.001393 -0.002112 0.000000 -0.002427 0.000000
# 2 -0.001393 0.013732 -0.004593 0.000000 -0.004230 0.000000
# 3 -0.002112 -0.004593 0.009082 0.000000 0.001941 0.000000
# 4 0.000000 0.000000 0.000000 0.025781 0.000000 0.002878
# 5 -0.002427 -0.004230 0.001941 0.000000 0.029199 0.000000
# 6 0.000000 0.000000 0.000000 0.002878 0.000000 0.027138
#
#
# Mechanical properties :
#
#
# Convention : Reuss Voigt Hill
#
# Bulk Modulus (GPa) = 71.37592 79.75919 75.56756
# Shear Modulus (GPa) = 37.54022 40.34788 38.94405
#
# Velocity S-wave (km/s) = 3.90335 4.04669 3.97567
# Velocity P-wave (km/s) = 7.02023 7.36244 7.19337
#
# Compressibility (1/GPa) = 0.01401033
#
# Stress axis : x y z
#
# Youngs Moduli (GPa) = 135.27889 72.82051 110.10930
#
# Poissons Ratio (x) = 0.10145 0.23255
# Poissons Ratio (y) = 0.18846 0.50572
# Poissons Ratio (z) = 0.28571 0.33446
#
# Static dielectric constant tensor:
#      x y z
#    x 4.926550 0.000000 -0.208490 
#    y 0.000000 4.154830 0.000000 
#    z -0.208490 0.000000 4.463850 
# 
# 
# High freq. dielectric constant tensor:
#      x y z
#    x 1.996040 0.000000 -0.005720 
#    y 0.000000 1.970370 0.000000 
#    z -0.005720 0.000000 1.990600 
# 
# From -- ./inp_files/64406.got.cif
#   From: 2010.06.25/outbox.cif.g09.slc.cpg/sg13_33_cif.got.tgz:64406.got - 2010.06.28 04:50:58.
