data_PCOD8123365
_publ_section_title
;
Structure prediction by ZEFSAII (Michael W. Deem and Ramdas Pophale) SiO2 
 PCOD8123365
Probable space group: P 21/C
;
_chemical_formula_sum "Si O2"
_cell_formula_units_Z 24
_cell_length_a 12.131951
_cell_length_b 12.189219
_cell_length_c 8.259679
_cell_angle_alpha 90.000000
_cell_angle_beta 91.036167
_cell_angle_gamma 90.000000
_cell_volume 1221.233404
_symmetry_space_group_name_H-M "P 21/C"
_symmetry_group_IT_number 14
_symmetry_cell_setting 'monoclinic'
loop_
_space_group_symop_operation_xyz
x,y,z
-x,1/2+y,1/2-z
-x,-y,-z
x,1/2-y,1/2+z
loop_
_atom_site_type_symbol
_atom_site_label
_atom_site_fract_x
_atom_site_fract_y
_atom_site_fract_z
Si Si1 0.478097 0.157243 0.074077
Si Si2 0.320365 0.967388 0.062555
Si Si3 0.870749 0.202587 0.350854
Si Si4 0.739080 0.355486 0.132887
Si Si5 0.480100 0.874802 0.550341
Si Si6 0.916235 0.092657 0.046528
O O1 0.512695 0.135911 0.258579
O O2 0.368830 0.087501 0.028591
O O3 0.582146 0.120656 0.966214
O O4 0.441421 0.283194 0.033548
O O5 0.282956 0.959270 0.251033
O O6 0.211072 0.948378 0.952933
O O7 0.766174 0.248824 0.243863
O O8 0.836743 0.126839 0.503549
O O9 0.945548 0.131628 0.230319
O O10 0.935183 0.309082 0.419448
O O11 0.635855 0.331446 0.017631
O O12 0.500000 0.000000 0.500000
O O13 0.000000 0.000000 0.000000
#
# Coordination Sequence:
#
# PCOD8123365 Si02
#       6
#     4   4   4   4   4   4
#     4  11  23  37  55  85 126 156 200 240 290 355
#     4  10  21  38  59  85 118 156 194 249 297 340
#     4   9  19  35  63  85 112 146 203 245 279 348
#     4  10  17  34  55  85 109 151 200 239 277 340
#     4  12  22  34  57  84 118 161 198 237 293 348
#     4  10  20  39  64  88 114 151 197 243 300 343
#
# _framework density 19.652263000000001
#
# number of rings (size 3 to 8) (size 9 to 14) (size 15 to 20)
#    0.000    1.667    1.667    6.000    2.333    0.000 
#    0.000    9.167    0.000    0.000    0.000    0.000 
#    0.000    0.000    0.000    0.000    0.000    0.000 
#
# Total GULP energy -297327.367009 kJ/mol
# GULP energy per Si atom -12388.640292 kJ/mol
# Density = 1.960753 g / cm^3
# Si number density = 19.652263 Si / 1000 Ang^3
#
#
#
# Elastic Constant Matrix: (Units=GPa)
#
#
# Indices 1 2 3 4 5 6 
#
# 1 62.5552 43.6240 31.1788 0.0000 -17.4387 0.0000
# 2 43.6240 154.5997 61.5086 0.0000 -25.7391 0.0000
# 3 31.1788 61.5086 139.0662 0.0000 -20.6567 0.0000
# 4 0.0000 0.0000 0.0000 28.0474 0.0000 -9.3458
# 5 -17.4387 -25.7391 -20.6567 0.0000 22.1737 0.0000
# 6 0.0000 0.0000 0.0000 -9.3458 0.0000 20.9374
#
#
#
# Elastic Compliance Matrix: (Units=1/GPa)
#
#
# Indices 1 2 3 4 5 6 
#
# 1 0.022788 -0.003773 -0.001658 0.000000 0.011997 0.000000
# 2 -0.003773 0.009477 -0.002498 0.000000 0.005706 0.000000
# 3 -0.001658 -0.002498 0.009335 0.000000 0.004492 0.000000
# 4 0.000000 0.000000 0.000000 0.041884 0.000000 0.018696
# 5 0.011997 0.005706 0.004492 0.000000 0.065342 0.000000
# 6 0.000000 0.000000 0.000000 0.018696 0.000000 0.056107
#
#
# Mechanical properties :
#
#
# Convention : Reuss Voigt Hill
#
# Bulk Modulus (GPa) = 38.84851 69.87155 54.36003
# Shear Modulus (GPa) = 21.79868 28.89233 25.34550
#
# Velocity S-wave (km/s) = 3.33411 3.83845 3.59513
# Velocity P-wave (km/s) = 5.88494 7.43479 6.70480
#
# Compressibility (1/GPa) = 0.02574101
#
# Stress axis : x y z
#
# Youngs Moduli (GPa) = 43.88253 105.52016 107.12637
#
# Poissons Ratio (x) = 0.39813 0.17764
# Poissons Ratio (y) = 0.16557 0.26761
# Poissons Ratio (z) = 0.07277 0.26360
#
# Static dielectric constant tensor:
#      x y z
#    x 3.236220 0.000000 -0.032650 
#    y 0.000000 3.726630 0.000000 
#    z -0.032650 0.000000 3.982420 
# 
# 
# High freq. dielectric constant tensor:
#      x y z
#    x 1.717920 0.000000 -0.001030 
#    y 0.000000 1.754830 0.000000 
#    z -0.001030 0.000000 1.789280 
# 
# From -- ./inp_files/12438.got.cif
#   From: 2010.03.12/outbox.cif.g09.slc.cpg/sg14_7_cif.got.tgz:12438.got - 2010.03.31 13:35:05.
