data_PCOD8123050
_publ_section_title
;
Structure prediction by ZEFSAII (Michael W. Deem and Ramdas Pophale) SiO2 
 PCOD8123050
Probable space group: P 2/C
;
_chemical_formula_sum "Si O2"
_cell_formula_units_Z 20
_cell_length_a 10.405323
_cell_length_b 5.003130
_cell_length_c 25.572720
_cell_angle_alpha 90.000000
_cell_angle_beta 134.787322
_cell_angle_gamma 90.000000
_cell_volume 944.855470
_symmetry_space_group_name_H-M "P 2/C"
_symmetry_group_IT_number 13
_symmetry_cell_setting 'monoclinic'
loop_
_space_group_symop_operation_xyz
x,y,z
-x,y,1/2-z
-x,-y,-z
x,-y,1/2+z
loop_
_atom_site_type_symbol
_atom_site_label
_atom_site_fract_x
_atom_site_fract_y
_atom_site_fract_z
Si Si1 0.873214 0.167287 0.264731
Si Si2 0.580975 0.304107 0.567170
Si Si3 0.500895 0.791272 0.605531
Si Si4 0.026251 0.679314 0.360785
Si Si5 0.095055 0.249477 0.002310
O O1 0.662261 0.135446 0.190567
O O2 0.000000 0.181109 0.250000
O O3 0.926355 0.403598 0.319444
O O4 0.892172 0.906534 0.304664
O O5 0.500000 0.500000 0.500000
O O6 0.539415 0.479819 0.605793
O O7 0.794093 0.280968 0.621851
O O8 0.499452 0.002390 0.554514
O O9 0.305977 0.791715 0.577195
O O10 0.077442 0.714453 0.435479
O O11 0.000000 0.500000 0.000000
O O12 0.000000 0.000000 0.000000
#
# Coordination Sequence:
#
# PCOD8123050 Si02
#       5
#     4   4   4   4   4
#     4  12  23  41  66 110 142 167 206 278 371 422
#     4  12  22  37  68 107 134 168 217 286 353 405
#     4  12  25  41  69 100 141 171 222 282 343 410
#     4  12  24  42  69 100 141 173 219 281 344 413
#     4  12  28  49  67  92 131 189 242 276 313 387
#
# _framework density 21.167259000000001
#
# number of rings (size 3 to 8) (size 9 to 14) (size 15 to 20)
#    0.000    0.000    6.000    4.800    2.800    0.000 
#    0.000    6.000    0.000    0.000    0.000    0.000 
#    0.000    0.000    0.000    0.000    0.000    0.000 
#
# Total GULP energy -247831.179392 kJ/mol
# GULP energy per Si atom -12391.558970 kJ/mol
# Density = 2.111908 g / cm^3
# Si number density = 21.167259 Si / 1000 Ang^3
#
#
#
# Elastic Constant Matrix: (Units=GPa)
#
#
# Indices 1 2 3 4 5 6 
#
# 1 127.5229 56.8021 50.6769 0.0000 40.2488 0.0000
# 2 56.8021 196.1576 44.6224 0.0000 13.3969 0.0000
# 3 50.6769 44.6224 116.9706 0.0000 37.7665 0.0000
# 4 0.0000 0.0000 0.0000 36.1273 0.0000 -4.5934
# 5 40.2488 13.3969 37.7665 0.0000 32.0845 0.0000
# 6 0.0000 0.0000 0.0000 -4.5934 0.0000 48.1189
#
#
#
# Elastic Compliance Matrix: (Units=1/GPa)
#
#
# Indices 1 2 3 4 5 6 
#
# 1 0.014593 -0.003152 0.000590 0.000000 -0.017685 0.000000
# 2 -0.003152 0.006265 -0.002349 0.000000 0.004104 0.000000
# 3 0.000590 -0.002349 0.014698 0.000000 -0.017060 0.000000
# 4 0.000000 0.000000 0.000000 0.028020 0.000000 0.002675
# 5 -0.017685 0.004104 -0.017060 0.000000 0.071721 0.000000
# 6 0.000000 0.000000 0.000000 0.002675 0.000000 0.021037
#
#
# Mechanical properties :
#
#
# Convention : Reuss Voigt Hill
#
# Bulk Modulus (GPa) = 38.86044 82.76156 60.81100
# Shear Modulus (GPa) = 28.61495 42.50280 35.55888
#
# Velocity S-wave (km/s) = 3.68074 4.48588 4.10310
# Velocity P-wave (km/s) = 6.03841 8.12493 7.15810
#
# Compressibility (1/GPa) = 0.02573311
#
# Stress axis : x y z
#
# Youngs Moduli (GPa) = 68.52634 159.62025 68.03652
#
# Poissons Ratio (x) = 0.50315 -0.04015
# Poissons Ratio (y) = 0.21601 0.15983
# Poissons Ratio (z) = -0.04044 0.37499
#
# Static dielectric constant tensor:
#      x y z
#    x 3.748000 0.000000 0.072230 
#    y 0.000000 4.399260 0.000000 
#    z 0.072230 0.000000 3.882040 
# 
# 
# High freq. dielectric constant tensor:
#      x y z
#    x 1.805540 0.000000 0.013840 
#    y 0.000000 1.861350 0.000000 
#    z 0.013840 0.000000 1.838900 
# 
# From -- ./inp_files/69135.got.cif
#   From: 2010.06.25/outbox.cif.g09.slc.cpg/sg13_35_cif.got.tgz:69135.got - 2010.06.28 04:50:58.
