data_PCOD8123227
_publ_section_title
;
Structure prediction by ZEFSAII (Michael W. Deem and Ramdas Pophale) SiO2 
 PCOD8123227
Probable space group: P 2/C
;
_chemical_formula_sum "Si O2"
_cell_formula_units_Z 32
_cell_length_a 12.267855
_cell_length_b 9.182251
_cell_length_c 28.774640
_cell_angle_alpha 90.000000
_cell_angle_beta 148.486810
_cell_angle_gamma 90.000000
_cell_volume 1694.243792
_symmetry_space_group_name_H-M "P 2/C"
_symmetry_group_IT_number 13
_symmetry_cell_setting 'monoclinic'
loop_
_space_group_symop_operation_xyz
x,y,z
-x,y,1/2-z
-x,-y,-z
x,-y,1/2+z
loop_
_atom_site_type_symbol
_atom_site_label
_atom_site_fract_x
_atom_site_fract_y
_atom_site_fract_z
Si Si1 0.379614 0.172297 0.000249
Si Si2 0.379615 0.172296 0.500250
Si Si3 0.081627 0.829135 0.647487
Si Si4 0.510760 0.829236 0.648464
Si Si5 0.710528 0.663612 0.355418
Si Si6 0.081628 0.170857 0.647487
Si Si7 0.510761 0.170757 0.648464
Si Si8 0.289471 0.336397 0.144582
O O1 0.494744 0.222238 0.089304
O O2 0.388600 0.000001 0.999604
O O3 0.499998 0.242852 0.999999
O O4 0.138987 0.223294 0.911943
O O5 0.494746 0.222232 0.589305
O O6 0.138990 0.223297 0.411944
O O7 0.259025 0.788436 0.749492
O O8 0.114569 0.746929 0.610691
O O9 0.082729 0.999996 0.636709
O O10 0.330059 0.746613 0.611132
O O11 0.466325 0.999996 0.637833
O O12 0.500000 0.663465 0.250000
O O13 0.885430 0.746940 0.389309
O O14 0.669942 0.746621 0.388869
O O15 0.787508 0.500005 0.393908
O O16 0.259025 0.211556 0.749492
O O17 0.500000 0.336548 0.250000
#
# Coordination Sequence:
#
# PCOD8123227 Si02
#       8
#     4   4   4   4   4   4   4   4
#     4   9  18  31  47  70  96 121 156 197 230 267
#     4   9  18  31  47  70  96 121 156 197 230 267
#     4   9  17  30  49  71  95 123 153 188 231 276
#     4   9  17  30  49  71  95 123 153 188 231 276
#     4   9  17  30  49  72  97 123 152 189 233 280
#     4   9  17  30  49  71  95 123 153 188 231 276
#     4   9  17  30  49  71  95 123 153 188 231 276
#     4   9  17  30  49  72  97 123 152 189 233 280
#
# _framework density 18.887481000000001
#
# number of rings (size 3 to 8) (size 9 to 14) (size 15 to 20)
#    0.000    3.000    0.000    0.750    0.000    5.000 
#    0.000   11.250    0.000    3.000    0.000    7.000 
#    0.000    0.000    0.000    0.000    0.000    0.000 
#
# Total GULP energy -396729.061555 kJ/mol
# GULP energy per Si atom -12397.783174 kJ/mol
# Density = 1.884449 g / cm^3
# Si number density = 18.887481 Si / 1000 Ang^3
#
#
#
# Elastic Constant Matrix: (Units=GPa)
#
#
# Indices 1 2 3 4 5 6 
#
# 1 202.5363 51.3331 80.3347 0.0000 12.1551 0.0000
# 2 51.3331 55.8379 26.6391 0.0000 2.5795 0.0000
# 3 80.3347 26.6391 101.7282 0.0000 4.9415 0.0000
# 4 0.0000 0.0000 0.0000 7.1416 0.0000 -0.2532
# 5 12.1551 2.5795 4.9415 0.0000 13.7984 0.0000
# 6 0.0000 0.0000 0.0000 -0.2532 0.0000 4.0159
#
#
#
# Elastic Compliance Matrix: (Units=1/GPa)
#
#
# Indices 1 2 3 4 5 6 
#
# 1 0.008606 -0.005211 -0.005201 0.000000 -0.004744 0.000000
# 2 -0.005211 0.023672 -0.002129 0.000000 0.000927 0.000000
# 3 -0.005201 -0.002129 0.014505 0.000000 -0.000215 0.000000
# 4 0.000000 0.000000 0.000000 0.140339 0.000000 0.008849
# 5 -0.004744 0.000927 -0.000215 0.000000 0.076555 0.000000
# 6 0.000000 0.000000 0.000000 0.008849 0.000000 0.249565
#
#
# Mechanical properties :
#
#
# Convention : Reuss Voigt Hill
#
# Bulk Modulus (GPa) = 46.07935 75.19069 60.63502
# Shear Modulus (GPa) = 9.16492 18.44421 13.80457
#
# Velocity S-wave (km/s) = 2.20520 3.12834 2.70642
# Velocity P-wave (km/s) = 5.56180 7.27632 6.47605
#
# Compressibility (1/GPa) = 0.02170170
#
# Stress axis : x y z
#
# Youngs Moduli (GPa) = 116.20110 42.24320 68.94081
#
# Poissons Ratio (x) = 0.22013 0.35856
# Poissons Ratio (y) = 0.60553 0.14677
# Poissons Ratio (z) = 0.60435 0.08993
#
# Static dielectric constant tensor:
#      x y z
#    x 3.744020 0.000000 0.023220 
#    y 0.000000 3.256780 0.000000 
#    z 0.023220 0.000000 3.447070 
# 
# 
# High freq. dielectric constant tensor:
#      x y z
#    x 1.732780 0.000000 -0.000110 
#    y 0.000000 1.697840 0.000000 
#    z -0.000110 0.000000 1.734330 
# 
# From -- ./inp_files/93543.got.cif
#   From: 2010.06.25/outbox.cif.g09.slc.cpg/sg13_47_cif.got.tgz:93543.got - 2010.06.28 04:50:58.
