data_PCOD8123265
_publ_section_title
;
Structure prediction by ZEFSAII (Michael W. Deem and Ramdas Pophale) SiO2 
 PCOD8123265
Probable space group: P 21/C
;
_chemical_formula_sum "Si O2"
_cell_formula_units_Z 28
_cell_length_a 18.869058
_cell_length_b 16.461337
_cell_length_c 8.315996
_cell_angle_alpha 90.000000
_cell_angle_beta 148.257938
_cell_angle_gamma 90.000000
_cell_volume 1358.922488
_symmetry_space_group_name_H-M "P 21/C"
_symmetry_group_IT_number 14
_symmetry_cell_setting 'monoclinic'
loop_
_space_group_symop_operation_xyz
x,y,z
-x,1/2+y,1/2-z
-x,-y,-z
x,1/2-y,1/2+z
loop_
_atom_site_type_symbol
_atom_site_label
_atom_site_fract_x
_atom_site_fract_y
_atom_site_fract_z
Si Si1 0.193286 0.222577 0.351295
Si Si2 0.910460 0.160989 0.812287
Si Si3 0.899958 0.891817 0.341380
Si Si4 0.374502 0.645661 0.643893
Si Si5 0.128818 0.555649 0.055801
Si Si6 0.749049 0.286460 0.290544
Si Si7 0.680399 0.847498 0.698496
O O1 0.129388 0.303226 0.138068
O O2 0.294690 0.255714 0.683890
O O3 0.279455 0.160928 0.409731
O O4 0.063925 0.173643 0.165501
O O5 0.901257 0.079285 0.686945
O O6 0.859117 0.235453 0.602352
O O7 0.823458 0.153984 0.807352
O O8 0.039573 0.891298 0.509518
O O9 0.902129 0.960178 0.483463
O O10 0.780006 0.910901 0.980449
O O11 0.284624 0.573609 0.396640
O O12 0.351488 0.728065 0.500165
O O13 0.340620 0.658108 0.766067
O O14 0.529695 0.620448 0.927567
#
# Coordination Sequence:
#
# PCOD8123265 Si02
#       7
#     4   4   4   4   4   4   4
#     4  10  18  32  53  79 103 136 174 221 261 313
#     4  10  16  31  54  78 102 135 176 223 260 306
#     4   9  20  34  55  79 107 143 176 219 272 320
#     4  10  19  32  51  80 105 139 173 221 258 319
#     4  10  19  35  56  77 109 143 179 216 272 321
#     4   9  18  28  51  79 104 128 180 223 257 297
#     4  10  20  32  54  76 106 136 173 216 262 311
#
# _framework density 20.604558999999998
#
# number of rings (size 3 to 8) (size 9 to 14) (size 15 to 20)
#    0.857    1.429    1.429    4.286    0.000    0.571 
#    0.000    0.000    3.143    4.286    0.000    0.000 
#    0.000    0.000    0.000    0.000    0.000    0.000 
#
# Total GULP energy -346987.735593 kJ/mol
# GULP energy per Si atom -12392.419128 kJ/mol
# Density = 2.055766 g / cm^3
# Si number density = 20.604559 Si / 1000 Ang^3
#
#
#
# Elastic Constant Matrix: (Units=GPa)
#
#
# Indices 1 2 3 4 5 6 
#
# 1 78.7864 4.9730 15.0020 0.0000 15.2886 0.0000
# 2 4.9730 28.8346 -8.9942 0.0000 7.1453 0.0000
# 3 15.0020 -8.9942 85.1294 0.0000 29.2710 0.0000
# 4 0.0000 0.0000 0.0000 17.1970 0.0000 -2.7119
# 5 15.2886 7.1453 29.2710 0.0000 36.6357 0.0000
# 6 0.0000 0.0000 0.0000 -2.7119 0.0000 21.2891
#
#
#
# Elastic Compliance Matrix: (Units=1/GPa)
#
#
# Indices 1 2 3 4 5 6 
#
# 1 0.013892 -0.001541 -0.000994 0.000000 -0.004703 0.000000
# 2 -0.001541 0.041942 0.010058 0.000000 -0.015573 0.000000
# 3 -0.000994 0.010058 0.018636 0.000000 -0.016437 0.000000
# 4 0.000000 0.000000 0.000000 0.059342 0.000000 0.007559
# 5 -0.004703 -0.015573 -0.016437 0.000000 0.045428 0.000000
# 6 0.000000 0.000000 0.000000 0.007559 0.000000 0.047935
#
#
# Mechanical properties :
#
#
# Convention : Reuss Voigt Hill
#
# Bulk Modulus (GPa) = 11.17112 23.85690 17.51401
# Shear Modulus (GPa) = 20.66386 27.14231 23.90308
#
# Velocity S-wave (km/s) = 3.17026 3.63339 3.40970
# Velocity P-wave (km/s) = 4.33984 5.40423 4.90101
#
# Compressibility (1/GPa) = 0.08951651
#
# Stress axis : x y z
#
# Youngs Moduli (GPa) = 71.98602 23.84220 53.65898
#
# Poissons Ratio (x) = 0.03673 0.05333
# Poissons Ratio (y) = 0.11090 -0.53968
# Poissons Ratio (z) = 0.07154 -0.23979
#
# Static dielectric constant tensor:
#      x y z
#    x 3.622760 0.000000 -0.026180 
#    y 0.000000 3.212540 0.000000 
#    z -0.026180 0.000000 3.570010 
# 
# 
# High freq. dielectric constant tensor:
#      x y z
#    x 1.803170 0.000000 0.002330 
#    y 0.000000 1.760870 0.000000 
#    z 0.002330 0.000000 1.799530 
# 
# From -- ./inp_files/16750.got.cif
#   From: 2010.03.12/outbox.cif.g09.slc.cpg/sg14_9_cif.got.tgz:16750.got - 2010.03.31 13:35:05.
