data_PCOD8123382
_publ_section_title
;
Structure prediction by ZEFSAII (Michael W. Deem and Ramdas Pophale) SiO2 
 PCOD8123382
Probable space group: P 21/C
;
_chemical_formula_sum "Si O2"
_cell_formula_units_Z 32
_cell_length_a 9.656539
_cell_length_b 11.243498
_cell_length_c 31.790089
_cell_angle_alpha 90.000000
_cell_angle_beta 27.098067
_cell_angle_gamma 90.000000
_cell_volume 1572.234247
_symmetry_space_group_name_H-M "P 21/C"
_symmetry_group_IT_number 14
_symmetry_cell_setting 'monoclinic'
loop_
_space_group_symop_operation_xyz
x,y,z
-x,1/2+y,1/2-z
-x,-y,-z
x,1/2-y,1/2+z
loop_
_atom_site_type_symbol
_atom_site_label
_atom_site_fract_x
_atom_site_fract_y
_atom_site_fract_z
Si Si1 0.803194 0.144123 0.802433
Si Si2 0.761586 0.385381 0.450465
Si Si3 0.555871 0.181116 0.308299
Si Si4 0.439811 0.546046 0.357340
Si Si5 0.324299 0.144685 0.001086
Si Si6 0.736221 0.585200 0.754031
Si Si7 0.362089 0.718226 0.311381
Si Si8 0.004296 0.324760 0.465878
O O1 0.819064 0.243732 0.761413
O O2 0.121737 0.141196 0.741556
O O3 0.728749 0.012944 0.802763
O O4 0.527752 0.186132 0.907080
O O5 0.671807 0.501061 0.501980
O O6 0.476554 0.321348 0.504805
O O7 0.997250 0.430286 0.351727
O O8 0.892472 0.293121 0.448775
O O9 0.557115 0.220569 0.259310
O O10 0.227757 0.216080 0.417352
O O11 0.602922 0.042418 0.301831
O O12 0.535885 0.607145 0.287053
O O13 0.197342 0.445453 0.412410
O O14 0.280807 0.655297 0.426077
O O15 0.998871 0.205042 0.084528
O O16 0.468474 0.662181 0.805992
#
# Coordination Sequence:
#
# PCOD8123382 Si02
#       8
#     4   4   4   4   4   4   4   4
#     4  10  23  40  63  87 121 160 209 262 295 345
#     4  10  17  34  60  90 116 148 200 264 294 339
#     4  11  23  37  59  90 127 157 201 248 311 366
#     4  10  19  33  61  85 111 151 210 252 293 347
#     4  10  19  35  61  90 115 152 205 257 294 342
#     4  11  24  39  56  94 129 160 196 246 318 369
#     4  12  22  36  60  90 125 158 195 249 313 365
#     4  10  17  35  58  90 111 150 201 261 298 338
#
# _framework density 20.353202
#
# number of rings (size 3 to 8) (size 9 to 14) (size 15 to 20)
#    0.000    1.500    5.000    1.500    3.500    0.000 
#    0.000    2.500    0.000    0.750    0.000    0.000 
#    0.000    0.000    0.000    0.000    0.000    0.000 
#
# Total GULP energy -396605.958983 kJ/mol
# GULP energy per Si atom -12393.936218 kJ/mol
# Density = 2.030688 g / cm^3
# Si number density = 20.353202 Si / 1000 Ang^3
#
#
#
# Elastic Constant Matrix: (Units=GPa)
#
#
# Indices 1 2 3 4 5 6 
#
# 1 156.9883 48.8501 30.3668 0.0000 -11.6501 0.0000
# 2 48.8501 90.4620 29.0948 0.0000 -8.3388 0.0000
# 3 30.3668 29.0948 42.1828 0.0000 -8.9607 0.0000
# 4 0.0000 0.0000 0.0000 24.8587 0.0000 -0.8229
# 5 -11.6501 -8.3388 -8.9607 0.0000 27.6860 0.0000
# 6 0.0000 0.0000 0.0000 -0.8229 0.0000 37.9795
#
#
#
# Elastic Compliance Matrix: (Units=1/GPa)
#
#
# Indices 1 2 3 4 5 6 
#
# 1 0.008108 -0.003172 -0.003358 0.000000 0.001370 0.000000
# 2 -0.003172 0.015483 -0.008256 0.000000 0.000656 0.000000
# 3 -0.003358 -0.008256 0.033278 0.000000 0.006871 0.000000
# 4 0.000000 0.000000 0.000000 0.040256 0.000000 0.000872
# 5 0.001370 0.000656 0.006871 0.000000 0.039117 0.000000
# 6 0.000000 0.000000 0.000000 0.000872 0.000000 0.026349
#
#
# Mechanical properties :
#
#
# Convention : Reuss Voigt Hill
#
# Bulk Modulus (GPa) = 36.63497 56.25073 46.44285
# Shear Modulus (GPa) = 24.84307 30.19295 27.51801
#
# Velocity S-wave (km/s) = 3.49750 3.85574 3.68098
# Velocity P-wave (km/s) = 5.86077 6.89344 6.39798
#
# Compressibility (1/GPa) = 0.02729632
#
# Stress axis : x y z
#
# Youngs Moduli (GPa) = 123.33195 64.58571 30.04999
#
# Poissons Ratio (x) = 0.20488 0.10091
# Poissons Ratio (y) = 0.39123 0.24810
# Poissons Ratio (z) = 0.41416 0.53324
#
# Static dielectric constant tensor:
#      x y z
#    x 4.296190 0.000000 -0.022090 
#    y 0.000000 3.382330 0.000000 
#    z -0.022090 0.000000 3.510140 
# 
# 
# High freq. dielectric constant tensor:
#      x y z
#    x 1.833340 0.000000 0.001860 
#    y 0.000000 1.754140 0.000000 
#    z 0.001860 0.000000 1.763260 
# 
# From -- ./inp_files/79628.got.cif
#   From: 2010.03.12/outbox.cif.g09.slc.cpg/sg14_40_cif.got.tgz:79628.got - 2010.03.31 13:35:05.
