data_PCOD8123116
_publ_section_title
;
Structure prediction by ZEFSAII (Michael W. Deem and Ramdas Pophale) SiO2 
 PCOD8123116
Probable space group: P 2/C
;
_chemical_formula_sum "Si O2"
_cell_formula_units_Z 20
_cell_length_a 10.812041
_cell_length_b 9.455661
_cell_length_c 23.760442
_cell_angle_alpha 90.000000
_cell_angle_beta 20.523397
_cell_angle_gamma 90.000000
_cell_volume 851.634854
_symmetry_space_group_name_H-M "P 2/C"
_symmetry_group_IT_number 13
_symmetry_cell_setting 'monoclinic'
loop_
_space_group_symop_operation_xyz
x,y,z
-x,y,1/2-z
-x,-y,-z
x,-y,1/2+z
loop_
_atom_site_type_symbol
_atom_site_label
_atom_site_fract_x
_atom_site_fract_y
_atom_site_fract_z
Si Si1 0.233317 0.442727 0.205065
Si Si2 0.881462 0.840093 0.560602
Si Si3 0.710894 0.300952 0.514237
Si Si4 0.715601 0.801876 0.510667
Si Si5 0.762639 0.941956 0.298369
O O1 0.395589 0.587862 0.159285
O O2 0.553456 0.338103 0.050636
O O3 0.000000 0.475716 0.250000
O O4 0.016919 0.369498 0.346940
O O5 0.500000 0.838920 0.750000
O O6 0.876066 0.760638 0.502814
O O7 0.150592 0.753108 0.484758
O O8 0.000000 0.000000 0.500000
O O9 0.548570 0.165795 0.550160
O O10 0.017306 0.868135 0.344205
O O11 0.401705 0.914252 0.655304
O O12 0.000000 0.981539 0.250000
#
# Coordination Sequence:
#
# PCOD8123116 Si02
#       5
#     4   4   4   4   4
#     4  12  25  47  72 106 148 190 237 298 361 433
#     4  12  25  48  73 103 143 186 245 296 350 427
#     4  12  26  46  72 103 145 191 243 293 361 426
#     4  12  24  43  71 103 145 189 237 299 359 416
#     4  12  24  43  71 108 141 187 242 296 360 428
#
# _framework density 23.484244
#
# number of rings (size 3 to 8) (size 9 to 14) (size 15 to 20)
#    0.000    0.000    4.000    7.200    0.000    0.800 
#    0.000    0.000    0.000    0.000    0.000    0.000 
#    0.000    0.000    0.000    0.000    0.000    0.000 
#
# Total GULP energy -248149.333754 kJ/mol
# GULP energy per Si atom -12407.466688 kJ/mol
# Density = 2.343079 g / cm^3
# Si number density = 23.484244 Si / 1000 Ang^3
#
#
#
# Elastic Constant Matrix: (Units=GPa)
#
#
# Indices 1 2 3 4 5 6 
#
# 1 160.3406 63.5156 42.9021 0.0000 -14.9006 0.0000
# 2 63.5156 122.6284 12.1243 0.0000 -30.2370 0.0000
# 3 42.9021 12.1243 58.6213 0.0000 -11.7394 0.0000
# 4 0.0000 0.0000 0.0000 44.1999 0.0000 -12.9144
# 5 -14.9006 -30.2370 -11.7394 0.0000 40.7678 0.0000
# 6 0.0000 0.0000 0.0000 -12.9144 0.0000 43.1714
#
#
#
# Elastic Compliance Matrix: (Units=1/GPa)
#
#
# Indices 1 2 3 4 5 6 
#
# 1 0.009725 -0.004870 -0.006496 0.000000 -0.001928 0.000000
# 2 -0.004870 0.012440 0.002635 0.000000 0.008205 0.000000
# 3 -0.006496 0.002635 0.022480 0.000000 0.006053 0.000000
# 4 0.000000 0.000000 0.000000 0.024791 0.000000 0.007416
# 5 -0.001928 0.008205 0.006053 0.000000 0.031653 0.000000
# 6 0.000000 0.000000 0.000000 0.007416 0.000000 0.025382
#
#
# Mechanical properties :
#
#
# Convention : Reuss Voigt Hill
#
# Bulk Modulus (GPa) = 36.78976 64.29713 50.54345
# Shear Modulus (GPa) = 32.68072 40.49770 36.58921
#
# Velocity S-wave (km/s) = 3.73447 4.15717 3.95147
# Velocity P-wave (km/s) = 5.85617 7.10500 6.51060
#
# Compressibility (1/GPa) = 0.02718147
#
# Stress axis : x y z
#
# Youngs Moduli (GPa) = 102.82866 80.38601 44.48378
#
# Poissons Ratio (x) = 0.39150 0.28897
# Poissons Ratio (y) = 0.50080 -0.11720
# Poissons Ratio (z) = 0.66798 -0.21178
#
# Static dielectric constant tensor:
#      x y z
#    x 4.463010 0.000000 -0.247900 
#    y 0.000000 4.462280 0.000000 
#    z -0.247900 0.000000 4.467990 
# 
# 
# High freq. dielectric constant tensor:
#      x y z
#    x 1.932610 0.000000 -0.011550 
#    y 0.000000 1.938140 0.000000 
#    z -0.011550 0.000000 1.947260 
# 
# From -- ./inp_files/92189.got.cif
#   From: 2010.06.25/outbox.cif.g09.slc.cpg/sg13_47_cif.got.tgz:92189.got - 2010.06.28 04:50:58.
