data_PCOD8123660
_publ_section_title
;
Structure prediction by ZEFSAII (Michael W. Deem and Ramdas Pophale) SiO2 
 PCOD8123660
Probable space group: P 21/C
;
_chemical_formula_sum "Si O2"
_cell_formula_units_Z 28
_cell_length_a 8.821645
_cell_length_b 15.898189
_cell_length_c 12.082814
_cell_angle_alpha 90.000000
_cell_angle_beta 120.097809
_cell_angle_gamma 90.000000
_cell_volume 1466.111751
_symmetry_space_group_name_H-M "P 21/C"
_symmetry_group_IT_number 14
_symmetry_cell_setting 'monoclinic'
loop_
_space_group_symop_operation_xyz
x,y,z
-x,1/2+y,1/2-z
-x,-y,-z
x,1/2-y,1/2+z
loop_
_atom_site_type_symbol
_atom_site_label
_atom_site_fract_x
_atom_site_fract_y
_atom_site_fract_z
Si Si1 0.427586 0.462015 0.685592
Si Si2 0.274111 0.079785 0.743412
Si Si3 0.089444 0.505991 0.873493
Si Si4 0.703706 0.845216 0.476975
Si Si5 0.097979 0.544697 0.633165
Si Si6 0.561542 0.085014 0.466479
Si Si7 0.801274 0.841876 0.052793
O O1 0.586862 0.505837 0.678541
O O2 0.304553 0.539802 0.682683
O O3 0.499130 0.409519 0.816862
O O4 0.326487 0.397153 0.570678
O O5 0.347018 0.135989 0.668735
O O6 0.249648 0.140466 0.838864
O O7 0.094409 0.033328 0.639019
O O8 0.155209 0.415538 0.937314
O O9 0.058774 0.494829 0.731567
O O10 0.227036 0.582598 0.949162
O O11 0.530465 0.842951 0.492603
O O12 0.790736 0.754851 0.518514
O O13 0.000000 0.500000 0.500000
O O14 0.008041 0.636641 0.610191
O O15 0.500000 0.000000 0.500000
#
# Coordination Sequence:
#
# PCOD8123660 Si02
#       7
#     4   4   4   4   4   4   4
#     4  11  19  39  61  82 113 158 201 223 284 353
#     4  11  22  38  61  84 115 152 197 239 278 349
#     4  10  19  37  59  86 107 150 206 226 277 347
#     4  11  21  37  59  87 117 149 188 246 294 329
#     4   9  18  35  58  81 112 154 189 223 278 356
#     4  10  18  34  63  84 104 155 199 229 272 352
#     4  10  25  36  56  90 120 146 185 250 299 325
#
# _framework density 19.098134999999999
#
# number of rings (size 3 to 8) (size 9 to 14) (size 15 to 20)
#    0.000    1.714    5.714    0.857    2.000    0.000 
#    0.000    5.714    0.000    0.000    0.000    0.000 
#    0.000    0.000    0.000    0.000    0.000    0.000 
#
# Total GULP energy -346965.902902 kJ/mol
# GULP energy per Si atom -12391.639389 kJ/mol
# Density = 1.905467 g / cm^3
# Si number density = 19.098135 Si / 1000 Ang^3
#
#
#
# Elastic Constant Matrix: (Units=GPa)
#
#
# Indices 1 2 3 4 5 6 
#
# 1 110.5647 40.8585 28.6811 0.0000 16.1652 0.0000
# 2 40.8585 98.6251 36.6728 0.0000 0.5126 0.0000
# 3 28.6811 36.6728 109.6830 0.0000 -4.2134 0.0000
# 4 0.0000 0.0000 0.0000 20.5511 0.0000 1.5622
# 5 16.1652 0.5126 -4.2134 0.0000 26.6706 0.0000
# 6 0.0000 0.0000 0.0000 1.5622 0.0000 21.0015
#
#
#
# Elastic Compliance Matrix: (Units=1/GPa)
#
#
# Indices 1 2 3 4 5 6 
#
# 1 0.012290 -0.004279 -0.002079 0.000000 -0.007695 0.000000
# 2 -0.004279 0.013087 -0.003186 0.000000 0.001838 0.000000
# 3 -0.002079 -0.003186 0.010843 0.000000 0.003034 0.000000
# 4 0.000000 0.000000 0.000000 0.048936 0.000000 -0.003640
# 5 -0.007695 0.001838 0.003034 0.000000 0.042603 0.000000
# 6 0.000000 0.000000 0.000000 -0.003640 0.000000 0.047887
#
#
# Mechanical properties :
#
#
# Convention : Reuss Voigt Hill
#
# Bulk Modulus (GPa) = 58.36848 59.03307 58.70077
# Shear Modulus (GPa) = 24.94478 27.82199 26.38338
#
# Velocity S-wave (km/s) = 3.61797 3.82093 3.72084
# Velocity P-wave (km/s) = 6.93410 7.10236 7.01873
#
# Compressibility (1/GPa) = 0.01713254
#
# Stress axis : x y z
#
# Youngs Moduli (GPa) = 81.36765 76.41073 92.22824
#
# Poissons Ratio (x) = 0.32692 0.19172
# Poissons Ratio (y) = 0.34813 0.29387
# Poissons Ratio (z) = 0.16914 0.24347
#
# Static dielectric constant tensor:
#      x y z
#    x 4.401610 0.000000 0.191860 
#    y 0.000000 3.246430 0.000000 
#    z 0.191860 0.000000 3.787700 
# 
# 
# High freq. dielectric constant tensor:
#      x y z
#    x 1.752290 0.000000 -0.004960 
#    y 0.000000 1.694220 0.000000 
#    z -0.004960 0.000000 1.765280 
# 
# From -- ./inp_files/25377.got.cif
#   From: 2010.03.12/outbox.cif.g09.slc.cpg/sg14_13_cif.got.tgz:25377.got - 2010.03.31 13:35:05.
