data_PCOD8123500
_publ_section_title
;
Structure prediction by ZEFSAII (Michael W. Deem and Ramdas Pophale) SiO2 
 PCOD8123500
Probable space group: P 21/C
;
_chemical_formula_sum "Si O2"
_cell_formula_units_Z 32
_cell_length_a 14.141695
_cell_length_b 13.808480
_cell_length_c 14.839828
_cell_angle_alpha 90.000000
_cell_angle_beta 142.463705
_cell_angle_gamma 90.000000
_cell_volume 1765.556556
_symmetry_space_group_name_H-M "P 21/C"
_symmetry_group_IT_number 14
_symmetry_cell_setting 'monoclinic'
loop_
_space_group_symop_operation_xyz
x,y,z
-x,1/2+y,1/2-z
-x,-y,-z
x,1/2-y,1/2+z
loop_
_atom_site_type_symbol
_atom_site_label
_atom_site_fract_x
_atom_site_fract_y
_atom_site_fract_z
Si Si1 0.658846 0.611975 0.558189
Si Si2 0.763585 0.238513 0.162129
Si Si3 0.464518 0.922930 0.079100
Si Si4 0.437861 0.771967 0.322094
Si Si5 0.046252 0.118823 0.430528
Si Si6 0.710001 0.146763 0.444205
Si Si7 0.042251 0.095607 0.626925
Si Si8 0.623312 0.929906 0.378713
O O1 0.618638 0.525331 0.458761
O O2 0.601170 0.567630 0.609645
O O3 0.576406 0.709026 0.466926
O O4 0.841729 0.634792 0.707783
O O5 0.701485 0.278615 0.211080
O O6 0.941753 0.205027 0.310091
O O7 0.665567 0.148476 0.054516
O O8 0.748526 0.320478 0.074750
O O9 0.549096 0.887469 0.231995
O O10 0.382122 0.726453 0.184498
O O11 0.515156 0.878550 0.372001
O O12 0.095019 0.140280 0.570692
O O13 0.197826 0.106184 0.482068
O O14 0.944712 0.020823 0.359360
O O15 0.868468 0.129356 0.511727
O O16 0.613979 0.046366 0.379066
#
# Coordination Sequence:
#
# PCOD8123500 Si02
#       8
#     4   4   4   4   4   4   4   4
#     4  10  19  31  53  87 113 138 181 241 297 327
#     4  11  22  38  56  83 115 158 193 229 289 348
#     4  10  18  31  57  81 112 141 183 238 289 332
#     4  11  23  37  58  84 112 152 197 239 282 347
#     4  10  20  33  57  84 115 142 182 240 290 336
#     4  11  23  37  58  84 116 155 194 235 289 346
#     4  10  19  33  55  86 114 140 179 241 298 333
#     4  11  22  38  54  87 119 149 193 238 287 343
#
# _framework density 18.124596
#
# number of rings (size 3 to 8) (size 9 to 14) (size 15 to 20)
#    0.000    1.500    6.250    0.000    1.750    0.500 
#    0.000    0.000    0.000    0.000    0.000    4.375 
#    0.000    0.000    0.000    0.000    0.000    0.000 
#
# Total GULP energy -396636.941796 kJ/mol
# GULP energy per Si atom -12394.904431 kJ/mol
# Density = 1.808334 g / cm^3
# Si number density = 18.124596 Si / 1000 Ang^3
#
#
#
# Elastic Constant Matrix: (Units=GPa)
#
#
# Indices 1 2 3 4 5 6 
#
# 1 51.3648 31.2147 18.9928 0.0000 -8.1524 0.0000
# 2 31.2147 61.9858 19.2799 0.0000 -4.4534 0.0000
# 3 18.9928 19.2799 92.1678 0.0000 -0.0870 0.0000
# 4 0.0000 0.0000 0.0000 26.0288 0.0000 -0.8211
# 5 -8.1524 -4.4534 -0.0870 0.0000 23.7441 0.0000
# 6 0.0000 0.0000 0.0000 -0.8211 0.0000 27.8770
#
#
#
# Elastic Compliance Matrix: (Units=1/GPa)
#
#
# Indices 1 2 3 4 5 6 
#
# 1 0.030228 -0.013611 -0.003374 0.000000 0.007813 0.000000
# 2 -0.013611 0.023635 -0.002139 0.000000 -0.000248 0.000000
# 3 -0.003374 -0.002139 0.011991 0.000000 -0.001516 0.000000
# 4 0.000000 0.000000 0.000000 0.038455 0.000000 0.001133
# 5 0.007813 -0.000248 -0.001516 0.000000 0.044746 0.000000
# 6 0.000000 0.000000 0.000000 0.001133 0.000000 0.035905
#
#
# Mechanical properties :
#
#
# Convention : Reuss Voigt Hill
#
# Bulk Modulus (GPa) = 36.22680 38.27702 37.25191
# Shear Modulus (GPa) = 21.51356 24.59869 23.05613
#
# Velocity S-wave (km/s) = 3.44900 3.68802 3.57051
# Velocity P-wave (km/s) = 5.99098 6.26897 6.13155
#
# Compressibility (1/GPa) = 0.02760387
#
# Stress axis : x y z
#
# Youngs Moduli (GPa) = 33.08186 42.31077 83.39433
#
# Poissons Ratio (x) = 0.57590 0.28141
# Poissons Ratio (y) = 0.45029 0.17841
# Poissons Ratio (z) = 0.11163 0.09052
#
# Static dielectric constant tensor:
#      x y z
#    x 3.209520 0.000000 0.022840 
#    y 0.000000 3.219350 0.000000 
#    z 0.022840 0.000000 3.399330 
# 
# 
# High freq. dielectric constant tensor:
#      x y z
#    x 1.679030 0.000000 0.007100 
#    y 0.000000 1.682040 0.000000 
#    z 0.007100 0.000000 1.715950 
# 
# From -- ./inp_files/40993.got.cif
#   From: 2010.03.12/outbox.cif.g09.slc.cpg/sg14_21_cif.got.tgz:40993.got - 2010.03.31 13:35:05.
