data_PCOD8123065
_publ_section_title
;
Structure prediction by ZEFSAII (Michael W. Deem and Ramdas Pophale) SiO2 
 PCOD8123065
Probable space group: P 2/C
;
_chemical_formula_sum "Si O2"
_cell_formula_units_Z 22
_cell_length_a 21.745855
_cell_length_b 8.636602
_cell_length_c 8.684212
_cell_angle_alpha 90.000000
_cell_angle_beta 145.606514
_cell_angle_gamma 90.000000
_cell_volume 921.299373
_symmetry_space_group_name_H-M "P 2/C"
_symmetry_group_IT_number 13
_symmetry_cell_setting 'monoclinic'
loop_
_space_group_symop_operation_xyz
x,y,z
-x,y,1/2-z
-x,-y,-z
x,-y,1/2+z
loop_
_atom_site_type_symbol
_atom_site_label
_atom_site_fract_x
_atom_site_fract_y
_atom_site_fract_z
Si Si1 0.828485 0.074850 0.747840
Si Si2 0.114855 0.781751 0.454757
Si Si3 0.306991 0.592295 0.993665
Si Si4 0.711781 0.288688 0.714454
Si Si5 0.500000 0.251610 0.750000
Si Si6 0.610116 0.995600 0.136964
O O1 0.883864 0.158349 0.718312
O O2 0.816454 0.194705 0.866325
O O3 0.892716 0.927510 0.944086
O O4 0.711151 0.005327 0.459672
O O5 0.217298 0.669609 0.695938
O O6 0.000000 0.693011 0.250000
O O7 0.318770 0.410018 0.982150
O O8 0.264867 0.617312 0.080318
O O9 0.433115 0.649007 0.237213
O O10 0.617554 0.160745 0.550102
O O11 0.397345 0.149127 0.481267
O O12 0.500000 0.000000 0.000000
#
# Coordination Sequence:
#
# PCOD8123065 Si02
#       6
#     4   4   4   4   2   4
#     4  12  23  45  73 107 141 191 250 305 360 426
#     4  12  24  46  74 109 148 190 249 308 363 434
#     4  12  26  47  66 109 146 195 238 294 379 436
#     4  12  26  46  73 102 155 186 244 303 365 444
#     4  12  24  44  74 102 146 188 242 298 354 436
#     4  12  22  42  73 105 140 189 245 294 354 423
#
# _framework density 23.879317
#
# number of rings (size 3 to 8) (size 9 to 14) (size 15 to 20)
#    0.000    0.000    7.273    2.727    0.000    2.909 
#    0.000    4.545    0.000    0.000    0.000    0.000 
#    0.000    0.000    0.000    0.000    0.000    0.000 
#
# Total GULP energy -272612.262724 kJ/mol
# GULP energy per Si atom -12391.466487 kJ/mol
# Density = 2.382497 g / cm^3
# Si number density = 23.879317 Si / 1000 Ang^3
#
#
#
# Elastic Constant Matrix: (Units=GPa)
#
#
# Indices 1 2 3 4 5 6 
#
# 1 132.0998 23.8123 34.1762 0.0000 9.0329 0.0000
# 2 23.8123 113.6626 18.5419 0.0000 5.8878 0.0000
# 3 34.1762 18.5419 64.5344 0.0000 9.4517 0.0000
# 4 0.0000 0.0000 0.0000 25.8326 0.0000 -15.4345
# 5 9.0329 5.8878 9.4517 0.0000 37.8246 0.0000
# 6 0.0000 0.0000 0.0000 -15.4345 0.0000 45.2468
#
#
#
# Elastic Compliance Matrix: (Units=1/GPa)
#
#
# Indices 1 2 3 4 5 6 
#
# 1 0.008942 -0.001129 -0.004281 0.000000 -0.000890 0.000000
# 2 -0.001129 0.009397 -0.002000 0.000000 -0.000693 0.000000
# 3 -0.004281 -0.002000 0.018831 0.000000 -0.003372 0.000000
# 4 0.000000 0.000000 0.000000 0.048620 0.000000 0.016585
# 5 -0.000890 -0.000693 -0.003372 0.000000 0.027601 0.000000
# 6 0.000000 0.000000 0.000000 0.016585 0.000000 0.027759
#
#
# Mechanical properties :
#
#
# Convention : Reuss Voigt Hill
#
# Bulk Modulus (GPa) = 44.74352 51.48419 48.11385
# Shear Modulus (GPa) = 30.59610 37.36521 33.98066
#
# Velocity S-wave (km/s) = 3.58338 3.95999 3.77638
# Velocity P-wave (km/s) = 5.99157 6.52040 6.26157
#
# Compressibility (1/GPa) = 0.02234960
#
# Stress axis : x y z
#
# Youngs Moduli (GPa) = 111.83326 106.42011 53.10318
#
# Poissons Ratio (x) = 0.12014 0.22732
# Poissons Ratio (y) = 0.12625 0.10623
# Poissons Ratio (z) = 0.47873 0.21289
#
# Static dielectric constant tensor:
#      x y z
#    x 4.437430 0.000000 -0.102550 
#    y 0.000000 5.306400 0.000000 
#    z -0.102550 0.000000 3.594080 
# 
# 
# High freq. dielectric constant tensor:
#      x y z
#    x 1.968900 0.000000 -0.007730 
#    y 0.000000 1.946440 0.000000 
#    z -0.007730 0.000000 1.916890 
# 
# From -- ./inp_files/22892.got.cif
#   From: 2010.06.25/outbox.cif.g09.slc.cpg/sg13_12_cif.got.tgz:22892.got - 2010.06.28 04:50:58.
