data_PCOD8123497
_publ_section_title
;
Structure prediction by ZEFSAII (Michael W. Deem and Ramdas Pophale) SiO2 
 PCOD8123497
Probable space group: P 21/C
;
_chemical_formula_sum "Si O2"
_cell_formula_units_Z 32
_cell_length_a 9.611531
_cell_length_b 9.453993
_cell_length_c 20.706686
_cell_angle_alpha 90.000000
_cell_angle_beta 88.882631
_cell_angle_gamma 90.000000
_cell_volume 1881.203832
_symmetry_space_group_name_H-M "P 21/C"
_symmetry_group_IT_number 14
_symmetry_cell_setting 'monoclinic'
loop_
_space_group_symop_operation_xyz
x,y,z
-x,1/2+y,1/2-z
-x,-y,-z
x,1/2-y,1/2+z
loop_
_atom_site_type_symbol
_atom_site_label
_atom_site_fract_x
_atom_site_fract_y
_atom_site_fract_z
Si Si1 0.738292 0.271124 0.749872
Si Si2 0.634050 0.079194 0.070300
Si Si3 0.482273 0.678412 0.841877
Si Si4 0.478811 0.631616 0.153810
Si Si5 0.715791 0.733993 0.240857
Si Si6 0.140725 0.007675 0.829491
Si Si7 0.827817 0.015001 0.825924
Si Si8 0.618740 0.383276 0.429093
O O1 0.653271 0.169920 0.702105
O O2 0.626744 0.374530 0.784933
O O3 0.849915 0.370457 0.715453
O O4 0.822697 0.170501 0.795853
O O5 0.545350 0.203526 0.104261
O O6 0.762824 0.019695 0.109618
O O7 0.533731 0.947029 0.062301
O O8 0.687389 0.131957 0.999575
O O9 0.501289 0.525433 0.875282
O O10 0.619221 0.707673 0.798770
O O11 0.625979 0.687548 0.179457
O O12 0.407057 0.728817 0.100465
O O13 0.801511 0.604721 0.272017
O O14 0.819854 0.853291 0.212296
O O15 0.981650 0.007760 0.854811
O O16 0.713829 0.013518 0.884190
#
# Coordination Sequence:
#
# PCOD8123497 Si02
#       8
#     4   4   4   4   4   4   4   4
#     4   9  19  30  48  80 106 132 170 212 260 324
#     4  10  21  37  55  77 103 139 185 219 249 303
#     4  10  18  31  55  78 104 135 171 217 265 306
#     4  10  18  31  55  78 104 135 171 217 265 306
#     4  11  19  32  52  84 108 136 166 214 268 320
#     4  11  21  34  53  79 109 140 170 212 266 314
#     4  11  21  34  53  79 109 140 170 212 266 314
#     4  10  21  37  55  77 103 139 185 219 249 303
#
# _framework density 17.010384999999999
#
# number of rings (size 3 to 8) (size 9 to 14) (size 15 to 20)
#    0.000    1.750    5.000    0.750    0.000    1.000 
#    0.000    0.000    0.000    0.000    0.000    1.750 
#    0.000    0.000    0.000    0.000    0.000    0.000 
#
# Total GULP energy -396635.208508 kJ/mol
# GULP energy per Si atom -12394.850266 kJ/mol
# Density = 1.697167 g / cm^3
# Si number density = 17.010385 Si / 1000 Ang^3
#
#
#
# Elastic Constant Matrix: (Units=GPa)
#
#
# Indices 1 2 3 4 5 6 
#
# 1 73.8853 23.2307 17.6817 0.0000 8.7883 0.0000
# 2 23.2307 79.4687 25.5063 0.0000 8.2255 0.0000
# 3 17.6817 25.5063 86.5207 0.0000 2.6251 0.0000
# 4 0.0000 0.0000 0.0000 17.4486 0.0000 -0.6872
# 5 8.7883 8.2255 2.6251 0.0000 12.0549 0.0000
# 6 0.0000 0.0000 0.0000 -0.6872 0.0000 20.6876
#
#
#
# Elastic Compliance Matrix: (Units=1/GPa)
#
#
# Indices 1 2 3 4 5 6 
#
# 1 0.016098 -0.003081 -0.002103 0.000000 -0.009175 0.000000
# 2 -0.003081 0.015446 -0.003697 0.000000 -0.007488 0.000000
# 3 -0.002103 -0.003697 0.013041 0.000000 0.001216 0.000000
# 4 0.000000 0.000000 0.000000 0.057386 0.000000 0.001906
# 5 -0.009175 -0.007488 0.001216 0.000000 0.094488 0.000000
# 6 0.000000 0.000000 0.000000 0.001906 0.000000 0.048402
#
#
# Mechanical properties :
#
#
# Convention : Reuss Voigt Hill
#
# Bulk Modulus (GPa) = 37.28185 41.41245 39.34715
# Shear Modulus (GPa) = 18.41199 21.60195 20.00697
#
# Velocity S-wave (km/s) = 3.29355 3.56747 3.43324
# Velocity P-wave (km/s) = 6.03556 6.43175 6.23680
#
# Compressibility (1/GPa) = 0.02682271
#
# Stress axis : x y z
#
# Youngs Moduli (GPa) = 62.11994 64.74265 76.68367
#
# Poissons Ratio (x) = 0.19948 0.16128
# Poissons Ratio (y) = 0.19140 0.28346
# Poissons Ratio (z) = 0.13065 0.23932
#
# Static dielectric constant tensor:
#      x y z
#    x 3.036080 0.000000 -0.018420 
#    y 0.000000 3.153190 0.000000 
#    z -0.018420 0.000000 3.139680 
# 
# 
# High freq. dielectric constant tensor:
#      x y z
#    x 1.645300 0.000000 0.003210 
#    y 0.000000 1.662980 0.000000 
#    z 0.003210 0.000000 1.637670 
# 
# From -- ./inp_files/64866.got.cif
#   From: 2010.03.12/outbox.cif.g09.slc.cpg/sg14_33_cif.got.tgz:64866.got - 2010.03.31 13:35:05.
