data_PCOD8123361
_publ_section_title
;
Structure prediction by ZEFSAII (Michael W. Deem and Ramdas Pophale) SiO2 
 PCOD8123361
Probable space group: P 21/C
;
_chemical_formula_sum "Si O2"
_cell_formula_units_Z 32
_cell_length_a 12.144695
_cell_length_b 11.680305
_cell_length_c 11.845165
_cell_angle_alpha 90.000000
_cell_angle_beta 89.737543
_cell_angle_gamma 90.000000
_cell_volume 1680.263348
_symmetry_space_group_name_H-M "P 21/C"
_symmetry_group_IT_number 14
_symmetry_cell_setting 'monoclinic'
loop_
_space_group_symop_operation_xyz
x,y,z
-x,1/2+y,1/2-z
-x,-y,-z
x,1/2-y,1/2+z
loop_
_atom_site_type_symbol
_atom_site_label
_atom_site_fract_x
_atom_site_fract_y
_atom_site_fract_z
Si Si1 0.007223 0.165454 0.048671
Si Si2 0.497376 0.588353 0.900936
Si Si3 0.319938 0.122245 0.764520
Si Si4 0.765123 0.836620 0.855829
Si Si5 0.906844 0.957781 0.162815
Si Si6 0.367403 0.262412 0.961792
Si Si7 0.719312 0.514958 0.152414
Si Si8 0.960666 0.074671 0.604962
O O1 0.965943 0.294231 0.064593
O O2 0.107035 0.138251 0.132488
O O3 0.916498 0.076765 0.094164
O O4 0.042438 0.143132 0.917416
O O5 0.592293 0.551947 0.810658
O O6 0.375203 0.583392 0.849557
O O7 0.500000 0.500000 0.000000
O O8 0.527558 0.711717 0.957172
O O9 0.248092 0.209243 0.691402
O O10 0.225919 0.045710 0.822441
O O11 0.398888 0.197291 0.847137
O O12 0.713341 0.934337 0.778260
O O13 0.709421 0.832624 0.978660
O O14 0.967180 0.952002 0.284009
O O15 0.302209 0.381531 0.936478
O O16 0.834060 0.454815 0.128116
O O17 0.000000 0.000000 0.500000
#
# Coordination Sequence:
#
# PCOD8123361 Si02
#       8
#     4   4   4   4   4   4   4   4
#     4  11  23  40  59  93 132 166 206 268 316 370
#     4   9  20  37  58  84 118 155 201 259 299 356
#     4  10  19  34  64  90 113 160 210 246 300 375
#     4  10  17  33  61  85 118 155 205 255 297 372
#     4  11  24  39  62  93 130 163 216 264 312 372
#     4   9  18  35  62  87 113 160 213 251 299 362
#     4  10  21  38  56  89 124 155 203 263 314 373
#     4  12  26  38  64  93 127 173 207 252 325 386
#
# _framework density 19.044633999999999
#
# number of rings (size 3 to 8) (size 9 to 14) (size 15 to 20)
#    0.000    1.750    3.750    0.750    7.000    0.000 
#    0.000    6.875    0.000    0.000    0.000    0.000 
#    0.000    0.000    0.000    0.000    0.000    0.000 
#
# Total GULP energy -396472.631083 kJ/mol
# GULP energy per Si atom -12389.769721 kJ/mol
# Density = 1.900129 g / cm^3
# Si number density = 19.044634 Si / 1000 Ang^3
#
#
#
# Elastic Constant Matrix: (Units=GPa)
#
#
# Indices 1 2 3 4 5 6 
#
# 1 135.0588 46.6809 56.1624 0.0000 -6.2256 0.0000
# 2 46.6809 87.2372 45.4185 0.0000 -8.3583 0.0000
# 3 56.1624 45.4185 114.0807 0.0000 -9.0106 0.0000
# 4 0.0000 0.0000 0.0000 25.9244 0.0000 -4.9133
# 5 -6.2256 -8.3583 -9.0106 0.0000 33.4096 0.0000
# 6 0.0000 0.0000 0.0000 -4.9133 0.0000 25.9750
#
#
#
# Elastic Compliance Matrix: (Units=1/GPa)
#
#
# Indices 1 2 3 4 5 6 
#
# 1 0.010116 -0.003555 -0.003562 0.000000 0.000035 0.000000
# 2 -0.003555 0.015857 -0.004395 0.000000 0.002119 0.000000
# 3 -0.003562 -0.004395 0.012394 0.000000 0.001579 0.000000
# 4 0.000000 0.000000 0.000000 0.040008 0.000000 0.007568
# 5 0.000035 0.002119 0.001579 0.000000 0.030894 0.000000
# 6 0.000000 0.000000 0.000000 0.007568 0.000000 0.039930
#
#
# Mechanical properties :
#
#
# Convention : Reuss Voigt Hill
#
# Bulk Modulus (GPa) = 65.18238 70.32225 67.75232
# Shear Modulus (GPa) = 28.19484 29.60278 28.89881
#
# Velocity S-wave (km/s) = 3.85185 3.94685 3.89964
# Velocity P-wave (km/s) = 7.35410 7.60101 7.47857
#
# Compressibility (1/GPa) = 0.01534157
#
# Stress axis : x y z
#
# Youngs Moduli (GPa) = 98.85585 63.06436 80.68492
#
# Poissons Ratio (x) = 0.22421 0.28739
# Poissons Ratio (y) = 0.35145 0.35464
# Poissons Ratio (z) = 0.35211 0.27719
#
# Static dielectric constant tensor:
#      x y z
#    x 3.986390 0.000000 0.020300 
#    y 0.000000 3.539950 0.000000 
#    z 0.020300 0.000000 4.206520 
# 
# 
# High freq. dielectric constant tensor:
#      x y z
#    x 1.729000 0.000000 0.001170 
#    y 0.000000 1.715720 0.000000 
#    z 0.001170 0.000000 1.762600 
# 
# From -- ./inp_files/29112.got.cif
#   From: 2010.03.12/outbox.cif.g09.slc.cpg/sg14_15_cif.got.tgz:29112.got - 2010.03.31 13:35:05.
