data_PCOD8123623
_publ_section_title
;
Structure prediction by ZEFSAII (Michael W. Deem and Ramdas Pophale) SiO2 
 PCOD8123623
Probable space group: P 21/C
;
_chemical_formula_sum "Si O2"
_cell_formula_units_Z 32
_cell_length_a 7.844593
_cell_length_b 8.753890
_cell_length_c 24.039046
_cell_angle_alpha 90.000000
_cell_angle_beta 113.176582
_cell_angle_gamma 90.000000
_cell_volume 1517.554266
_symmetry_space_group_name_H-M "P 21/C"
_symmetry_group_IT_number 14
_symmetry_cell_setting 'monoclinic'
loop_
_space_group_symop_operation_xyz
x,y,z
-x,1/2+y,1/2-z
-x,-y,-z
x,1/2-y,1/2+z
loop_
_atom_site_type_symbol
_atom_site_label
_atom_site_fract_x
_atom_site_fract_y
_atom_site_fract_z
Si Si1 0.396425 0.320412 0.926298
Si Si2 0.121803 0.070763 0.143660
Si Si3 0.365619 0.816472 0.126991
Si Si4 0.306158 0.190837 0.745029
Si Si5 0.006879 0.645729 0.931150
Si Si6 0.303935 0.049751 0.526984
Si Si7 0.177056 0.574230 0.165556
Si Si8 0.062070 0.305280 0.315980
O O1 0.534013 0.185471 0.920509
O O2 0.500690 0.481864 0.925178
O O3 0.207650 0.296718 0.869059
O O4 0.352629 0.321352 0.986467
O O5 0.265509 0.163346 0.200970
O O6 0.988144 0.180063 0.089883
O O7 0.246307 0.969514 0.117673
O O8 0.982487 0.967973 0.161982
O O9 0.508758 0.790779 0.196176
O O10 0.239421 0.664607 0.117587
O O11 0.127274 0.166560 0.761824
O O12 0.331789 0.037591 0.711529
O O13 0.816761 0.633540 0.942295
O O14 0.992786 0.533207 0.876321
O O15 0.190810 0.597505 0.987794
O O16 0.120475 0.698450 0.205328
#
# Coordination Sequence:
#
# PCOD8123623 Si02
#       8
#     4   4   4   4   4   4   4   4
#     4  10  20  36  59  82 113 144 194 234 289 329
#     4  10  22  37  57  87 119 148 187 237 284 346
#     4  10  20  36  56  83 115 148 183 237 286 337
#     4  10  20  34  57  82 115 150 192 222 282 339
#     4  10  20  37  61  83 110 145 203 231 284 337
#     4  10  20  38  62  86 104 154 200 244 272 348
#     4  10  18  34  57  77 109 152 186 226 276 346
#     4  10  20  36  56  83 115 148 183 237 286 337
#
# _framework density 21.086561
#
# number of rings (size 3 to 8) (size 9 to 14) (size 15 to 20)
#    0.000    2.000    2.500    1.500    0.000    0.000 
#    0.000    8.750    5.500    0.000    0.000    0.000 
#    0.000    0.000    0.000    0.000    0.000    0.000 
#
# Total GULP energy -396507.750716 kJ/mol
# GULP energy per Si atom -12390.867210 kJ/mol
# Density = 2.103857 g / cm^3
# Si number density = 21.086561 Si / 1000 Ang^3
#
#
#
# Elastic Constant Matrix: (Units=GPa)
#
#
# Indices 1 2 3 4 5 6 
#
# 1 62.2734 34.5362 1.2070 0.0000 -14.1242 0.0000
# 2 34.5362 125.9924 37.6653 0.0000 -6.3116 0.0000
# 3 1.2070 37.6653 48.9495 0.0000 0.0663 0.0000
# 4 0.0000 0.0000 0.0000 31.5920 0.0000 -0.9993
# 5 -14.1242 -6.3116 0.0663 0.0000 38.7115 0.0000
# 6 0.0000 0.0000 0.0000 -0.9993 0.0000 23.7393
#
#
#
# Elastic Compliance Matrix: (Units=1/GPa)
#
#
# Indices 1 2 3 4 5 6 
#
# 1 0.021327 -0.006953 0.004815 0.000000 0.006639 0.000000
# 2 -0.006953 0.012687 -0.009590 0.000000 -0.000452 0.000000
# 3 0.004815 -0.009590 0.027690 0.000000 0.000146 0.000000
# 4 0.000000 0.000000 0.000000 0.031696 0.000000 0.001334
# 5 0.006639 -0.000452 0.000146 0.000000 0.028181 0.000000
# 6 0.000000 0.000000 0.000000 0.001334 0.000000 0.042180
#
#
# Mechanical properties :
#
#
# Convention : Reuss Voigt Hill
#
# Bulk Modulus (GPa) = 26.14545 42.67026 34.40786
# Shear Modulus (GPa) = 25.00426 29.72904 27.36665
#
# Velocity S-wave (km/s) = 3.44727 3.75888 3.60644
# Velocity P-wave (km/s) = 5.31704 6.25449 5.80472
#
# Compressibility (1/GPa) = 0.03824757
#
# Stress axis : x y z
#
# Youngs Moduli (GPa) = 46.88950 78.81924 36.11435
#
# Poissons Ratio (x) = 0.54802 -0.17389
# Poissons Ratio (y) = 0.32601 0.34635
# Poissons Ratio (z) = -0.22578 0.75591
#
# Static dielectric constant tensor:
#      x y z
#    x 3.913780 0.000000 -0.180740 
#    y 0.000000 3.677350 0.000000 
#    z -0.180740 0.000000 3.665340 
# 
# 
# High freq. dielectric constant tensor:
#      x y z
#    x 1.830550 0.000000 -0.011260 
#    y 0.000000 1.816070 0.000000 
#    z -0.011260 0.000000 1.810050 
# 
# From -- ./inp_files/26956.got.cif
#   From: 2010.03.12/outbox.cif.g09.slc.cpg/sg14_14_cif.got.tgz:26956.got - 2010.03.31 13:35:05.
