data_PCOD8123435
_publ_section_title
;
Structure prediction by ZEFSAII (Michael W. Deem and Ramdas Pophale) SiO2 
 PCOD8123435
Probable space group: P 21/C
;
_chemical_formula_sum "Si O2"
_cell_formula_units_Z 24
_cell_length_a 7.997355
_cell_length_b 8.946350
_cell_length_c 20.528477
_cell_angle_alpha 90.000000
_cell_angle_beta 117.981313
_cell_angle_gamma 90.000000
_cell_volume 1297.057416
_symmetry_space_group_name_H-M "P 21/C"
_symmetry_group_IT_number 14
_symmetry_cell_setting 'monoclinic'
loop_
_space_group_symop_operation_xyz
x,y,z
-x,1/2+y,1/2-z
-x,-y,-z
x,1/2-y,1/2+z
loop_
_atom_site_type_symbol
_atom_site_label
_atom_site_fract_x
_atom_site_fract_y
_atom_site_fract_z
Si Si1 0.415248 0.258258 0.696580
Si Si2 0.966581 0.813204 0.427078
Si Si3 0.082215 0.618371 0.813021
Si Si4 0.428710 0.046501 0.317662
Si Si5 0.815176 0.351546 0.767647
Si Si6 0.182133 0.860385 0.585928
O O1 0.353308 0.322654 0.755961
O O2 0.596752 0.350462 0.702683
O O3 0.232774 0.275714 0.615828
O O4 0.478835 0.084038 0.711012
O O5 0.083983 0.756571 0.512201
O O6 0.093517 0.796753 0.384648
O O7 0.935163 0.988307 0.430150
O O8 0.265105 0.513517 0.835010
O O9 0.059191 0.741125 0.752786
O O10 0.891682 0.519628 0.776833
O O11 0.598421 0.110479 0.393794
O O12 0.822087 0.285608 0.842878
#
# Coordination Sequence:
#
# PCOD8123435 Si02
#       6
#     4   4   4   4   4   4
#     4   9  17  30  48  67  92 126 158 186 228 283
#     4   9  16  28  47  69  93 121 155 194 231 271
#     4  10  18  28  48  73  94 118 155 201 233 262
#     4   9  17  29  47  70  94 123 156 191 230 274
#     4   9  18  31  48  69  93 123 157 192 231 276
#     4   8  16  30  46  67  94 124 155 186 231 282
#
# _framework density 18.503419999999998
#
# number of rings (size 3 to 8) (size 9 to 14) (size 15 to 20)
#    0.000    3.000    0.000    2.000    0.000    0.667 
#    0.000    1.667    0.000   17.000    0.000    0.000 
#    0.000    0.000    0.000    0.000    0.000    0.000 
#
# Total GULP energy -297333.025853 kJ/mol
# GULP energy per Si atom -12388.876077 kJ/mol
# Density = 1.846131 g / cm^3
# Si number density = 18.503420 Si / 1000 Ang^3
#
#
#
# Elastic Constant Matrix: (Units=GPa)
#
#
# Indices 1 2 3 4 5 6 
#
# 1 77.9289 2.5588 24.4094 0.0000 -10.2434 0.0000
# 2 2.5588 19.0669 9.7709 0.0000 -4.1433 0.0000
# 3 24.4094 9.7709 75.5876 0.0000 -8.6487 0.0000
# 4 0.0000 0.0000 0.0000 17.0071 0.0000 -1.0074
# 5 -10.2434 -4.1433 -8.6487 0.0000 21.1280 0.0000
# 6 0.0000 0.0000 0.0000 -1.0074 0.0000 25.5883
#
#
#
# Elastic Compliance Matrix: (Units=1/GPa)
#
#
# Indices 1 2 3 4 5 6 
#
# 1 0.014899 0.001473 -0.004346 0.000000 0.005733 0.000000
# 2 0.001473 0.057785 -0.006890 0.000000 0.009226 0.000000
# 3 -0.004346 -0.006890 0.015871 0.000000 0.003039 0.000000
# 4 0.000000 0.000000 0.000000 0.058936 0.000000 0.002320
# 5 0.005733 0.009226 0.003039 0.000000 0.053163 0.000000
# 6 0.000000 0.000000 0.000000 0.002320 0.000000 0.039172
#
#
# Mechanical properties :
#
#
# Convention : Reuss Voigt Hill
#
# Bulk Modulus (GPa) = 14.48633 27.34018 20.91325
# Shear Modulus (GPa) = 17.70787 21.80098 19.75443
#
# Velocity S-wave (km/s) = 3.09691 3.43624 3.27097
# Velocity P-wave (km/s) = 4.54244 5.52734 5.05891
#
# Compressibility (1/GPa) = 0.06903061
#
# Stress axis : x y z
#
# Youngs Moduli (GPa) = 67.12040 17.30560 63.00665
#
# Poissons Ratio (x) = -0.02550 0.27380
# Poissons Ratio (y) = -0.09889 0.43410
# Poissons Ratio (z) = 0.29168 0.11923
#
# Static dielectric constant tensor:
#      x y z
#    x 3.548030 0.000000 0.046320 
#    y 0.000000 3.156610 0.000000 
#    z 0.046320 0.000000 3.706300 
# 
# 
# High freq. dielectric constant tensor:
#      x y z
#    x 1.728000 0.000000 0.008730 
#    y 0.000000 1.681110 0.000000 
#    z 0.008730 0.000000 1.698780 
# 
# From -- ./inp_files/54630.got.cif
#   From: 2010.03.12/outbox.cif.g09.slc.cpg/sg14_28_cif.got.tgz:54630.got - 2010.03.31 13:35:05.
