data_PCOD8123390
_publ_section_title
;
Structure prediction by ZEFSAII (Michael W. Deem and Ramdas Pophale) SiO2 
 PCOD8123390
Probable space group: P 21/C
;
_chemical_formula_sum "Si O2"
_cell_formula_units_Z 28
_cell_length_a 9.114110
_cell_length_b 17.217433
_cell_length_c 14.057637
_cell_angle_alpha 90.000000
_cell_angle_beta 141.214867
_cell_angle_gamma 90.000000
_cell_volume 1381.808402
_symmetry_space_group_name_H-M "P 21/C"
_symmetry_group_IT_number 14
_symmetry_cell_setting 'monoclinic'
loop_
_space_group_symop_operation_xyz
x,y,z
-x,1/2+y,1/2-z
-x,-y,-z
x,1/2-y,1/2+z
loop_
_atom_site_type_symbol
_atom_site_label
_atom_site_fract_x
_atom_site_fract_y
_atom_site_fract_z
Si Si1 0.497967 0.837397 0.621890
Si Si2 0.348015 0.637231 0.248780
Si Si3 0.179590 0.365841 0.986007
Si Si4 0.772464 0.969235 0.330861
Si Si5 0.350262 0.225121 0.957924
Si Si6 0.252141 0.466742 0.847930
Si Si7 0.982764 0.107618 0.715943
O O1 0.477261 0.822724 0.723957
O O2 0.570628 0.757816 0.605093
O O3 0.705213 0.902037 0.711839
O O4 0.249916 0.866972 0.457042
O O5 0.393688 0.543897 0.268654
O O6 0.454068 0.667748 0.401364
O O7 0.075102 0.660611 0.105307
O O8 0.329869 0.295219 0.021973
O O9 0.131523 0.428223 0.878952
O O10 0.332880 0.405045 0.148893
O O11 0.825697 0.927178 0.259022
O O12 0.000000 0.000000 0.500000
O O13 0.100687 0.181435 0.825884
O O14 0.084949 0.540945 0.739487
O O15 0.500000 0.500000 0.000000
#
# Coordination Sequence:
#
# PCOD8123390 Si02
#       7
#     4   4   4   4   4   4   4
#     4  10  21  38  61  86 115 161 206 236 291 373
#     4  11  21  39  60  90 120 156 206 245 300 362
#     4  10  19  39  59  83 116 160 201 239 288 363
#     4  10  17  34  65  83 105 161 205 233 274 370
#     4  11  26  35  58  95 127 150 192 265 312 339
#     4   9  17  33  61  85 104 146 207 240 271 348
#     4  11  19  38  61  85 119 154 199 250 298 345
#
# _framework density 20.263300999999998
#
# number of rings (size 3 to 8) (size 9 to 14) (size 15 to 20)
#    0.000    1.714    5.714    1.714    2.000    0.571 
#    0.000    0.714    0.000    0.000    0.000    0.000 
#    0.000    0.000    0.000    0.000    0.000    0.000 
#
# Total GULP energy -347000.415464 kJ/mol
# GULP energy per Si atom -12392.871981 kJ/mol
# Density = 2.021718 g / cm^3
# Si number density = 20.263301 Si / 1000 Ang^3
#
#
#
# Elastic Constant Matrix: (Units=GPa)
#
#
# Indices 1 2 3 4 5 6 
#
# 1 99.4898 33.3111 8.9183 0.0000 0.6676 0.0000
# 2 33.3111 108.2212 28.4200 0.0000 1.2299 0.0000
# 3 8.9183 28.4200 31.2688 0.0000 1.2521 0.0000
# 4 0.0000 0.0000 0.0000 27.2039 0.0000 8.8928
# 5 0.6676 1.2299 1.2521 0.0000 14.3777 0.0000
# 6 0.0000 0.0000 0.0000 8.8928 0.0000 30.5122
#
#
#
# Elastic Compliance Matrix: (Units=1/GPa)
#
#
# Indices 1 2 3 4 5 6 
#
# 1 0.011207 -0.003428 -0.000072 0.000000 -0.000221 0.000000
# 2 -0.003428 0.013186 -0.011007 0.000000 -0.000010 0.000000
# 3 -0.000072 -0.011007 0.042114 0.000000 -0.002723 0.000000
# 4 0.000000 0.000000 0.000000 0.040630 0.000000 -0.011842
# 5 -0.000221 -0.000010 -0.002723 0.000000 0.069800 0.000000
# 6 0.000000 0.000000 0.000000 -0.011842 0.000000 0.036225
#
#
# Mechanical properties :
#
#
# Convention : Reuss Voigt Hill
#
# Bulk Modulus (GPa) = 26.67079 42.25318 34.46199
# Shear Modulus (GPa) = 19.63294 25.64079 22.63687
#
# Velocity S-wave (km/s) = 3.11608 3.56108 3.34598
# Velocity P-wave (km/s) = 5.11246 6.14863 5.65433
#
# Compressibility (1/GPa) = 0.03749420
#
# Stress axis : x y z
#
# Youngs Moduli (GPa) = 89.22968 75.83735 23.74511
#
# Poissons Ratio (x) = 0.25999 0.00170
# Poissons Ratio (y) = 0.30590 0.26135
# Poissons Ratio (z) = 0.00639 0.83471
#
# Static dielectric constant tensor:
#      x y z
#    x 3.883620 0.000000 -0.017630 
#    y 0.000000 4.172710 0.000000 
#    z -0.017630 0.000000 3.116960 
# 
# 
# High freq. dielectric constant tensor:
#      x y z
#    x 1.800240 0.000000 0.001830 
#    y 0.000000 1.805780 0.000000 
#    z 0.001830 0.000000 1.728050 
# 
# From -- ./inp_files/41820.got.cif
#   From: 2010.03.12/outbox.cif.g09.slc.cpg/sg14_21_cif.got.tgz:41820.got - 2010.03.31 13:35:05.
