data_PCOD8123950
_publ_section_title
;
Structure prediction by ZEFSAII (Michael W. Deem and Ramdas Pophale) SiO2 
 PCOD8123950
Probable space group: P 21/C
;
_chemical_formula_sum "Si O2"
_cell_formula_units_Z 32
_cell_length_a 13.323342
_cell_length_b 8.686755
_cell_length_c 20.697238
_cell_angle_alpha 90.000000
_cell_angle_beta 137.341797
_cell_angle_gamma 90.000000
_cell_volume 1623.198079
_symmetry_space_group_name_H-M "P 21/C"
_symmetry_group_IT_number 14
_symmetry_cell_setting 'monoclinic'
loop_
_space_group_symop_operation_xyz
x,y,z
-x,1/2+y,1/2-z
-x,-y,-z
x,1/2-y,1/2+z
loop_
_atom_site_type_symbol
_atom_site_label
_atom_site_fract_x
_atom_site_fract_y
_atom_site_fract_z
Si Si1 0.089215 0.889415 0.289989
Si Si2 0.831028 0.708570 0.314859
Si Si3 0.693201 0.302234 0.357064
Si Si4 0.227569 0.202508 0.492581
Si Si5 0.392316 0.156182 0.182992
Si Si6 0.086693 0.860767 0.148543
Si Si7 0.861031 0.145923 0.547650
Si Si8 0.194039 0.277931 0.837288
O O1 0.152474 0.824270 0.251699
O O2 0.171441 0.816492 0.391617
O O3 0.913602 0.866683 0.209829
O O4 0.092212 0.072133 0.294919
O O5 0.714015 0.739060 0.315501
O O6 0.910282 0.543811 0.361486
O O7 0.735644 0.719797 0.201668
O O8 0.962330 0.834494 0.381190
O O9 0.561529 0.183425 0.281699
O O10 0.632397 0.474503 0.330189
O O11 0.813133 0.276607 0.357172
O O12 0.766643 0.263895 0.460488
O O13 0.360296 0.264380 0.599296
O O14 0.293186 0.220698 0.449665
O O15 0.082198 0.305326 0.437103
O O16 0.187076 0.027696 0.491392
#
# Coordination Sequence:
#
# PCOD8123950 Si02
#       8
#     4   4   4   4   4   4   4   4
#     4   8  15  29  50  76 102 127 160 202 246 293
#     4   9  18  34  55  77 101 132 169 206 246 294
#     4  11  23  37  52  71 100 137 173 210 250 294
#     4  10  19  32  54  81 105 130 162 204 252 300
#     4  11  23  37  52  71 100 137 173 210 250 294
#     4   9  18  34  55  77 101 132 169 206 246 294
#     4  10  19  32  54  81 105 130 162 204 252 300
#     4   8  15  29  50  76 102 127 160 202 246 293
#
# _framework density 19.714168000000001
#
# number of rings (size 3 to 8) (size 9 to 14) (size 15 to 20)
#    0.000    2.500    0.000    2.250    0.000    6.000 
#    0.000    1.250    0.000    7.500    0.000    0.000 
#    0.000    0.000    0.000    0.000    0.000    0.000 
#
# Total GULP energy -396469.079392 kJ/mol
# GULP energy per Si atom -12389.658731 kJ/mol
# Density = 1.966930 g / cm^3
# Si number density = 19.714168 Si / 1000 Ang^3
#
#
#
# Elastic Constant Matrix: (Units=GPa)
#
#
# Indices 1 2 3 4 5 6 
#
# 1 26.8744 9.2036 38.3466 0.0000 -12.9238 0.0000
# 2 9.2036 31.8919 12.2886 0.0000 -8.6443 0.0000
# 3 38.3466 12.2886 97.9752 0.0000 -20.5046 0.0000
# 4 0.0000 0.0000 0.0000 28.3494 0.0000 0.7036
# 5 -12.9238 -8.6443 -20.5046 0.0000 28.8646 0.0000
# 6 0.0000 0.0000 0.0000 0.7036 0.0000 21.9080
#
#
#
# Elastic Compliance Matrix: (Units=1/GPa)
#
#
# Indices 1 2 3 4 5 6 
#
# 1 0.094893 -0.010471 -0.032410 0.000000 0.016329 0.000000
# 2 -0.010471 0.035817 0.001021 0.000000 0.006764 0.000000
# 3 -0.032410 0.001021 0.023247 0.000000 0.002308 0.000000
# 4 0.000000 0.000000 0.000000 0.035302 0.000000 -0.001134
# 5 0.016329 0.006764 0.002308 0.000000 0.045621 0.000000
# 6 0.000000 0.000000 0.000000 -0.001134 0.000000 0.045682
#
#
# Mechanical properties :
#
#
# Convention : Reuss Voigt Hill
#
# Bulk Modulus (GPa) = 14.23712 30.71321 22.47517
# Shear Modulus (GPa) = 12.89677 22.28459 17.59068
#
# Velocity S-wave (km/s) = 2.56048 3.36577 2.99036
# Velocity P-wave (km/s) = 3.99736 5.54235 4.83200
#
# Compressibility (1/GPa) = 0.07023891
#
# Stress axis : x y z
#
# Youngs Moduli (GPa) = 10.53814 27.91933 43.01721
#
# Poissons Ratio (x) = 0.29234 1.39417
# Poissons Ratio (y) = 0.11034 -0.04393
# Poissons Ratio (z) = 0.34154 -0.02851
#
# Static dielectric constant tensor:
#      x y z
#    x 3.604530 0.000000 -0.541350 
#    y 0.000000 3.527880 0.000000 
#    z -0.541350 0.000000 3.697540 
# 
# 
# High freq. dielectric constant tensor:
#      x y z
#    x 1.745200 0.000000 -0.042320 
#    y 0.000000 1.767840 0.000000 
#    z -0.042320 0.000000 1.765490 
# 
# From -- ./inp_files/62652.got.cif
#   From: 2010.03.12/outbox.cif.g09.slc.cpg/sg14_32_cif.got.tgz:62652.got - 2010.03.31 13:35:05.
