data_PCOD8123344
_publ_section_title
;
Structure prediction by ZEFSAII (Michael W. Deem and Ramdas Pophale) SiO2 
 PCOD8123344
Probable space group: P 21/C
;
_chemical_formula_sum "Si O2"
_cell_formula_units_Z 28
_cell_length_a 8.420082
_cell_length_b 15.698284
_cell_length_c 17.355424
_cell_angle_alpha 90.000000
_cell_angle_beta 40.027122
_cell_angle_gamma 90.000000
_cell_volume 1475.421514
_symmetry_space_group_name_H-M "P 21/C"
_symmetry_group_IT_number 14
_symmetry_cell_setting 'monoclinic'
loop_
_space_group_symop_operation_xyz
x,y,z
-x,1/2+y,1/2-z
-x,-y,-z
x,1/2-y,1/2+z
loop_
_atom_site_type_symbol
_atom_site_label
_atom_site_fract_x
_atom_site_fract_y
_atom_site_fract_z
Si Si1 0.816038 0.998510 0.263969
Si Si2 0.401575 0.135901 0.390194
Si Si3 0.009900 0.079422 0.650987
Si Si4 0.335336 0.081828 0.081872
Si Si5 0.492597 0.675752 0.622906
Si Si6 0.318032 0.431902 0.761069
Si Si7 0.773115 0.552199 0.617324
O O1 0.574637 0.057867 0.350987
O O2 0.052762 0.059322 0.169374
O O3 0.814060 0.932618 0.192955
O O4 0.818543 0.939293 0.338533
O O5 0.542042 0.224206 0.351672
O O6 0.316295 0.134530 0.332188
O O7 0.156962 0.132954 0.533206
O O8 0.769374 0.131982 0.764849
O O9 0.933421 0.987317 0.644974
O O10 0.358109 0.111807 0.162492
O O11 0.424855 0.159718 0.995934
O O12 0.500000 0.000000 0.000000
O O13 0.714099 0.640835 0.595846
O O14 0.538851 0.495008 0.691666
O O15 0.000000 0.500000 0.500000
#
# Coordination Sequence:
#
# PCOD8123344 Si02
#       7
#     4   4   4   4   4   4   4
#     4  10  20  36  63  85 111 154 208 226 284 348
#     4  11  24  38  57  88 123 151 189 250 297 342
#     4  10  21  41  62  80 116 162 196 229 285 368
#     4  11  17  38  65  87 110 154 200 243 279 349
#     4  11  23  36  59  89 121 149 190 252 303 327
#     4   9  20  36  62  81 111 159 199 224 290 352
#     4  10  17  32  59  86 110 146 193 238 271 346
#
# _framework density 18.977627999999999
#
# number of rings (size 3 to 8) (size 9 to 14) (size 15 to 20)
#    0.000    1.714    5.714    0.857    2.000    0.000 
#    2.571    0.000    0.000    0.000    0.000    0.000 
#    0.000    0.000    0.000    0.000    0.000    0.000 
#
# Total GULP energy -347091.225481 kJ/mol
# GULP energy per Si atom -12396.115196 kJ/mol
# Density = 1.893443 g / cm^3
# Si number density = 18.977628 Si / 1000 Ang^3
#
#
#
# Elastic Constant Matrix: (Units=GPa)
#
#
# Indices 1 2 3 4 5 6 
#
# 1 124.5047 31.7494 48.5822 0.0000 33.7564 0.0000
# 2 31.7494 72.0701 25.1454 0.0000 24.7715 0.0000
# 3 48.5822 25.1454 103.2692 0.0000 22.3421 0.0000
# 4 0.0000 0.0000 0.0000 18.3991 0.0000 0.3061
# 5 33.7564 24.7715 22.3421 0.0000 35.5370 0.0000
# 6 0.0000 0.0000 0.0000 0.3061 0.0000 21.1067
#
#
#
# Elastic Compliance Matrix: (Units=1/GPa)
#
#
# Indices 1 2 3 4 5 6 
#
# 1 0.011972 -0.001176 -0.003545 0.000000 -0.008323 0.000000
# 2 -0.001176 0.018711 -0.001647 0.000000 -0.010890 0.000000
# 3 -0.003545 -0.001647 0.012472 0.000000 -0.003326 0.000000
# 4 0.000000 0.000000 0.000000 0.054364 0.000000 -0.000788
# 5 -0.008323 -0.010890 -0.003326 0.000000 0.045728 0.000000
# 6 0.000000 0.000000 0.000000 -0.000788 0.000000 0.047390
#
#
# Mechanical properties :
#
#
# Convention : Reuss Voigt Hill
#
# Bulk Modulus (GPa) = 32.87421 56.75533 44.81477
# Shear Modulus (GPa) = 23.41798 27.96635 25.69217
#
# Velocity S-wave (km/s) = 3.51661 3.84298 3.68341
# Velocity P-wave (km/s) = 5.81799 7.04717 6.46187
#
# Compressibility (1/GPa) = 0.03041898
#
# Stress axis : x y z
#
# Youngs Moduli (GPa) = 83.53079 53.44376 80.18258
#
# Poissons Ratio (x) = 0.06287 0.28423
# Poissons Ratio (y) = 0.09826 0.13203
# Poissons Ratio (z) = 0.29610 0.08800
#
# Static dielectric constant tensor:
#      x y z
#    x 4.278970 0.000000 0.323620 
#    y 0.000000 3.323610 0.000000 
#    z 0.323620 0.000000 3.640610 
# 
# 
# High freq. dielectric constant tensor:
#      x y z
#    x 1.753960 0.000000 0.006240 
#    y 0.000000 1.694820 0.000000 
#    z 0.006240 0.000000 1.747950 
# 
# From -- ./inp_files/30321.got.cif
#   From: 2010.03.12/outbox.cif.g09.slc.cpg/sg14_16_cif.got.tgz:30321.got - 2010.03.31 13:35:05.
