data_PCOD8123780
_publ_section_title
;
Structure prediction by ZEFSAII (Michael W. Deem and Ramdas Pophale) SiO2 
 PCOD8123780
Probable space group: P 21/C
;
_chemical_formula_sum "Si O2"
_cell_formula_units_Z 28
_cell_length_a 14.222247
_cell_length_b 16.245664
_cell_length_c 11.071932
_cell_angle_alpha 90.000000
_cell_angle_beta 31.708276
_cell_angle_gamma 90.000000
_cell_volume 1344.559229
_symmetry_space_group_name_H-M "P 21/C"
_symmetry_group_IT_number 14
_symmetry_cell_setting 'monoclinic'
loop_
_space_group_symop_operation_xyz
x,y,z
-x,1/2+y,1/2-z
-x,-y,-z
x,1/2-y,1/2+z
loop_
_atom_site_type_symbol
_atom_site_label
_atom_site_fract_x
_atom_site_fract_y
_atom_site_fract_z
Si Si1 0.841849 0.119894 0.754270
Si Si2 0.561269 0.117199 0.862590
Si Si3 0.630111 0.615184 0.035248
Si Si4 0.384552 0.758730 0.402158
Si Si5 0.317727 0.335277 0.285693
Si Si6 0.779030 0.659654 0.107287
Si Si7 0.363136 0.487079 0.394308
O O1 0.732127 0.092894 0.755857
O O2 0.054898 0.122588 0.497632
O O3 0.790206 0.211701 0.858031
O O4 0.796825 0.050046 0.901953
O O5 0.649786 0.178712 0.669043
O O6 0.472018 0.038563 0.896232
O O7 0.406476 0.156600 0.115249
O O8 0.517766 0.691688 0.204496
O O9 0.775531 0.607624 0.985083
O O10 0.509946 0.533475 0.150979
O O11 0.718086 0.634037 0.810811
O O12 0.476031 0.808474 0.413628
O O13 0.188696 0.257383 0.453326
O O14 0.272843 0.409743 0.426190
#
# Coordination Sequence:
#
# PCOD8123780 Si02
#       7
#     4   4   4   4   4   4   4
#     4  11  22  39  59  94 123 158 198 252 301 356
#     4  11  20  41  61  88 121 158 204 250 295 357
#     4  10  18  37  58  85 120 156 199 246 299 350
#     4   9  18  36  62  85 115 160 207 244 292 354
#     4  10  19  38  63  86 117 163 202 249 297 351
#     4  11  23  36  64  89 119 162 203 244 300 357
#     4  10  22  37  63  88 121 158 200 245 309 353
#
# _framework density 20.824667000000002
#
# number of rings (size 3 to 8) (size 9 to 14) (size 15 to 20)
#    0.000    1.714    5.714    0.857    0.000    1.714 
#    0.000    2.143    0.000    0.000    0.000    0.000 
#    0.000    0.000    0.000    0.000    0.000    0.000 
#
# Total GULP energy -346981.374477 kJ/mol
# GULP energy per Si atom -12392.191946 kJ/mol
# Density = 2.077727 g / cm^3
# Si number density = 20.824667 Si / 1000 Ang^3
#
#
#
# Elastic Constant Matrix: (Units=GPa)
#
#
# Indices 1 2 3 4 5 6 
#
# 1 104.0369 10.6673 33.4049 0.0000 3.1847 0.0000
# 2 10.6673 79.9971 2.8412 0.0000 0.1667 0.0000
# 3 33.4049 2.8412 27.6357 0.0000 -4.7398 0.0000
# 4 0.0000 0.0000 0.0000 15.4170 0.0000 2.6870
# 5 3.1847 0.1667 -4.7398 0.0000 29.3982 0.0000
# 6 0.0000 0.0000 0.0000 2.6870 0.0000 30.9286
#
#
#
# Elastic Compliance Matrix: (Units=1/GPa)
#
#
# Indices 1 2 3 4 5 6 
#
# 1 0.016595 -0.001464 -0.020791 0.000000 -0.005141 0.000000
# 2 -0.001464 0.012678 0.000494 0.000000 0.000166 0.000000
# 3 -0.020791 0.000494 0.063404 0.000000 0.012472 0.000000
# 4 0.000000 0.000000 0.000000 0.065861 0.000000 -0.005722
# 5 -0.005141 0.000166 0.012472 0.000000 0.036582 0.000000
# 6 0.000000 0.000000 0.000000 -0.005722 0.000000 0.032830
#
#
# Mechanical properties :
#
#
# Convention : Reuss Voigt Hill
#
# Bulk Modulus (GPa) = 20.34300 33.94406 27.14353
# Shear Modulus (GPa) = 17.36983 26.13254 21.75118
#
# Velocity S-wave (km/s) = 2.89121 3.54628 3.23537
# Velocity P-wave (km/s) = 4.57552 5.75356 5.19802
#
# Compressibility (1/GPa) = 0.04915696
#
# Stress axis : x y z
#
# Youngs Moduli (GPa) = 60.25880 78.87844 15.77182
#
# Poissons Ratio (x) = 0.11546 0.32791
# Poissons Ratio (y) = 0.08820 -0.00780
# Poissons Ratio (z) = 1.25283 -0.03900
#
# Static dielectric constant tensor:
#      x y z
#    x 4.036710 0.000000 0.218510 
#    y 0.000000 4.057860 0.000000 
#    z 0.218510 0.000000 3.325230 
# 
# 
# High freq. dielectric constant tensor:
#      x y z
#    x 1.817950 0.000000 0.011590 
#    y 0.000000 1.829800 0.000000 
#    z 0.011590 0.000000 1.763310 
# 
# From -- ./inp_files/32902.got.cif
#   From: 2010.03.12/outbox.cif.g09.slc.cpg/sg14_17_cif.got.tgz:32902.got - 2010.03.31 13:35:05.
