data_PCOD8123402
_publ_section_title
;
Structure prediction by ZEFSAII (Michael W. Deem and Ramdas Pophale) SiO2 
 PCOD8123402
Probable space group: P 21/C
;
_chemical_formula_sum "Si O2"
_cell_formula_units_Z 24
_cell_length_a 9.501338
_cell_length_b 18.211292
_cell_length_c 9.339610
_cell_angle_alpha 90.000000
_cell_angle_beta 134.678160
_cell_angle_gamma 90.000000
_cell_volume 1149.119309
_symmetry_space_group_name_H-M "P 21/C"
_symmetry_group_IT_number 14
_symmetry_cell_setting 'monoclinic'
loop_
_space_group_symop_operation_xyz
x,y,z
-x,1/2+y,1/2-z
-x,-y,-z
x,1/2-y,1/2+z
loop_
_atom_site_type_symbol
_atom_site_label
_atom_site_fract_x
_atom_site_fract_y
_atom_site_fract_z
Si Si1 0.023645 0.301323 0.156822
Si Si2 0.216245 0.563251 0.534239
Si Si3 0.451846 0.164396 0.637521
Si Si4 0.615409 0.780260 0.697893
Si Si5 0.107508 0.401088 0.463028
Si Si6 0.982142 0.166097 0.313999
O O1 0.249847 0.279155 0.288064
O O2 0.020490 0.375529 0.248319
O O3 0.920720 0.234960 0.170263
O O4 0.913164 0.316934 0.927199
O O5 0.435415 0.592469 0.726324
O O6 0.230676 0.475766 0.531004
O O7 0.071448 0.588031 0.556626
O O8 0.136236 0.595345 0.326866
O O9 0.513699 0.234804 0.779429
O O10 0.516711 0.180208 0.518553
O O11 0.216767 0.149563 0.474947
O O12 0.750352 0.838153 0.877197
#
# Coordination Sequence:
#
# PCOD8123402 Si02
#       6
#     4   4   4   4   4   4
#     4  10  17  35  67  81 114 163 192 239 303 335
#     4  11  24  38  60  90 124 153 197 241 302 354
#     4  10  21  38  61  87 111 156 199 241 287 352
#     4  10  18  39  64  82 114 156 200 244 286 343
#     4  11  21  40  61  88 124 157 188 252 298 345
#     4  10  19  38  62  85 118 154 196 248 285 349
#
# _framework density 20.885559000000001
#
# number of rings (size 3 to 8) (size 9 to 14) (size 15 to 20)
#    0.000    1.667    8.333    0.000    0.000    4.000 
#    0.000    3.333    0.000    0.000    0.000    0.000 
#    0.000    0.000    0.000    0.000    0.000    0.000 
#
# Total GULP energy -297557.383738 kJ/mol
# GULP energy per Si atom -12398.224322 kJ/mol
# Density = 2.083802 g / cm^3
# Si number density = 20.885559 Si / 1000 Ang^3
#
#
#
# Elastic Constant Matrix: (Units=GPa)
#
#
# Indices 1 2 3 4 5 6 
#
# 1 34.9797 23.1882 29.0420 0.0000 -25.5774 0.0000
# 2 23.1882 71.9864 8.3009 0.0000 -6.6633 0.0000
# 3 29.0420 8.3009 75.9837 0.0000 -28.0793 0.0000
# 4 0.0000 0.0000 0.0000 24.0135 0.0000 -3.1704
# 5 -25.5774 -6.6633 -28.0793 0.0000 39.9764 0.0000
# 6 0.0000 0.0000 0.0000 -3.1704 0.0000 23.8821
#
#
#
# Elastic Compliance Matrix: (Units=1/GPa)
#
#
# Indices 1 2 3 4 5 6 
#
# 1 0.085185 -0.021961 -0.015358 0.000000 0.040055 0.000000
# 2 -0.021961 0.019817 0.003048 0.000000 -0.008607 0.000000
# 3 -0.015358 0.003048 0.020602 0.000000 0.005153 0.000000
# 4 0.000000 0.000000 0.000000 0.042386 0.000000 0.005627
# 5 0.040055 -0.008607 0.005153 0.000000 0.052827 0.000000
# 6 0.000000 0.000000 0.000000 0.005627 0.000000 0.042619
#
#
# Mechanical properties :
#
#
# Convention : Reuss Voigt Hill
#
# Bulk Modulus (GPa) = 17.52443 33.77910 25.65177
# Shear Modulus (GPa) = 14.24502 25.73564 19.99033
#
# Velocity S-wave (km/s) = 2.61444 3.51411 3.09712
# Velocity P-wave (km/s) = 4.18601 5.71610 5.00981
#
# Compressibility (1/GPa) = 0.05706318
#
# Stress axis : x y z
#
# Youngs Moduli (GPa) = 11.73909 50.46046 48.53947
#
# Poissons Ratio (x) = 1.10818 0.74546
# Poissons Ratio (y) = 0.25781 -0.14797
# Poissons Ratio (z) = 0.18029 -0.15382
#
# Static dielectric constant tensor:
#      x y z
#    x 3.740900 0.000000 -0.485760 
#    y 0.000000 3.791660 0.000000 
#    z -0.485760 0.000000 3.944960 
# 
# 
# High freq. dielectric constant tensor:
#      x y z
#    x 1.797660 0.000000 -0.026330 
#    y 0.000000 1.802830 0.000000 
#    z -0.026330 0.000000 1.823980 
# 
# From -- ./inp_files/10270.got.cif
#   From: 2010.03.12/outbox.cif.g09.slc.cpg/sg14_6_cif.got.tgz:10270.got - 2010.03.31 13:35:05.
