data_PCOD8123339
_publ_section_title
;
Structure prediction by ZEFSAII (Michael W. Deem and Ramdas Pophale) SiO2 
 PCOD8123339
Probable space group: P 21/C
;
_chemical_formula_sum "Si O2"
_cell_formula_units_Z 32
_cell_length_a 8.705302
_cell_length_b 14.720480
_cell_length_c 24.942338
_cell_angle_alpha 90.000000
_cell_angle_beta 33.008736
_cell_angle_gamma 90.000000
_cell_volume 1741.220164
_symmetry_space_group_name_H-M "P 21/C"
_symmetry_group_IT_number 14
_symmetry_cell_setting 'monoclinic'
loop_
_space_group_symop_operation_xyz
x,y,z
-x,1/2+y,1/2-z
-x,-y,-z
x,1/2-y,1/2+z
loop_
_atom_site_type_symbol
_atom_site_label
_atom_site_fract_x
_atom_site_fract_y
_atom_site_fract_z
Si Si1 0.898663 0.978795 0.441528
Si Si2 0.438098 0.430467 0.141024
Si Si3 0.537601 0.270679 0.281189
Si Si4 0.823464 0.181635 0.591460
Si Si5 0.400763 0.980763 0.872858
Si Si6 0.035251 0.149361 0.979642
Si Si7 0.924423 0.410510 0.221110
Si Si8 0.487168 0.439826 0.781058
O O1 0.888477 0.933084 0.385989
O O2 0.954516 0.900366 0.469266
O O3 0.596688 0.019604 0.545421
O O4 0.149221 0.053125 0.372602
O O5 0.616410 0.339500 0.102196
O O6 0.130991 0.398767 0.211026
O O7 0.406099 0.493399 0.203189
O O8 0.625767 0.317175 0.200721
O O9 0.207161 0.299781 0.382366
O O10 0.571144 0.162626 0.272766
O O11 0.734448 0.319056 0.269049
O O12 0.992770 0.275101 0.537782
O O13 0.365538 0.966989 0.818552
O O14 0.218760 0.065855 0.947623
O O15 0.724579 0.002106 0.792057
O O16 0.279250 0.892154 0.940414
#
# Coordination Sequence:
#
# PCOD8123339 Si02
#       8
#     4   4   4   4   4   4   4   4
#     4   9  18  32  53  76 103 137 180 215 264 307
#     4  11  19  32  52  78 109 140 171 216 271 319
#     4  10  19  34  54  77 104 136 176 226 260 305
#     4  10  19  32  55  82 102 130 184 227 247 308
#     4   9  19  34  55  76 101 143 178 218 263 316
#     4  10  17  32  57  78 101 134 183 220 263 299
#     4   9  20  34  48  75 113 140 168 214 271 325
#     4  10  18  34  55  79 102 137 185 225 258 305
#
# _framework density 18.377918000000001
#
# number of rings (size 3 to 8) (size 9 to 14) (size 15 to 20)
#    0.000    2.250    1.250    5.625    0.000    0.000 
#    2.250    0.000    0.000   24.000    0.000    0.000 
#    0.000    0.000    0.000    0.000    0.000    0.000 
#
# Total GULP energy -396439.806862 kJ/mol
# GULP energy per Si atom -12388.743964 kJ/mol
# Density = 1.833609 g / cm^3
# Si number density = 18.377918 Si / 1000 Ang^3
#
#
#
# Elastic Constant Matrix: (Units=GPa)
#
#
# Indices 1 2 3 4 5 6 
#
# 1 75.5471 27.5413 28.9366 0.0000 -12.1639 0.0000
# 2 27.5413 100.0076 36.0726 0.0000 -6.8924 0.0000
# 3 28.9366 36.0726 87.2156 0.0000 -2.8216 0.0000
# 4 0.0000 0.0000 0.0000 34.4225 0.0000 4.6769
# 5 -12.1639 -6.8924 -2.8216 0.0000 16.7586 0.0000
# 6 0.0000 0.0000 0.0000 4.6769 0.0000 11.0576
#
#
#
# Elastic Compliance Matrix: (Units=1/GPa)
#
#
# Indices 1 2 3 4 5 6 
#
# 1 0.017627 -0.002485 -0.004464 0.000000 0.011021 0.000000
# 2 -0.002485 0.012381 -0.004213 0.000000 0.002579 0.000000
# 3 -0.004464 -0.004213 0.014608 0.000000 -0.002513 0.000000
# 4 0.000000 0.000000 0.000000 0.030822 0.000000 -0.013036
# 5 0.011021 0.002579 -0.002513 0.000000 0.068308 0.000000
# 6 0.000000 0.000000 0.000000 -0.013036 0.000000 0.095949
#
#
# Mechanical properties :
#
#
# Convention : Reuss Voigt Hill
#
# Bulk Modulus (GPa) = 44.85809 49.76352 47.31080
# Shear Modulus (GPa) = 18.55639 23.79573 21.17606
#
# Velocity S-wave (km/s) = 3.18104 3.60224 3.39817
# Velocity P-wave (km/s) = 6.16066 6.66619 6.41841
#
# Compressibility (1/GPa) = 0.02229252
#
# Stress axis : x y z
#
# Youngs Moduli (GPa) = 56.73151 80.76997 68.45497
#
# Poissons Ratio (x) = 0.20068 0.30559
# Poissons Ratio (y) = 0.14095 0.28840
# Poissons Ratio (z) = 0.25326 0.34028
#
# Static dielectric constant tensor:
#      x y z
#    x 2.965870 0.000000 0.079940 
#    y 0.000000 3.585350 0.000000 
#    z 0.079940 0.000000 3.635360 
# 
# 
# High freq. dielectric constant tensor:
#      x y z
#    x 1.658330 0.000000 0.010010 
#    y 0.000000 1.719250 0.000000 
#    z 0.010010 0.000000 1.728730 
# 
# From -- ./inp_files/40915.got.cif
#   From: 2010.03.12/outbox.cif.g09.slc.cpg/sg14_21_cif.got.tgz:40915.got - 2010.03.31 13:35:05.
