data_PCOD8123337
_publ_section_title
;
Structure prediction by ZEFSAII (Michael W. Deem and Ramdas Pophale) SiO2 
 PCOD8123337
Probable space group: P 21/C
;
_chemical_formula_sum "Si O2"
_cell_formula_units_Z 32
_cell_length_a 12.025632
_cell_length_b 9.450294
_cell_length_c 23.700796
_cell_angle_alpha 90.000000
_cell_angle_beta 38.167756
_cell_angle_gamma 90.000000
_cell_volume 1664.488407
_symmetry_space_group_name_H-M "P 21/C"
_symmetry_group_IT_number 14
_symmetry_cell_setting 'monoclinic'
loop_
_space_group_symop_operation_xyz
x,y,z
-x,1/2+y,1/2-z
-x,-y,-z
x,1/2-y,1/2+z
loop_
_atom_site_type_symbol
_atom_site_label
_atom_site_fract_x
_atom_site_fract_y
_atom_site_fract_z
Si Si1 0.523922 0.802697 0.870687
Si Si2 0.709798 0.652965 0.645500
Si Si3 0.624950 0.116050 0.861342
Si Si4 0.865401 0.303796 0.688514
Si Si5 0.142169 0.369996 0.295470
Si Si6 0.247147 0.861022 0.064896
Si Si7 0.234789 0.351725 0.502041
Si Si8 0.590077 0.347558 0.704954
O O1 0.694100 0.698458 0.804356
O O2 0.412841 0.783784 0.856989
O O3 0.598120 0.962747 0.844638
O O4 0.391600 0.759689 0.975451
O O5 0.850417 0.664286 0.640665
O O6 0.813791 0.637703 0.544985
O O7 0.581426 0.517411 0.707384
O O8 0.586142 0.792591 0.691805
O O9 0.784530 0.196364 0.766032
O O10 0.674202 0.094836 0.906590
O O11 0.438084 0.206863 0.930392
O O12 0.850685 0.462290 0.719222
O O13 0.765984 0.293029 0.667885
O O14 0.075759 0.261068 0.594921
O O15 0.954951 0.299649 0.347992
O O16 0.229006 0.992839 0.030287
#
# Coordination Sequence:
#
# PCOD8123337 Si02
#       8
#     4   4   4   4   4   4   4   4
#     4  10  19  36  58  78 110 142 186 222 275 323
#     4  10  18  32  58  81 114 136 185 222 276 323
#     4  11  21  38  56  81 109 146 187 227 265 326
#     4  10  21  34  56  82 112 140 182 229 278 316
#     4   9  22  34  53  86 108 143 177 230 275 322
#     4  10  21  35  58  79 108 147 192 218 264 331
#     4  10  19  35  56  84 105 146 186 221 266 332
#     4  10  17  32  56  82 111 142 172 229 277 321
#
# _framework density 19.225125999999999
#
# number of rings (size 3 to 8) (size 9 to 14) (size 15 to 20)
#    0.000    2.000    3.750    1.500    1.750    4.500 
#    0.000    1.875    0.000    2.250    0.000    0.000 
#    0.000    0.000    0.000    0.000    0.000    0.000 
#
# Total GULP energy -396611.747322 kJ/mol
# GULP energy per Si atom -12394.117104 kJ/mol
# Density = 1.918137 g / cm^3
# Si number density = 19.225126 Si / 1000 Ang^3
#
#
#
# Elastic Constant Matrix: (Units=GPa)
#
#
# Indices 1 2 3 4 5 6 
#
# 1 72.3799 7.0488 19.4810 0.0000 0.7280 0.0000
# 2 7.0488 45.3082 32.4752 0.0000 -0.7398 0.0000
# 3 19.4810 32.4752 85.5176 0.0000 -2.4217 0.0000
# 4 0.0000 0.0000 0.0000 27.5466 0.0000 0.3701
# 5 0.7280 -0.7398 -2.4217 0.0000 28.0653 0.0000
# 6 0.0000 0.0000 0.0000 0.3701 0.0000 13.1981
#
#
#
# Elastic Compliance Matrix: (Units=1/GPa)
#
#
# Indices 1 2 3 4 5 6 
#
# 1 0.014732 0.000160 -0.003436 0.000000 -0.000674 0.000000
# 2 0.000160 0.030328 -0.011559 0.000000 -0.000202 0.000000
# 3 -0.003436 -0.011559 0.016901 0.000000 0.001243 0.000000
# 4 0.000000 0.000000 0.000000 0.036316 0.000000 -0.001018
# 5 -0.000674 -0.000202 0.001243 0.000000 0.035751 0.000000
# 6 0.000000 0.000000 0.000000 -0.001018 0.000000 0.075797
#
#
# Mechanical properties :
#
#
# Convention : Reuss Voigt Hill
#
# Bulk Modulus (GPa) = 30.96878 35.69063 33.32971
# Shear Modulus (GPa) = 19.97936 23.37537 21.67736
#
# Velocity S-wave (km/s) = 3.22721 3.49072 3.36155
# Velocity P-wave (km/s) = 5.47996 5.90354 5.69569
#
# Compressibility (1/GPa) = 0.03229058
#
# Stress axis : x y z
#
# Youngs Moduli (GPa) = 67.87975 32.97270 59.16840
#
# Poissons Ratio (x) = -0.00526 0.20328
# Poissons Ratio (y) = -0.01083 0.68394
# Poissons Ratio (z) = 0.23321 0.38114
#
# Static dielectric constant tensor:
#      x y z
#    x 3.716680 0.000000 -0.245080 
#    y 0.000000 3.181300 0.000000 
#    z -0.245080 0.000000 3.907770 
# 
# 
# High freq. dielectric constant tensor:
#      x y z
#    x 1.759990 0.000000 -0.004140 
#    y 0.000000 1.701060 0.000000 
#    z -0.004140 0.000000 1.751750 
# 
# From -- ./inp_files/44396.got.cif
#   From: 2010.03.12/outbox.cif.g09.slc.cpg/sg14_23_cif.got.tgz:44396.got - 2010.03.31 13:35:05.
