data_PCOD8123418
_publ_section_title
;
Structure prediction by ZEFSAII (Michael W. Deem and Ramdas Pophale) SiO2 
 PCOD8123418
Probable space group: P 21/C
;
_chemical_formula_sum "Si O2"
_cell_formula_units_Z 32
_cell_length_a 5.307108
_cell_length_b 16.755777
_cell_length_c 21.885546
_cell_angle_alpha 90.000000
_cell_angle_beta 122.610869
_cell_angle_gamma 90.000000
_cell_volume 1639.353283
_symmetry_space_group_name_H-M "P 21/C"
_symmetry_group_IT_number 14
_symmetry_cell_setting 'monoclinic'
loop_
_space_group_symop_operation_xyz
x,y,z
-x,1/2+y,1/2-z
-x,-y,-z
x,1/2-y,1/2+z
loop_
_atom_site_type_symbol
_atom_site_label
_atom_site_fract_x
_atom_site_fract_y
_atom_site_fract_z
Si Si1 0.259793 0.430919 0.624008
Si Si2 0.015707 0.796346 0.988525
Si Si3 0.251415 0.147640 0.369912
Si Si4 0.925052 0.481576 0.895936
Si Si5 0.806262 0.984110 0.139249
Si Si6 0.725899 0.685808 0.580489
Si Si7 0.124251 0.620239 0.993676
Si Si8 0.666686 0.557897 0.232014
O O1 0.476390 0.479510 0.606687
O O2 0.425631 0.416765 0.710967
O O3 0.173455 0.345762 0.585277
O O4 0.951341 0.480535 0.595391
O O5 0.368623 0.810677 0.026186
O O6 0.942419 0.703274 0.966565
O O7 0.899774 0.823080 0.039629
O O8 0.131229 0.236524 0.367093
O O9 0.529745 0.138153 0.451785
O O10 0.037996 0.072316 0.354732
O O11 0.316665 0.139503 0.306005
O O12 0.998184 0.429767 0.965396
O O13 0.576944 0.497284 0.834711
O O14 0.078378 0.568225 0.925542
O O15 0.795218 0.889069 0.132817
O O16 0.022338 0.008100 0.224311
#
# Coordination Sequence:
#
# PCOD8123418 Si02
#       8
#     4   4   4   4   4   4   4   4
#     4  10  22  40  62  83 126 159 201 249 300 361
#     4  11  22  40  60  95 123 154 202 260 306 358
#     4  10  19  37  61  89 123 160 198 255 311 363
#     4  10  17  37  60  83 120 160 196 249 305 362
#     4  10  22  41  60  90 116 163 208 242 297 373
#     4  11  23  38  65  92 122 154 208 256 304 358
#     4   9  20  33  59  93 116 151 201 251 307 361
#     4   9  22  38  56  85 117 165 202 242 298 367
#
# _framework density 19.519894000000001
#
# number of rings (size 3 to 8) (size 9 to 14) (size 15 to 20)
#    0.750    1.250    1.250    2.625    0.000    3.000 
#    0.000    5.000    0.000    0.000    0.000    0.000 
#    0.000    0.000    0.000    0.000    0.000    0.000 
#
# Total GULP energy -396480.902627 kJ/mol
# GULP energy per Si atom -12390.028207 kJ/mol
# Density = 1.947547 g / cm^3
# Si number density = 19.519894 Si / 1000 Ang^3
#
#
#
# Elastic Constant Matrix: (Units=GPa)
#
#
# Indices 1 2 3 4 5 6 
#
# 1 100.8183 32.6796 15.5658 0.0000 0.9505 0.0000
# 2 32.6796 141.6148 63.7163 0.0000 -0.1889 0.0000
# 3 15.5658 63.7163 73.8323 0.0000 -3.8277 0.0000
# 4 0.0000 0.0000 0.0000 19.8806 0.0000 -2.1762
# 5 0.9505 -0.1889 -3.8277 0.0000 17.4162 0.0000
# 6 0.0000 0.0000 0.0000 -2.1762 0.0000 27.3509
#
#
#
# Elastic Compliance Matrix: (Units=1/GPa)
#
#
# Indices 1 2 3 4 5 6 
#
# 1 0.010730 -0.002360 -0.000260 0.000000 -0.000668 0.000000
# 2 -0.002360 0.012138 -0.010079 0.000000 -0.001955 0.000000
# 3 -0.000260 -0.010079 0.022549 0.000000 0.004861 0.000000
# 4 0.000000 0.000000 0.000000 0.050742 0.000000 0.004037
# 5 -0.000668 -0.001955 0.004861 0.000000 0.058501 0.000000
# 6 0.000000 0.000000 0.000000 0.004037 0.000000 0.036883
#
#
# Mechanical properties :
#
#
# Convention : Reuss Voigt Hill
#
# Bulk Modulus (GPa) = 49.95188 60.02099 54.98643
# Shear Modulus (GPa) = 22.35982 26.54978 24.45480
#
# Velocity S-wave (km/s) = 3.38818 3.69201 3.54335
# Velocity P-wave (km/s) = 6.39939 6.99928 6.70604
#
# Compressibility (1/GPa) = 0.02001927
#
# Stress axis : x y z
#
# Youngs Moduli (GPa) = 93.19418 82.38490 44.34785
#
# Poissons Ratio (x) = 0.19442 0.01154
# Poissons Ratio (y) = 0.21993 0.44698
# Poissons Ratio (z) = 0.02426 0.83035
#
# Static dielectric constant tensor:
#      x y z
#    x 3.606760 0.000000 -0.008890 
#    y 0.000000 3.647400 0.000000 
#    z -0.008890 0.000000 3.313260 
# 
# 
# High freq. dielectric constant tensor:
#      x y z
#    x 1.764560 0.000000 0.000850 
#    y 0.000000 1.754000 0.000000 
#    z 0.000850 0.000000 1.740480 
# 
# From -- ./inp_files/71401.got.cif
#   From: 2010.03.12/outbox.cif.g09.slc.cpg/sg14_36_cif.got.tgz:71401.got - 2010.03.31 13:35:05.
