data_PCOD8123210
_publ_section_title
;
Structure prediction by ZEFSAII (Michael W. Deem and Ramdas Pophale) SiO2 
 PCOD8123210
Probable space group: P 2/C
;
_chemical_formula_sum "Si O2"
_cell_formula_units_Z 14
_cell_length_a 7.721715
_cell_length_b 5.232266
_cell_length_c 19.822113
_cell_angle_alpha 90.000000
_cell_angle_beta 43.416336
_cell_angle_gamma 90.000000
_cell_volume 550.422893
_symmetry_space_group_name_H-M "P 2/C"
_symmetry_group_IT_number 13
_symmetry_cell_setting 'monoclinic'
loop_
_space_group_symop_operation_xyz
x,y,z
-x,y,1/2-z
-x,-y,-z
x,-y,1/2+z
loop_
_atom_site_type_symbol
_atom_site_label
_atom_site_fract_x
_atom_site_fract_y
_atom_site_fract_z
Si Si1 0.500000 0.057825 0.250000
Si Si2 0.991634 0.694135 0.941391
Si Si3 0.497264 0.919367 0.107077
Si Si4 0.229598 0.425515 0.134874
O O1 0.725729 0.226947 0.156825
O O2 0.408236 0.895278 0.211053
O O3 0.875808 0.551271 0.910012
O O4 0.804101 0.930155 0.014967
O O5 0.000000 0.500000 0.000000
O O6 0.414869 0.662704 0.092638
O O7 0.378625 0.162112 0.104157
O O8 0.000000 0.443429 0.250000
#
# Coordination Sequence:
#
# PCOD8123210 Si02
#       4
#     2   4   4   4
#     4  12  28  52  78 124 164 210 264 338 402 478
#     4  12  29  52  83 122 163 211 269 332 404 476
#     4  12  28  51  83 114 162 209 269 326 399 472
#     4  12  27  53  83 113 160 214 265 330 396 474
#
# _framework density 25.434991
#
# number of rings (size 3 to 8) (size 9 to 14) (size 15 to 20)
#    0.000    0.000    2.857    5.143    4.000    3.429 
#    0.000    0.000    0.000    0.000    0.000    0.000 
#    0.000    0.000    0.000    0.000    0.000    0.000 
#
# Total GULP energy -173645.245469 kJ/mol
# GULP energy per Si atom -12403.231819 kJ/mol
# Density = 2.537710 g / cm^3
# Si number density = 25.434991 Si / 1000 Ang^3
#
#
#
# Elastic Constant Matrix: (Units=GPa)
#
#
# Indices 1 2 3 4 5 6 
#
# 1 137.3092 25.7724 44.1001 0.0000 33.4293 0.0000
# 2 25.7724 90.1988 9.5923 0.0000 1.6611 0.0000
# 3 44.1001 9.5923 174.8668 0.0000 -8.5561 0.0000
# 4 0.0000 0.0000 0.0000 57.1245 0.0000 5.8032
# 5 33.4293 1.6611 -8.5561 0.0000 72.8830 0.0000
# 6 0.0000 0.0000 0.0000 5.8032 0.0000 29.0202
#
#
#
# Elastic Compliance Matrix: (Units=1/GPa)
#
#
# Indices 1 2 3 4 5 6 
#
# 1 0.009694 -0.002413 -0.002542 0.000000 -0.004690 0.000000
# 2 -0.002413 0.011760 0.000005 0.000000 0.000839 0.000000
# 3 -0.002542 0.000005 0.006454 0.000000 0.001923 0.000000
# 4 0.000000 0.000000 0.000000 0.017869 0.000000 -0.003573
# 5 -0.004690 0.000839 0.001923 0.000000 0.016078 0.000000
# 6 0.000000 0.000000 0.000000 -0.003573 0.000000 0.035173
#
#
# Mechanical properties :
#
#
# Convention : Reuss Voigt Hill
#
# Bulk Modulus (GPa) = 55.53470 62.36716 58.95093
# Shear Modulus (GPa) = 44.27482 53.33286 48.80384
#
# Velocity S-wave (km/s) = 4.17670 4.58408 4.38513
# Velocity P-wave (km/s) = 6.71872 7.25203 6.99046
#
# Compressibility (1/GPa) = 0.01800676
#
# Stress axis : x y z
#
# Youngs Moduli (GPa) = 103.15774 85.03267 154.95403
#
# Poissons Ratio (x) = 0.20520 0.39387
# Poissons Ratio (y) = 0.24893 -0.00070
# Poissons Ratio (z) = 0.26221 -0.00039
#
# Static dielectric constant tensor:
#      x y z
#    x 5.330610 0.000000 0.164960 
#    y 0.000000 4.394140 0.000000 
#    z 0.164960 0.000000 5.430040 
# 
# 
# High freq. dielectric constant tensor:
#      x y z
#    x 2.047860 0.000000 0.006810 
#    y 0.000000 1.998220 0.000000 
#    z 0.006810 0.000000 2.054360 
# 
# From -- ./inp_files/74122.got.cif
#   From: 2010.06.25/outbox.cif.g09.slc.cpg/sg13_38_cif.got.tgz:74122.got - 2010.06.28 04:50:58.
