data_PCOD8123343
_publ_section_title
;
Structure prediction by ZEFSAII (Michael W. Deem and Ramdas Pophale) SiO2 
 PCOD8123343
Probable space group: P 21/C
;
_chemical_formula_sum "Si O2"
_cell_formula_units_Z 32
_cell_length_a 11.384738
_cell_length_b 21.790444
_cell_length_c 8.970129
_cell_angle_alpha 90.000000
_cell_angle_beta 49.078199
_cell_angle_gamma 90.000000
_cell_volume 1681.443278
_symmetry_space_group_name_H-M "P 21/C"
_symmetry_group_IT_number 14
_symmetry_cell_setting 'monoclinic'
loop_
_space_group_symop_operation_xyz
x,y,z
-x,1/2+y,1/2-z
-x,-y,-z
x,1/2-y,1/2+z
loop_
_atom_site_type_symbol
_atom_site_label
_atom_site_fract_x
_atom_site_fract_y
_atom_site_fract_z
Si Si1 0.309713 0.357350 0.896184
Si Si2 0.565768 0.870507 0.009142
Si Si3 0.624140 0.545913 0.719764
Si Si4 0.317372 0.713159 0.579146
Si Si5 0.378679 0.275579 0.287875
Si Si6 0.166590 0.135557 0.806137
Si Si7 0.828255 0.315110 0.604759
Si Si8 0.587132 0.087368 0.336587
O O1 0.311945 0.385215 0.727028
O O2 0.281294 0.285073 0.902610
O O3 0.479600 0.371228 0.821365
O O4 0.178145 0.383347 0.119525
O O5 0.559336 0.932141 0.112921
O O6 0.398637 0.846851 0.086201
O O7 0.630630 0.814955 0.054328
O O8 0.790727 0.576485 0.626443
O O9 0.642952 0.472882 0.699484
O O10 0.494627 0.566947 0.944481
O O11 0.446302 0.759508 0.406065
O O12 0.211641 0.750289 0.784802
O O13 0.203431 0.689591 0.544840
O O14 0.301625 0.313605 0.217441
O O15 0.005537 0.165730 0.985545
O O16 0.733294 0.370901 0.757658
#
# Coordination Sequence:
#
# PCOD8123343 Si02
#       8
#     4   4   4   4   4   4   4   4
#     4  10  18  33  54  81 106 147 185 232 278 324
#     4  10  17  32  59  81 107 137 191 236 271 317
#     4   9  21  38  60  86 105 149 200 234 270 338
#     4  11  21  36  55  84 111 151 180 233 283 332
#     4  10  18  35  56  77 111 148 188 225 279 341
#     4  10  23  35  53  82 116 151 183 225 285 345
#     4  12  23  37  55  86 119 148 180 233 291 343
#     4  10  19  38  62  82 109 148 196 236 278 326
#
# _framework density 19.031268000000001
#
# number of rings (size 3 to 8) (size 9 to 14) (size 15 to 20)
#    0.000    1.750    3.750    3.750    1.750    1.000 
#    0.000    0.000    0.000    0.750    0.000    0.000 
#    0.000    0.000    0.000    0.000    0.000    0.000 
#
# Total GULP energy -396612.229950 kJ/mol
# GULP energy per Si atom -12394.132186 kJ/mol
# Density = 1.898795 g / cm^3
# Si number density = 19.031268 Si / 1000 Ang^3
#
#
#
# Elastic Constant Matrix: (Units=GPa)
#
#
# Indices 1 2 3 4 5 6 
#
# 1 59.0651 10.9065 25.9639 0.0000 1.8457 0.0000
# 2 10.9065 62.5007 0.1102 0.0000 0.7417 0.0000
# 3 25.9639 0.1102 68.6117 0.0000 7.4330 0.0000
# 4 0.0000 0.0000 0.0000 21.0876 0.0000 1.1684
# 5 1.8457 0.7417 7.4330 0.0000 32.6116 0.0000
# 6 0.0000 0.0000 0.0000 1.1684 0.0000 11.7695
#
#
#
# Elastic Compliance Matrix: (Units=1/GPa)
#
#
# Indices 1 2 3 4 5 6 
#
# 1 0.021136 -0.003683 -0.008071 0.000000 0.000727 0.000000
# 2 -0.003683 0.016646 0.001420 0.000000 -0.000494 0.000000
# 3 -0.008071 0.001420 0.018026 0.000000 -0.003684 0.000000
# 4 0.000000 0.000000 0.000000 0.047684 0.000000 -0.004734
# 5 0.000727 -0.000494 -0.003684 0.000000 0.031474 0.000000
# 6 0.000000 0.000000 0.000000 -0.004734 0.000000 0.085435
#
#
# Mechanical properties :
#
#
# Convention : Reuss Voigt Hill
#
# Bulk Modulus (GPa) = 28.45699 29.34875 28.90287
# Shear Modulus (GPa) = 19.78009 23.30687 21.54348
#
# Velocity S-wave (km/s) = 3.22739 3.50331 3.36818
# Velocity P-wave (km/s) = 5.37338 5.64084 5.50874
#
# Compressibility (1/GPa) = 0.03514075
#
# Stress axis : x y z
#
# Youngs Moduli (GPa) = 47.31359 60.07519 55.47605
#
# Poissons Ratio (x) = 0.22123 0.44774
# Poissons Ratio (y) = 0.17424 -0.07879
# Poissons Ratio (z) = 0.38187 -0.08533
#
# Static dielectric constant tensor:
#      x y z
#    x 3.403750 0.000000 0.300950 
#    y 0.000000 3.553510 0.000000 
#    z 0.300950 0.000000 3.483990 
# 
# 
# High freq. dielectric constant tensor:
#      x y z
#    x 1.717720 0.000000 0.026540 
#    y 0.000000 1.730850 0.000000 
#    z 0.026540 0.000000 1.734350 
# 
# From -- ./inp_files/10673.got.cif
#   From: 2010.03.12/outbox.cif.g09.slc.cpg/sg14_6_cif.got.tgz:10673.got - 2010.03.31 13:35:05.
