data_PCOD8123456
_publ_section_title
;
Structure prediction by ZEFSAII (Michael W. Deem and Ramdas Pophale) SiO2 
 PCOD8123456
Probable space group: P 21/C
;
_chemical_formula_sum "Si O2"
_cell_formula_units_Z 32
_cell_length_a 11.246372
_cell_length_b 18.970657
_cell_length_c 9.633649
_cell_angle_alpha 90.000000
_cell_angle_beta 63.307528
_cell_angle_gamma 90.000000
_cell_volume 1836.311563
_symmetry_space_group_name_H-M "P 21/C"
_symmetry_group_IT_number 14
_symmetry_cell_setting 'monoclinic'
loop_
_space_group_symop_operation_xyz
x,y,z
-x,1/2+y,1/2-z
-x,-y,-z
x,1/2-y,1/2+z
loop_
_atom_site_type_symbol
_atom_site_label
_atom_site_fract_x
_atom_site_fract_y
_atom_site_fract_z
Si Si1 0.397480 0.042377 0.646216
Si Si2 0.533143 0.186356 0.192675
Si Si3 0.584112 0.034905 0.075770
Si Si4 0.174587 0.830244 0.641748
Si Si5 0.877348 0.433835 0.432168
Si Si6 0.510158 0.312402 0.014636
Si Si7 0.155433 0.788426 0.952264
Si Si8 0.876952 0.481211 0.748997
O O1 0.408367 0.017447 0.798592
O O2 0.426669 0.125185 0.628293
O O3 0.500000 0.000000 0.500000
O O4 0.252098 0.029095 0.656317
O O5 0.466095 0.197507 0.378103
O O6 0.688292 0.200102 0.122052
O O7 0.508203 0.106605 0.157139
O O8 0.470792 0.241103 0.116008
O O9 0.500000 0.000000 0.000000
O O10 0.732929 0.051221 0.940304
O O11 0.334069 0.831030 0.559169
O O12 0.115006 0.792742 0.811636
O O13 0.118091 0.787090 0.538895
O O14 0.124566 0.910745 0.655831
O O15 0.911303 0.350408 0.420089
O O16 0.873510 0.459315 0.591635
O O17 0.990370 0.474308 0.285121
#
# Coordination Sequence:
#
# PCOD8123456 Si02
#       8
#     4   4   4   4   4   4   4   4
#     4  11  18  32  52  77 101 131 169 209 249 297
#     4   9  18  30  46  72 100 128 165 207 251 300
#     4  10  20  33  52  77 104 131 169 212 252 297
#     4   9  15  27  46  73  92 121 157 205 242 286
#     4   8  16  32  49  72  95 130 168 201 239 297
#     4  10  18  30  48  73 102 129 166 208 254 296
#     4   8  15  27  46  67  94 117 160 202 238 284
#     4   9  16  29  54  72  94 129 172 204 239 293
#
# _framework density 17.426235999999999
#
# number of rings (size 3 to 8) (size 9 to 14) (size 15 to 20)
#    0.000    2.750    2.500    1.500    1.750    0.000 
#    2.250    0.000    2.750    4.500    0.000    0.000 
#    0.000    0.000    0.000    0.000    0.000    0.000 
#
# Total GULP energy -396657.500112 kJ/mol
# GULP energy per Si atom -12395.546878 kJ/mol
# Density = 1.738657 g / cm^3
# Si number density = 17.426236 Si / 1000 Ang^3
#
#
#
# Elastic Constant Matrix: (Units=GPa)
#
#
# Indices 1 2 3 4 5 6 
#
# 1 53.0272 32.7309 27.8036 0.0000 -6.4729 0.0000
# 2 32.7309 137.3743 57.4591 0.0000 -0.9227 0.0000
# 3 27.8036 57.4591 73.5219 0.0000 1.8964 0.0000
# 4 0.0000 0.0000 0.0000 34.9718 0.0000 -0.5173
# 5 -6.4729 -0.9227 1.8964 0.0000 19.5175 0.0000
# 6 0.0000 0.0000 0.0000 -0.5173 0.0000 23.3548
#
#
#
# Elastic Compliance Matrix: (Units=1/GPa)
#
#
# Indices 1 2 3 4 5 6 
#
# 1 0.025808 -0.002832 -0.007783 0.000000 0.009182 0.000000
# 2 -0.002832 0.011160 -0.007660 0.000000 0.000333 0.000000
# 3 -0.007783 -0.007660 0.022664 0.000000 -0.005146 0.000000
# 4 0.000000 0.000000 0.000000 0.028604 0.000000 0.000634
# 5 0.009182 0.000333 -0.005146 0.000000 0.054797 0.000000
# 6 0.000000 0.000000 0.000000 0.000634 0.000000 0.042832
#
#
# Mechanical properties :
#
#
# Convention : Reuss Voigt Hill
#
# Bulk Modulus (GPa) = 43.32353 55.54562 49.43458
# Shear Modulus (GPa) = 21.72897 25.29748 23.51322
#
# Velocity S-wave (km/s) = 3.53499 3.81424 3.67727
# Velocity P-wave (km/s) = 6.44800 7.16532 6.81610
#
# Compressibility (1/GPa) = 0.02308214
#
# Stress axis : x y z
#
# Youngs Moduli (GPa) = 38.74767 89.60545 44.12357
#
# Poissons Ratio (x) = 0.25375 0.34343
# Poissons Ratio (y) = 0.10973 0.33796
# Poissons Ratio (z) = 0.30159 0.68633
#
# Static dielectric constant tensor:
#      x y z
#    x 3.041890 0.000000 -0.037890 
#    y 0.000000 3.756170 0.000000 
#    z -0.037890 0.000000 3.478470 
# 
# 
# High freq. dielectric constant tensor:
#      x y z
#    x 1.626460 0.000000 -0.001430 
#    y 0.000000 1.683440 0.000000 
#    z -0.001430 0.000000 1.659610 
# 
# From -- ./inp_files/13729.got.cif
#   From: 2010.03.12/outbox.cif.g09.slc.cpg/sg14_7_cif.got.tgz:13729.got - 2010.03.31 13:35:05.
