data_PCOD8123730
_publ_section_title
;
Structure prediction by ZEFSAII (Michael W. Deem and Ramdas Pophale) SiO2 
 PCOD8123730
Probable space group: P 21/C
;
_chemical_formula_sum "Si O2"
_cell_formula_units_Z 20
_cell_length_a 28.288626
_cell_length_b 6.943774
_cell_length_c 15.354184
_cell_angle_alpha 90.000000
_cell_angle_beta 19.314396
_cell_angle_gamma 90.000000
_cell_volume 997.553094
_symmetry_space_group_name_H-M "P 21/C"
_symmetry_group_IT_number 14
_symmetry_cell_setting 'monoclinic'
loop_
_space_group_symop_operation_xyz
x,y,z
-x,1/2+y,1/2-z
-x,-y,-z
x,1/2-y,1/2+z
loop_
_atom_site_type_symbol
_atom_site_label
_atom_site_fract_x
_atom_site_fract_y
_atom_site_fract_z
Si Si1 0.374380 0.110615 0.015642
Si Si2 0.068180 0.965143 0.246865
Si Si3 0.172979 0.688579 0.925003
Si Si4 0.817445 0.675529 0.298336
Si Si5 0.691179 0.496826 0.930248
O O1 0.305126 0.054698 0.041074
O O2 0.338409 0.337879 0.092538
O O3 0.296090 0.974636 0.222998
O O4 0.542797 0.082927 0.725130
O O5 0.968947 0.852904 0.487297
O O6 0.174638 0.105551 0.115666
O O7 0.161944 0.807110 0.033253
O O8 0.978711 0.090958 0.333205
O O9 0.214824 0.827825 0.772650
O O10 0.776790 0.903456 0.362169
#
# Coordination Sequence:
#
# PCOD8123730 Si02
#       5
#     4   4   4   4   4
#     4   9  19  35  58  80 107 148 184 224 265 325
#     4  10  20  35  55  84 111 146 175 232 275 324
#     4  11  20  34  59  81 113 142 186 224 275 325
#     4   8  19  36  54  81 112 141 182 224 279 315
#     4  10  18  36  58  81 104 150 188 218 270 328
#
# _framework density 20.049057000000001
#
# number of rings (size 3 to 8) (size 9 to 14) (size 15 to 20)
#    1.200    1.200    2.000    1.200    0.000    0.800 
#    0.000    6.000    0.000    2.400    0.000    0.000 
#    0.000    0.000    0.000    0.000    0.000    0.000 
#
# Total GULP energy -247791.453190 kJ/mol
# GULP energy per Si atom -12389.572659 kJ/mol
# Density = 2.000342 g / cm^3
# Si number density = 20.049057 Si / 1000 Ang^3
#
#
#
# Elastic Constant Matrix: (Units=GPa)
#
#
# Indices 1 2 3 4 5 6 
#
# 1 23.4166 -19.0689 6.2011 0.0000 3.2216 0.0000
# 2 -19.0689 68.2274 9.0064 0.0000 2.9648 0.0000
# 3 6.2011 9.0064 53.3872 0.0000 -2.1734 0.0000
# 4 0.0000 0.0000 0.0000 33.1494 0.0000 3.1011
# 5 3.2216 2.9648 -2.1734 0.0000 20.6653 0.0000
# 6 0.0000 0.0000 0.0000 3.1011 0.0000 24.8644
#
#
#
# Elastic Compliance Matrix: (Units=1/GPa)
#
#
# Indices 1 2 3 4 5 6 
#
# 1 0.063905 0.019970 -0.011363 0.000000 -0.014023 0.000000
# 2 0.019970 0.021354 -0.006200 0.000000 -0.006829 0.000000
# 3 -0.011363 -0.006200 0.021296 0.000000 0.004901 0.000000
# 4 0.000000 0.000000 0.000000 0.030523 0.000000 -0.003807
# 5 -0.014023 -0.006829 0.004901 0.000000 0.052072 0.000000
# 6 0.000000 0.000000 0.000000 -0.003807 0.000000 0.040693
#
#
# Mechanical properties :
#
#
# Convention : Reuss Voigt Hill
#
# Bulk Modulus (GPa) = 8.97903 15.25648 12.11775
# Shear Modulus (GPa) = 19.07300 25.66198 22.36749
#
# Velocity S-wave (km/s) = 3.08769 3.58153 3.34374
# Velocity P-wave (km/s) = 4.14729 4.97285 4.57872
#
# Compressibility (1/GPa) = 0.11137064
#
# Stress axis : x y z
#
# Youngs Moduli (GPa) = 15.64811 46.83062 46.95643
#
# Poissons Ratio (x) = -0.93522 0.53355
# Poissons Ratio (y) = -0.31250 0.29113
# Poissons Ratio (z) = 0.17780 0.29035
#
# Static dielectric constant tensor:
#      x y z
#    x 3.314300 0.000000 -0.146830 
#    y 0.000000 3.764930 0.000000 
#    z -0.146830 0.000000 3.442330 
# 
# 
# High freq. dielectric constant tensor:
#      x y z
#    x 1.734090 0.000000 -0.016430 
#    y 0.000000 1.793120 0.000000 
#    z -0.016430 0.000000 1.770810 
# 
# From -- ./inp_files/52196.got.cif
#   From: 2010.03.12/outbox.cif.g09.slc.cpg/sg14_27_cif.got.tgz:52196.got - 2010.03.31 13:35:05.
