data_PCOD8123900
_publ_section_title
;
Structure prediction by ZEFSAII (Michael W. Deem and Ramdas Pophale) SiO2 
 PCOD8123900
Probable space group: P 21/C
;
_chemical_formula_sum "Si O2"
_cell_formula_units_Z 32
_cell_length_a 10.931481
_cell_length_b 20.040476
_cell_length_c 8.816809
_cell_angle_alpha 90.000000
_cell_angle_beta 66.216809
_cell_angle_gamma 90.000000
_cell_volume 1767.488482
_symmetry_space_group_name_H-M "P 21/C"
_symmetry_group_IT_number 14
_symmetry_cell_setting 'monoclinic'
loop_
_space_group_symop_operation_xyz
x,y,z
-x,1/2+y,1/2-z
-x,-y,-z
x,1/2-y,1/2+z
loop_
_atom_site_type_symbol
_atom_site_label
_atom_site_fract_x
_atom_site_fract_y
_atom_site_fract_z
Si Si1 0.536622 0.572060 0.304593
Si Si2 0.536623 0.927940 0.158784
Si Si3 0.114284 0.908995 0.868929
Si Si4 0.171801 0.046205 0.339209
Si Si5 0.326724 0.821480 0.907188
Si Si6 0.828200 0.953795 0.011010
Si Si7 0.673276 0.321480 0.233911
Si Si8 0.114284 0.908995 0.516787
O O1 0.500000 0.500000 0.250886
O O2 0.504444 0.569213 0.497778
O O3 0.693040 0.587862 0.194631
O O4 0.443222 0.630023 0.282581
O O5 0.693040 0.912137 0.112329
O O6 0.443223 0.869977 0.274197
O O7 0.182802 0.849966 0.929099
O O8 0.142926 0.896893 0.678537
O O9 0.173603 0.980405 0.885815
O O10 0.955414 0.907326 0.984886
O O11 0.044587 0.092674 0.440299
O O12 0.173602 0.980405 0.440583
O O13 0.167375 0.022499 0.166313
O O14 0.352747 0.750000 0.823627
O O15 0.330514 0.815032 0.084743
O O16 0.817198 0.349966 0.111901
#
# Coordination Sequence:
#
# PCOD8123900 Si02
#       8
#     4   4   4   4   4   4   4   4
#     4   9  16  31  56  80 102 138 180 218 263 314
#     4   9  16  31  56  80 102 138 180 218 263 314
#     4  10  19  31  51  80 110 138 173 216 263 314
#     4   9  17  32  54  79 106 137 176 218 262 308
#     4  11  22  37  56  76 106 142 180 220 268 326
#     4   9  17  32  54  79 106 137 176 218 262 308
#     4  11  22  37  56  76 106 142 180 220 268 326
#     4  10  19  31  51  80 110 138 173 216 263 314
#
# _framework density 18.104785
#
# number of rings (size 3 to 8) (size 9 to 14) (size 15 to 20)
#    0.000    2.250    2.500    1.500    0.000    1.000 
#    0.000    5.000    0.000    3.000    0.000    0.000 
#    0.000    0.000    0.000    0.000    0.000    0.000 
#
# Total GULP energy -396741.499684 kJ/mol
# GULP energy per Si atom -12398.171865 kJ/mol
# Density = 1.806358 g / cm^3
# Si number density = 18.104785 Si / 1000 Ang^3
#
#
#
# Elastic Constant Matrix: (Units=GPa)
#
#
# Indices 1 2 3 4 5 6 
#
# 1 119.3488 69.2352 40.0197 0.0000 -22.7889 0.0000
# 2 69.2352 130.0668 45.1988 0.0000 -15.2027 0.0000
# 3 40.0197 45.1988 64.5718 0.0000 -11.8560 0.0000
# 4 0.0000 0.0000 0.0000 28.0010 0.0000 1.3647
# 5 -22.7889 -15.2027 -11.8560 0.0000 28.5635 0.0000
# 6 0.0000 0.0000 0.0000 1.3647 0.0000 25.8430
#
#
#
# Elastic Compliance Matrix: (Units=1/GPa)
#
#
# Indices 1 2 3 4 5 6 
#
# 1 0.014045 -0.005405 -0.003672 0.000000 0.006805 0.000000
# 2 -0.005405 0.012429 -0.005334 0.000000 0.000089 0.000000
# 3 -0.003672 -0.005334 0.022123 0.000000 0.003414 0.000000
# 4 0.000000 0.000000 0.000000 0.035805 0.000000 -0.001891
# 5 0.006805 0.000089 0.003414 0.000000 0.041903 0.000000
# 6 0.000000 0.000000 0.000000 -0.001891 0.000000 0.038795
#
#
# Mechanical properties :
#
#
# Convention : Reuss Voigt Hill
#
# Bulk Modulus (GPa) = 50.56773 69.21053 59.88913
# Shear Modulus (GPa) = 24.93591 27.11709 26.02650
#
# Velocity S-wave (km/s) = 3.71524 3.87432 3.79561
# Velocity P-wave (km/s) = 6.81140 7.63705 7.23601
#
# Compressibility (1/GPa) = 0.01977546
#
# Stress axis : x y z
#
# Youngs Moduli (GPa) = 71.20147 80.45439 45.20161
#
# Poissons Ratio (x) = 0.43483 0.16598
# Poissons Ratio (y) = 0.38482 0.24112
# Poissons Ratio (z) = 0.26145 0.42916
#
# Static dielectric constant tensor:
#      x y z
#    x 3.578940 0.000000 -0.188950 
#    y 0.000000 3.161740 0.000000 
#    z -0.188950 0.000000 3.280200 
# 
# 
# High freq. dielectric constant tensor:
#      x y z
#    x 1.711850 0.000000 -0.013390 
#    y 0.000000 1.670310 0.000000 
#    z -0.013390 0.000000 1.690670 
# 
# From -- ./inp_files/13889.got.cif
#   From: 2010.03.12/outbox.cif.g09.slc.cpg/sg14_7_cif.got.tgz:13889.got - 2010.03.31 13:35:05.
