data_PCOD8123969
_publ_section_title
;
Structure prediction by ZEFSAII (Michael W. Deem and Ramdas Pophale) SiO2 
 PCOD8123969
Probable space group: P 21/C
;
_chemical_formula_sum "Si O2"
_cell_formula_units_Z 32
_cell_length_a 20.944636
_cell_length_b 13.981880
_cell_length_c 9.341928
_cell_angle_alpha 90.000000
_cell_angle_beta 151.488772
_cell_angle_gamma 90.000000
_cell_volume 1305.853674
_symmetry_space_group_name_H-M "P 21/C"
_symmetry_group_IT_number 14
_symmetry_cell_setting 'monoclinic'
loop_
_space_group_symop_operation_xyz
x,y,z
-x,1/2+y,1/2-z
-x,-y,-z
x,1/2-y,1/2+z
loop_
_atom_site_type_symbol
_atom_site_label
_atom_site_fract_x
_atom_site_fract_y
_atom_site_fract_z
Si Si1 0.495596 0.690976 0.206334
Si Si2 0.326227 0.273195 0.699872
Si Si3 0.935683 0.849935 0.304343
Si Si4 0.274688 0.821520 0.681230
Si Si5 0.276491 0.922325 0.402417
Si Si6 0.950032 0.186091 0.174013
Si Si7 0.071637 0.535614 0.857016
Si Si8 0.846489 0.599523 0.208937
O O1 0.604957 0.709619 0.543433
O O2 0.569336 0.677492 0.200398
O O3 0.406797 0.787117 0.024041
O O4 0.404458 0.594871 0.049878
O O5 0.223497 0.355987 0.551472
O O6 0.221417 0.202012 0.412916
O O7 0.991069 0.752689 0.336645
O O8 0.947489 0.848581 0.500398
O O9 0.006413 0.947508 0.384650
O O10 0.307965 0.840608 0.581521
O O11 0.166756 0.738211 0.469806
O O12 0.218382 0.916414 0.647302
O O13 0.267461 0.025684 0.459392
O O14 0.127824 0.907697 0.042867
O O15 0.100166 0.427574 0.850610
O O16 0.980217 0.598407 0.567657
#
# Coordination Sequence:
#
# PCOD8123969 Si02
#       8
#     4   4   4   4   4   4   4   4
#     4  11  23  39  62  91 124 172 224 254 297 383
#     4  12  24  40  64  94 129 170 219 265 310 376
#     4  11  21  37  63  96 127 167 211 273 321 380
#     4   9  17  36  59  92 117 157 207 265 302 366
#     4  10  20  38  64  91 127 167 212 267 315 382
#     4  10  19  32  63  93 121 159 214 266 324 369
#     4   9  20  38  65  95 127 156 211 265 335 380
#     4  10  22  40  66  97 131 167 205 270 334 394
#
# _framework density 24.505043000000001
#
# number of rings (size 3 to 8) (size 9 to 14) (size 15 to 20)
#    0.000    1.750    2.500    3.000    3.500    0.500 
#    0.000    0.625    2.750    3.000    0.000    0.000 
#    0.000    0.000    0.000    0.000    0.000    0.000 
#
# Total GULP energy -396576.312397 kJ/mol
# GULP energy per Si atom -12393.009762 kJ/mol
# Density = 2.444927 g / cm^3
# Si number density = 24.505043 Si / 1000 Ang^3
#
#
#
# Elastic Constant Matrix: (Units=GPa)
#
#
# Indices 1 2 3 4 5 6 
#
# 1 113.7171 17.3483 17.4782 0.0000 11.0450 0.0000
# 2 17.3483 46.2764 -2.2981 0.0000 8.0154 0.0000
# 3 17.4782 -2.2981 81.5055 0.0000 2.3440 0.0000
# 4 0.0000 0.0000 0.0000 27.3157 0.0000 3.7772
# 5 11.0450 8.0154 2.3440 0.0000 46.9536 0.0000
# 6 0.0000 0.0000 0.0000 3.7772 0.0000 23.6677
#
#
#
# Elastic Compliance Matrix: (Units=1/GPa)
#
#
# Indices 1 2 3 4 5 6 
#
# 1 0.009816 -0.003510 -0.002158 0.000000 -0.001602 0.000000
# 2 -0.003510 0.023567 0.001511 0.000000 -0.003273 0.000000
# 3 -0.002158 0.001511 0.012786 0.000000 -0.000389 0.000000
# 4 0.000000 0.000000 0.000000 0.037435 0.000000 -0.005974
# 5 -0.001602 -0.003273 -0.000389 0.000000 0.022253 0.000000
# 6 0.000000 0.000000 0.000000 -0.005974 0.000000 0.043205
#
#
# Mechanical properties :
#
#
# Convention : Reuss Voigt Hill
#
# Bulk Modulus (GPa) = 26.41569 34.06176 30.23873
# Shear Modulus (GPa) = 29.41285 33.51875 31.46580
#
# Velocity S-wave (km/s) = 3.46826 3.70243 3.58726
# Velocity P-wave (km/s) = 5.18088 5.67516 5.43364
#
# Compressibility (1/GPa) = 0.03785629
#
# Stress axis : x y z
#
# Youngs Moduli (GPa) = 101.86947 42.43227 78.21270
#
# Poissons Ratio (x) = 0.14892 0.16878
# Poissons Ratio (y) = 0.35753 -0.11820
# Poissons Ratio (z) = 0.21983 -0.06412
#
# Static dielectric constant tensor:
#      x y z
#    x 4.666340 0.000000 0.133370 
#    y 0.000000 4.272580 0.000000 
#    z 0.133370 0.000000 4.397650 
# 
# 
# High freq. dielectric constant tensor:
#      x y z
#    x 1.991070 0.000000 0.009870 
#    y 0.000000 1.954600 0.000000 
#    z 0.009870 0.000000 1.961630 
# 
# From -- ./inp_files/19181.got.cif
#   From: 2010.03.12/outbox.cif.g09.slc.cpg/sg14_10_cif.got.tgz:19181.got - 2010.03.31 13:35:05.
