data_PCOD8123304
_publ_section_title
;
Structure prediction by ZEFSAII (Michael W. Deem and Ramdas Pophale) SiO2 
 PCOD8123304
Probable space group: P 21/C
;
_chemical_formula_sum "Si O2"
_cell_formula_units_Z 28
_cell_length_a 10.710393
_cell_length_b 5.169064
_cell_length_c 28.415828
_cell_angle_alpha 90.000000
_cell_angle_beta 104.471844
_cell_angle_gamma 90.000000
_cell_volume 1523.261132
_symmetry_space_group_name_H-M "P 21/C"
_symmetry_group_IT_number 14
_symmetry_cell_setting 'monoclinic'
loop_
_space_group_symop_operation_xyz
x,y,z
-x,1/2+y,1/2-z
-x,-y,-z
x,1/2-y,1/2+z
loop_
_atom_site_type_symbol
_atom_site_label
_atom_site_fract_x
_atom_site_fract_y
_atom_site_fract_z
Si Si1 0.491977 0.021205 0.187212
Si Si2 0.710658 0.008502 0.911100
Si Si3 0.064853 0.536982 0.737091
Si Si4 0.207282 0.007408 0.534084
Si Si5 0.948305 0.007244 0.569555
Si Si6 0.969783 0.007822 0.875731
Si Si7 0.361251 0.021089 0.272733
O O1 0.388998 0.004843 0.219737
O O2 0.562115 0.296699 0.193070
O O3 0.419052 0.987975 0.131319
O O4 0.597282 0.796375 0.202383
O O5 0.709541 0.256829 0.944771
O O6 0.832436 0.008416 0.888130
O O7 0.710976 0.759224 0.944696
O O8 0.211053 0.512671 0.767914
O O9 0.980710 0.328201 0.757292
O O10 0.054154 0.478070 0.681306
O O11 0.074340 0.002288 0.549523
O O12 0.177532 0.008711 0.475549
O O13 0.942839 0.269129 0.599010
O O14 0.950217 0.766459 0.605387
#
# Coordination Sequence:
#
# PCOD8123304 Si02
#       7
#     4   4   4   4   4   4   4
#     4  10  19  33  54  74 105 134 174 210 252 325
#     4  10  17  29  48  74 105 133 167 199 252 319
#     4  12  24  38  54  75 106 139 184 222 252 296
#     4   9  17  26  44  72 103 135 161 200 249 309
#     4   9  17  29  45  67 102 137 166 200 247 316
#     4  10  19  32  48  69 100 139 174 202 255 305
#     4  10  21  35  51  75 100 139 175 214 261 294
#
# _framework density 18.381613999999999
#
# number of rings (size 3 to 8) (size 9 to 14) (size 15 to 20)
#    0.000    2.000    1.429    3.429    0.000    3.429 
#    0.000    0.000    0.000    0.000    0.000    0.000 
#    0.000   80.000    0.000    0.000    0.000    0.000 
#
# Total GULP energy -347280.997666 kJ/mol
# GULP energy per Si atom -12402.892774 kJ/mol
# Density = 1.833978 g / cm^3
# Si number density = 18.381614 Si / 1000 Ang^3
#
#
#
# Elastic Constant Matrix: (Units=GPa)
#
#
# Indices 1 2 3 4 5 6 
#
# 1 46.7260 8.7066 13.7917 0.0000 12.5367 0.0000
# 2 8.7066 114.1626 24.7680 0.0000 6.3005 0.0000
# 3 13.7917 24.7680 95.4256 0.0000 24.7391 0.0000
# 4 0.0000 0.0000 0.0000 30.8584 0.0000 0.7523
# 5 12.5367 6.3005 24.7391 0.0000 20.6763 0.0000
# 6 0.0000 0.0000 0.0000 0.7523 0.0000 12.6555
#
#
#
# Elastic Compliance Matrix: (Units=1/GPa)
#
#
# Indices 1 2 3 4 5 6 
#
# 1 0.025739 -0.001243 0.000798 0.000000 -0.016182 0.000000
# 2 -0.001243 0.009342 -0.002468 0.000000 0.000860 0.000000
# 3 0.000798 -0.002468 0.015852 0.000000 -0.018699 0.000000
# 4 0.000000 0.000000 0.000000 0.032453 0.000000 -0.001929
# 5 -0.016182 0.000860 -0.018699 0.000000 0.080288 0.000000
# 6 0.000000 0.000000 0.000000 -0.001929 0.000000 0.079131
#
#
# Mechanical properties :
#
#
# Convention : Reuss Voigt Hill
#
# Bulk Modulus (GPa) = 22.16931 38.98298 30.57614
# Shear Modulus (GPa) = 18.96321 26.77459 22.86890
#
# Velocity S-wave (km/s) = 3.21540 3.82068 3.53103
# Velocity P-wave (km/s) = 5.08644 6.38099 5.77013
#
# Compressibility (1/GPa) = 0.04510741
#
# Stress axis : x y z
#
# Youngs Moduli (GPa) = 38.85115 107.04078 63.08211
#
# Poissons Ratio (x) = 0.13305 -0.05033
# Poissons Ratio (y) = 0.04829 0.15569
# Poissons Ratio (z) = -0.03100 0.26419
#
# Static dielectric constant tensor:
#      x y z
#    x 2.884850 0.000000 0.162140 
#    y 0.000000 3.634860 0.000000 
#    z 0.162140 0.000000 3.425620 
# 
# 
# High freq. dielectric constant tensor:
#      x y z
#    x 1.655360 0.000000 0.023630 
#    y 0.000000 1.735360 0.000000 
#    z 0.023630 0.000000 1.720220 
# 
# From -- ./inp_files/79135.got.cif
#   From: 2010.03.12/outbox.cif.g09.slc.cpg/sg14_40_cif.got.tgz:79135.got - 2010.03.31 13:35:05.
