data_PCOD8123980
_publ_section_title
;
Structure prediction by ZEFSAII (Michael W. Deem and Ramdas Pophale) SiO2 
 PCOD8123980
Probable space group: P 21/C
;
_chemical_formula_sum "Si O2"
_cell_formula_units_Z 32
_cell_length_a 8.346495
_cell_length_b 28.506856
_cell_length_c 14.255438
_cell_angle_alpha 90.000000
_cell_angle_beta 31.352975
_cell_angle_gamma 90.000000
_cell_volume 1764.799166
_symmetry_space_group_name_H-M "P 21/C"
_symmetry_group_IT_number 14
_symmetry_cell_setting 'monoclinic'
loop_
_space_group_symop_operation_xyz
x,y,z
-x,1/2+y,1/2-z
-x,-y,-z
x,1/2-y,1/2+z
loop_
_atom_site_type_symbol
_atom_site_label
_atom_site_fract_x
_atom_site_fract_y
_atom_site_fract_z
Si Si1 0.362752 0.874965 0.468687
Si Si2 0.364878 0.801352 0.316966
Si Si3 0.363965 0.946479 0.314318
Si Si4 0.364878 0.301352 0.818156
Si Si5 0.362752 0.374965 0.668561
Si Si6 0.365693 0.626457 0.177225
Si Si7 0.634307 0.626457 0.542919
Si Si8 0.363965 0.053521 0.321716
O O1 0.474636 0.829306 0.354982
O O2 0.464416 0.921657 0.361364
O O3 0.502284 0.875090 0.503174
O O4 1.000000 0.873899 0.658659
O O5 0.500000 0.750000 0.255069
O O6 0.491761 0.827695 0.162195
O O7 0.000000 0.799324 0.491800
O O8 0.531604 0.921434 0.144087
O O9 1.000000 0.942013 0.479969
O O10 0.474556 1.000000 0.262721
O O11 0.474636 0.329306 0.670381
O O12 0.491761 0.327695 0.846044
O O13 0.502283 0.375090 0.494542
O O14 0.464417 0.421657 0.674219
O O15 0.468395 0.578566 0.175692
O O16 0.000000 0.630547 0.362132
#
# Coordination Sequence:
#
# PCOD8123980 Si02
#       8
#     4   4   4   4   4   4   4   4
#     4   8  17  33  51  72 101 133 164 202 246 295
#     4  10  20  36  54  74 101 132 166 203 248 298
#     4   9  18  34  53  73 101 136 169 203 248 298
#     4  10  20  36  54  74 101 132 166 203 248 298
#     4   8  17  33  51  72 101 133 164 202 246 295
#     4  10  19  33  52  75 102 131 166 207 248 290
#     4  10  19  33  52  75 102 131 166 207 248 290
#     4   9  18  34  53  73 101 136 169 203 248 298
#
# _framework density 18.132376000000001
#
# number of rings (size 3 to 8) (size 9 to 14) (size 15 to 20)
#    0.000    2.750    0.000    3.000    0.000    2.500 
#    0.000   15.000    0.000    0.000    0.000    0.000 
#    0.000    0.000    0.000    0.000    0.000    0.000 
#
# Total GULP energy -396742.624818 kJ/mol
# GULP energy per Si atom -12398.207026 kJ/mol
# Density = 1.809111 g / cm^3
# Si number density = 18.132376 Si / 1000 Ang^3
#
#
#
# Elastic Constant Matrix: (Units=GPa)
#
#
# Indices 1 2 3 4 5 6 
#
# 1 134.8162 76.0748 50.0930 0.0000 36.3360 0.0000
# 2 76.0748 185.6274 53.5555 0.0000 22.7982 0.0000
# 3 50.0930 53.5555 77.0165 0.0000 22.1806 0.0000
# 4 0.0000 0.0000 0.0000 22.7047 0.0000 -6.0338
# 5 36.3360 22.7982 22.1806 0.0000 38.7469 0.0000
# 6 0.0000 0.0000 0.0000 -6.0338 0.0000 16.7451
#
#
#
# Elastic Compliance Matrix: (Units=1/GPa)
#
#
# Indices 1 2 3 4 5 6 
#
# 1 0.012748 -0.003150 -0.003822 0.000000 -0.007913 0.000000
# 2 -0.003150 0.007595 -0.003348 0.000000 0.000402 0.000000
# 3 -0.003822 -0.003348 0.019397 0.000000 -0.005549 0.000000
# 4 0.000000 0.000000 0.000000 0.048708 0.000000 0.017551
# 5 -0.007913 0.000402 -0.005549 0.000000 0.036170 0.000000
# 6 0.000000 0.000000 0.000000 0.017551 0.000000 0.066043
#
#
# Mechanical properties :
#
#
# Convention : Reuss Voigt Hill
#
# Bulk Modulus (GPa) = 52.35885 84.10075 68.22980
# Shear Modulus (GPa) = 22.97092 30.15512 26.56302
#
# Velocity S-wave (km/s) = 3.56314 4.08248 3.83162
# Velocity P-wave (km/s) = 6.77248 8.28881 7.56872
#
# Compressibility (1/GPa) = 0.01909897
#
# Stress axis : x y z
#
# Youngs Moduli (GPa) = 78.44421 131.67205 51.55529
#
# Poissons Ratio (x) = 0.41474 0.19705
# Poissons Ratio (y) = 0.24708 0.17262
# Poissons Ratio (z) = 0.29982 0.44086
#
# Static dielectric constant tensor:
#      x y z
#    x 3.563710 0.000000 0.249330 
#    y 0.000000 3.317730 0.000000 
#    z 0.249330 0.000000 3.317420 
# 
# 
# High freq. dielectric constant tensor:
#      x y z
#    x 1.702380 0.000000 0.009140 
#    y 0.000000 1.707250 0.000000 
#    z 0.009140 0.000000 1.693350 
# 
# From -- ./inp_files/42281.got.cif
#   From: 2010.03.12/outbox.cif.g09.slc.cpg/sg14_22_cif.got.tgz:42281.got - 2010.03.31 13:35:05.
