data_PCOD8123884
_publ_section_title
;
Structure prediction by ZEFSAII (Michael W. Deem and Ramdas Pophale) SiO2 
 PCOD8123884
Probable space group: P 21/C
;
_chemical_formula_sum "Si O2"
_cell_formula_units_Z 24
_cell_length_a 12.051787
_cell_length_b 21.254191
_cell_length_c 4.902481
_cell_angle_alpha 90.000000
_cell_angle_beta 102.254793
_cell_angle_gamma 90.000000
_cell_volume 1227.160418
_symmetry_space_group_name_H-M "P 21/C"
_symmetry_group_IT_number 14
_symmetry_cell_setting 'monoclinic'
loop_
_space_group_symop_operation_xyz
x,y,z
-x,1/2+y,1/2-z
-x,-y,-z
x,1/2-y,1/2+z
loop_
_atom_site_type_symbol
_atom_site_label
_atom_site_fract_x
_atom_site_fract_y
_atom_site_fract_z
Si Si1 0.817271 0.924116 0.202629
Si Si2 0.170286 0.708736 0.872690
Si Si3 0.911035 0.707925 0.701486
Si Si4 0.285313 0.583596 0.813795
Si Si5 0.898408 0.512128 0.242744
Si Si6 0.624282 0.017663 0.157515
O O1 0.825622 0.848911 0.231441
O O2 0.917338 0.955196 0.453059
O O3 0.697417 0.953458 0.242945
O O4 0.823614 0.939682 0.885201
O O5 0.189195 0.769806 0.692809
O O6 0.264825 0.657711 0.837344
O O7 0.041168 0.683085 0.778399
O O8 0.887090 0.733688 0.387774
O O9 0.166648 0.552629 0.844361
O O10 0.315594 0.565301 0.521921
O O11 0.383557 0.556833 0.064741
O O12 0.000000 0.500000 0.500000
O O13 0.500000 0.000000 0.000000
#
# Coordination Sequence:
#
# PCOD8123884 Si02
#       6
#     4   4   4   4   4   4
#     4  10  20  33  51  75 103 136 174 213 259 311
#     4  10  20  33  51  76 108 143 172 202 248 313
#     4  10  20  33  51  75 107 145 175 203 247 311
#     4  10  20  34  54  78 104 136 174 215 265 318
#     4  10  19  30  49  77 106 132 163 212 264 314
#     4  10  21  37  57  79 101 134 177 229 278 307
#
# _framework density 19.557342999999999
#
# number of rings (size 3 to 8) (size 9 to 14) (size 15 to 20)
#    0.000    2.000    0.000    4.000    0.000    5.333 
#    0.000    0.000    0.000    6.000    0.000    0.000 
#    0.000    0.000    0.000    0.000    0.000    0.000 
#
# Total GULP energy -297465.428854 kJ/mol
# GULP energy per Si atom -12394.392869 kJ/mol
# Density = 1.951283 g / cm^3
# Si number density = 19.557343 Si / 1000 Ang^3
#
#
#
# Elastic Constant Matrix: (Units=GPa)
#
#
# Indices 1 2 3 4 5 6 
#
# 1 42.1768 29.9470 8.2223 0.0000 14.8735 0.0000
# 2 29.9470 92.4191 13.3076 0.0000 10.1944 0.0000
# 3 8.2223 13.3076 90.8264 0.0000 2.2533 0.0000
# 4 0.0000 0.0000 0.0000 18.5122 0.0000 -5.7109
# 5 14.8735 10.1944 2.2533 0.0000 34.0011 0.0000
# 6 0.0000 0.0000 0.0000 -5.7109 0.0000 21.2054
#
#
#
# Elastic Compliance Matrix: (Units=1/GPa)
#
#
# Indices 1 2 3 4 5 6 
#
# 1 0.035395 -0.009891 -0.001447 0.000000 -0.012422 0.000000
# 2 -0.009891 0.014179 -0.001186 0.000000 0.000154 0.000000
# 3 -0.001447 -0.001186 0.011309 0.000000 0.000239 0.000000
# 4 0.000000 0.000000 0.000000 0.058913 0.000000 0.015866
# 5 -0.012422 0.000154 0.000239 0.000000 0.034783 0.000000
# 6 0.000000 0.000000 0.000000 0.015866 0.000000 0.051431
#
#
# Mechanical properties :
#
#
# Convention : Reuss Voigt Hill
#
# Bulk Modulus (GPa) = 27.90493 36.48621 32.19557
# Shear Modulus (GPa) = 20.57603 26.34011 23.45807
#
# Velocity S-wave (km/s) = 3.24711 3.67388 3.46707
# Velocity P-wave (km/s) = 5.32518 6.05748 5.70309
#
# Compressibility (1/GPa) = 0.03583596
#
# Stress axis : x y z
#
# Youngs Moduli (GPa) = 28.25251 70.52697 88.42649
#
# Poissons Ratio (x) = 0.69756 0.12794
# Poissons Ratio (y) = 0.27944 0.10487
# Poissons Ratio (z) = 0.04088 0.08364
#
# Static dielectric constant tensor:
#      x y z
#    x 3.669390 0.000000 -1.138980 
#    y 0.000000 3.328550 0.000000 
#    z -1.138980 0.000000 5.930280 
# 
# 
# High freq. dielectric constant tensor:
#      x y z
#    x 1.716040 0.000000 -0.016620 
#    y 0.000000 1.748930 0.000000 
#    z -0.016620 0.000000 1.787270 
# 
# From -- ./inp_files/2660.got.cif
#   From: 2010.03.12/outbox.cif.g09.slc.cpg/sg14_2_cif.got.tgz:2660.got - 2010.03.31 13:35:05.
