data_PCOD8123056
_publ_section_title
;
Structure prediction by ZEFSAII (Michael W. Deem and Ramdas Pophale) SiO2 
 PCOD8123056
Probable space group: P 2/C
;
_chemical_formula_sum "Si O2"
_cell_formula_units_Z 18
_cell_length_a 12.204853
_cell_length_b 6.682016
_cell_length_c 9.999336
_cell_angle_alpha 90.000000
_cell_angle_beta 105.731951
_cell_angle_gamma 90.000000
_cell_volume 784.928913
_symmetry_space_group_name_H-M "P 2/C"
_symmetry_group_IT_number 13
_symmetry_cell_setting 'monoclinic'
loop_
_space_group_symop_operation_xyz
x,y,z
-x,y,1/2-z
-x,-y,-z
x,-y,1/2+z
loop_
_atom_site_type_symbol
_atom_site_label
_atom_site_fract_x
_atom_site_fract_y
_atom_site_fract_z
Si Si1 0.199623 0.944978 0.577159
Si Si2 0.500000 0.449567 0.750000
Si Si3 0.872713 0.233230 0.720463
Si Si4 0.725431 0.619951 0.720376
Si Si5 0.595331 0.136005 0.967631
O O1 0.151009 0.917010 0.411332
O O2 0.189511 0.732227 0.649710
O O3 0.133932 0.114494 0.640719
O O4 0.333427 0.009689 0.618032
O O5 0.608992 0.583118 0.760009
O O6 0.522617 0.316602 0.886437
O O7 0.783798 0.416978 0.687110
O O8 0.000000 0.319768 0.750000
O O9 0.695190 0.774563 0.593241
O O10 0.500000 0.000000 0.000000
#
# Coordination Sequence:
#
# PCOD8123056 Si02
#       5
#     4   2   4   4   4
#     4  12  25  50  72 106 148 186 248 302 360 438
#     4  12  22  40  68 102 144 186 230 296 354 434
#     4  12  28  49  76 105 143 196 247 304 364 425
#     4  12  25  45  72 108 147 184 246 294 368 432
#     4  12  23  43  70 105 147 192 234 291 364 433
#
# _framework density 22.932012
#
# number of rings (size 3 to 8) (size 9 to 14) (size 15 to 20)
#    0.000    0.000    4.444    6.667    0.000    1.778 
#    0.000    0.000    0.000    0.000    0.000    0.000 
#    0.000    0.000    0.000    0.000    0.000    0.000 
#
# Total GULP energy -223220.123826 kJ/mol
# GULP energy per Si atom -12401.117990 kJ/mol
# Density = 2.287982 g / cm^3
# Si number density = 22.932012 Si / 1000 Ang^3
#
#
#
# Elastic Constant Matrix: (Units=GPa)
#
#
# Indices 1 2 3 4 5 6 
#
# 1 136.9424 42.3078 18.7643 0.0000 -8.6399 0.0000
# 2 42.3078 103.0655 36.2914 0.0000 -6.2970 0.0000
# 3 18.7643 36.2914 88.3956 0.0000 -10.2287 0.0000
# 4 0.0000 0.0000 0.0000 33.2206 0.0000 3.8950
# 5 -8.6399 -6.2970 -10.2287 0.0000 27.9908 0.0000
# 6 0.0000 0.0000 0.0000 3.8950 0.0000 14.3136
#
#
#
# Elastic Compliance Matrix: (Units=1/GPa)
#
#
# Indices 1 2 3 4 5 6 
#
# 1 0.008461 -0.003278 -0.000244 0.000000 0.001785 0.000000
# 2 -0.003278 0.012634 -0.004468 0.000000 0.000197 0.000000
# 3 -0.000244 -0.004468 0.013651 0.000000 0.003908 0.000000
# 4 0.000000 0.000000 0.000000 0.031094 0.000000 -0.008461
# 5 0.001785 0.000197 0.003908 0.000000 0.037750 0.000000
# 6 0.000000 0.000000 0.000000 -0.008461 0.000000 0.072166
#
#
# Mechanical properties :
#
#
# Convention : Reuss Voigt Hill
#
# Bulk Modulus (GPa) = 53.28818 58.12561 55.70690
# Shear Modulus (GPa) = 25.25369 30.50768 27.88068
#
# Velocity S-wave (km/s) = 3.32210 3.65136 3.49061
# Velocity P-wave (km/s) = 6.16466 6.57104 6.37109
#
# Compressibility (1/GPa) = 0.01876589
#
# Stress axis : x y z
#
# Youngs Moduli (GPa) = 118.18650 79.15333 73.25411
#
# Poissons Ratio (x) = 0.25950 0.01784
# Poissons Ratio (y) = 0.38747 0.32730
# Poissons Ratio (z) = 0.02878 0.35366
#
# Static dielectric constant tensor:
#      x y z
#    x 4.049520 0.000000 -0.063550 
#    y 0.000000 3.727250 0.000000 
#    z -0.063550 0.000000 4.250370 
# 
# 
# High freq. dielectric constant tensor:
#      x y z
#    x 1.905400 0.000000 -0.009750 
#    y 0.000000 1.916010 0.000000 
#    z -0.009750 0.000000 1.909270 
# 
# From -- ./inp_files/22168.got.cif
#   From: 2010.06.25/outbox.cif.g09.slc.cpg/sg13_12_cif.got.tgz:22168.got - 2010.06.28 04:50:58.
