data_PCOD8123242
_publ_section_title
;
Structure prediction by ZEFSAII (Michael W. Deem and Ramdas Pophale) SiO2 
 PCOD8123242
Probable space group: P 21/C
;
_chemical_formula_sum "Si O2"
_cell_formula_units_Z 28
_cell_length_a 10.631386
_cell_length_b 9.262474
_cell_length_c 14.113251
_cell_angle_alpha 90.000000
_cell_angle_beta 77.033339
_cell_angle_gamma 90.000000
_cell_volume 1354.335152
_symmetry_space_group_name_H-M "P 21/C"
_symmetry_group_IT_number 14
_symmetry_cell_setting 'monoclinic'
loop_
_space_group_symop_operation_xyz
x,y,z
-x,1/2+y,1/2-z
-x,-y,-z
x,1/2-y,1/2+z
loop_
_atom_site_type_symbol
_atom_site_label
_atom_site_fract_x
_atom_site_fract_y
_atom_site_fract_z
Si Si1 0.522187 0.481820 0.644064
Si Si2 0.812262 0.666531 0.130695
Si Si3 0.228201 0.317517 0.077005
Si Si4 0.288192 0.505650 0.553353
Si Si5 0.960118 0.406326 0.097045
Si Si6 0.594754 0.810416 0.292088
Si Si7 0.949679 0.152071 0.971943
O O1 0.399649 0.548048 0.608653
O O2 0.651475 0.509705 0.562333
O O3 0.510610 0.310165 0.662897
O O4 0.529711 0.562961 0.743184
O O5 0.853466 0.507534 0.166657
O O6 0.708729 0.730897 0.217706
O O7 0.936874 0.771199 0.106348
O O8 0.748944 0.644791 0.037198
O O9 0.343912 0.380343 0.122500
O O10 0.090181 0.380066 0.136718
O O11 0.223449 0.145340 0.091761
O O12 0.176986 0.628074 0.571866
O O13 0.907667 0.251869 0.068806
O O14 0.000000 0.500000 0.000000
O O15 0.000000 0.000000 0.000000
#
# Coordination Sequence:
#
# PCOD8123242 Si02
#       7
#     4   4   4   4   4   4   4
#     4  10  23  39  58  81 119 156 204 242 285 340
#     4  10  20  38  57  85 125 149 179 250 304 351
#     4   9  17  36  60  79 117 151 185 230 302 342
#     4  10  18  37  64  82 110 161 199 238 284 353
#     4   8  17  32  53  86 116 143 175 231 305 346
#     4  11  22  41  58  85 117 157 201 249 285 346
#     4  10  15  30  62  88 107 146 197 230 289 358
#
# _framework density 20.67435
#
# number of rings (size 3 to 8) (size 9 to 14) (size 15 to 20)
#    0.000    2.571    4.286    0.000    0.000    1.143 
#   12.857    0.714    0.000    0.000    0.000    0.000 
#    0.000    0.000    0.000    0.000    0.000    0.000 
#
# Total GULP energy -346989.313698 kJ/mol
# GULP energy per Si atom -12392.475489 kJ/mol
# Density = 2.062729 g / cm^3
# Si number density = 20.674350 Si / 1000 Ang^3
#
#
#
# Elastic Constant Matrix: (Units=GPa)
#
#
# Indices 1 2 3 4 5 6 
#
# 1 84.6832 33.6688 31.0507 0.0000 24.7474 0.0000
# 2 33.6688 89.4999 12.0633 0.0000 18.4341 0.0000
# 3 31.0507 12.0633 60.0830 0.0000 21.8748 0.0000
# 4 0.0000 0.0000 0.0000 27.2967 0.0000 5.0365
# 5 24.7474 18.4341 21.8748 0.0000 35.5553 0.0000
# 6 0.0000 0.0000 0.0000 5.0365 0.0000 36.0884
#
#
#
# Elastic Compliance Matrix: (Units=1/GPa)
#
#
# Indices 1 2 3 4 5 6 
#
# 1 0.017611 -0.004537 -0.005907 0.000000 -0.006271 0.000000
# 2 -0.004537 0.013680 0.001328 0.000000 -0.004751 0.000000
# 3 -0.005907 0.001328 0.023432 0.000000 -0.010993 0.000000
# 4 0.000000 0.000000 0.000000 0.037603 0.000000 -0.005248
# 5 -0.006271 -0.004751 -0.010993 0.000000 0.041717 0.000000
# 6 0.000000 0.000000 0.000000 -0.005248 0.000000 0.028442
#
#
# Mechanical properties :
#
#
# Convention : Reuss Voigt Hill
#
# Bulk Modulus (GPa) = 27.40446 43.09240 35.24843
# Shear Modulus (GPa) = 25.92266 30.28697 28.10481
#
# Velocity S-wave (km/s) = 3.54482 3.83162 3.69101
# Velocity P-wave (km/s) = 5.48073 6.36112 5.93726
#
# Compressibility (1/GPa) = 0.03649041
#
# Stress axis : x y z
#
# Youngs Moduli (GPa) = 56.78154 73.10101 42.67623
#
# Poissons Ratio (x) = 0.33168 0.25210
# Poissons Ratio (y) = 0.25763 -0.05668
# Poissons Ratio (z) = 0.33543 -0.09709
#
# Static dielectric constant tensor:
#      x y z
#    x 4.114820 0.000000 0.235850 
#    y 0.000000 4.221850 0.000000 
#    z 0.235850 0.000000 3.711440 
# 
# 
# High freq. dielectric constant tensor:
#      x y z
#    x 1.809430 0.000000 0.015060 
#    y 0.000000 1.801770 0.000000 
#    z 0.015060 0.000000 1.783520 
# 
# From -- ./inp_files/43140.got.cif
#   From: 2010.03.12/outbox.cif.g09.slc.cpg/sg14_22_cif.got.tgz:43140.got - 2010.03.31 13:35:05.
