data_PCOD8123665
_publ_section_title
;
Structure prediction by ZEFSAII (Michael W. Deem and Ramdas Pophale) SiO2 
 PCOD8123665
Probable space group: P 21/C
;
_chemical_formula_sum "Si O2"
_cell_formula_units_Z 28
_cell_length_a 8.758676
_cell_length_b 21.438114
_cell_length_c 14.008150
_cell_angle_alpha 90.000000
_cell_angle_beta 30.443170
_cell_angle_gamma 90.000000
_cell_volume 1332.731225
_symmetry_space_group_name_H-M "P 21/C"
_symmetry_group_IT_number 14
_symmetry_cell_setting 'monoclinic'
loop_
_space_group_symop_operation_xyz
x,y,z
-x,1/2+y,1/2-z
-x,-y,-z
x,1/2-y,1/2+z
loop_
_atom_site_type_symbol
_atom_site_label
_atom_site_fract_x
_atom_site_fract_y
_atom_site_fract_z
Si Si1 0.404624 0.052498 0.399052
Si Si2 0.856695 0.752346 0.459996
Si Si3 0.710210 0.085134 0.515890
Si Si4 0.757149 0.079898 0.820943
Si Si5 0.337965 0.830509 0.281668
Si Si6 0.619509 0.163473 0.384366
Si Si7 0.370225 0.047747 0.192214
O O1 0.660451 0.102018 0.293521
O O2 0.358096 0.059890 0.311221
O O3 0.114620 0.074604 0.615699
O O4 0.476361 0.980517 0.388092
O O5 0.622036 0.712957 0.648958
O O6 0.679723 0.796948 0.480734
O O7 0.028054 0.791132 0.450038
O O8 0.087635 0.707290 0.279287
O O9 0.670499 0.112416 0.642089
O O10 0.586168 0.135991 0.508764
O O11 0.062547 0.071583 0.308831
O O12 0.636277 0.143895 0.840531
O O13 0.594367 0.025096 0.849185
O O14 0.655226 0.081119 0.987216
#
# Coordination Sequence:
#
# PCOD8123665 Si02
#       7
#     4   4   4   4   4   4   4
#     4  11  20  41  62  98 132 164 205 267 320 383
#     4  10  24  41  63  84 124 174 215 266 303 374
#     4  11  21  37  66  92 128 166 205 268 327 376
#     4  10  18  34  64  90 129 162 208 245 310 386
#     4  11  20  42  62  90 123 168 216 261 312 377
#     4  11  23  42  62  91 128 165 212 263 317 373
#     4  10  19  34  64  97 126 168 200 247 327 380
#
# _framework density 21.009488999999999
#
# number of rings (size 3 to 8) (size 9 to 14) (size 15 to 20)
#    0.000    1.429    4.286    2.143    0.000    1.143 
#    2.571    6.429    0.000    0.000    0.000    0.000 
#    0.000    0.000    0.000    0.000    0.000    0.000 
#
# Total GULP energy -347062.045840 kJ/mol
# GULP energy per Si atom -12395.073066 kJ/mol
# Density = 2.096167 g / cm^3
# Si number density = 21.009489 Si / 1000 Ang^3
#
#
#
# Elastic Constant Matrix: (Units=GPa)
#
#
# Indices 1 2 3 4 5 6 
#
# 1 69.5331 41.7761 36.3431 0.0000 -2.6539 0.0000
# 2 41.7761 136.6921 45.0297 0.0000 -7.8735 0.0000
# 3 36.3431 45.0297 92.7538 0.0000 1.1234 0.0000
# 4 0.0000 0.0000 0.0000 27.1758 0.0000 -0.3140
# 5 -2.6539 -7.8735 1.1234 0.0000 25.1847 0.0000
# 6 0.0000 0.0000 0.0000 -0.3140 0.0000 34.9821
#
#
#
# Elastic Compliance Matrix: (Units=1/GPa)
#
#
# Indices 1 2 3 4 5 6 
#
# 1 0.019940 -0.004112 -0.005830 0.000000 0.001076 0.000000
# 2 -0.004112 0.009775 -0.003168 0.000000 0.002764 0.000000
# 3 -0.005830 -0.003168 0.014631 0.000000 -0.002257 0.000000
# 4 0.000000 0.000000 0.000000 0.036801 0.000000 0.000330
# 5 0.001076 0.002764 -0.002257 0.000000 0.040785 0.000000
# 6 0.000000 0.000000 0.000000 0.000330 0.000000 0.028589
#
#
# Mechanical properties :
#
#
# Convention : Reuss Voigt Hill
#
# Bulk Modulus (GPa) = 55.16651 60.58633 57.87642
# Shear Modulus (GPa) = 27.35485 29.19052 28.27269
#
# Velocity S-wave (km/s) = 3.61227 3.73151 3.67237
# Velocity P-wave (km/s) = 6.61157 6.88954 6.75199
#
# Compressibility (1/GPa) = 0.01812694
#
# Stress axis : x y z
#
# Youngs Moduli (GPa) = 50.15006 102.30005 68.34864
#
# Poissons Ratio (x) = 0.42062 0.39847
# Poissons Ratio (y) = 0.20620 0.21653
# Poissons Ratio (z) = 0.29237 0.32409
#
# Static dielectric constant tensor:
#      x y z
#    x 3.572510 0.000000 -0.085770 
#    y 0.000000 4.182140 0.000000 
#    z -0.085770 0.000000 3.680760 
# 
# 
# High freq. dielectric constant tensor:
#      x y z
#    x 1.804200 0.000000 -0.003190 
#    y 0.000000 1.844400 0.000000 
#    z -0.003190 0.000000 1.804370 
# 
# From -- ./inp_files/42090.got.cif
#   From: 2010.03.12/outbox.cif.g09.slc.cpg/sg14_22_cif.got.tgz:42090.got - 2010.03.31 13:35:05.
