data_PCOD8123772
_publ_section_title
;
Structure prediction by ZEFSAII (Michael W. Deem and Ramdas Pophale) SiO2 
 PCOD8123772
Probable space group: P 21/C
;
_chemical_formula_sum "Si O2"
_cell_formula_units_Z 32
_cell_length_a 16.458315
_cell_length_b 11.477604
_cell_length_c 25.096260
_cell_angle_alpha 90.000000
_cell_angle_beta 22.155059
_cell_angle_gamma 90.000000
_cell_volume 1787.799379
_symmetry_space_group_name_H-M "P 21/C"
_symmetry_group_IT_number 14
_symmetry_cell_setting 'monoclinic'
loop_
_space_group_symop_operation_xyz
x,y,z
-x,1/2+y,1/2-z
-x,-y,-z
x,1/2-y,1/2+z
loop_
_atom_site_type_symbol
_atom_site_label
_atom_site_fract_x
_atom_site_fract_y
_atom_site_fract_z
Si Si1 0.556826 0.164051 0.039748
Si Si2 0.065842 0.597151 0.526765
Si Si3 0.883447 0.932002 0.730248
Si Si4 0.700656 0.300154 0.052685
Si Si5 0.976583 0.631391 0.393581
Si Si6 0.705108 0.182438 0.833354
Si Si7 0.736842 0.613595 0.640623
Si Si8 0.269041 0.412836 0.561297
O O1 0.301962 0.146225 0.184802
O O2 0.597170 0.260277 0.059910
O O3 0.672715 0.207119 0.915606
O O4 0.660697 0.043325 0.996158
O O5 0.202496 0.692630 0.474178
O O6 0.963580 0.504439 0.631317
O O7 0.227351 0.526210 0.388838
O O8 0.874196 0.655586 0.608751
O O9 0.878679 0.912360 0.796532
O O10 0.115509 0.895656 0.567813
O O11 0.849730 0.067395 0.737235
O O12 0.514217 0.359402 0.200754
O O13 0.825224 0.678913 0.533729
O O14 0.856789 0.645435 0.410427
O O15 0.190725 0.708173 0.259772
O O16 0.476167 0.166419 0.944917
#
# Coordination Sequence:
#
# PCOD8123772 Si02
#       8
#     4   4   4   4   4   4   4   4
#     4   9  17  34  54  77 110 139 175 217 268 318
#     4   9  21  40  52  78 107 140 180 221 270 306
#     4   9  20  32  53  84 110 132 177 228 257 320
#     4  12  19  34  61  77 102 150 183 212 267 331
#     4  10  18  37  56  75 105 146 173 215 272 322
#     4   9  19  33  54  82 110 137 169 224 271 313
#     4   9  22  37  53  77 107 144 173 230 266 300
#     4   9  17  35  55  78 106 143 176 213 272 317
#
# _framework density 17.899100000000001
#
# number of rings (size 3 to 8) (size 9 to 14) (size 15 to 20)
#    0.750    1.750    1.250    3.000    0.000    2.000 
#    2.250    0.000    0.000    8.250    0.000    0.000 
#    0.000    0.000    0.000    0.000    0.000    0.000 
#
# Total GULP energy -396670.932348 kJ/mol
# GULP energy per Si atom -12395.966636 kJ/mol
# Density = 1.785836 g / cm^3
# Si number density = 17.899100 Si / 1000 Ang^3
#
#
#
# Elastic Constant Matrix: (Units=GPa)
#
#
# Indices 1 2 3 4 5 6 
#
# 1 79.7906 15.8649 14.3013 0.0000 -1.7254 0.0000
# 2 15.8649 51.2522 32.2086 0.0000 -1.8265 0.0000
# 3 14.3013 32.2086 100.2510 0.0000 2.8258 0.0000
# 4 0.0000 0.0000 0.0000 32.2399 0.0000 -2.6164
# 5 -1.7254 -1.8265 2.8258 0.0000 15.4818 0.0000
# 6 0.0000 0.0000 0.0000 -2.6164 0.0000 21.1336
#
#
#
# Elastic Compliance Matrix: (Units=1/GPa)
#
#
# Indices 1 2 3 4 5 6 
#
# 1 0.013419 -0.003616 -0.000787 0.000000 0.001212 0.000000
# 2 -0.003616 0.025715 -0.007861 0.000000 0.004066 0.000000
# 3 -0.000787 -0.007861 0.012707 0.000000 -0.003334 0.000000
# 4 0.000000 0.000000 0.000000 0.031332 0.000000 0.003879
# 5 0.001212 0.004066 -0.003334 0.000000 0.065815 0.000000
# 6 0.000000 0.000000 0.000000 0.003879 0.000000 0.047798
#
#
# Mechanical properties :
#
#
# Convention : Reuss Voigt Hill
#
# Bulk Modulus (GPa) = 36.61100 39.56038 38.08569
# Shear Modulus (GPa) = 21.69966 25.03235 23.36600
#
# Velocity S-wave (km/s) = 3.48563 3.74374 3.61699
# Velocity P-wave (km/s) = 6.05789 6.39041 6.22637
#
# Compressibility (1/GPa) = 0.02731419
#
# Stress axis : x y z
#
# Youngs Moduli (GPa) = 74.52097 38.88707 78.69925
#
# Poissons Ratio (x) = 0.14063 0.06191
# Poissons Ratio (y) = 0.26949 0.61862
# Poissons Ratio (z) = 0.05862 0.30567
#
# Static dielectric constant tensor:
#      x y z
#    x 3.325900 0.000000 0.020840 
#    y 0.000000 3.034000 0.000000 
#    z 0.020840 0.000000 3.114510 
# 
# 
# High freq. dielectric constant tensor:
#      x y z
#    x 1.702830 0.000000 -0.001630 
#    y 0.000000 1.672600 0.000000 
#    z -0.001630 0.000000 1.680510 
# 
# From -- ./inp_files/77208.got.cif
#   From: 2010.03.12/outbox.cif.g09.slc.cpg/sg14_39_cif.got.tgz:77208.got - 2010.03.31 13:35:05.
