data_PCOD8123949
_publ_section_title
;
Structure prediction by ZEFSAII (Michael W. Deem and Ramdas Pophale) SiO2 
 PCOD8123949
Probable space group: P 21/C
;
_chemical_formula_sum "Si O2"
_cell_formula_units_Z 32
_cell_length_a 10.972482
_cell_length_b 16.471704
_cell_length_c 9.235574
_cell_angle_alpha 90.000000
_cell_angle_beta 88.230984
_cell_angle_gamma 90.000000
_cell_volume 1668.400322
_symmetry_space_group_name_H-M "P 21/C"
_symmetry_group_IT_number 14
_symmetry_cell_setting 'monoclinic'
loop_
_space_group_symop_operation_xyz
x,y,z
-x,1/2+y,1/2-z
-x,-y,-z
x,1/2-y,1/2+z
loop_
_atom_site_type_symbol
_atom_site_label
_atom_site_fract_x
_atom_site_fract_y
_atom_site_fract_z
Si Si1 0.897596 0.820721 0.234927
Si Si2 0.734492 0.908957 0.609686
Si Si3 0.189849 0.004891 0.661935
Si Si4 0.240926 0.258136 0.525221
Si Si5 0.091789 0.893969 0.066150
Si Si6 0.400758 0.096981 0.112639
Si Si7 0.040394 0.439767 0.713276
Si Si8 0.671052 0.447217 0.573558
O O1 0.864415 0.910394 0.285060
O O2 0.875935 0.756172 0.364106
O O3 0.038315 0.820378 0.169064
O O4 0.800697 0.802702 0.115343
O O5 0.757304 0.986036 0.502641
O O6 0.702621 0.829852 0.515534
O O7 0.621554 0.929145 0.719321
O O8 0.853426 0.891064 0.706775
O O9 0.294008 0.970804 0.764047
O O10 0.074530 0.943780 0.672205
O O11 0.345872 0.313023 0.593556
O O12 0.091778 0.973112 0.166216
O O13 0.229837 0.885556 0.002039
O O14 0.997725 0.896935 0.935051
O O15 0.544267 0.100638 0.075977
O O16 0.335083 0.031389 0.013518
#
# Coordination Sequence:
#
# PCOD8123949 Si02
#       8
#     4   4   4   4   4   4   4   4
#     4  10  19  32  54  79 109 138 177 226 284 324
#     4  11  20  32  55  83 114 142 177 233 279 328
#     4   9  19  32  53  85 111 137 175 235 287 324
#     4  11  21  34  53  81 110 143 184 225 269 339
#     4   9  17  31  55  80 110 140 178 228 270 333
#     4  11  21  35  56  80 105 151 196 222 270 319
#     4   9  16  30  53  85 114 135 170 225 290 330
#     4  10  20  36  57  76 108 149 191 231 266 332
#
# _framework density 19.180047999999999
#
# number of rings (size 3 to 8) (size 9 to 14) (size 15 to 20)
#    0.000    2.000    3.750    1.875    0.000    0.500 
#    0.000    0.000    2.750    0.000    0.000    0.000 
#    0.000    0.000    0.000    0.000    0.000    0.000 
#
# Total GULP energy -396530.936118 kJ/mol
# GULP energy per Si atom -12391.591754 kJ/mol
# Density = 1.913639 g / cm^3
# Si number density = 19.180048 Si / 1000 Ang^3
#
#
#
# Elastic Constant Matrix: (Units=GPa)
#
#
# Indices 1 2 3 4 5 6 
#
# 1 76.1406 21.9400 29.5455 0.0000 -13.4958 0.0000
# 2 21.9400 43.7585 15.6073 0.0000 -6.1289 0.0000
# 3 29.5455 15.6073 89.7768 0.0000 -16.8916 0.0000
# 4 0.0000 0.0000 0.0000 17.2746 0.0000 1.3169
# 5 -13.4958 -6.1289 -16.8916 0.0000 26.6857 0.0000
# 6 0.0000 0.0000 0.0000 1.3169 0.0000 24.2772
#
#
#
# Elastic Compliance Matrix: (Units=1/GPa)
#
#
# Indices 1 2 3 4 5 6 
#
# 1 0.017347 -0.006717 -0.003611 0.000000 0.004944 0.000000
# 2 -0.006717 0.027224 -0.002253 0.000000 0.001429 0.000000
# 3 -0.003611 -0.002253 0.013938 0.000000 0.006479 0.000000
# 4 0.000000 0.000000 0.000000 0.058129 0.000000 -0.003153
# 5 0.004944 0.001429 0.006479 0.000000 0.044403 0.000000
# 6 0.000000 0.000000 0.000000 -0.003153 0.000000 0.041362
#
#
# Mechanical properties :
#
#
# Convention : Reuss Voigt Hill
#
# Bulk Modulus (GPa) = 29.98806 38.20683 34.09745
# Shear Modulus (GPa) = 20.94852 23.15304 22.05078
#
# Velocity S-wave (km/s) = 3.30844 3.47816 3.39436
# Velocity P-wave (km/s) = 5.50121 6.00779 5.76007
#
# Compressibility (1/GPa) = 0.03334660
#
# Stress axis : x y z
#
# Youngs Moduli (GPa) = 57.64815 36.73168 71.74759
#
# Poissons Ratio (x) = 0.24673 0.25906
# Poissons Ratio (y) = 0.38722 0.16167
# Poissons Ratio (z) = 0.20815 0.08277
#
# Static dielectric constant tensor:
#      x y z
#    x 3.377970 0.000000 -0.283210 
#    y 0.000000 3.298750 0.000000 
#    z -0.283210 0.000000 3.817810 
# 
# 
# High freq. dielectric constant tensor:
#      x y z
#    x 1.722310 0.000000 -0.015620 
#    y 0.000000 1.713680 0.000000 
#    z -0.015620 0.000000 1.760770 
# 
# From -- ./inp_files/13744.got.cif
#   From: 2010.03.12/outbox.cif.g09.slc.cpg/sg14_7_cif.got.tgz:13744.got - 2010.03.31 13:35:05.
