data_PCOD8123467
_publ_section_title
;
Structure prediction by ZEFSAII (Michael W. Deem and Ramdas Pophale) SiO2 
 PCOD8123467
Probable space group: P 21/C
;
_chemical_formula_sum "Si O2"
_cell_formula_units_Z 24
_cell_length_a 13.432718
_cell_length_b 9.675638
_cell_length_c 12.153515
_cell_angle_alpha 90.000000
_cell_angle_beta 138.228936
_cell_angle_gamma 90.000000
_cell_volume 1052.255703
_symmetry_space_group_name_H-M "P 21/C"
_symmetry_group_IT_number 14
_symmetry_cell_setting 'monoclinic'
loop_
_space_group_symop_operation_xyz
x,y,z
-x,1/2+y,1/2-z
-x,-y,-z
x,1/2-y,1/2+z
loop_
_atom_site_type_symbol
_atom_site_label
_atom_site_fract_x
_atom_site_fract_y
_atom_site_fract_z
Si Si1 0.844176 0.581318 0.995898
Si Si2 0.644630 0.676821 0.258548
Si Si3 0.892295 0.298128 0.924966
Si Si4 0.607705 0.298127 0.575034
Si Si5 0.855370 0.823179 0.741453
Si Si6 0.344177 0.418681 0.495899
O O1 0.852691 0.575477 0.135307
O O2 0.992675 0.653811 0.073540
O O3 0.700185 0.668772 0.837511
O O4 0.825330 0.427264 0.936895
O O5 0.750001 0.613704 0.250001
O O6 0.647309 0.575476 0.364693
O O7 0.474669 0.691258 0.074509
O O8 0.750001 0.224236 0.750000
O O9 0.974668 0.191258 0.074509
O O10 0.492676 0.346187 0.573542
O O11 0.674667 0.427265 0.563104
O O12 0.799814 0.668772 0.662489
#
# Coordination Sequence:
#
# PCOD8123467 Si02
#       6
#     4   4   4   4   4   4
#     4   9  17  31  51  73 100 134 167 196 240 303
#     4   9  18  32  51  74 100 132 166 200 243 295
#     4  10  18  30  52  78  99 125 165 209 245 283
#     4  10  18  30  52  78  99 125 165 209 245 283
#     4   9  18  32  51  74 100 132 166 200 243 295
#     4   9  17  31  51  73 100 134 167 196 240 303
#
# _framework density 22.808146000000001
#
# number of rings (size 3 to 8) (size 9 to 14) (size 15 to 20)
#    0.000    2.667    0.000    5.000    0.000    1.333 
#    0.000    0.000    0.000   34.000    0.000    2.333 
#    0.000    0.000    0.000    0.000    0.000    0.000 
#
# Total GULP energy -297643.768602 kJ/mol
# GULP energy per Si atom -12401.823692 kJ/mol
# Density = 2.275623 g / cm^3
# Si number density = 22.808146 Si / 1000 Ang^3
#
#
#
# Elastic Constant Matrix: (Units=GPa)
#
#
# Indices 1 2 3 4 5 6 
#
# 1 89.9806 16.5896 56.3198 0.0000 -33.6944 0.0000
# 2 16.5896 19.7879 12.8773 0.0000 -3.6353 0.0000
# 3 56.3198 12.8773 193.4709 0.0000 9.5005 0.0000
# 4 0.0000 0.0000 0.0000 14.1990 0.0000 -4.7668
# 5 -33.6944 -3.6353 9.5005 0.0000 50.8205 0.0000
# 6 0.0000 0.0000 0.0000 -4.7668 0.0000 21.5442
#
#
#
# Elastic Compliance Matrix: (Units=1/GPa)
#
#
# Indices 1 2 3 4 5 6 
#
# 1 0.023772 -0.012483 -0.006883 0.000000 0.016155 0.000000
# 2 -0.012483 0.060408 -0.000194 0.000000 -0.003919 0.000000
# 3 -0.006883 -0.000194 0.007479 0.000000 -0.005975 0.000000
# 4 0.000000 0.000000 0.000000 0.076078 0.000000 0.016833
# 5 0.016155 -0.003919 -0.005975 0.000000 0.031225 0.000000
# 6 0.000000 0.000000 0.000000 0.016833 0.000000 0.050141
#
#
# Mechanical properties :
#
#
# Convention : Reuss Voigt Hill
#
# Bulk Modulus (GPa) = 19.03367 52.75699 35.89533
# Shear Modulus (GPa) = 16.35398 31.80958 24.08178
#
# Velocity S-wave (km/s) = 2.68063 3.73856 3.25290
# Velocity P-wave (km/s) = 4.23607 6.46659 5.46631
#
# Compressibility (1/GPa) = 0.05253847
#
# Stress axis : x y z
#
# Youngs Moduli (GPa) = 42.06564 16.55412 133.71426
#
# Poissons Ratio (x) = 0.20665 0.92030
# Poissons Ratio (y) = 0.52512 0.02599
# Poissons Ratio (z) = 0.28952 0.00322
#
# Static dielectric constant tensor:
#      x y z
#    x 4.143640 0.000000 -0.096340 
#    y 0.000000 3.368340 0.000000 
#    z -0.096340 0.000000 4.314500 
# 
# 
# High freq. dielectric constant tensor:
#      x y z
#    x 1.899670 0.000000 -0.005960 
#    y 0.000000 1.840960 0.000000 
#    z -0.005960 0.000000 1.918740 
# 
# From -- ./inp_files/29208.got.cif
#   From: 2010.03.12/outbox.cif.g09.slc.cpg/sg14_15_cif.got.tgz:29208.got - 2010.03.31 13:35:05.
