data_PCOD8123881
_publ_section_title
;
Structure prediction by ZEFSAII (Michael W. Deem and Ramdas Pophale) SiO2 
 PCOD8123881
Probable space group: P 21/C
;
_chemical_formula_sum "Si O2"
_cell_formula_units_Z 32
_cell_length_a 9.677422
_cell_length_b 18.696622
_cell_length_c 9.149453
_cell_angle_alpha 90.000000
_cell_angle_beta 107.891197
_cell_angle_gamma 90.000000
_cell_volume 1575.401967
_symmetry_space_group_name_H-M "P 21/C"
_symmetry_group_IT_number 14
_symmetry_cell_setting 'monoclinic'
loop_
_space_group_symop_operation_xyz
x,y,z
-x,1/2+y,1/2-z
-x,-y,-z
x,1/2-y,1/2+z
loop_
_atom_site_type_symbol
_atom_site_label
_atom_site_fract_x
_atom_site_fract_y
_atom_site_fract_z
Si Si1 0.578988 0.358702 0.849839
Si Si2 0.548391 0.994758 0.852996
Si Si3 0.295272 0.213324 0.204315
Si Si4 0.196021 0.163041 0.477013
Si Si5 0.108241 0.905652 0.557925
Si Si6 0.003513 0.509578 0.755647
Si Si7 0.539449 0.927381 0.431478
Si Si8 0.842078 0.928223 0.937519
O O1 0.528893 0.429317 0.750598
O O2 0.472898 0.294385 0.762090
O O3 0.752246 0.352545 0.881241
O O4 0.548993 0.365012 0.014425
O O5 0.720538 0.988860 0.907710
O O6 0.506577 0.067451 0.752926
O O7 0.500000 0.000000 0.000000
O O8 0.220344 0.208356 0.338316
O O9 0.257955 0.290613 0.130964
O O10 0.224309 0.150998 0.081867
O O11 0.288299 0.089247 0.500043
O O12 0.030043 0.144201 0.456072
O O13 0.105029 0.942336 0.395570
O O14 0.115939 0.969949 0.680341
O O15 0.940457 0.563699 0.613721
O O16 0.080869 0.444470 0.693051
O O17 0.500000 0.000000 0.500000
#
# Coordination Sequence:
#
# PCOD8123881 Si02
#       8
#     4   4   4   4   4   4   4   4
#     4   9  20  38  58  82 118 156 198 256 300 367
#     4  10  19  29  56  87 119 151 197 253 308 355
#     4  10  23  43  62  83 118 171 212 252 308 389
#     4  11  24  40  64  89 123 171 211 255 316 384
#     4  11  22  36  63  95 122 158 209 258 316 380
#     4  10  22  33  61  93 127 157 200 258 331 368
#     4   9  20  36  59  85 120 158 203 251 313 367
#     4  10  20  39  56  88 127 162 199 263 316 374
#
# _framework density 20.312276000000001
#
# number of rings (size 3 to 8) (size 9 to 14) (size 15 to 20)
#    0.000    2.000    1.250    2.250   10.500    1.000 
#    0.000    2.500    5.500    0.000    0.000    0.000 
#    0.000    0.000    0.000    0.000    0.000    0.000 
#
# Total GULP energy -396526.137632 kJ/mol
# GULP energy per Si atom -12391.441801 kJ/mol
# Density = 2.026604 g / cm^3
# Si number density = 20.312276 Si / 1000 Ang^3
#
#
#
# Elastic Constant Matrix: (Units=GPa)
#
#
# Indices 1 2 3 4 5 6 
#
# 1 127.6408 29.2154 26.8172 0.0000 5.5941 0.0000
# 2 29.2154 57.3084 23.8212 0.0000 4.8930 0.0000
# 3 26.8172 23.8212 121.9052 0.0000 -15.4551 0.0000
# 4 0.0000 0.0000 0.0000 27.4675 0.0000 7.3436
# 5 5.5941 4.8930 -15.4551 0.0000 25.4509 0.0000
# 6 0.0000 0.0000 0.0000 7.3436 0.0000 18.0254
#
#
#
# Elastic Compliance Matrix: (Units=1/GPa)
#
#
# Indices 1 2 3 4 5 6 
#
# 1 0.009131 -0.003826 -0.001541 0.000000 -0.002207 0.000000
# 2 -0.003826 0.021608 -0.004118 0.000000 -0.005814 0.000000
# 3 -0.001541 -0.004118 0.010282 0.000000 0.007374 0.000000
# 4 0.000000 0.000000 0.000000 0.040857 0.000000 -0.016645
# 5 -0.002207 -0.005814 0.007374 0.000000 0.045372 0.000000
# 6 0.000000 0.000000 0.000000 -0.016645 0.000000 0.062259
#
#
# Mechanical properties :
#
#
# Convention : Reuss Voigt Hill
#
# Bulk Modulus (GPa) = 45.34908 51.84024 48.59466
# Shear Modulus (GPa) = 23.16672 29.32212 26.24442
#
# Velocity S-wave (km/s) = 3.38083 3.80355 3.59841
# Velocity P-wave (km/s) = 6.13306 6.69824 6.42187
#
# Compressibility (1/GPa) = 0.02205116
#
# Stress axis : x y z
#
# Youngs Moduli (GPa) = 109.52163 46.27958 97.26161
#
# Poissons Ratio (x) = 0.17706 0.14986
# Poissons Ratio (y) = 0.41901 0.40050
# Poissons Ratio (z) = 0.16875 0.19057
#
# Static dielectric constant tensor:
#      x y z
#    x 3.805970 0.000000 -0.142500 
#    y 0.000000 3.343360 0.000000 
#    z -0.142500 0.000000 4.194460 
# 
# 
# High freq. dielectric constant tensor:
#      x y z
#    x 1.794870 0.000000 -0.007320 
#    y 0.000000 1.753010 0.000000 
#    z -0.007320 0.000000 1.809060 
# 
# From -- ./inp_files/10257.got.cif
#   From: 2010.03.12/outbox.cif.g09.slc.cpg/sg14_6_cif.got.tgz:10257.got - 2010.03.31 13:35:05.
