data_PCOD8123187
_publ_section_title
;
Structure prediction by ZEFSAII (Michael W. Deem and Ramdas Pophale) SiO2 
 PCOD8123187
Probable space group: P 2/C
;
_chemical_formula_sum "Si O2"
_cell_formula_units_Z 28
_cell_length_a 18.512352
_cell_length_b 6.555378
_cell_length_c 11.641255
_cell_angle_alpha 90.000000
_cell_angle_beta 121.312197
_cell_angle_gamma 90.000000
_cell_volume 1206.963283
_symmetry_space_group_name_H-M "P 2/C"
_symmetry_group_IT_number 13
_symmetry_cell_setting 'monoclinic'
loop_
_space_group_symop_operation_xyz
x,y,z
-x,y,1/2-z
-x,-y,-z
x,-y,1/2+z
loop_
_atom_site_type_symbol
_atom_site_label
_atom_site_fract_x
_atom_site_fract_y
_atom_site_fract_z
Si Si1 0.000000 0.945809 0.750000
Si Si2 0.289908 0.813673 0.886720
Si Si3 0.841044 0.143691 0.727448
Si Si4 0.500000 0.392136 0.250000
Si Si5 0.352661 0.473419 0.777062
Si Si6 0.577604 0.123103 0.509750
Si Si7 0.936747 0.647347 0.511837
Si Si8 0.211045 0.510942 0.479272
O O1 0.988147 0.817686 0.623544
O O2 0.917528 0.080768 0.706609
O O3 0.348623 0.669648 0.856161
O O4 0.215134 0.954687 0.770818
O O5 0.359050 0.964602 0.997975
O O6 0.241976 0.691771 0.943615
O O7 0.873582 0.255102 0.867618
O O8 0.782387 0.296796 0.601881
O O9 0.569463 0.530118 0.246323
O O10 0.545665 0.261985 0.382719
O O11 0.366070 0.260038 0.854868
O O12 0.265537 0.514363 0.639433
O O13 0.500000 0.000000 0.500000
O O14 0.885900 0.514871 0.563224
O O15 0.000000 0.500000 0.500000
#
# Coordination Sequence:
#
# PCOD8123187 Si02
#       8
#     2   4   4   2   4   4   4   4
#     4  12  26  48  74 112 154 200 248 308 380 438
#     4  12  26  49  73 107 152 191 258 302 373 455
#     4  12  27  47  76 111 148 197 256 305 375 453
#     4  12  26  48  76 106 152 192 244 310 380 434
#     4  12  28  47  75 109 149 197 249 316 372 447
#     4  12  28  48  74 112 147 196 251 308 376 455
#     4  12  26  47  77 111 155 195 251 315 373 447
#     4  12  27  48  76 107 151 200 246 312 382 434
#
# _framework density 23.198718
#
# number of rings (size 3 to 8) (size 9 to 14) (size 15 to 20)
#    0.000    0.000    2.857    6.857    8.000    2.286 
#    0.000    0.000    0.000    0.000    0.000    0.000 
#    0.000    0.000    0.000    0.000    0.000    0.000 
#
# Total GULP energy -347078.846267 kJ/mol
# GULP energy per Si atom -12395.673081 kJ/mol
# Density = 2.314592 g / cm^3
# Si number density = 23.198718 Si / 1000 Ang^3
#
#
#
# Elastic Constant Matrix: (Units=GPa)
#
#
# Indices 1 2 3 4 5 6 
#
# 1 133.9941 36.9672 -13.5213 0.0000 -8.6345 0.0000
# 2 36.9672 105.2923 22.6754 0.0000 -2.6785 0.0000
# 3 -13.5213 22.6754 98.4906 0.0000 -0.4679 0.0000
# 4 0.0000 0.0000 0.0000 54.9971 0.0000 -15.3888
# 5 -8.6345 -2.6785 -0.4679 0.0000 36.1345 0.0000
# 6 0.0000 0.0000 0.0000 -15.3888 0.0000 60.4117
#
#
#
# Elastic Compliance Matrix: (Units=1/GPa)
#
#
# Indices 1 2 3 4 5 6 
#
# 1 0.008737 -0.003452 0.002003 0.000000 0.001858 0.000000
# 2 -0.003452 0.011375 -0.003093 0.000000 -0.000022 0.000000
# 3 0.002003 -0.003093 0.011142 0.000000 0.000394 0.000000
# 4 0.000000 0.000000 0.000000 0.019578 0.000000 0.004987
# 5 0.001858 -0.000022 0.000394 0.000000 0.028122 0.000000
# 6 0.000000 0.000000 0.000000 0.004987 0.000000 0.017823
#
#
# Mechanical properties :
#
#
# Convention : Reuss Voigt Hill
#
# Bulk Modulus (GPa) = 45.10365 47.77995 46.44180
# Shear Modulus (GPa) = 44.14984 49.75237 46.95111
#
# Velocity S-wave (km/s) = 4.36720 4.63603 4.50362
# Velocity P-wave (km/s) = 6.70183 7.02123 6.86338
#
# Compressibility (1/GPa) = 0.02217116
#
# Stress axis : x y z
#
# Youngs Moduli (GPa) = 114.45439 87.91443 89.74939
#
# Poissons Ratio (x) = 0.30345 -0.17976
# Poissons Ratio (y) = 0.39505 0.27757
# Poissons Ratio (z) = -0.22925 0.27190
#
# Static dielectric constant tensor:
#      x y z
#    x 3.830280 0.000000 -0.049340 
#    y 0.000000 4.603790 0.000000 
#    z -0.049340 0.000000 4.268160 
# 
# 
# High freq. dielectric constant tensor:
#      x y z
#    x 1.944640 0.000000 0.006910 
#    y 0.000000 1.928520 0.000000 
#    z 0.006910 0.000000 1.914770 
# 
# From -- ./inp_files/40223.got.cif
#   From: 2010.06.25/outbox.cif.g09.slc.cpg/sg13_21_cif.got.tgz:40223.got - 2010.06.28 04:50:58.
