data_PCOD8123678
_publ_section_title
;
Structure prediction by ZEFSAII (Michael W. Deem and Ramdas Pophale) SiO2 
 PCOD8123678
Probable space group: P 21/C
;
_chemical_formula_sum "Si O2"
_cell_formula_units_Z 24
_cell_length_a 9.092962
_cell_length_b 9.970087
_cell_length_c 18.207523
_cell_angle_alpha 90.000000
_cell_angle_beta 51.103719
_cell_angle_gamma 90.000000
_cell_volume 1284.674909
_symmetry_space_group_name_H-M "P 21/C"
_symmetry_group_IT_number 14
_symmetry_cell_setting 'monoclinic'
loop_
_space_group_symop_operation_xyz
x,y,z
-x,1/2+y,1/2-z
-x,-y,-z
x,1/2-y,1/2+z
loop_
_atom_site_type_symbol
_atom_site_label
_atom_site_fract_x
_atom_site_fract_y
_atom_site_fract_z
Si Si1 0.176646 0.263007 0.433186
Si Si2 0.577413 0.955727 0.711730
Si Si3 0.828575 0.029496 0.155856
Si Si4 0.780308 0.300052 0.080579
Si Si5 0.506426 0.380010 0.597823
Si Si6 0.771807 0.594776 0.438596
O O1 0.350581 0.187378 0.340528
O O2 0.145046 0.410028 0.410171
O O3 0.219334 0.281976 0.506468
O O4 0.985850 0.174835 0.479536
O O5 0.371899 0.988914 0.738950
O O6 0.556613 0.949339 0.806196
O O7 0.724431 0.071195 0.645376
O O8 0.807376 0.169455 0.121327
O O9 0.016566 0.038874 0.146991
O O10 0.613518 0.262696 0.075477
O O11 0.648341 0.475727 0.510326
O O12 0.319450 0.352128 0.608286
#
# Coordination Sequence:
#
# PCOD8123678 Si02
#       6
#     4   4   4   4   4   4
#     4  11  19  37  58  82 111 152 187 226 275 338
#     4  11  22  33  57  87 115 141 186 237 277 325
#     4  10  18  35  57  78 106 149 193 220 264 338
#     4  10  19  36  56  82 111 147 186 226 278 332
#     4  10  20  35  58  82 109 140 190 229 274 323
#     4  10  19  36  58  81 104 148 187 230 266 333
#
# _framework density 18.681767000000001
#
# number of rings (size 3 to 8) (size 9 to 14) (size 15 to 20)
#    0.000    1.667    5.000    3.500    0.000    0.000 
#    0.000    9.167    0.000    0.000    0.000    0.000 
#    0.000    0.000    0.000    0.000    0.000    0.000 
#
# Total GULP energy -297403.197590 kJ/mol
# GULP energy per Si atom -12391.799900 kJ/mol
# Density = 1.863925 g / cm^3
# Si number density = 18.681767 Si / 1000 Ang^3
#
#
#
# Elastic Constant Matrix: (Units=GPa)
#
#
# Indices 1 2 3 4 5 6 
#
# 1 148.4293 26.8309 40.5149 0.0000 -19.8147 0.0000
# 2 26.8309 59.7695 18.7506 0.0000 -5.2047 0.0000
# 3 40.5149 18.7506 67.1808 0.0000 -25.1809 0.0000
# 4 0.0000 0.0000 0.0000 32.7263 0.0000 -7.6797
# 5 -19.8147 -5.2047 -25.1809 0.0000 27.8801 0.0000
# 6 0.0000 0.0000 0.0000 -7.6797 0.0000 15.8315
#
#
#
# Elastic Compliance Matrix: (Units=1/GPa)
#
#
# Indices 1 2 3 4 5 6 
#
# 1 0.008465 -0.002489 -0.003522 0.000000 0.002371 0.000000
# 2 -0.002489 0.019129 -0.004781 0.000000 -0.002516 0.000000
# 3 -0.003522 -0.004781 0.025808 0.000000 0.019914 0.000000
# 4 0.000000 0.000000 0.000000 0.034482 0.000000 0.016727
# 5 0.002371 -0.002516 0.019914 0.000000 0.055069 0.000000
# 6 0.000000 0.000000 0.000000 0.016727 0.000000 0.071279
#
#
# Mechanical properties :
#
#
# Convention : Reuss Voigt Hill
#
# Bulk Modulus (GPa) = 31.42855 49.73026 40.57941
# Shear Modulus (GPa) = 20.29050 27.90644 24.09847
#
# Velocity S-wave (km/s) = 3.29920 3.86914 3.59548
# Velocity P-wave (km/s) = 5.60112 6.82918 6.24541
#
# Compressibility (1/GPa) = 0.03181820
#
# Stress axis : x y z
#
# Youngs Moduli (GPa) = 118.13573 52.27677 38.74826
#
# Poissons Ratio (x) = 0.13010 0.13646
# Poissons Ratio (y) = 0.29400 0.18526
# Poissons Ratio (z) = 0.41604 0.24995
#
# Static dielectric constant tensor:
#      x y z
#    x 3.995700 0.000000 -0.634580 
#    y 0.000000 3.247130 0.000000 
#    z -0.634580 0.000000 3.709750 
# 
# 
# High freq. dielectric constant tensor:
#      x y z
#    x 1.715790 0.000000 -0.039260 
#    y 0.000000 1.714340 0.000000 
#    z -0.039260 0.000000 1.718850 
# 
# From -- ./inp_files/39377.got.cif
#   From: 2010.03.12/outbox.cif.g09.slc.cpg/sg14_20_cif.got.tgz:39377.got - 2010.03.31 13:35:05.
