data_PCOD8123450
_publ_section_title
;
Structure prediction by ZEFSAII (Michael W. Deem and Ramdas Pophale) SiO2 
 PCOD8123450
Probable space group: P 21/C
;
_chemical_formula_sum "Si O2"
_cell_formula_units_Z 32
_cell_length_a 22.638809
_cell_length_b 11.889915
_cell_length_c 20.906640
_cell_angle_alpha 90.000000
_cell_angle_beta 161.318422
_cell_angle_gamma 90.000000
_cell_volume 1802.540059
_symmetry_space_group_name_H-M "P 21/C"
_symmetry_group_IT_number 14
_symmetry_cell_setting 'monoclinic'
loop_
_space_group_symop_operation_xyz
x,y,z
-x,1/2+y,1/2-z
-x,-y,-z
x,1/2-y,1/2+z
loop_
_atom_site_type_symbol
_atom_site_label
_atom_site_fract_x
_atom_site_fract_y
_atom_site_fract_z
Si Si1 0.854999 0.559751 0.617324
Si Si2 0.793857 0.919002 0.537808
Si Si3 0.448562 0.362045 0.018387
Si Si4 0.850708 0.609870 0.392522
Si Si5 0.861249 0.360122 0.416316
Si Si6 0.266304 0.221433 0.105178
Si Si7 0.164735 0.244872 0.806590
Si Si8 0.500664 0.970901 0.689081
O O1 0.887045 0.658983 0.597353
O O2 0.835631 0.617722 0.667451
O O3 0.675338 0.488687 0.411182
O O4 0.014066 0.469707 0.785524
O O5 0.714899 0.852663 0.394461
O O6 0.802290 0.830099 0.602609
O O7 0.668850 0.021288 0.435488
O O8 0.320007 0.412840 0.830777
O O9 0.335517 0.256659 0.932109
O O10 0.646808 0.322022 0.194085
O O11 0.479201 0.456220 0.103421
O O12 0.878427 0.490528 0.457888
O O13 0.799325 0.708796 0.388990
O O14 0.041024 0.645434 0.553071
O O15 0.968897 0.276287 0.573854
O O16 0.464126 0.158677 0.296675
#
# Coordination Sequence:
#
# PCOD8123450 Si02
#       8
#     4   4   4   4   4   4   4   4
#     4   9  19  35  50  73 105 132 170 210 246 302
#     4  10  18  34  52  71 104 138 162 209 264 294
#     4  10  18  31  52  71 109 139 162 210 263 300
#     4  10  19  31  47  79 110 129 165 215 256 312
#     4  10  18  29  51  73 102 136 165 201 261 309
#     4   9  19  35  48  77 109 127 169 212 246 317
#     4   9  19  32  49  76 100 133 173 207 243 313
#     4   9  19  33  49  77 105 132 168 208 249 313
#
# _framework density 17.752725999999999
#
# number of rings (size 3 to 8) (size 9 to 14) (size 15 to 20)
#    0.750    1.750    1.250    1.875    0.000    2.000 
#    4.500    0.000    0.000    3.000    0.000    5.250 
#    0.000    0.000    0.000    0.000    0.000    0.000 
#
# Total GULP energy -396434.127491 kJ/mol
# GULP energy per Si atom -12388.566484 kJ/mol
# Density = 1.771232 g / cm^3
# Si number density = 17.752726 Si / 1000 Ang^3
#
#
#
# Elastic Constant Matrix: (Units=GPa)
#
#
# Indices 1 2 3 4 5 6 
#
# 1 65.5379 13.3478 25.8178 0.0000 0.2136 0.0000
# 2 13.3478 2.6509 12.4024 0.0000 -14.1532 0.0000
# 3 25.8178 12.4024 89.5592 0.0000 11.3336 0.0000
# 4 0.0000 0.0000 0.0000 17.0007 0.0000 -8.1272
# 5 0.2136 -14.1532 11.3336 0.0000 21.8315 0.0000
# 6 0.0000 0.0000 0.0000 -8.1272 0.0000 9.1787
#
#
#
# Elastic Compliance Matrix: (Units=1/GPa)
#
#
# Indices 1 2 3 4 5 6 
#
# 1 0.015985 0.010601 -0.007413 0.000000 0.010565 0.000000
# 2 0.010601 -0.082365 0.016184 0.000000 -0.061902 0.000000
# 3 -0.007413 0.016184 0.010409 0.000000 0.005161 0.000000
# 4 0.000000 0.000000 0.000000 0.101994 0.000000 0.090310
# 5 0.010565 -0.061902 0.005161 0.000000 0.002892 0.000000
# 6 0.000000 0.000000 0.000000 0.090310 0.000000 0.188912
#
#
# Mechanical properties :
#
#
# Convention : Reuss Voigt Hill
#
# Bulk Modulus (GPa) = -58.04562 28.98713 -14.52924
# Shear Modulus (GPa) = 25.86113 16.68083 21.27098
#
# Velocity S-wave (km/s) = 3.82087 3.06865 3.46523
# Velocity P-wave (km/s) = 3.64724 5.37766 2.79436
#
# Compressibility (1/GPa) = -0.01722783
#
# Stress axis : x y z
#
# Youngs Moduli (GPa) = 62.55819 -12.14103 96.07448
#
# Poissons Ratio (x) = 0.12871 0.71222
# Poissons Ratio (y) = -0.66321 -1.55484
# Poissons Ratio (z) = 0.46376 0.19649
#
# Static dielectric constant tensor:
#      x y z
#    x 3.435770 0.000000 0.107000 
#    y 0.000000 3.099210 0.000000 
#    z 0.107000 0.000000 3.314560 
# 
# 
# High freq. dielectric constant tensor:
#      x y z
#    x 1.685240 0.000000 0.007900 
#    y 0.000000 1.638850 0.000000 
#    z 0.007900 0.000000 1.682830 
# 
# From -- ./inp_files/69971.got.cif
#   From: 2010.03.12/outbox.cif.g09.slc.cpg/sg14_35_cif.got.tgz:69971.got - 2010.03.31 13:35:05.
