data_PCOD8123325
_publ_section_title
;
Structure prediction by ZEFSAII (Michael W. Deem and Ramdas Pophale) SiO2 
 PCOD8123325
Probable space group: P 21/C
;
_chemical_formula_sum "Si O2"
_cell_formula_units_Z 32
_cell_length_a 12.074639
_cell_length_b 19.785988
_cell_length_c 8.748899
_cell_angle_alpha 90.000000
_cell_angle_beta 55.580196
_cell_angle_gamma 90.000000
_cell_volume 1724.233862
_symmetry_space_group_name_H-M "P 21/C"
_symmetry_group_IT_number 14
_symmetry_cell_setting 'monoclinic'
loop_
_space_group_symop_operation_xyz
x,y,z
-x,1/2+y,1/2-z
-x,-y,-z
x,1/2-y,1/2+z
loop_
_atom_site_type_symbol
_atom_site_label
_atom_site_fract_x
_atom_site_fract_y
_atom_site_fract_z
Si Si1 0.496606 0.157410 0.251767
Si Si2 0.485757 0.037780 0.673010
Si Si3 0.333921 0.657453 0.940384
Si Si4 0.710165 0.951840 0.603277
Si Si5 0.260287 0.948443 0.925726
Si Si6 0.869303 0.051362 0.290532
Si Si7 0.416795 0.732592 0.594391
Si Si8 0.105832 0.017252 0.286463
O O1 0.359857 0.117481 0.394114
O O2 0.632221 0.112317 0.165145
O O3 0.492246 0.219685 0.371140
O O4 0.490198 0.185639 0.084382
O O5 0.525598 0.117071 0.628531
O O6 0.500000 0.000000 0.500000
O O7 0.591857 0.007338 0.712161
O O8 0.336196 0.021453 0.849433
O O9 0.329515 0.683464 0.769964
O O10 0.206247 0.610072 0.059017
O O11 0.320502 0.721581 0.063504
O O12 0.778833 0.940726 0.715627
O O13 0.813885 0.978266 0.392429
O O14 0.153138 0.939774 0.872174
O O15 0.176614 0.952120 0.149458
O O16 0.027021 0.057545 0.212869
O O17 0.000000 0.000000 0.500000
#
# Coordination Sequence:
#
# PCOD8123325 Si02
#       8
#     4   4   4   4   4   4   4   4
#     4  10  21  34  55  84 111 141 181 226 282 335
#     4  10  17  31  57  84 112 137 167 227 288 336
#     4  10  19  34  53  81 112 142 181 226 273 329
#     4   9  19  34  54  83 112 135 172 224 284 329
#     4  11  20  33  59  84 111 143 180 225 295 333
#     4  10  19  37  56  78 114 146 181 224 279 333
#     4  10  21  33  51  82 111 148 179 223 273 325
#     4  10  23  35  51  85 109 143 177 224 279 327
#
# _framework density 18.558966999999999
#
# number of rings (size 3 to 8) (size 9 to 14) (size 15 to 20)
#    0.000    2.000    3.750    1.125    7.000    1.000 
#    0.000    0.000    0.000    1.500    0.000    0.000 
#    0.000    0.000    0.000    0.000    0.000    0.000 
#
# Total GULP energy -396452.709272 kJ/mol
# GULP energy per Si atom -12389.147165 kJ/mol
# Density = 1.851673 g / cm^3
# Si number density = 18.558967 Si / 1000 Ang^3
#
#
#
# Elastic Constant Matrix: (Units=GPa)
#
#
# Indices 1 2 3 4 5 6 
#
# 1 113.1444 21.6001 24.6717 0.0000 12.8325 0.0000
# 2 21.6001 70.2795 27.8707 0.0000 5.3177 0.0000
# 3 24.6717 27.8707 85.2290 0.0000 15.8136 0.0000
# 4 0.0000 0.0000 0.0000 29.8988 0.0000 8.4147
# 5 12.8325 5.3177 15.8136 0.0000 23.1538 0.0000
# 6 0.0000 0.0000 0.0000 8.4147 0.0000 12.6372
#
#
#
# Elastic Compliance Matrix: (Units=1/GPa)
#
#
# Indices 1 2 3 4 5 6 
#
# 1 0.010034 -0.002210 -0.001425 0.000000 -0.004080 0.000000
# 2 -0.002210 0.016836 -0.005011 0.000000 0.000780 0.000000
# 3 -0.001425 -0.005011 0.015372 0.000000 -0.008558 0.000000
# 4 0.000000 0.000000 0.000000 0.041160 0.000000 -0.027407
# 5 -0.004080 0.000780 -0.008558 0.000000 0.051117 0.000000
# 6 0.000000 0.000000 0.000000 -0.027407 0.000000 0.097381
#
#
# Mechanical properties :
#
#
# Convention : Reuss Voigt Hill
#
# Bulk Modulus (GPa) = 40.07855 46.32643 43.20249
# Shear Modulus (GPa) = 19.41696 26.10531 22.76113
#
# Velocity S-wave (km/s) = 3.23806 3.75455 3.50583
# Velocity P-wave (km/s) = 5.96843 6.61903 6.30213
#
# Compressibility (1/GPa) = 0.02495100
#
# Stress axis : x y z
#
# Youngs Moduli (GPa) = 99.66485 59.39592 65.05348
#
# Poissons Ratio (x) = 0.13127 0.09268
# Poissons Ratio (y) = 0.22027 0.32596
# Poissons Ratio (z) = 0.14199 0.29761
#
# Static dielectric constant tensor:
#      x y z
#    x 3.770970 0.000000 0.167320 
#    y 0.000000 3.431600 0.000000 
#    z 0.167320 0.000000 3.447410 
# 
# 
# High freq. dielectric constant tensor:
#      x y z
#    x 1.716690 0.000000 0.026840 
#    y 0.000000 1.694180 0.000000 
#    z 0.026840 0.000000 1.714220 
# 
# From -- ./inp_files/14175.got.cif
#   From: 2010.03.12/outbox.cif.g09.slc.cpg/sg14_8_cif.got.tgz:14175.got - 2010.03.31 13:35:05.
