data_PCOD8123218
_publ_section_title
;
Structure prediction by ZEFSAII (Michael W. Deem and Ramdas Pophale) SiO2 
 PCOD8123218
Probable space group: P 2/C
;
_chemical_formula_sum "Si O2"
_cell_formula_units_Z 32
_cell_length_a 10.015236
_cell_length_b 11.160043
_cell_length_c 17.329425
_cell_angle_alpha 90.000000
_cell_angle_beta 90.000013
_cell_angle_gamma 90.000000
_cell_volume 1936.917880
_symmetry_space_group_name_H-M "P 2/C"
_symmetry_group_IT_number 13
_symmetry_cell_setting 'monoclinic'
loop_
_space_group_symop_operation_xyz
x,y,z
-x,y,1/2-z
-x,-y,-z
x,-y,1/2+z
loop_
_atom_site_type_symbol
_atom_site_label
_atom_site_fract_x
_atom_site_fract_y
_atom_site_fract_z
Si Si1 0.602719 0.352211 0.443842
Si Si2 0.595415 0.108321 0.520347
Si Si3 0.904397 0.771372 0.182196
Si Si4 0.095415 0.891679 0.479654
Si Si5 0.404397 0.228628 0.817804
Si Si6 0.602660 0.474630 0.608819
Si Si7 0.102660 0.525370 0.391181
Si Si8 0.102718 0.647789 0.556158
O O1 0.558766 0.216554 0.462287
O O2 0.607844 0.426389 0.522309
O O3 0.499880 0.414259 0.384301
O O4 0.750000 0.353552 0.405745
O O5 0.750000 0.071284 0.509908
O O6 0.568207 0.146903 0.608019
O O7 0.500000 0.000000 0.500000
O O8 0.931793 0.853095 0.108019
O O9 0.750000 0.781484 0.207576
O O10 0.942077 0.633367 0.164417
O O11 0.000000 0.818547 0.250000
O O12 0.058765 0.783447 0.537714
O O13 0.000000 0.000000 0.500000
O O14 0.500000 0.181453 0.750000
O O15 0.442077 0.366632 0.835584
O O16 0.750000 0.520986 0.632189
O O17 0.107842 0.573613 0.477690
O O18 0.000120 0.414259 0.384301
#
# Coordination Sequence:
#
# PCOD8123218 Si02
#       8
#     4   4   4   4   4   4   4   4
#     4   8  14  25  41  62  87 111 137 174 217 259
#     4   9  18  31  46  67  94 122 156 196 232 271
#     4   9  18  31  46  67  94 120 149 189 234 279
#     4   9  18  31  46  67  94 122 156 196 232 271
#     4   9  18  31  46  67  94 120 149 189 234 279
#     4   8  14  25  41  62  87 111 136 171 216 263
#     4   8  14  25  41  62  87 111 136 171 216 263
#     4   8  14  25  41  62  87 111 137 174 217 259
#
# _framework density 16.521094000000002
#
# number of rings (size 3 to 8) (size 9 to 14) (size 15 to 20)
#    0.000    3.500    0.000    3.000    0.000    3.000 
#    0.000    5.000    0.000    1.500    0.000    0.000 
#    0.000    0.000    0.000    0.000    0.000    0.000 
#
# Total GULP energy -396590.054433 kJ/mol
# GULP energy per Si atom -12393.439201 kJ/mol
# Density = 1.648349 g / cm^3
# Si number density = 16.521094 Si / 1000 Ang^3
#
#
#
# Elastic Constant Matrix: (Units=GPa)
#
#
# Indices 1 2 3 4 5 6 
#
# 1 114.8470 83.3893 46.3163 0.0000 0.0001 0.0000
# 2 83.3893 112.6956 31.0446 0.0000 0.0000 0.0000
# 3 46.3163 31.0446 47.0314 0.0000 0.0000 0.0000
# 4 0.0000 0.0000 0.0000 13.2539 0.0000 0.0002
# 5 0.0001 0.0000 0.0000 0.0000 26.0072 0.0000
# 6 0.0000 0.0000 0.0000 0.0002 0.0000 37.2542
#
#
#
# Elastic Compliance Matrix: (Units=1/GPa)
#
#
# Indices 1 2 3 4 5 6 
#
# 1 0.025654 -0.014695 -0.015564 0.000000 0.000000 0.000000
# 2 -0.014695 0.019263 0.001756 0.000000 0.000000 0.000000
# 3 -0.015564 0.001756 0.035430 0.000000 0.000000 0.000000
# 4 0.000000 0.000000 0.000000 0.075450 0.000000 0.000000
# 5 0.000000 0.000000 0.000000 0.000000 0.038451 0.000000
# 6 0.000000 0.000000 0.000000 0.000000 0.000000 0.026843
#
#
# Mechanical properties :
#
#
# Convention : Reuss Voigt Hill
#
# Bulk Modulus (GPa) = 42.84091 66.23049 54.53570
# Shear Modulus (GPa) = 17.49003 22.89131 20.19067
#
# Velocity S-wave (km/s) = 3.25722 3.72638 3.49967
# Velocity P-wave (km/s) = 6.33508 7.66094 7.02934
#
# Compressibility (1/GPa) = 0.02334218
#
# Stress axis : x y z
#
# Youngs Moduli (GPa) = 38.98015 51.91173 28.22452
#
# Poissons Ratio (x) = 0.76286 0.43928
# Poissons Ratio (y) = 0.57283 -0.04957
# Poissons Ratio (z) = 0.60668 -0.09118
#
# Static dielectric constant tensor:
#      x y z
#    x 3.486790 0.000000 0.000010 
#    y 0.000000 3.002400 0.000000 
#    z 0.000010 0.000000 2.756430 
# 
# 
# High freq. dielectric constant tensor:
#      x y z
#    x 1.644770 0.000000 0.000000 
#    y 0.000000 1.619680 0.000000 
#    z 0.000000 0.000000 1.596390 
# 
# From -- ./inp_files/64294.got.cif
#   From: 2010.06.25/outbox.cif.g09.slc.cpg/sg13_33_cif.got.tgz:64294.got - 2010.06.28 04:50:58.
