data_PCOD8123918
_publ_section_title
;
Structure prediction by ZEFSAII (Michael W. Deem and Ramdas Pophale) SiO2 
 PCOD8123918
Probable space group: P 21/C
;
_chemical_formula_sum "Si O2"
_cell_formula_units_Z 32
_cell_length_a 14.059930
_cell_length_b 23.196801
_cell_length_c 18.035963
_cell_angle_alpha 90.000000
_cell_angle_beta 19.647126
_cell_angle_gamma 90.000000
_cell_volume 1977.799556
_symmetry_space_group_name_H-M "P 21/C"
_symmetry_group_IT_number 14
_symmetry_cell_setting 'monoclinic'
loop_
_space_group_symop_operation_xyz
x,y,z
-x,1/2+y,1/2-z
-x,-y,-z
x,1/2-y,1/2+z
loop_
_atom_site_type_symbol
_atom_site_label
_atom_site_fract_x
_atom_site_fract_y
_atom_site_fract_z
Si Si1 0.269568 0.222216 0.297204
Si Si2 0.769452 0.652584 0.424595
Si Si3 0.331374 0.233001 0.592882
Si Si4 0.137800 0.439613 0.756158
Si Si5 0.144870 0.616816 0.902607
Si Si6 0.873600 0.323161 0.334699
Si Si7 0.952271 0.274640 0.659019
Si Si8 0.206185 0.569295 0.699009
O O1 0.287310 0.263294 0.213003
O O2 0.026247 0.175648 0.463054
O O3 0.194482 0.264272 0.420310
O O4 0.568086 0.191036 0.094457
O O5 0.717765 0.704521 0.405923
O O6 0.936498 0.602153 0.258261
O O7 0.473970 0.629651 0.672352
O O8 0.960657 0.672001 0.353174
O O9 0.651183 0.211686 0.341389
O O10 0.114468 0.186554 0.719135
O O11 0.097536 0.505393 0.759788
O O12 0.456409 0.427095 0.547556
O O13 0.936214 0.428058 0.973819
O O14 0.080305 0.588468 0.870516
O O15 0.922499 0.284042 0.226995
O O16 0.897408 0.389128 0.290748
#
# Coordination Sequence:
#
# PCOD8123918 Si02
#       8
#     4   4   4   4   4   4   4   4
#     4  11  18  30  49  72 102 127 154 197 241 290
#     4  10  20  31  49  72  97 132 163 196 240 294
#     4  10  20  32  48  71  99 129 163 197 242 289
#     4  10  19  32  50  70 104 129 158 202 240 289
#     4  11  17  30  48  74 101 126 156 193 243 291
#     4  10  20  32  49  73  99 130 162 197 241 294
#     4  10  20  33  48  70 101 130 163 199 241 290
#     4  10  19  32  48  75  99 131 162 194 244 293
#
# _framework density 16.179596
#
# number of rings (size 3 to 8) (size 9 to 14) (size 15 to 20)
#    0.000    1.750    5.000    1.875    1.750    1.000 
#    0.000    0.000    0.000    0.750    0.000    1.750 
#    0.000    0.000    0.000    0.000    0.000    0.000 
#
# Total GULP energy -396886.069889 kJ/mol
# GULP energy per Si atom -12402.689684 kJ/mol
# Density = 1.614277 g / cm^3
# Si number density = 16.179596 Si / 1000 Ang^3
#
#
#
# Elastic Constant Matrix: (Units=GPa)
#
#
# Indices 1 2 3 4 5 6 
#
# 1 77.7024 48.7268 40.2763 0.0000 -2.8437 0.0000
# 2 48.7268 102.7527 32.8738 0.0000 2.4335 0.0000
# 3 40.2763 32.8738 90.5150 0.0000 13.4259 0.0000
# 4 0.0000 0.0000 0.0000 15.4936 0.0000 -0.4637
# 5 -2.8437 2.4335 13.4259 0.0000 24.1707 0.0000
# 6 0.0000 0.0000 0.0000 -0.4637 0.0000 25.3724
#
#
#
# Elastic Compliance Matrix: (Units=1/GPa)
#
#
# Indices 1 2 3 4 5 6 
#
# 1 0.022648 -0.008286 -0.008268 0.000000 0.008091 0.000000
# 2 -0.008286 0.014076 -0.001166 0.000000 -0.001744 0.000000
# 3 -0.008268 -0.001166 0.016649 0.000000 -0.010103 0.000000
# 4 0.000000 0.000000 0.000000 0.064578 0.000000 0.001180
# 5 0.008091 -0.001744 -0.010103 0.000000 0.048112 0.000000
# 6 0.000000 0.000000 0.000000 0.001180 0.000000 0.039435
#
#
# Mechanical properties :
#
#
# Convention : Reuss Voigt Hill
#
# Bulk Modulus (GPa) = 55.76872 57.19154 56.48013
# Shear Modulus (GPa) = 20.24975 22.94687 21.59831
#
# Velocity S-wave (km/s) = 3.54158 3.77006 3.65761
# Velocity P-wave (km/s) = 7.16010 7.37400 7.26784
#
# Compressibility (1/GPa) = 0.01793120
#
# Stress axis : x y z
#
# Youngs Moduli (GPa) = 44.15443 71.04270 60.06289
#
# Poissons Ratio (x) = 0.58868 0.49662
# Poissons Ratio (y) = 0.36587 0.07006
# Poissons Ratio (z) = 0.36508 0.08286
#
# Static dielectric constant tensor:
#      x y z
#    x 2.935230 0.000000 0.092260 
#    y 0.000000 2.984240 0.000000 
#    z 0.092260 0.000000 3.252780 
# 
# 
# High freq. dielectric constant tensor:
#      x y z
#    x 1.599630 0.000000 0.014520 
#    y 0.000000 1.603870 0.000000 
#    z 0.014520 0.000000 1.633720 
# 
# From -- ./inp_files/22091.got.cif
#   From: 2010.03.12/outbox.cif.g09.slc.cpg/sg14_12_cif.got.tgz:22091.got - 2010.03.31 13:35:05.
