data_PCOD8123380
_publ_section_title
;
Structure prediction by ZEFSAII (Michael W. Deem and Ramdas Pophale) SiO2 
 PCOD8123380
Probable space group: P 21/C
;
_chemical_formula_sum "Si O2"
_cell_formula_units_Z 32
_cell_length_a 11.208586
_cell_length_b 12.829184
_cell_length_c 17.472035
_cell_angle_alpha 90.000000
_cell_angle_beta 38.846901
_cell_angle_gamma 90.000000
_cell_volume 1575.898246
_symmetry_space_group_name_H-M "P 21/C"
_symmetry_group_IT_number 14
_symmetry_cell_setting 'monoclinic'
loop_
_space_group_symop_operation_xyz
x,y,z
-x,1/2+y,1/2-z
-x,-y,-z
x,1/2-y,1/2+z
loop_
_atom_site_type_symbol
_atom_site_label
_atom_site_fract_x
_atom_site_fract_y
_atom_site_fract_z
Si Si1 0.006396 0.650279 0.539083
Si Si2 0.417997 0.411559 0.648184
Si Si3 0.490781 0.135567 0.862514
Si Si4 0.267270 0.837696 0.120721
Si Si5 0.072581 0.065480 0.077877
Si Si6 0.794150 0.326119 0.969296
Si Si7 0.047584 0.034895 0.257121
Si Si8 0.576632 0.705617 0.766374
O O1 0.040997 0.629862 0.430956
O O2 0.780123 0.649016 0.670398
O O3 0.102031 0.555099 0.537297
O O4 0.102992 0.759516 0.514648
O O5 0.412508 0.521910 0.694134
O O6 0.606752 0.404145 0.502283
O O7 0.238172 0.400265 0.681833
O O8 0.407494 0.326255 0.719914
O O9 0.601710 0.198223 0.873554
O O10 0.512284 0.199270 0.773548
O O11 0.271496 0.122180 0.992422
O O12 0.184218 0.736723 0.121040
O O13 0.092973 0.911140 0.235544
O O14 0.968813 0.067209 0.212143
O O15 0.894470 0.436478 0.900088
O O16 0.574562 0.348378 0.100177
#
# Coordination Sequence:
#
# PCOD8123380 Si02
#       8
#     4   4   4   4   4   4   4   4
#     4  10  20  36  57  85 115 142 192 237 281 331
#     4  10  17  34  60  84 108 145 195 234 278 328
#     4  10  18  34  60  87 110 142 191 238 278 335
#     4  10  19  35  59  85 108 145 200 242 271 329
#     4  10  18  33  61  86 107 142 189 244 275 325
#     4  11  22  36  57  82 118 155 182 234 294 339
#     4  11  18  33  59  86 107 144 197 233 277 330
#     4  10  22  36  56  83 120 151 179 234 298 339
#
# _framework density 20.305879000000001
#
# number of rings (size 3 to 8) (size 9 to 14) (size 15 to 20)
#    0.000    1.750    5.000    1.500    0.000    1.000 
#    0.000    3.125    5.500    0.000    0.000    0.000 
#    0.000    0.000    0.000    0.000    0.000    0.000 
#
# Total GULP energy -396657.449290 kJ/mol
# GULP energy per Si atom -12395.545290 kJ/mol
# Density = 2.025966 g / cm^3
# Si number density = 20.305879 Si / 1000 Ang^3
#
#
#
# Elastic Constant Matrix: (Units=GPa)
#
#
# Indices 1 2 3 4 5 6 
#
# 1 94.8898 11.1591 14.8624 0.0000 20.8205 0.0000
# 2 11.1591 23.4287 6.2197 0.0000 10.4786 0.0000
# 3 14.8624 6.2197 41.8089 0.0000 2.8214 0.0000
# 4 0.0000 0.0000 0.0000 33.7060 0.0000 5.6979
# 5 20.8205 10.4786 2.8214 0.0000 36.8263 0.0000
# 6 0.0000 0.0000 0.0000 5.6979 0.0000 22.4947
#
#
#
# Elastic Compliance Matrix: (Units=1/GPa)
#
#
# Indices 1 2 3 4 5 6 
#
# 1 0.012777 -0.002270 -0.003780 0.000000 -0.006289 0.000000
# 2 -0.002270 0.051058 -0.005926 0.000000 -0.012791 0.000000
# 3 -0.003780 -0.005926 0.026020 0.000000 0.001830 0.000000
# 4 0.000000 0.000000 0.000000 0.030996 0.000000 -0.007851
# 5 -0.006289 -0.012791 0.001830 0.000000 0.034209 0.000000
# 6 0.000000 0.000000 0.000000 -0.007851 0.000000 0.046444
#
#
# Mechanical properties :
#
#
# Convention : Reuss Voigt Hill
#
# Bulk Modulus (GPa) = 15.17354 24.95664 20.06509
# Shear Modulus (GPa) = 20.20834 27.13113 23.66974
#
# Velocity S-wave (km/s) = 3.15810 3.65927 3.41788
# Velocity P-wave (km/s) = 4.55925 5.49278 5.04765
#
# Compressibility (1/GPa) = 0.06590422
#
# Stress axis : x y z
#
# Youngs Moduli (GPa) = 78.26347 19.58570 38.43171
#
# Poissons Ratio (x) = 0.04445 0.14528
# Poissons Ratio (y) = 0.17764 0.22773
# Poissons Ratio (z) = 0.29585 0.11606
#
# Static dielectric constant tensor:
#      x y z
#    x 3.980590 0.000000 0.142680 
#    y 0.000000 3.359290 0.000000 
#    z 0.142680 0.000000 3.506160 
# 
# 
# High freq. dielectric constant tensor:
#      x y z
#    x 1.811620 0.000000 0.009960 
#    y 0.000000 1.760820 0.000000 
#    z 0.009960 0.000000 1.768670 
# 
# From -- ./inp_files/45085.got.cif
#   From: 2010.03.12/outbox.cif.g09.slc.cpg/sg14_23_cif.got.tgz:45085.got - 2010.03.31 13:35:05.
