data_PCOD8123586
_publ_section_title
;
Structure prediction by ZEFSAII (Michael W. Deem and Ramdas Pophale) SiO2 
 PCOD8123586
Probable space group: P 21/C
;
_chemical_formula_sum "Si O2"
_cell_formula_units_Z 32
_cell_length_a 9.286041
_cell_length_b 17.064329
_cell_length_c 16.118905
_cell_angle_alpha 90.000000
_cell_angle_beta 134.552037
_cell_angle_gamma 90.000000
_cell_volume 1820.159476
_symmetry_space_group_name_H-M "P 21/C"
_symmetry_group_IT_number 14
_symmetry_cell_setting 'monoclinic'
loop_
_space_group_symop_operation_xyz
x,y,z
-x,1/2+y,1/2-z
-x,-y,-z
x,1/2-y,1/2+z
loop_
_atom_site_type_symbol
_atom_site_label
_atom_site_fract_x
_atom_site_fract_y
_atom_site_fract_z
Si Si1 0.582544 0.420359 0.254386
Si Si2 0.081724 0.312208 0.526570
Si Si3 0.095537 0.119271 0.695337
Si Si4 0.790767 0.012789 0.371071
Si Si5 0.135609 0.550648 0.493698
Si Si6 0.799199 0.324871 0.938401
Si Si7 0.580973 0.731894 0.746629
Si Si8 0.995816 0.918968 0.156380
O O1 0.394098 0.474301 0.151202
O O2 0.643984 0.443986 0.374573
O O3 0.520921 0.329208 0.230714
O O4 0.765354 0.431882 0.263806
O O5 0.304145 0.295466 0.650566
O O6 0.960836 0.362294 0.548313
O O7 0.962813 0.231670 0.462181
O O8 0.098124 0.357483 0.446525
O O9 0.263761 0.187258 0.751919
O O10 0.893667 0.139609 0.561081
O O11 0.033190 0.115833 0.765096
O O12 0.190808 0.034742 0.708181
O O13 0.753977 0.106240 0.352409
O O14 0.000000 0.000000 0.500000
O O15 0.000000 0.500000 0.500000
O O16 0.124981 0.502836 0.402372
O O17 0.591580 0.278293 0.874491
#
# Coordination Sequence:
#
# PCOD8123586 Si02
#       8
#     4   4   4   4   4   4   4   4
#     4   9  17  34  58  77 101 146 187 214 261 332
#     4   9  18  33  56  81 100 142 182 221 263 328
#     4   9  21  38  51  79 116 140 172 236 274 305
#     4   9  19  34  55  75 103 148 185 215 261 330
#     4   8  16  30  52  76 100 137 183 213 256 322
#     4  10  18  34  59  76 106 143 187 214 267 337
#     4  10  18  33  58  77 105 143 180 220 268 324
#     4  10  19  36  54  78 112 139 176 231 275 313
#
# _framework density 17.580877999999998
#
# number of rings (size 3 to 8) (size 9 to 14) (size 15 to 20)
#    0.000    3.000    2.500    0.750    5.250    0.000 
#    2.250    7.500    0.000    0.000    0.000    0.000 
#    0.000    0.000    0.000    0.000    0.000    0.000 
#
# Total GULP energy -396420.186893 kJ/mol
# GULP energy per Si atom -12388.130840 kJ/mol
# Density = 1.754086 g / cm^3
# Si number density = 17.580878 Si / 1000 Ang^3
#
#
#
# Elastic Constant Matrix: (Units=GPa)
#
#
# Indices 1 2 3 4 5 6 
#
# 1 79.5222 31.1146 45.2502 0.0000 -1.0993 0.0000
# 2 31.1146 112.7183 41.3984 0.0000 -3.1812 0.0000
# 3 45.2502 41.3984 85.9985 0.0000 11.4589 0.0000
# 4 0.0000 0.0000 0.0000 39.3958 0.0000 8.1772
# 5 -1.0993 -3.1812 11.4589 0.0000 30.4141 0.0000
# 6 0.0000 0.0000 0.0000 8.1772 0.0000 22.8596
#
#
#
# Elastic Compliance Matrix: (Units=1/GPa)
#
#
# Indices 1 2 3 4 5 6 
#
# 1 0.018733 -0.001493 -0.009694 0.000000 0.004173 0.000000
# 2 -0.001493 0.011209 -0.005011 0.000000 0.003006 0.000000
# 3 -0.009694 -0.005011 0.020276 0.000000 -0.008514 0.000000
# 4 0.000000 0.000000 0.000000 0.027419 0.000000 -0.009808
# 5 0.004173 0.003006 -0.008514 0.000000 0.036552 0.000000
# 6 0.000000 0.000000 0.000000 -0.009808 0.000000 0.047254
#
#
# Mechanical properties :
#
#
# Convention : Reuss Voigt Hill
#
# Bulk Modulus (GPa) = 56.11191 57.08503 56.59847
# Shear Modulus (GPa) = 25.02750 29.23230 27.12990
#
# Velocity S-wave (km/s) = 3.77711 4.08209 3.93255
# Velocity P-wave (km/s) = 7.14197 7.39989 7.27207
#
# Compressibility (1/GPa) = 0.01782153
#
# Stress axis : x y z
#
# Youngs Moduli (GPa) = 53.38096 89.21414 49.32022
#
# Poissons Ratio (x) = 0.13318 0.47813
# Poissons Ratio (y) = 0.07969 0.24714
# Poissons Ratio (z) = 0.51750 0.44705
#
# Static dielectric constant tensor:
#      x y z
#    x 3.032010 0.000000 0.352680 
#    y 0.000000 4.011260 0.000000 
#    z 0.352680 0.000000 3.539100 
# 
# 
# High freq. dielectric constant tensor:
#      x y z
#    x 1.635180 0.000000 0.037990 
#    y 0.000000 1.698320 0.000000 
#    z 0.037990 0.000000 1.673800 
# 
# From -- ./inp_files/56049.got.cif
#   From: 2010.03.12/outbox.cif.g09.slc.cpg/sg14_29_cif.got.tgz:56049.got - 2010.03.31 13:35:05.
