data_PCOD8123954
_publ_section_title
;
Structure prediction by ZEFSAII (Michael W. Deem and Ramdas Pophale) SiO2 
 PCOD8123954
Probable space group: P 21/C
;
_chemical_formula_sum "Si O2"
_cell_formula_units_Z 32
_cell_length_a 12.282423
_cell_length_b 11.037473
_cell_length_c 19.559352
_cell_angle_alpha 90.000000
_cell_angle_beta 41.420593
_cell_angle_gamma 90.000000
_cell_volume 1754.249937
_symmetry_space_group_name_H-M "P 21/C"
_symmetry_group_IT_number 14
_symmetry_cell_setting 'monoclinic'
loop_
_space_group_symop_operation_xyz
x,y,z
-x,1/2+y,1/2-z
-x,-y,-z
x,1/2-y,1/2+z
loop_
_atom_site_type_symbol
_atom_site_label
_atom_site_fract_x
_atom_site_fract_y
_atom_site_fract_z
Si Si1 0.188524 0.363748 0.381739
Si Si2 0.696831 0.876232 0.722069
Si Si3 0.475835 0.981470 0.312502
Si Si4 0.717069 0.054068 0.960639
Si Si5 0.686228 0.194782 0.242623
Si Si6 0.007801 0.069838 0.099525
Si Si7 0.631095 0.068241 0.850785
Si Si8 0.642077 0.238520 0.104067
O O1 0.169620 0.225500 0.362115
O O2 0.378626 0.408172 0.295416
O O3 0.122216 0.366509 0.489533
O O4 0.079923 0.448776 0.385515
O O5 0.541516 0.804290 0.823175
O O6 0.650907 0.958779 0.679669
O O7 0.749286 0.967175 0.758876
O O8 0.363885 0.883936 0.406678
O O9 0.557619 0.086105 0.320829
O O10 0.707746 0.102747 0.887733
O O11 0.874561 0.965064 0.892595
O O12 0.750545 0.166875 0.996925
O O13 0.553964 0.979927 0.055954
O O14 0.619077 0.314578 0.308775
O O15 0.702844 0.206357 0.152211
O O16 0.865923 0.163923 0.188813
#
# Coordination Sequence:
#
# PCOD8123954 Si02
#       8
#     4   4   4   4   4   4   4   4
#     4   9  17  30  51  79 106 131 175 218 260 311
#     4   9  16  28  51  78 103 135 172 218 260 301
#     4   9  16  27  52  83 102 133 175 223 260 297
#     4  10  21  35  57  75 105 141 183 218 259 320
#     4  10  19  32  55  80 110 137 177 222 268 320
#     4  10  19  33  51  76 104 141 173 217 267 319
#     4  10  20  37  54  80 104 141 180 219 262 319
#     4   9  16  29  53  81 102 131 177 223 255 305
#
# _framework density 18.241416000000001
#
# number of rings (size 3 to 8) (size 9 to 14) (size 15 to 20)
#    0.000    2.500    1.250    3.750    3.500    0.000 
#    2.250    1.250    0.000    0.000    0.000    0.000 
#    0.000    0.000    0.000    0.000    0.000    0.000 
#
# Total GULP energy -396520.538311 kJ/mol
# GULP energy per Si atom -12391.266822 kJ/mol
# Density = 1.819990 g / cm^3
# Si number density = 18.241416 Si / 1000 Ang^3
#
#
#
# Elastic Constant Matrix: (Units=GPa)
#
#
# Indices 1 2 3 4 5 6 
#
# 1 75.8785 30.3522 27.3619 0.0000 9.4464 0.0000
# 2 30.3522 124.2828 34.2391 0.0000 11.5050 0.0000
# 3 27.3619 34.2391 40.6248 0.0000 4.1008 0.0000
# 4 0.0000 0.0000 0.0000 29.6308 0.0000 1.4613
# 5 9.4464 11.5050 4.1008 0.0000 20.6635 0.0000
# 6 0.0000 0.0000 0.0000 1.4613 0.0000 16.8322
#
#
#
# Elastic Compliance Matrix: (Units=1/GPa)
#
#
# Indices 1 2 3 4 5 6 
#
# 1 0.018178 -0.000913 -0.010905 0.000000 -0.005638 0.000000
# 2 -0.000913 0.010889 -0.008155 0.000000 -0.004027 0.000000
# 3 -0.010905 -0.008155 0.038646 0.000000 0.001856 0.000000
# 4 0.000000 0.000000 0.000000 0.033894 0.000000 -0.002943
# 5 -0.005638 -0.004027 0.001856 0.000000 0.052845 0.000000
# 6 0.000000 0.000000 0.000000 -0.002943 0.000000 0.059665
#
#
# Mechanical properties :
#
#
# Convention : Reuss Voigt Hill
#
# Bulk Modulus (GPa) = 36.01508 47.18807 41.60157
# Shear Modulus (GPa) = 18.98826 23.34749 21.16788
#
# Velocity S-wave (km/s) = 3.22986 3.58147 3.41020
# Velocity P-wave (km/s) = 5.80481 6.55953 6.19367
#
# Compressibility (1/GPa) = 0.02776614
#
# Stress axis : x y z
#
# Youngs Moduli (GPa) = 55.01020 91.83768 25.87574
#
# Poissons Ratio (x) = 0.08389 0.28217
# Poissons Ratio (y) = 0.05025 0.21103
# Poissons Ratio (z) = 0.59987 0.74898
#
# Static dielectric constant tensor:
#      x y z
#    x 3.225990 0.000000 -0.060860 
#    y 0.000000 3.712160 0.000000 
#    z -0.060860 0.000000 3.189420 
# 
# 
# High freq. dielectric constant tensor:
#      x y z
#    x 1.686640 0.000000 -0.012270 
#    y 0.000000 1.718410 0.000000 
#    z -0.012270 0.000000 1.665540 
# 
# From -- ./inp_files/67259.got.cif
#   From: 2010.03.12/outbox.cif.g09.slc.cpg/sg14_34_cif.got.tgz:67259.got - 2010.03.31 13:35:05.
