data_PCOD8123128
_publ_section_title
;
Structure prediction by ZEFSAII (Michael W. Deem and Ramdas Pophale) SiO2 
 PCOD8123128
Probable space group: P 2/C
;
_chemical_formula_sum "Si O2"
_cell_formula_units_Z 16
_cell_length_a 6.826158
_cell_length_b 7.037074
_cell_length_c 18.874203
_cell_angle_alpha 90.000000
_cell_angle_beta 56.852034
_cell_angle_gamma 90.000000
_cell_volume 759.098382
_symmetry_space_group_name_H-M "P 2/C"
_symmetry_group_IT_number 13
_symmetry_cell_setting 'monoclinic'
loop_
_space_group_symop_operation_xyz
x,y,z
-x,y,1/2-z
-x,-y,-z
x,-y,1/2+z
loop_
_atom_site_type_symbol
_atom_site_label
_atom_site_fract_x
_atom_site_fract_y
_atom_site_fract_z
Si Si1 0.207840 0.987484 0.153795
Si Si2 0.954414 0.827161 0.958484
Si Si3 0.494974 0.619447 0.072354
Si Si4 0.536311 0.286400 0.160187
O O1 0.302506 0.785693 0.107075
O O2 0.000000 0.952392 0.250000
O O3 0.114745 0.107191 0.106390
O O4 0.419527 0.100749 0.148557
O O5 0.188656 0.703889 0.909644
O O6 0.751514 0.703741 0.034042
O O7 0.000000 0.000000 0.000000
O O8 0.425759 0.479351 0.150387
O O9 0.500000 0.500000 0.000000
O O10 0.500000 0.280113 0.250000
#
# Coordination Sequence:
#
# PCOD8123128 Si02
#       4
#     4   4   4   4
#     4  12  26  47  72 103 147 186 230 295 358 416
#     4  12  24  45  76 100 140 188 233 283 353 422
#     4  12  26  45  74 107 142 183 236 296 351 414
#     4  12  26  46  72 105 141 188 238 287 355 423
#
# _framework density 21.077639000000001
#
# number of rings (size 3 to 8) (size 9 to 14) (size 15 to 20)
#    0.000    0.000    7.500    3.000    0.000    6.000 
#    0.000    0.000    0.000    0.000    0.000    0.000 
#    0.000    0.000    0.000    0.000    0.000    0.000 
#
# Total GULP energy -198487.294463 kJ/mol
# GULP energy per Si atom -12405.455904 kJ/mol
# Density = 2.102967 g / cm^3
# Si number density = 21.077639 Si / 1000 Ang^3
#
#
#
# Elastic Constant Matrix: (Units=GPa)
#
#
# Indices 1 2 3 4 5 6 
#
# 1 95.4554 35.7164 28.0292 0.0000 6.7808 0.0000
# 2 35.7164 120.3375 29.0322 0.0000 4.1405 0.0000
# 3 28.0292 29.0322 84.6236 0.0000 -0.1104 0.0000
# 4 0.0000 0.0000 0.0000 35.0212 0.0000 7.1366
# 5 6.7808 4.1405 -0.1104 0.0000 55.0714 0.0000
# 6 0.0000 0.0000 0.0000 7.1366 0.0000 38.9489
#
#
#
# Elastic Compliance Matrix: (Units=1/GPa)
#
#
# Indices 1 2 3 4 5 6 
#
# 1 0.012597 -0.002928 -0.003170 0.000000 -0.001337 0.000000
# 2 -0.002928 0.009767 -0.002381 0.000000 -0.000379 0.000000
# 3 -0.003170 -0.002381 0.013685 0.000000 0.000597 0.000000
# 4 0.000000 0.000000 0.000000 0.029662 0.000000 -0.005435
# 5 -0.001337 -0.000379 0.000597 0.000000 0.018353 0.000000
# 6 0.000000 0.000000 0.000000 -0.005435 0.000000 0.026671
#
#
# Mechanical properties :
#
#
# Convention : Reuss Voigt Hill
#
# Bulk Modulus (GPa) = 52.38262 53.99690 53.18976
# Shear Modulus (GPa) = 37.29803 39.65087 38.47445
#
# Velocity S-wave (km/s) = 4.21117 4.34196 4.27707
# Velocity P-wave (km/s) = 6.96789 7.12815 7.04848
#
# Compressibility (1/GPa) = 0.01909030
#
# Stress axis : x y z
#
# Youngs Moduli (GPa) = 79.38087 102.38992 73.07462
#
# Poissons Ratio (x) = 0.29982 0.23163
# Poissons Ratio (y) = 0.23245 0.17401
# Poissons Ratio (z) = 0.25161 0.24382
#
# Static dielectric constant tensor:
#      x y z
#    x 3.725930 0.000000 0.126890 
#    y 0.000000 -6.400890 0.000000 
#    z 0.126890 0.000000 3.734420 
# 
# 
# High freq. dielectric constant tensor:
#      x y z
#    x 1.841210 0.000000 0.000630 
#    y 0.000000 1.835980 0.000000 
#    z 0.000630 0.000000 1.835380 
# 
# From -- ./inp_files/60503.got.cif
#   From: 2010.06.25/outbox.cif.g09.slc.cpg/sg13_31_cif.got.tgz:60503.got - 2010.06.28 04:50:58.
