data_PCOD8123781
_publ_section_title
;
Structure prediction by ZEFSAII (Michael W. Deem and Ramdas Pophale) SiO2 
 PCOD8123781
Probable space group: P 21/C
;
_chemical_formula_sum "Si O2"
_cell_formula_units_Z 24
_cell_length_a 21.668673
_cell_length_b 8.773006
_cell_length_c 16.820676
_cell_angle_alpha 90.000000
_cell_angle_beta 21.306129
_cell_angle_gamma 90.000000
_cell_volume 1161.850954
_symmetry_space_group_name_H-M "P 21/C"
_symmetry_group_IT_number 14
_symmetry_cell_setting 'monoclinic'
loop_
_space_group_symop_operation_xyz
x,y,z
-x,1/2+y,1/2-z
-x,-y,-z
x,1/2-y,1/2+z
loop_
_atom_site_type_symbol
_atom_site_label
_atom_site_fract_x
_atom_site_fract_y
_atom_site_fract_z
Si Si1 0.799607 0.534612 0.540694
Si Si2 0.985435 0.591433 0.097839
Si Si3 0.624799 0.543231 0.591372
Si Si4 0.847427 0.095493 0.145364
Si Si5 0.316996 0.780186 0.507700
Si Si6 0.988761 0.663666 0.814868
O O1 0.651627 0.505602 0.653728
O O2 0.753494 0.500965 0.688057
O O3 0.842167 0.713785 0.477065
O O4 0.952760 0.415270 0.337625
O O5 0.790123 0.629016 0.357154
O O6 0.071340 0.479122 0.059348
O O7 0.000000 0.500000 0.000000
O O8 0.086444 0.747273 0.970809
O O9 0.604046 0.385540 0.568112
O O10 0.450821 0.634717 0.789647
O O11 0.708278 0.128024 0.380090
O O12 0.000000 0.000000 0.000000
O O13 0.139038 0.759233 0.676789
#
# Coordination Sequence:
#
# PCOD8123781 Si02
#       6
#     4   4   4   4   4   4
#     4  10  20  36  58  91 114 161 193 254 286 360
#     4  10  18  37  59  87 112 151 201 247 280 355
#     4  10  23  38  60  85 126 153 199 244 305 352
#     4  12  21  36  64  90 118 155 206 245 294 357
#     4  10  22  39  57  88 117 159 193 244 296 361
#     4  10  20  38  60  88 121 150 205 240 302 352
#
# _framework density 20.656693000000001
#
# number of rings (size 3 to 8) (size 9 to 14) (size 15 to 20)
#    0.000    2.000    5.000    2.000    2.333    2.000 
#    0.000    0.000    0.000    5.000    0.000    0.000 
#    0.000    0.000    0.000    0.000    0.000    0.000 
#
# Total GULP energy -297403.992760 kJ/mol
# GULP energy per Si atom -12391.833032 kJ/mol
# Density = 2.060968 g / cm^3
# Si number density = 20.656693 Si / 1000 Ang^3
#
#
#
# Elastic Constant Matrix: (Units=GPa)
#
#
# Indices 1 2 3 4 5 6 
#
# 1 61.3952 4.6465 3.9255 0.0000 15.0017 0.0000
# 2 4.6465 95.8403 25.9677 0.0000 -1.0242 0.0000
# 3 3.9255 25.9677 75.5772 0.0000 14.1886 0.0000
# 4 0.0000 0.0000 0.0000 38.8424 0.0000 10.9426
# 5 15.0017 -1.0242 14.1886 0.0000 20.7491 0.0000
# 6 0.0000 0.0000 0.0000 10.9426 0.0000 34.4854
#
#
#
# Elastic Compliance Matrix: (Units=1/GPa)
#
#
# Indices 1 2 3 4 5 6 
#
# 1 0.020327 -0.001901 0.002724 0.000000 -0.016653 0.000000
# 2 -0.001901 0.011943 -0.005018 0.000000 0.005396 0.000000
# 3 0.002724 -0.005018 0.017474 0.000000 -0.014166 0.000000
# 4 0.000000 0.000000 0.000000 0.028272 0.000000 -0.008971
# 5 -0.016653 0.005396 -0.014166 0.000000 0.070188 0.000000
# 6 0.000000 0.000000 0.000000 -0.008971 0.000000 0.031844
#
#
# Mechanical properties :
#
#
# Convention : Reuss Voigt Hill
#
# Bulk Modulus (GPa) = 24.18209 33.54355 28.86282
# Shear Modulus (GPa) = 24.72508 32.03359 28.37934
#
# Velocity S-wave (km/s) = 3.46345 3.94224 3.71058
# Velocity P-wave (km/s) = 5.26556 6.08240 5.68866
#
# Compressibility (1/GPa) = 0.04135291
#
# Stress axis : x y z
#
# Youngs Moduli (GPa) = 49.19627 83.72794 57.22936
#
# Poissons Ratio (x) = 0.15921 -0.15589
# Poissons Ratio (y) = 0.09354 0.28717
# Poissons Ratio (z) = -0.13401 0.42013
#
# Static dielectric constant tensor:
#      x y z
#    x 3.638870 0.000000 0.408010 
#    y 0.000000 3.820340 0.000000 
#    z 0.408010 0.000000 3.797340 
# 
# 
# High freq. dielectric constant tensor:
#      x y z
#    x 1.793570 0.000000 0.028410 
#    y 0.000000 1.823650 0.000000 
#    z 0.028410 0.000000 1.780900 
# 
# From -- ./inp_files/54517.got.cif
#   From: 2010.03.12/outbox.cif.g09.slc.cpg/sg14_28_cif.got.tgz:54517.got - 2010.03.31 13:35:05.
