data_PCOD8123792
_publ_section_title
;
Structure prediction by ZEFSAII (Michael W. Deem and Ramdas Pophale) SiO2 
 PCOD8123792
Probable space group: P 21/C
;
_chemical_formula_sum "Si O2"
_cell_formula_units_Z 32
_cell_length_a 14.398164
_cell_length_b 16.655351
_cell_length_c 13.935403
_cell_angle_alpha 90.000000
_cell_angle_beta 149.740008
_cell_angle_gamma 90.000000
_cell_volume 1684.015220
_symmetry_space_group_name_H-M "P 21/C"
_symmetry_group_IT_number 14
_symmetry_cell_setting 'monoclinic'
loop_
_space_group_symop_operation_xyz
x,y,z
-x,1/2+y,1/2-z
-x,-y,-z
x,1/2-y,1/2+z
loop_
_atom_site_type_symbol
_atom_site_label
_atom_site_fract_x
_atom_site_fract_y
_atom_site_fract_z
Si Si1 0.785878 0.298449 0.519621
Si Si2 0.069044 0.539033 0.707413
Si Si3 0.633740 0.900964 0.061511
Si Si4 0.508999 0.837899 0.764512
Si Si5 0.785222 0.423514 0.365914
Si Si6 0.571983 0.427027 0.437350
Si Si7 0.432949 0.494570 0.118386
Si Si8 0.899235 0.821444 0.171318
O O1 0.627626 0.232506 0.383326
O O2 0.792691 0.335252 0.418916
O O3 0.735259 0.366116 0.553221
O O4 0.985670 0.260408 0.718836
O O5 0.126440 0.580907 0.659278
O O6 0.028971 0.608866 0.746616
O O7 0.890900 0.484060 0.532407
O O8 0.229621 0.482374 0.893526
O O9 0.565259 0.885168 0.108284
O O10 0.824069 0.852377 0.208874
O O11 0.478770 0.869319 0.847190
O O12 0.667227 0.995809 0.071688
O O13 0.475302 0.910704 0.661328
O O14 0.721917 0.807571 0.943693
O O15 0.575488 0.454157 0.171307
O O16 0.450444 0.450484 0.236436
#
# Coordination Sequence:
#
# PCOD8123792 Si02
#       8
#     4   4   4   4   4   4   4   4
#     4  11  21  36  58  86 115 150 191 238 291 342
#     4  11  20  38  62  82 112 155 189 238 294 334
#     4   8  18  39  60  77 116 155 186 241 287 333
#     4   9  19  36  57  78 120 151 185 232 291 342
#     4  10  23  37  56  90 114 139 203 246 268 347
#     4   9  18  36  63  85 110 151 198 239 282 339
#     4  10  18  37  62  81 110 155 191 231 289 338
#     4  10  20  37  58  82 118 154 184 237 292 341
#
# _framework density 19.002203999999999
#
# number of rings (size 3 to 8) (size 9 to 14) (size 15 to 20)
#    0.750    1.500    2.500    1.125    0.000    3.000 
#    2.250    0.625    5.500    0.000    0.000    0.000 
#    0.000    0.000    0.000    0.000    0.000    0.000 
#
# Total GULP energy -396652.252000 kJ/mol
# GULP energy per Si atom -12395.382875 kJ/mol
# Density = 1.895895 g / cm^3
# Si number density = 19.002204 Si / 1000 Ang^3
#
#
#
# Elastic Constant Matrix: (Units=GPa)
#
#
# Indices 1 2 3 4 5 6 
#
# 1 90.1961 26.6464 11.2410 0.0000 13.2386 0.0000
# 2 26.6464 62.7047 8.6515 0.0000 3.2563 0.0000
# 3 11.2410 8.6515 64.0889 0.0000 10.0387 0.0000
# 4 0.0000 0.0000 0.0000 24.3320 0.0000 11.1636
# 5 13.2386 3.2563 10.0387 0.0000 16.2148 0.0000
# 6 0.0000 0.0000 0.0000 11.1636 0.0000 22.6774
#
#
#
# Elastic Compliance Matrix: (Units=1/GPa)
#
#
# Indices 1 2 3 4 5 6 
#
# 1 0.014263 -0.005501 -0.000120 0.000000 -0.010466 0.000000
# 2 -0.005501 0.018438 -0.001825 0.000000 0.001918 0.000000
# 3 -0.000120 -0.001825 0.017494 0.000000 -0.010367 0.000000
# 4 0.000000 0.000000 0.000000 0.053089 0.000000 -0.026135
# 5 -0.010466 0.001918 -0.010367 0.000000 0.076250 0.000000
# 6 0.000000 0.000000 0.000000 -0.026135 0.000000 0.056962
#
#
# Mechanical properties :
#
#
# Convention : Reuss Voigt Hill
#
# Bulk Modulus (GPa) = 28.32494 34.45195 31.38844
# Shear Modulus (GPa) = 19.00016 24.00823 21.50420
#
# Velocity S-wave (km/s) = 3.16554 3.55835 3.36768
# Velocity P-wave (km/s) = 5.31971 5.92050 5.62813
#
# Compressibility (1/GPa) = 0.03530458
#
# Stress axis : x y z
#
# Youngs Moduli (GPa) = 70.11018 54.23700 57.16097
#
# Poissons Ratio (x) = 0.29837 0.00684
# Poissons Ratio (y) = 0.38569 0.10429
# Poissons Ratio (z) = 0.00839 0.09896
#
# Static dielectric constant tensor:
#      x y z
#    x 3.434810 0.000000 0.114620 
#    y 0.000000 3.426840 0.000000 
#    z 0.114620 0.000000 3.311150 
# 
# 
# High freq. dielectric constant tensor:
#      x y z
#    x 1.735370 0.000000 0.011080 
#    y 0.000000 1.733000 0.000000 
#    z 0.011080 0.000000 1.720580 
# 
# From -- ./inp_files/47545.got.cif
#   From: 2010.03.12/outbox.cif.g09.slc.cpg/sg14_24_cif.got.tgz:47545.got - 2010.03.31 13:35:05.
