data_PCOD8123821
_publ_section_title
;
Structure prediction by ZEFSAII (Michael W. Deem and Ramdas Pophale) SiO2 
 PCOD8123821
Probable space group: P 21/C
;
_chemical_formula_sum "Si O2"
_cell_formula_units_Z 24
_cell_length_a 8.179451
_cell_length_b 15.877249
_cell_length_c 9.452679
_cell_angle_alpha 90.000000
_cell_angle_beta 96.244810
_cell_angle_gamma 90.000000
_cell_volume 1220.308472
_symmetry_space_group_name_H-M "P 21/C"
_symmetry_group_IT_number 14
_symmetry_cell_setting 'monoclinic'
loop_
_space_group_symop_operation_xyz
x,y,z
-x,1/2+y,1/2-z
-x,-y,-z
x,1/2-y,1/2+z
loop_
_atom_site_type_symbol
_atom_site_label
_atom_site_fract_x
_atom_site_fract_y
_atom_site_fract_z
Si Si1 0.866626 0.432090 0.039803
Si Si2 0.143592 0.316443 0.019278
Si Si3 0.863880 0.454740 0.580686
Si Si4 0.144557 0.153857 0.196686
Si Si5 0.319434 0.030374 0.681268
Si Si6 0.307653 0.520224 0.699188
O O1 0.821920 0.444540 0.198854
O O2 0.951677 0.341086 0.030035
O O3 0.707222 0.449520 0.925966
O O4 0.000000 0.500000 0.000000
O O5 0.182131 0.225917 0.087173
O O6 0.266960 0.383892 0.099693
O O7 0.175517 0.310554 0.855629
O O8 0.789172 0.517848 0.688987
O O9 0.721672 0.430701 0.453089
O O10 0.000000 0.500000 0.500000
O O11 0.953062 0.375787 0.664467
O O12 0.273686 0.079249 0.176711
O O13 0.509155 0.037278 0.735170
#
# Coordination Sequence:
#
# PCOD8123821 Si02
#       6
#     4   4   4   4   4   4
#     4  10  18  38  62  85 111 157 206 237 281 360
#     4  11  23  38  61  88 121 158 205 249 301 350
#     4  10  21  39  62  87 117 156 205 242 285 360
#     4  11  23  39  59  90 120 160 201 252 296 353
#     4  11  21  40  65  89 119 159 201 248 299 362
#     4  11  22  38  66  92 119 157 201 250 302 356
#
# _framework density 19.667158000000001
#
# number of rings (size 3 to 8) (size 9 to 14) (size 15 to 20)
#    0.000    1.333    5.000    4.000    7.000    0.000 
#    0.000    3.333    0.000    0.000    0.000    0.000 
#    0.000    0.000    0.000    0.000    0.000    0.000 
#
# Total GULP energy -297503.974980 kJ/mol
# GULP energy per Si atom -12395.998957 kJ/mol
# Density = 1.962239 g / cm^3
# Si number density = 19.667158 Si / 1000 Ang^3
#
#
#
# Elastic Constant Matrix: (Units=GPa)
#
#
# Indices 1 2 3 4 5 6 
#
# 1 88.1061 29.1592 31.0613 0.0000 23.4902 0.0000
# 2 29.1592 58.4427 30.1098 0.0000 2.4868 0.0000
# 3 31.0613 30.1098 143.9402 0.0000 10.8382 0.0000
# 4 0.0000 0.0000 0.0000 36.1524 0.0000 1.9206
# 5 23.4902 2.4868 10.8382 0.0000 39.3304 0.0000
# 6 0.0000 0.0000 0.0000 1.9206 0.0000 16.1832
#
#
#
# Elastic Compliance Matrix: (Units=1/GPa)
#
#
# Indices 1 2 3 4 5 6 
#
# 1 0.016655 -0.007200 -0.001402 0.000000 -0.009105 0.000000
# 2 -0.007200 0.022290 -0.003397 0.000000 0.003827 0.000000
# 3 -0.001402 -0.003397 0.008048 0.000000 -0.001166 0.000000
# 4 0.000000 0.000000 0.000000 0.027836 0.000000 -0.003304
# 5 -0.009105 0.003827 -0.001166 0.000000 0.030943 0.000000
# 6 0.000000 0.000000 0.000000 -0.003304 0.000000 0.062184
#
#
# Mechanical properties :
#
#
# Convention : Reuss Voigt Hill
#
# Bulk Modulus (GPa) = 43.48793 52.34996 47.91895
# Shear Modulus (GPa) = 25.04747 31.67711 28.36229
#
# Velocity S-wave (km/s) = 3.57258 4.01766 3.80164
# Velocity P-wave (km/s) = 6.25921 6.94247 6.60967
#
# Compressibility (1/GPa) = 0.02299488
#
# Stress axis : x y z
#
# Youngs Moduli (GPa) = 60.04289 44.86223 124.24901
#
# Poissons Ratio (x) = 0.32300 0.17424
# Poissons Ratio (y) = 0.43229 0.42211
# Poissons Ratio (z) = 0.08420 0.15241
#
# Static dielectric constant tensor:
#      x y z
#    x 3.842770 0.000000 0.514860 
#    y 0.000000 3.411580 0.000000 
#    z 0.514860 0.000000 4.286760 
# 
# 
# High freq. dielectric constant tensor:
#      x y z
#    x 1.754710 0.000000 0.013300 
#    y 0.000000 1.725960 0.000000 
#    z 0.013300 0.000000 1.799830 
# 
# From -- ./inp_files/9127.got.cif
#   From: 2010.03.12/outbox.cif.g09.slc.cpg/sg14_5_cif.got.tgz:9127.got - 2010.03.31 13:35:05.
