data_PCOD8123608
_publ_section_title
;
Structure prediction by ZEFSAII (Michael W. Deem and Ramdas Pophale) SiO2 
 PCOD8123608
Probable space group: P 21/C
;
_chemical_formula_sum "Si O2"
_cell_formula_units_Z 32
_cell_length_a 9.559927
_cell_length_b 9.531617
_cell_length_c 23.600334
_cell_angle_alpha 90.000000
_cell_angle_beta 52.870578
_cell_angle_gamma 90.000000
_cell_volume 1714.537341
_symmetry_space_group_name_H-M "P 21/C"
_symmetry_group_IT_number 14
_symmetry_cell_setting 'monoclinic'
loop_
_space_group_symop_operation_xyz
x,y,z
-x,1/2+y,1/2-z
-x,-y,-z
x,1/2-y,1/2+z
loop_
_atom_site_type_symbol
_atom_site_label
_atom_site_fract_x
_atom_site_fract_y
_atom_site_fract_z
Si Si1 0.559667 0.363552 0.516903
Si Si2 0.294098 0.558077 0.327034
Si Si3 0.843579 0.250568 0.731971
Si Si4 0.707636 0.950599 0.736221
Si Si5 0.783448 0.637884 0.340763
Si Si6 0.127184 0.870543 0.976488
Si Si7 0.196812 0.814037 0.133667
Si Si8 0.103348 0.235967 0.876729
O O1 0.500000 0.500000 0.500000
O O2 0.393090 0.293034 0.588992
O O3 0.707648 0.411298 0.525204
O O4 0.644955 0.265285 0.447105
O O5 0.250411 0.620883 0.276493
O O6 0.499401 0.542621 0.286135
O O7 0.205203 0.664683 0.395182
O O8 0.219786 0.402802 0.352052
O O9 0.774707 0.260578 0.813236
O O10 0.054332 0.265608 0.679612
O O11 0.791291 0.104873 0.715557
O O12 0.766377 0.863982 0.777224
O O13 0.773247 0.871134 0.663187
O O14 0.809268 0.481550 0.357697
O O15 0.013586 0.749283 0.036661
O O16 0.000000 0.000000 0.000000
O O17 0.015755 0.768863 0.149989
#
# Coordination Sequence:
#
# PCOD8123608 Si02
#       8
#     4   4   4   4   4   4   4   4
#     4   9  17  31  55  82 111 137 187 244 275 308
#     4  11  21  38  57  85 113 148 190 234 282 337
#     4  11  22  35  57  85 114 150 186 227 288 345
#     4  11  22  36  54  85 117 148 186 230 285 347
#     4  10  18  34  55  81 112 146 186 234 274 331
#     4   9  19  33  55  84 110 145 189 234 282 327
#     4   9  18  33  55  84 105 142 188 233 274 319
#     4  10  19  36  59  79 113 146 185 235 279 323
#
# _framework density 18.663924999999999
#
# number of rings (size 3 to 8) (size 9 to 14) (size 15 to 20)
#    0.000    2.000    3.750    0.750    1.750    0.000 
#    0.000    0.625    0.000    4.500    0.000    0.000 
#    0.000    0.000    0.000    0.000    0.000    0.000 
#
# Total GULP energy -396523.461496 kJ/mol
# GULP energy per Si atom -12391.358172 kJ/mol
# Density = 1.862145 g / cm^3
# Si number density = 18.663925 Si / 1000 Ang^3
#
#
#
# Elastic Constant Matrix: (Units=GPa)
#
#
# Indices 1 2 3 4 5 6 
#
# 1 103.2904 29.0120 41.9801 0.0000 -15.0408 0.0000
# 2 29.0120 32.5810 20.1500 0.0000 -11.8910 0.0000
# 3 41.9801 20.1500 85.4430 0.0000 -18.8647 0.0000
# 4 0.0000 0.0000 0.0000 21.3483 0.0000 5.0620
# 5 -15.0408 -11.8910 -18.8647 0.0000 32.1353 0.0000
# 6 0.0000 0.0000 0.0000 5.0620 0.0000 19.6349
#
#
#
# Elastic Compliance Matrix: (Units=1/GPa)
#
#
# Indices 1 2 3 4 5 6 
#
# 1 0.014384 -0.009780 -0.004680 0.000000 0.000366 0.000000
# 2 -0.009780 0.045337 -0.003669 0.000000 0.010044 0.000000
# 3 -0.004680 -0.003669 0.016182 0.000000 0.005952 0.000000
# 4 0.000000 0.000000 0.000000 0.049892 0.000000 -0.012862
# 5 0.000366 0.010044 0.005952 0.000000 0.038500 0.000000
# 6 0.000000 0.000000 0.000000 -0.012862 0.000000 0.054246
#
#
# Mechanical properties :
#
#
# Convention : Reuss Voigt Hill
#
# Bulk Modulus (GPa) = 25.22390 44.84430 35.03410
# Shear Modulus (GPa) = 18.65578 23.30185 20.97881
#
# Velocity S-wave (km/s) = 3.16502 3.53724 3.35629
# Velocity P-wave (km/s) = 5.18658 6.38453 5.81647
#
# Compressibility (1/GPa) = 0.03964494
#
# Stress axis : x y z
#
# Youngs Moduli (GPa) = 69.52263 22.05728 61.79604
#
# Poissons Ratio (x) = 0.21573 0.28919
# Poissons Ratio (y) = 0.67995 0.22671
# Poissons Ratio (z) = 0.32535 0.08092
#
# Static dielectric constant tensor:
#      x y z
#    x 3.574060 0.000000 -0.125990 
#    y 0.000000 3.054480 0.000000 
#    z -0.125990 0.000000 4.171310 
# 
# 
# High freq. dielectric constant tensor:
#      x y z
#    x 1.739130 0.000000 -0.005370 
#    y 0.000000 1.668420 0.000000 
#    z -0.005370 0.000000 1.744030 
# 
# From -- ./inp_files/64852.got.cif
#   From: 2010.03.12/outbox.cif.g09.slc.cpg/sg14_33_cif.got.tgz:64852.got - 2010.03.31 13:35:05.
