data_PCOD8123203
_publ_section_title
;
Structure prediction by ZEFSAII (Michael W. Deem and Ramdas Pophale) SiO2 
 PCOD8123203
Probable space group: P 2/C
;
_chemical_formula_sum "Si O2"
_cell_formula_units_Z 18
_cell_length_a 8.328481
_cell_length_b 5.891662
_cell_length_c 20.744118
_cell_angle_alpha 90.000000
_cell_angle_beta 135.552507
_cell_angle_gamma 90.000000
_cell_volume 712.779207
_symmetry_space_group_name_H-M "P 2/C"
_symmetry_group_IT_number 13
_symmetry_cell_setting 'monoclinic'
loop_
_space_group_symop_operation_xyz
x,y,z
-x,y,1/2-z
-x,-y,-z
x,-y,1/2+z
loop_
_atom_site_type_symbol
_atom_site_label
_atom_site_fract_x
_atom_site_fract_y
_atom_site_fract_z
Si Si1 0.756206 0.892229 0.413101
Si Si2 0.318233 0.545195 0.002172
Si Si3 0.000000 0.030947 0.750000
Si Si4 0.867362 0.383003 0.821127
Si Si5 0.421773 0.249362 0.334339
O O1 0.654819 0.775484 0.448969
O O2 0.771899 0.715004 0.359918
O O3 0.557141 0.063357 0.330597
O O4 0.000000 0.000000 0.500000
O O5 0.362874 0.331504 0.061238
O O6 0.500000 0.500000 0.000000
O O7 0.070413 0.551752 0.898659
O O8 0.032416 0.186620 0.696282
O O9 0.220602 0.866383 0.819389
O O10 0.673650 0.536728 0.732647
#
# Coordination Sequence:
#
# PCOD8123203 Si02
#       5
#     4   4   2   4   4
#     4  12  29  52  79 119 161 219 273 332 420 486
#     4  12  27  50  79 114 162 211 271 336 404 490
#     4  12  28  50  80 124 156 220 274 328 418 482
#     4  12  28  51  79 120 163 205 280 334 403 494
#     4  12  28  50  80 113 163 213 264 343 402 480
#
# _framework density 25.253260000000001
#
# number of rings (size 3 to 8) (size 9 to 14) (size 15 to 20)
#    0.000    0.000    2.222    6.667    6.222    7.111 
#    0.000    0.000    0.000    0.000    0.000    0.000 
#    0.000    0.000    0.000    0.000    0.000    0.000 
#
# Total GULP energy -223124.448954 kJ/mol
# GULP energy per Si atom -12395.802720 kJ/mol
# Density = 2.519578 g / cm^3
# Si number density = 25.253260 Si / 1000 Ang^3
#
#
#
# Elastic Constant Matrix: (Units=GPa)
#
#
# Indices 1 2 3 4 5 6 
#
# 1 148.8647 55.5355 38.8189 0.0000 -4.2171 0.0000
# 2 55.5355 111.4202 30.5564 0.0000 -1.7321 0.0000
# 3 38.8189 30.5564 97.2106 0.0000 4.3539 0.0000
# 4 0.0000 0.0000 0.0000 35.3889 0.0000 14.2092
# 5 -4.2171 -1.7321 4.3539 0.0000 50.2264 0.0000
# 6 0.0000 0.0000 0.0000 14.2092 0.0000 61.3356
#
#
#
# Elastic Compliance Matrix: (Units=1/GPa)
#
#
# Indices 1 2 3 4 5 6 
#
# 1 0.008734 -0.003693 -0.002363 0.000000 0.000811 0.000000
# 2 -0.003693 0.011401 -0.002121 0.000000 0.000267 0.000000
# 3 -0.002363 -0.002121 0.011956 0.000000 -0.001308 0.000000
# 4 0.000000 0.000000 0.000000 0.031155 0.000000 -0.007218
# 5 0.000811 0.000267 -0.001308 0.000000 0.020101 0.000000
# 6 0.000000 0.000000 0.000000 -0.007218 0.000000 0.017976
#
#
# Mechanical properties :
#
#
# Convention : Reuss Voigt Hill
#
# Bulk Modulus (GPa) = 63.54379 67.47969 65.51174
# Shear Modulus (GPa) = 40.67548 44.89583 42.78565
#
# Velocity S-wave (km/s) = 4.01771 4.22100 4.12061
# Velocity P-wave (km/s) = 6.83666 7.10879 6.97405
#
# Compressibility (1/GPa) = 0.01573718
#
# Stress axis : x y z
#
# Youngs Moduli (GPa) = 114.48973 87.70783 83.63942
#
# Poissons Ratio (x) = 0.32388 0.19768
# Poissons Ratio (y) = 0.42278 0.17742
# Poissons Ratio (z) = 0.27059 0.18605
#
# Static dielectric constant tensor:
#      x y z
#    x 4.810260 0.000000 -0.074930 
#    y 0.000000 5.016330 0.000000 
#    z -0.074930 0.000000 4.144500 
# 
# 
# High freq. dielectric constant tensor:
#      x y z
#    x 2.022730 0.000000 0.010100 
#    y 0.000000 2.020410 0.000000 
#    z 0.010100 0.000000 2.017720 
# 
# From -- ./inp_files/74730.got.cif
#   From: 2010.06.25/outbox.cif.g09.slc.cpg/sg13_38_cif.got.tgz:74730.got - 2010.06.28 04:50:58.
