data_PCOD8123515
_publ_section_title
;
Structure prediction by ZEFSAII (Michael W. Deem and Ramdas Pophale) SiO2 
 PCOD8123515
Probable space group: P 21/C
;
_chemical_formula_sum "Si O2"
_cell_formula_units_Z 32
_cell_length_a 22.006099
_cell_length_b 7.511842
_cell_length_c 22.519901
_cell_angle_alpha 90.000000
_cell_angle_beta 150.867996
_cell_angle_gamma 90.000000
_cell_volume 1812.288790
_symmetry_space_group_name_H-M "P 21/C"
_symmetry_group_IT_number 14
_symmetry_cell_setting 'monoclinic'
loop_
_space_group_symop_operation_xyz
x,y,z
-x,1/2+y,1/2-z
-x,-y,-z
x,1/2-y,1/2+z
loop_
_atom_site_type_symbol
_atom_site_label
_atom_site_fract_x
_atom_site_fract_y
_atom_site_fract_z
Si Si1 0.429922 0.937370 0.741182
Si Si2 0.263597 0.588562 0.993332
Si Si3 0.508555 0.426726 0.896653
Si Si4 0.639085 0.830133 0.832773
Si Si5 0.875426 0.762242 0.106694
Si Si6 0.362557 0.605609 0.430223
Si Si7 0.864960 0.394717 0.678912
Si Si8 0.540348 0.297248 0.605124
O O1 0.312595 0.877931 0.601497
O O2 0.424303 0.147521 0.742565
O O3 0.564837 0.895042 0.827745
O O4 0.412213 0.841026 0.788622
O O5 0.173093 0.421360 0.906867
O O6 0.198964 0.774814 0.925482
O O7 0.377131 0.534373 0.048852
O O8 0.384314 0.438435 0.748141
O O9 0.493908 0.588769 0.930247
O O10 0.537266 0.242949 0.955298
O O11 0.784677 0.823461 0.975225
O O12 0.009418 0.708083 0.193858
O O13 0.887176 0.910788 0.168720
O O14 0.224386 0.603987 0.339871
O O15 0.415697 0.408127 0.484127
O O16 0.352714 0.654065 0.351961
#
# Coordination Sequence:
#
# PCOD8123515 Si02
#       8
#     4   4   4   4   4   4   4   4
#     4  10  18  32  51  81 109 131 173 219 275 318
#     4   9  20  33  51  80 106 133 174 223 266 316
#     4  10  19  34  54  81 108 136 176 222 272 316
#     4  10  20  31  54  83 109 134 171 227 273 317
#     4  11  21  34  53  79 105 141 173 215 269 317
#     4  10  22  36  53  78 110 145 178 218 262 321
#     4  11  21  36  54  76 109 140 178 217 263 313
#     4  11  20  34  55  81 107 143 177 215 274 325
#
# _framework density 17.657230999999999
#
# number of rings (size 3 to 8) (size 9 to 14) (size 15 to 20)
#    0.000    1.750    2.500    4.125    5.250    0.000 
#    0.000    0.000    0.000    3.750    0.000    0.000 
#    0.000    0.000    0.000    0.000    0.000    0.000 
#
# Total GULP energy -396559.829068 kJ/mol
# GULP energy per Si atom -12392.494658 kJ/mol
# Density = 1.761704 g / cm^3
# Si number density = 17.657231 Si / 1000 Ang^3
#
#
#
# Elastic Constant Matrix: (Units=GPa)
#
#
# Indices 1 2 3 4 5 6 
#
# 1 82.8240 37.2685 46.5543 0.0000 1.6351 0.0000
# 2 37.2685 57.6418 21.1632 0.0000 5.0968 0.0000
# 3 46.5543 21.1632 80.0089 0.0000 10.1082 0.0000
# 4 0.0000 0.0000 0.0000 24.2774 0.0000 2.5793
# 5 1.6351 5.0968 10.1082 0.0000 24.8837 0.0000
# 6 0.0000 0.0000 0.0000 2.5793 0.0000 20.6674
#
#
#
# Elastic Compliance Matrix: (Units=1/GPa)
#
#
# Indices 1 2 3 4 5 6 
#
# 1 0.023515 -0.011527 -0.011318 0.000000 0.005413 0.000000
# 2 -0.011527 0.024958 0.000691 0.000000 -0.004635 0.000000
# 3 -0.011318 0.000691 0.019843 0.000000 -0.007459 0.000000
# 4 0.000000 0.000000 0.000000 0.041744 0.000000 -0.005210
# 5 0.005413 -0.004635 -0.007459 0.000000 0.043811 0.000000
# 6 0.000000 0.000000 0.000000 -0.005210 0.000000 0.049036
#
#
# Mechanical properties :
#
#
# Convention : Reuss Voigt Hill
#
# Bulk Modulus (GPa) = 41.65049 47.82741 44.73895
# Shear Modulus (GPa) = 19.59121 21.66494 20.62807
#
# Velocity S-wave (km/s) = 3.33457 3.50662 3.42168
# Velocity P-wave (km/s) = 6.20205 6.59853 6.40336
#
# Compressibility (1/GPa) = 0.02400932
#
# Stress axis : x y z
#
# Youngs Moduli (GPa) = 42.52537 40.06796 50.39483
#
# Poissons Ratio (x) = 0.46188 0.57035
# Poissons Ratio (y) = 0.49021 -0.03484
# Poissons Ratio (z) = 0.48128 -0.02770
#
# Static dielectric constant tensor:
#      x y z
#    x 3.202540 0.000000 -0.080100 
#    y 0.000000 3.533120 0.000000 
#    z -0.080100 0.000000 3.327440 
# 
# 
# High freq. dielectric constant tensor:
#      x y z
#    x 1.656710 0.000000 -0.008900 
#    y 0.000000 1.706450 0.000000 
#    z -0.008900 0.000000 1.666830 
# 
# From -- ./inp_files/69798.got.cif
#   From: 2010.03.12/outbox.cif.g09.slc.cpg/sg14_35_cif.got.tgz:69798.got - 2010.03.31 13:35:05.
