data_PCOD8123154
_publ_section_title
;
Structure prediction by ZEFSAII (Michael W. Deem and Ramdas Pophale) SiO2 
 PCOD8123154
Probable space group: P 2/C
;
_chemical_formula_sum "Si O2"
_cell_formula_units_Z 16
_cell_length_a 7.854323
_cell_length_b 18.287659
_cell_length_c 8.592743
_cell_angle_alpha 90.000000
_cell_angle_beta 145.286597
_cell_angle_gamma 90.000000
_cell_volume 702.863418
_symmetry_space_group_name_H-M "P 2/C"
_symmetry_group_IT_number 13
_symmetry_cell_setting 'monoclinic'
loop_
_space_group_symop_operation_xyz
x,y,z
-x,y,1/2-z
-x,-y,-z
x,-y,1/2+z
loop_
_atom_site_type_symbol
_atom_site_label
_atom_site_fract_x
_atom_site_fract_y
_atom_site_fract_z
Si Si1 0.680964 0.441492 0.040393
Si Si2 0.679077 0.060111 0.541922
Si Si3 0.308020 0.299672 0.251304
Si Si4 0.709667 0.204740 0.757169
O O1 0.766338 0.369347 0.200234
O O2 0.000000 0.479914 0.250000
O O3 0.500000 0.419108 0.750000
O O4 0.500000 0.500000 0.000000
O O5 0.764638 0.125973 0.723128
O O6 0.000000 0.023500 0.750000
O O7 0.500000 0.000000 0.500000
O O8 0.500000 0.083752 0.250000
O O9 0.500000 0.329466 0.250000
O O10 0.542067 0.247388 0.501591
O O11 0.012446 0.250563 0.009778
O O12 0.500000 0.196913 0.750000
#
# Coordination Sequence:
#
# PCOD8123154 Si02
#       4
#     4   4   4   4
#     4  12  26  46  71 104 141 184 233 289 349 415
#     4  12  26  46  71 104 141 184 233 289 349 415
#     4  12  25  44  69 100 138 182 229 283 344 411
#     4  12  25  44  69 100 138 182 229 283 344 411
#
# _framework density 22.764023000000002
#
# number of rings (size 3 to 8) (size 9 to 14) (size 15 to 20)
#    0.000    0.000    0.000   12.000    0.000    4.000 
#    0.000    0.000    0.000    0.000    0.000    0.000 
#    0.000    0.000    0.000    0.000    0.000    0.000 
#
# Total GULP energy -198301.968798 kJ/mol
# GULP energy per Si atom -12393.873050 kJ/mol
# Density = 2.271221 g / cm^3
# Si number density = 22.764023 Si / 1000 Ang^3
#
#
#
# Elastic Constant Matrix: (Units=GPa)
#
#
# Indices 1 2 3 4 5 6 
#
# 1 177.2999 61.8544 77.5043 0.0000 21.3326 0.0000
# 2 61.8544 152.5899 64.3212 0.0000 11.5124 0.0000
# 3 77.5043 64.3212 185.3735 0.0000 24.0108 0.0000
# 4 0.0000 0.0000 0.0000 40.5169 0.0000 14.1082
# 5 21.3326 11.5124 24.0108 0.0000 53.7754 0.0000
# 6 0.0000 0.0000 0.0000 14.1082 0.0000 20.9158
#
#
#
# Elastic Compliance Matrix: (Units=1/GPa)
#
#
# Indices 1 2 3 4 5 6 
#
# 1 0.007499 -0.001975 -0.002250 0.000000 -0.001548 0.000000
# 2 -0.001975 0.008208 -0.002013 0.000000 -0.000075 0.000000
# 3 -0.002250 -0.002013 0.007283 0.000000 -0.001929 0.000000
# 4 0.000000 0.000000 0.000000 0.032258 0.000000 -0.021759
# 5 -0.001548 -0.000075 -0.001929 0.000000 0.020087 0.000000
# 6 0.000000 0.000000 0.000000 -0.021759 0.000000 0.062488
#
#
# Mechanical properties :
#
#
# Convention : Reuss Voigt Hill
#
# Bulk Modulus (GPa) = 95.09235 102.51367 98.80301
# Shear Modulus (GPa) = 32.50949 43.81383 38.16166
#
# Velocity S-wave (km/s) = 3.78313 4.39190 4.09883
# Velocity P-wave (km/s) = 7.80683 8.41720 8.11775
#
# Compressibility (1/GPa) = 0.01051609
#
# Stress axis : x y z
#
# Youngs Moduli (GPa) = 133.35795 121.83149 137.30169
#
# Poissons Ratio (x) = 0.24058 0.30887
# Poissons Ratio (y) = 0.26334 0.27635
# Poissons Ratio (z) = 0.29999 0.24521
#
# Static dielectric constant tensor:
#      x y z
#    x 4.587250 0.000000 -0.039050 
#    y 0.000000 4.360600 0.000000 
#    z -0.039050 0.000000 3.894800 
# 
# 
# High freq. dielectric constant tensor:
#      x y z
#    x 1.929130 0.000000 0.007730 
#    y 0.000000 1.903540 0.000000 
#    z 0.007730 0.000000 1.920870 
# 
# From -- ./inp_files/12936.got.cif
#   From: 2010.06.25/outbox.cif.g09.slc.cpg/sg13_7_cif.got.tgz:12936.got - 2010.06.28 04:50:58.
