data_PCOD8123534
_publ_section_title
;
Structure prediction by ZEFSAII (Michael W. Deem and Ramdas Pophale) SiO2 
 PCOD8123534
Probable space group: P 21/C
;
_chemical_formula_sum "Si O2"
_cell_formula_units_Z 24
_cell_length_a 19.192241
_cell_length_b 8.114561
_cell_length_c 25.208292
_cell_angle_alpha 90.000000
_cell_angle_beta 161.339704
_cell_angle_gamma 90.000000
_cell_volume 1256.102605
_symmetry_space_group_name_H-M "P 21/C"
_symmetry_group_IT_number 14
_symmetry_cell_setting 'monoclinic'
loop_
_space_group_symop_operation_xyz
x,y,z
-x,1/2+y,1/2-z
-x,-y,-z
x,1/2-y,1/2+z
loop_
_atom_site_type_symbol
_atom_site_label
_atom_site_fract_x
_atom_site_fract_y
_atom_site_fract_z
Si Si1 0.357874 0.646609 0.113778
Si Si2 0.976355 0.473199 0.404986
Si Si3 0.034827 0.598073 0.333112
Si Si4 0.774249 0.821022 0.449654
Si Si5 0.348622 0.586497 0.741713
Si Si6 0.750514 0.778049 0.045255
O O1 0.523728 0.756750 0.267309
O O2 0.236254 0.518612 0.067023
O O3 0.479583 0.546553 0.155280
O O4 0.188687 0.754637 0.960465
O O5 0.752785 0.478535 0.276062
O O6 0.933443 0.517115 0.313034
O O7 0.075271 0.285306 0.481584
O O8 0.151658 0.603218 0.556578
O O9 0.178289 0.469897 0.401451
O O10 0.837559 0.673080 0.157500
O O11 0.861188 0.792812 0.571827
O O12 0.485778 0.754743 0.852102
#
# Coordination Sequence:
#
# PCOD8123534 Si02
#       6
#     4   4   4   4   4   4
#     4  10  18  32  55  77 101 133 175 216 258 306
#     4   9  19  34  55  79 108 140 172 210 259 308
#     4  11  21  34  54  78 103 138 177 217 259 308
#     4   9  17  31  52  76 101 133 172 213 252 304
#     4   9  18  35  55  79 108 138 171 211 259 311
#     4  10  19  32  51  74 103 134 173 212 253 305
#
# _framework density 19.106718000000001
#
# number of rings (size 3 to 8) (size 9 to 14) (size 15 to 20)
#    0.000    2.333    0.000    6.000    0.000    0.667 
#    0.000    1.667    0.000   18.000    0.000    0.000 
#    0.000    0.000    0.000    0.000    0.000    0.000 
#
# Total GULP energy -297352.463235 kJ/mol
# GULP energy per Si atom -12389.685968 kJ/mol
# Density = 1.906323 g / cm^3
# Si number density = 19.106718 Si / 1000 Ang^3
#
#
#
# Elastic Constant Matrix: (Units=GPa)
#
#
# Indices 1 2 3 4 5 6 
#
# 1 76.0164 14.8678 34.1528 0.0000 -4.1496 0.0000
# 2 14.8678 101.7504 38.9525 0.0000 -5.6627 0.0000
# 3 34.1528 38.9525 73.6118 0.0000 -10.5316 0.0000
# 4 0.0000 0.0000 0.0000 28.9193 0.0000 -9.4407
# 5 -4.1496 -5.6627 -10.5316 0.0000 29.2497 0.0000
# 6 0.0000 0.0000 0.0000 -9.4407 0.0000 20.3776
#
#
#
# Elastic Compliance Matrix: (Units=1/GPa)
#
#
# Indices 1 2 3 4 5 6 
#
# 1 0.016660 0.000657 -0.008140 0.000000 -0.000440 0.000000
# 2 0.000657 0.012351 -0.006837 0.000000 0.000023 0.000000
# 3 -0.008140 -0.006837 0.021745 0.000000 0.005351 0.000000
# 4 0.000000 0.000000 0.000000 0.040741 0.000000 0.018875
# 5 -0.000440 0.000023 0.005351 0.000000 0.036057 0.000000
# 6 0.000000 0.000000 0.000000 0.018875 0.000000 0.057818
#
#
# Mechanical properties :
#
#
# Convention : Reuss Voigt Hill
#
# Bulk Modulus (GPa) = 45.21768 47.48052 46.34910
# Shear Modulus (GPa) = 22.58529 26.60302 24.59416
#
# Velocity S-wave (km/s) = 3.44184 3.73545 3.59165
# Velocity P-wave (km/s) = 6.28588 6.59613 6.44287
#
# Compressibility (1/GPa) = 0.02211525
#
# Stress axis : x y z
#
# Youngs Moduli (GPa) = 60.02501 80.96750 45.98732
#
# Poissons Ratio (x) = -0.05323 0.37435
# Poissons Ratio (y) = -0.03947 0.31443
# Poissons Ratio (z) = 0.48862 0.55360
#
# Static dielectric constant tensor:
#      x y z
#    x 3.422820 0.000000 -0.146450 
#    y 0.000000 3.713620 0.000000 
#    z -0.146450 0.000000 3.456630 
# 
# 
# High freq. dielectric constant tensor:
#      x y z
#    x 1.725910 0.000000 -0.016910 
#    y 0.000000 1.739060 0.000000 
#    z -0.016910 0.000000 1.730450 
# 
# From -- ./inp_files/54565.got.cif
#   From: 2010.03.12/outbox.cif.g09.slc.cpg/sg14_28_cif.got.tgz:54565.got - 2010.03.31 13:35:05.
