data_PCOD8123617
_publ_section_title
;
Structure prediction by ZEFSAII (Michael W. Deem and Ramdas Pophale) SiO2 
 PCOD8123617
Probable space group: P 21/C
;
_chemical_formula_sum "Si O2"
_cell_formula_units_Z 28
_cell_length_a 13.531759
_cell_length_b 21.870241
_cell_length_c 7.862830
_cell_angle_alpha 90.000000
_cell_angle_beta 37.551858
_cell_angle_gamma 90.000000
_cell_volume 1418.226595
_symmetry_space_group_name_H-M "P 21/C"
_symmetry_group_IT_number 14
_symmetry_cell_setting 'monoclinic'
loop_
_space_group_symop_operation_xyz
x,y,z
-x,1/2+y,1/2-z
-x,-y,-z
x,1/2-y,1/2+z
loop_
_atom_site_type_symbol
_atom_site_label
_atom_site_fract_x
_atom_site_fract_y
_atom_site_fract_z
Si Si1 0.926661 0.180934 0.785018
Si Si2 0.347599 0.456320 0.523835
Si Si3 0.914297 0.619233 0.233007
Si Si4 0.916783 0.316711 0.693863
Si Si5 0.310343 0.922776 0.500517
Si Si6 0.079293 0.998502 0.615037
Si Si7 0.252306 0.934913 0.942867
O O1 0.067666 0.161222 0.459961
O O2 0.871374 0.248393 0.809256
O O3 0.775744 0.134846 0.956359
O O4 0.980455 0.178406 0.911164
O O5 0.271586 0.405179 0.499422
O O6 0.349867 0.524901 0.444583
O O7 0.221236 0.457465 0.851664
O O8 0.529613 0.437551 0.331229
O O9 0.949050 0.656149 0.359265
O O10 0.028613 0.557578 0.054898
O O11 0.748373 0.353319 0.947678
O O12 0.157656 0.966785 0.672382
O O13 0.362721 0.933599 0.623472
O O14 0.923444 0.038272 0.873390
#
# Coordination Sequence:
#
# PCOD8123617 Si02
#       7
#     4   4   4   4   4   4   4
#     4  11  18  35  59  82 104 140 204 227 272 323
#     4  11  19  35  56  81 121 144 172 232 294 325
#     4  10  19  36  58  81 111 143 192 231 268 332
#     4  10  22  34  60  81 104 150 194 236 267 333
#     4  10  22  33  53  87 116 141 184 229 284 330
#     4  10  18  34  56  83 108 148 184 220 273 334
#     4  10  19  34  56  80 106 152 185 227 273 336
#
# _framework density 19.742967
#
# number of rings (size 3 to 8) (size 9 to 14) (size 15 to 20)
#    0.000    1.714    4.286    2.143    0.000    1.143 
#    0.000    0.000    6.286    1.714    0.000    0.000 
#    0.000    0.000    0.000    0.000    0.000    0.000 
#
# Total GULP energy -346939.030603 kJ/mol
# GULP energy per Si atom -12390.679664 kJ/mol
# Density = 1.969803 g / cm^3
# Si number density = 19.742967 Si / 1000 Ang^3
#
#
#
# Elastic Constant Matrix: (Units=GPa)
#
#
# Indices 1 2 3 4 5 6 
#
# 1 67.9448 32.7801 18.9860 0.0000 9.8129 0.0000
# 2 32.7801 118.9591 16.9911 0.0000 0.7482 0.0000
# 3 18.9860 16.9911 51.3416 0.0000 0.9107 0.0000
# 4 0.0000 0.0000 0.0000 20.2289 0.0000 3.8041
# 5 9.8129 0.7482 0.9107 0.0000 31.7357 0.0000
# 6 0.0000 0.0000 0.0000 3.8041 0.0000 22.9633
#
#
#
# Elastic Compliance Matrix: (Units=1/GPa)
#
#
# Indices 1 2 3 4 5 6 
#
# 1 0.019246 -0.004477 -0.005534 0.000000 -0.005686 0.000000
# 2 -0.004477 0.009865 -0.001631 0.000000 0.001199 0.000000
# 3 -0.005534 -0.001631 0.022044 0.000000 0.001117 0.000000
# 4 0.000000 0.000000 0.000000 0.051024 0.000000 -0.008453
# 5 -0.005686 0.001199 0.001117 0.000000 0.033208 0.000000
# 6 0.000000 0.000000 0.000000 -0.008453 0.000000 0.044948
#
#
# Mechanical properties :
#
#
# Convention : Reuss Voigt Hill
#
# Bulk Modulus (GPa) = 35.87997 41.75109 38.81553
# Shear Modulus (GPa) = 23.48422 26.28479 24.88451
#
# Velocity S-wave (km/s) = 3.45265 3.65273 3.55410
# Velocity P-wave (km/s) = 5.84015 6.24364 6.04527
#
# Compressibility (1/GPa) = 0.02787070
#
# Stress axis : x y z
#
# Youngs Moduli (GPa) = 51.96014 101.36574 45.36424
#
# Poissons Ratio (x) = 0.45381 0.25107
# Poissons Ratio (y) = 0.23263 0.07397
# Poissons Ratio (z) = 0.28757 0.16528
#
# Static dielectric constant tensor:
#      x y z
#    x 3.580220 0.000000 0.157930 
#    y 0.000000 3.829500 0.000000 
#    z 0.157930 0.000000 3.282150 
# 
# 
# High freq. dielectric constant tensor:
#      x y z
#    x 1.759900 0.000000 0.024570 
#    y 0.000000 1.771820 0.000000 
#    z 0.024570 0.000000 1.740890 
# 
# From -- ./inp_files/9976.got.cif
#   From: 2010.03.12/outbox.cif.g09.slc.cpg/sg14_5_cif.got.tgz:9976.got - 2010.03.31 13:35:05.
