data_PCOD8123591
_publ_section_title
;
Structure prediction by ZEFSAII (Michael W. Deem and Ramdas Pophale) SiO2 
 PCOD8123591
Probable space group: P 21/C
;
_chemical_formula_sum "Si O2"
_cell_formula_units_Z 28
_cell_length_a 21.557065
_cell_length_b 9.205895
_cell_length_c 16.956720
_cell_angle_alpha 90.000000
_cell_angle_beta 27.734215
_cell_angle_gamma 90.000000
_cell_volume 1566.017182
_symmetry_space_group_name_H-M "P 21/C"
_symmetry_group_IT_number 14
_symmetry_cell_setting 'monoclinic'
loop_
_space_group_symop_operation_xyz
x,y,z
-x,1/2+y,1/2-z
-x,-y,-z
x,1/2-y,1/2+z
loop_
_atom_site_type_symbol
_atom_site_label
_atom_site_fract_x
_atom_site_fract_y
_atom_site_fract_z
Si Si1 0.918761 0.854714 0.110568
Si Si2 0.240404 0.351344 0.819375
Si Si3 0.652420 0.560490 0.987070
Si Si4 0.896325 0.110990 0.581935
Si Si5 0.412929 0.426859 0.758124
Si Si6 0.504307 0.699858 0.563661
Si Si7 0.356023 0.740215 0.568899
O O1 0.861584 0.776308 0.094218
O O2 0.799123 0.879010 0.305110
O O3 0.020680 0.749077 0.042950
O O4 0.000000 0.000000 0.000000
O O5 0.176283 0.512327 0.901840
O O6 0.306967 0.323128 0.829957
O O7 0.358034 0.370388 0.622356
O O8 0.645008 0.403092 0.959132
O O9 0.634094 0.557301 0.100588
O O10 0.536724 0.657805 0.078504
O O11 0.791828 0.171736 0.764440
O O12 0.000000 0.000000 0.500000
O O13 0.424435 0.585779 0.706691
O O14 0.556549 0.350990 0.591247
O O15 0.412136 0.743903 0.594431
#
# Coordination Sequence:
#
# PCOD8123591 Si02
#       7
#     4   4   4   4   4   4   4
#     4  10  20  35  56  78 108 145 188 222 263 328
#     4   9  18  35  58  78 101 144 188 221 261 337
#     4  11  23  34  52  86 117 138 175 246 292 310
#     4  10  18  33  59  81  99 143 200 219 249 326
#     4  11  20  36  56  82 113 143 179 234 291 331
#     4  10  19  35  58  81 106 142 188 228 271 340
#     4  11  19  36  59  82 107 148 189 221 277 338
#
# _framework density 17.879752
#
# number of rings (size 3 to 8) (size 9 to 14) (size 15 to 20)
#    0.000    1.714    4.286    2.143    0.000    0.000 
#    0.000    1.429    0.000    0.000    0.000    0.000 
#    0.000    0.000    0.000    0.000    0.000    0.000 
#
# Total GULP energy -346961.358751 kJ/mol
# GULP energy per Si atom -12391.477098 kJ/mol
# Density = 1.783906 g / cm^3
# Si number density = 17.879752 Si / 1000 Ang^3
#
#
#
# Elastic Constant Matrix: (Units=GPa)
#
#
# Indices 1 2 3 4 5 6 
#
# 1 82.0369 53.1874 58.9941 0.0000 2.3500 0.0000
# 2 53.1874 127.1349 61.7921 0.0000 -1.5845 0.0000
# 3 58.9941 61.7921 102.3969 0.0000 -3.9635 0.0000
# 4 0.0000 0.0000 0.0000 37.3100 0.0000 -7.5302
# 5 2.3500 -1.5845 -3.9635 0.0000 23.9711 0.0000
# 6 0.0000 0.0000 0.0000 -7.5302 0.0000 32.1677
#
#
#
# Elastic Compliance Matrix: (Units=1/GPa)
#
#
# Indices 1 2 3 4 5 6 
#
# 1 0.022849 -0.004434 -0.010655 0.000000 -0.004295 0.000000
# 2 -0.004434 0.011994 -0.004666 0.000000 0.000456 0.000000
# 3 -0.010655 -0.004666 0.018869 0.000000 0.003856 0.000000
# 4 0.000000 0.000000 0.000000 0.028132 0.000000 0.006585
# 5 -0.004295 0.000456 0.003856 0.000000 0.042806 0.000000
# 6 0.000000 0.000000 0.000000 0.006585 0.000000 0.032629
#
#
# Mechanical properties :
#
#
# Convention : Reuss Voigt Hill
#
# Bulk Modulus (GPa) = 70.40374 73.27954 71.84164
# Shear Modulus (GPa) = 24.81118 27.86276 26.33697
#
# Velocity S-wave (km/s) = 3.72918 3.95187 3.84214
# Velocity P-wave (km/s) = 7.61604 7.86744 7.74276
#
# Compressibility (1/GPa) = 0.01420379
#
# Stress axis : x y z
#
# Youngs Moduli (GPa) = 43.76468 83.37493 52.99646
#
# Poissons Ratio (x) = 0.36969 0.56466
# Poissons Ratio (y) = 0.19406 0.24726
# Poissons Ratio (z) = 0.46630 0.38899
#
# Static dielectric constant tensor:
#      x y z
#    x 4.228560 0.000000 -1.108900 
#    y 0.000000 6.790170 0.000000 
#    z -1.108900 0.000000 4.052080 
# 
# 
# High freq. dielectric constant tensor:
#      x y z
#    x 1.674720 0.000000 -0.030160 
#    y 0.000000 1.709570 0.000000 
#    z -0.030160 0.000000 1.682330 
# 
# From -- ./inp_files/48584.got.cif
#   From: 2010.03.12/outbox.cif.g09.slc.cpg/sg14_25_cif.got.tgz:48584.got - 2010.03.31 13:35:05.
