data_PCOD8123965
_publ_section_title
;
Structure prediction by ZEFSAII (Michael W. Deem and Ramdas Pophale) SiO2 
 PCOD8123965
Probable space group: P 21/C
;
_chemical_formula_sum "Si O2"
_cell_formula_units_Z 28
_cell_length_a 21.327189
_cell_length_b 5.542613
_cell_length_c 24.801841
_cell_angle_alpha 90.000000
_cell_angle_beta 29.009408
_cell_angle_gamma 90.000000
_cell_volume 1421.778511
_symmetry_space_group_name_H-M "P 21/C"
_symmetry_group_IT_number 14
_symmetry_cell_setting 'monoclinic'
loop_
_space_group_symop_operation_xyz
x,y,z
-x,1/2+y,1/2-z
-x,-y,-z
x,1/2-y,1/2+z
loop_
_atom_site_type_symbol
_atom_site_label
_atom_site_fract_x
_atom_site_fract_y
_atom_site_fract_z
Si Si1 0.846628 0.257579 0.911753
Si Si2 0.470763 0.899774 0.607486
Si Si3 0.332814 0.533140 0.873295
Si Si4 0.608570 0.965465 0.221413
Si Si5 0.326411 0.798929 0.613482
Si Si6 0.302763 0.421865 0.544858
Si Si7 0.895743 0.540509 0.773081
O O1 0.913099 0.337940 0.805854
O O2 0.963404 0.119584 0.854894
O O3 0.722601 0.095424 0.987282
O O4 0.787670 0.465520 0.994059
O O5 0.367067 0.776205 0.645207
O O6 0.559166 0.700347 0.570974
O O7 0.395789 0.045052 0.710199
O O8 0.563243 0.072653 0.504380
O O9 0.317931 0.282204 0.851279
O O10 0.465693 0.532294 0.805304
O O11 0.319529 0.784013 0.849327
O O12 0.310131 0.538258 0.599028
O O13 0.190284 0.942312 0.712063
O O14 0.181040 0.248062 0.638225
#
# Coordination Sequence:
#
# PCOD8123965 Si02
#       7
#     4   4   4   4   4   4   4
#     4  11  21  34  56  84 117 152 193 242 301 359
#     4  10  20  35  58  81 117 148 193 242 297 354
#     4  10  23  36  57  82 119 152 198 239 293 355
#     4  10  22  38  55  84 114 158 194 241 294 353
#     4   9  20  35  54  87 113 148 190 241 301 353
#     4  10  19  32  56  86 112 150 185 243 296 365
#     4  10  20  34  54  83 115 148 187 240 300 355
#
# _framework density 19.693645
#
# number of rings (size 3 to 8) (size 9 to 14) (size 15 to 20)
#    0.000    2.000    1.429    3.000   10.000    0.000 
#    0.000    0.000    0.000    1.714    0.000    0.000 
#    0.000    0.000    0.000    0.000    0.000    0.000 
#
# Total GULP energy -347044.162124 kJ/mol
# GULP energy per Si atom -12394.434362 kJ/mol
# Density = 1.964882 g / cm^3
# Si number density = 19.693645 Si / 1000 Ang^3
#
#
#
# Elastic Constant Matrix: (Units=GPa)
#
#
# Indices 1 2 3 4 5 6 
#
# 1 89.9833 28.4882 42.9649 0.0000 -0.3208 0.0000
# 2 28.4882 92.2764 24.1857 0.0000 1.3201 0.0000
# 3 42.9649 24.1857 69.8031 0.0000 -1.9055 0.0000
# 4 0.0000 0.0000 0.0000 28.4642 0.0000 1.0133
# 5 -0.3208 1.3201 -1.9055 0.0000 22.0694 0.0000
# 6 0.0000 0.0000 0.0000 1.0133 0.0000 15.9614
#
#
#
# Elastic Compliance Matrix: (Units=1/GPa)
#
#
# Indices 1 2 3 4 5 6 
#
# 1 0.016308 -0.002635 -0.009136 0.000000 -0.000394 0.000000
# 2 -0.002635 0.012370 -0.002692 0.000000 -0.001011 0.000000
# 3 -0.009136 -0.002692 0.020932 0.000000 0.001836 0.000000
# 4 0.000000 0.000000 0.000000 0.035211 0.000000 -0.002235
# 5 -0.000394 -0.001011 0.001836 0.000000 0.045525 0.000000
# 6 0.000000 0.000000 0.000000 -0.002235 0.000000 0.062793
#
#
# Mechanical properties :
#
#
# Convention : Reuss Voigt Hill
#
# Bulk Modulus (GPa) = 48.34278 49.26003 48.80140
# Shear Modulus (GPa) = 21.83791 23.72728 22.78260
#
# Velocity S-wave (km/s) = 3.33360 3.47482 3.40494
# Velocity P-wave (km/s) = 6.27836 6.41612 6.34762
#
# Compressibility (1/GPa) = 0.02068561
#
# Stress axis : x y z
#
# Youngs Moduli (GPa) = 61.31980 80.83788 47.77360
#
# Poissons Ratio (x) = 0.21297 0.43645
# Poissons Ratio (y) = 0.16155 0.12861
# Poissons Ratio (z) = 0.56020 0.21763
#
# Static dielectric constant tensor:
#      x y z
#    x 3.570390 0.000000 -0.087400 
#    y 0.000000 3.845950 0.000000 
#    z -0.087400 0.000000 3.287020 
# 
# 
# High freq. dielectric constant tensor:
#      x y z
#    x 1.744510 0.000000 -0.005300 
#    y 0.000000 1.778700 0.000000 
#    z -0.005300 0.000000 1.736100 
# 
# From -- ./inp_files/66454.got.cif
#   From: 2010.03.12/outbox.cif.g09.slc.cpg/sg14_34_cif.got.tgz:66454.got - 2010.03.31 13:35:05.
