data_PCOD8123766
_publ_section_title
;
Structure prediction by ZEFSAII (Michael W. Deem and Ramdas Pophale) SiO2 
 PCOD8123766
Probable space group: P 21/C
;
_chemical_formula_sum "Si O2"
_cell_formula_units_Z 32
_cell_length_a 11.100825
_cell_length_b 16.804615
_cell_length_c 11.404382
_cell_angle_alpha 90.000000
_cell_angle_beta 48.317529
_cell_angle_gamma 90.000000
_cell_volume 1588.854466
_symmetry_space_group_name_H-M "P 21/C"
_symmetry_group_IT_number 14
_symmetry_cell_setting 'monoclinic'
loop_
_space_group_symop_operation_xyz
x,y,z
-x,1/2+y,1/2-z
-x,-y,-z
x,1/2-y,1/2+z
loop_
_atom_site_type_symbol
_atom_site_label
_atom_site_fract_x
_atom_site_fract_y
_atom_site_fract_z
Si Si1 0.523275 0.398416 0.209047
Si Si2 0.208592 0.578563 0.558835
Si Si3 0.501974 0.853553 0.011571
Si Si4 0.339640 0.957437 0.729915
Si Si5 0.853424 0.447025 0.008439
Si Si6 0.445284 0.328492 0.035233
Si Si7 0.151107 0.427230 0.182634
Si Si8 0.801777 0.551077 0.258109
O O1 0.480974 0.393465 0.372494
O O2 0.480506 0.486287 0.188963
O O3 0.714849 0.385512 0.061928
O O4 0.436255 0.332781 0.183860
O O5 0.333630 0.630152 0.555558
O O6 0.255060 0.585104 0.393278
O O7 0.208642 0.486765 0.604354
O O8 0.025187 0.610666 0.680617
O O9 0.516191 0.760381 0.026700
O O10 0.650652 0.889320 0.837909
O O11 0.418119 0.890099 0.597197
O O12 0.207968 0.009424 0.744726
O O13 0.805525 0.473915 0.171012
O O14 0.854428 0.529539 0.937792
O O15 0.027236 0.403769 0.877198
O O16 0.272479 0.352885 0.094976
#
# Coordination Sequence:
#
# PCOD8123766 Si02
#       8
#     4   4   4   4   4   4   4   4
#     4  11  20  41  64  87 117 161 215 250 300 375
#     4  11  22  37  64  91 119 153 211 261 298 363
#     4  12  25  40  59  93 130 163 199 259 330 367
#     4  11  20  40  67  89 119 165 210 258 297 371
#     4  10  18  36  66  88 115 148 214 254 292 352
#     4  11  25  40  60  88 128 169 199 251 321 381
#     4  10  21  40  62  90 117 160 211 253 299 363
#     4  10  21  36  60  93 117 157 198 258 306 359
#
# _framework density 20.140297
#
# number of rings (size 3 to 8) (size 9 to 14) (size 15 to 20)
#    0.000    1.250    5.000    2.250    1.750    0.000 
#    2.250    0.000    0.000    0.000    0.000    0.000 
#    0.000    0.000    0.000    0.000    0.000    0.000 
#
# Total GULP energy -396584.290760 kJ/mol
# GULP energy per Si atom -12393.259086 kJ/mol
# Density = 2.009446 g / cm^3
# Si number density = 20.140297 Si / 1000 Ang^3
#
#
#
# Elastic Constant Matrix: (Units=GPa)
#
#
# Indices 1 2 3 4 5 6 
#
# 1 104.2933 28.8252 50.0817 0.0000 -22.0721 0.0000
# 2 28.8252 77.9673 28.4997 0.0000 -15.9501 0.0000
# 3 50.0817 28.4997 105.2267 0.0000 -17.7809 0.0000
# 4 0.0000 0.0000 0.0000 17.1490 0.0000 -1.8690
# 5 -22.0721 -15.9501 -17.7809 0.0000 46.1943 0.0000
# 6 0.0000 0.0000 0.0000 -1.8690 0.0000 14.8836
#
#
#
# Elastic Compliance Matrix: (Units=1/GPa)
#
#
# Indices 1 2 3 4 5 6 
#
# 1 0.013492 -0.002353 -0.005168 0.000000 0.003645 0.000000
# 2 -0.002353 0.015252 -0.002472 0.000000 0.003190 0.000000
# 3 -0.005168 -0.002472 0.012911 0.000000 0.001647 0.000000
# 4 0.000000 0.000000 0.000000 0.059121 0.000000 0.007424
# 5 0.003645 0.003190 0.001647 0.000000 0.025125 0.000000
# 6 0.000000 0.000000 0.000000 0.007424 0.000000 0.068120
#
#
# Mechanical properties :
#
#
# Convention : Reuss Voigt Hill
#
# Bulk Modulus (GPa) = 46.15022 55.81117 50.98069
# Shear Modulus (GPa) = 22.60089 27.65076 25.12582
#
# Velocity S-wave (km/s) = 3.35352 3.70930 3.53588
# Velocity P-wave (km/s) = 6.16108 6.79091 6.48365
#
# Compressibility (1/GPa) = 0.02166837
#
# Stress axis : x y z
#
# Youngs Moduli (GPa) = 74.11898 65.56457 77.45516
#
# Poissons Ratio (x) = 0.15430 0.40029
# Poissons Ratio (y) = 0.17443 0.19145
# Poissons Ratio (z) = 0.38305 0.16206
#
# Static dielectric constant tensor:
#      x y z
#    x 3.986930 0.000000 -0.090650 
#    y 0.000000 3.145360 0.000000 
#    z -0.090650 0.000000 3.910920 
# 
# 
# High freq. dielectric constant tensor:
#      x y z
#    x 1.806590 0.000000 -0.001360 
#    y 0.000000 1.728760 0.000000 
#    z -0.001360 0.000000 1.800340 
# 
# From -- ./inp_files/30426.got.cif
#   From: 2010.03.12/outbox.cif.g09.slc.cpg/sg14_16_cif.got.tgz:30426.got - 2010.03.31 13:35:05.
