data_PCOD8123582
_publ_section_title
;
Structure prediction by ZEFSAII (Michael W. Deem and Ramdas Pophale) SiO2 
 PCOD8123582
Probable space group: P 21/C
;
_chemical_formula_sum "Si O2"
_cell_formula_units_Z 32
_cell_length_a 18.080063
_cell_length_b 14.963887
_cell_length_c 22.131107
_cell_angle_alpha 90.000000
_cell_angle_beta 17.545699
_cell_angle_gamma 90.000000
_cell_volume 1805.038181
_symmetry_space_group_name_H-M "P 21/C"
_symmetry_group_IT_number 14
_symmetry_cell_setting 'monoclinic'
loop_
_space_group_symop_operation_xyz
x,y,z
-x,1/2+y,1/2-z
-x,-y,-z
x,1/2-y,1/2+z
loop_
_atom_site_type_symbol
_atom_site_label
_atom_site_fract_x
_atom_site_fract_y
_atom_site_fract_z
Si Si1 0.958869 0.165294 0.124542
Si Si2 0.586312 0.230439 0.833106
Si Si3 0.760143 0.275754 0.381323
Si Si4 0.776740 0.972327 0.280516
Si Si5 0.081358 0.316959 0.241057
Si Si6 0.437045 0.398126 0.552442
Si Si7 0.014793 0.798782 0.573484
Si Si8 0.304026 0.168318 0.753989
O O1 0.745606 0.195418 0.244338
O O2 0.961031 0.233243 0.179292
O O3 0.936592 0.061563 0.159258
O O4 0.221998 0.171080 0.887386
O O5 0.726715 0.194002 0.663560
O O6 0.331113 0.279045 0.016849
O O7 0.524075 0.145331 0.921946
O O8 0.595472 0.353564 0.481897
O O9 0.595110 0.188194 0.526746
O O10 0.890104 0.325283 0.335627
O O11 0.864579 0.910803 0.267967
O O12 0.788751 0.922224 0.206400
O O13 0.500000 0.000000 0.500000
O O14 0.948545 0.250700 0.391582
O O15 0.500000 0.500000 0.500000
O O16 0.139500 0.390248 0.794083
O O17 0.816959 0.747732 0.688153
#
# Coordination Sequence:
#
# PCOD8123582 Si02
#       8
#     4   4   4   4   4   4   4   4
#     4  10  18  33  57  79 102 136 180 218 263 317
#     4   9  17  33  55  75  97 136 181 215 257 314
#     4  10  20  35  51  73 109 143 172 212 273 327
#     4  11  17  33  56  84 107 133 181 224 264 312
#     4  10  20  33  50  75 110 141 166 219 273 316
#     4   9  18  34  53  77 100 135 181 220 254 303
#     4   8  17  33  53  74  97 135 179 213 254 312
#     4   9  18  32  55  78 102 136 173 218 260 317
#
# _framework density 17.728155999999998
#
# number of rings (size 3 to 8) (size 9 to 14) (size 15 to 20)
#    0.000    2.500    2.500    1.875    0.000    1.500 
#    4.500    0.000    0.000    0.000    0.000    0.000 
#    0.000    0.000    0.000    0.000    0.000    0.000 
#
# Total GULP energy -396457.032770 kJ/mol
# GULP energy per Si atom -12389.282274 kJ/mol
# Density = 1.768781 g / cm^3
# Si number density = 17.728156 Si / 1000 Ang^3
#
#
#
# Elastic Constant Matrix: (Units=GPa)
#
#
# Indices 1 2 3 4 5 6 
#
# 1 87.6843 31.8166 42.2837 0.0000 8.9001 0.0000
# 2 31.8166 95.3393 20.3075 0.0000 -0.1520 0.0000
# 3 42.2837 20.3075 97.5252 0.0000 20.7023 0.0000
# 4 0.0000 0.0000 0.0000 18.6346 0.0000 -2.8287
# 5 8.9001 -0.1520 20.7023 0.0000 18.9301 0.0000
# 6 0.0000 0.0000 0.0000 -2.8287 0.0000 9.5986
#
#
#
# Elastic Compliance Matrix: (Units=1/GPa)
#
#
# Indices 1 2 3 4 5 6 
#
# 1 0.015757 -0.004037 -0.005746 0.000000 -0.001157 0.000000
# 2 -0.004037 0.012177 -0.001575 0.000000 0.003718 0.000000
# 3 -0.005746 -0.001575 0.016282 0.000000 -0.015117 0.000000
# 4 0.000000 0.000000 0.000000 0.056176 0.000000 0.016555
# 5 -0.001157 0.003718 -0.015117 0.000000 0.069933 0.000000
# 6 0.000000 0.000000 0.000000 0.016555 0.000000 0.109061
#
#
# Mechanical properties :
#
#
# Convention : Reuss Voigt Hill
#
# Bulk Modulus (GPa) = 46.50599 52.15158 49.32878
# Shear Modulus (GPa) = 16.16722 21.84207 19.00464
#
# Velocity S-wave (km/s) = 3.02313 3.51387 3.27770
# Velocity P-wave (km/s) = 6.20287 6.77822 6.49692
#
# Compressibility (1/GPa) = 0.02150261
#
# Stress axis : x y z
#
# Youngs Moduli (GPa) = 63.46209 82.12015 61.41783
#
# Poissons Ratio (x) = 0.33148 0.35289
# Poissons Ratio (y) = 0.25617 0.09672
# Poissons Ratio (z) = 0.36464 0.12932
#
# Static dielectric constant tensor:
#      x y z
#    x 2.595830 0.000000 0.167360 
#    y 0.000000 2.304650 0.000000 
#    z 0.167360 0.000000 3.270060 
# 
# 
# High freq. dielectric constant tensor:
#      x y z
#    x 1.661500 0.000000 0.016190 
#    y 0.000000 1.672660 0.000000 
#    z 0.016190 0.000000 1.691990 
# 
# From -- ./inp_files/69418.got.cif
#   From: 2010.03.12/outbox.cif.g09.slc.cpg/sg14_35_cif.got.tgz:69418.got - 2010.03.31 13:35:05.
