data_PCOD8123384
_publ_section_title
;
Structure prediction by ZEFSAII (Michael W. Deem and Ramdas Pophale) SiO2 
 PCOD8123384
Probable space group: P 21/C
;
_chemical_formula_sum "Si O2"
_cell_formula_units_Z 32
_cell_length_a 9.291902
_cell_length_b 11.078448
_cell_length_c 28.669989
_cell_angle_alpha 90.000000
_cell_angle_beta 37.198936
_cell_angle_gamma 90.000000
_cell_volume 1784.300315
_symmetry_space_group_name_H-M "P 21/C"
_symmetry_group_IT_number 14
_symmetry_cell_setting 'monoclinic'
loop_
_space_group_symop_operation_xyz
x,y,z
-x,1/2+y,1/2-z
-x,-y,-z
x,1/2-y,1/2+z
loop_
_atom_site_type_symbol
_atom_site_label
_atom_site_fract_x
_atom_site_fract_y
_atom_site_fract_z
Si Si1 0.763160 0.804163 0.498281
Si Si2 0.056254 0.676554 0.237864
Si Si3 0.432206 0.487800 0.115623
Si Si4 0.693767 0.162906 0.623803
Si Si5 0.459171 0.644647 0.638497
Si Si6 0.147500 0.308044 0.127268
Si Si7 0.409593 0.107562 0.186117
Si Si8 0.351792 0.904939 0.262962
O O1 0.685344 0.694479 0.552098
O O2 0.753110 0.757247 0.447479
O O3 0.023347 0.846281 0.446984
O O4 0.585278 0.916796 0.547025
O O5 0.205753 0.552621 0.198065
O O6 0.219355 0.791174 0.181313
O O7 0.943944 0.695156 0.318406
O O8 0.842444 0.673786 0.255874
O O9 0.599795 0.436000 0.112546
O O10 0.349728 0.381268 0.102805
O O11 0.622168 0.297341 0.626584
O O12 0.571304 0.136313 0.705694
O O13 0.439811 0.498654 0.638898
O O14 0.479654 0.676138 0.689170
O O15 0.932563 0.398136 0.170654
O O16 0.417218 0.045673 0.235702
#
# Coordination Sequence:
#
# PCOD8123384 Si02
#       8
#     4   4   4   4   4   4   4   4
#     4  10  22  36  54  79 118 157 183 226 282 340
#     4  10  17  34  62  83 107 142 187 240 284 321
#     4  11  20  35  59  85 116 142 189 241 279 332
#     4  11  22  34  59  86 110 153 188 225 290 343
#     4   8  19  37  57  78 114 147 186 229 286 323
#     4  10  18  35  58  85 109 150 187 226 287 331
#     4  10  19  35  59  80 114 141 190 238 277 325
#     4   8  19  36  54  84 110 139 190 233 278 326
#
# _framework density 17.934200000000001
#
# number of rings (size 3 to 8) (size 9 to 14) (size 15 to 20)
#    0.750    1.500    2.500    0.750    0.000    4.500 
#    0.000    0.625    0.000    0.000    0.000    0.000 
#    0.000    0.000    0.000    0.000    0.000    0.000 
#
# Total GULP energy -396543.026312 kJ/mol
# GULP energy per Si atom -12391.969572 kJ/mol
# Density = 1.789338 g / cm^3
# Si number density = 17.934200 Si / 1000 Ang^3
#
#
#
# Elastic Constant Matrix: (Units=GPa)
#
#
# Indices 1 2 3 4 5 6 
#
# 1 83.1810 22.2487 38.2578 0.0000 3.6890 0.0000
# 2 22.2487 53.4963 27.6497 0.0000 5.7691 0.0000
# 3 38.2578 27.6497 104.4495 0.0000 12.4073 0.0000
# 4 0.0000 0.0000 0.0000 28.0391 0.0000 0.9044
# 5 3.6890 5.7691 12.4073 0.0000 23.2827 0.0000
# 6 0.0000 0.0000 0.0000 0.9044 0.0000 25.7047
#
#
#
# Elastic Compliance Matrix: (Units=1/GPa)
#
#
# Indices 1 2 3 4 5 6 
#
# 1 0.015179 -0.004041 -0.004615 0.000000 0.001056 0.000000
# 2 -0.004041 0.022865 -0.004244 0.000000 -0.002764 0.000000
# 3 -0.004615 -0.004244 0.012999 0.000000 -0.005144 0.000000
# 4 0.000000 0.000000 0.000000 0.035705 0.000000 -0.001256
# 5 0.001056 -0.002764 -0.005144 0.000000 0.046209 0.000000
# 6 0.000000 0.000000 0.000000 -0.001256 0.000000 0.038948
#
#
# Mechanical properties :
#
#
# Convention : Reuss Voigt Hill
#
# Bulk Modulus (GPa) = 39.61734 46.38213 42.99973
# Shear Modulus (GPa) = 24.25765 25.60335 24.93050
#
# Velocity S-wave (km/s) = 3.68175 3.78249 3.73246
# Velocity P-wave (km/s) = 6.34130 6.70782 6.52713
#
# Compressibility (1/GPa) = 0.02524147
#
# Stress axis : x y z
#
# Youngs Moduli (GPa) = 65.88131 43.73440 76.92808
#
# Poissons Ratio (x) = 0.17674 0.35505
# Poissons Ratio (y) = 0.26624 0.32651
# Poissons Ratio (z) = 0.30407 0.18563
#
# Static dielectric constant tensor:
#      x y z
#    x 3.204090 0.000000 0.066800 
#    y 0.000000 3.204370 0.000000 
#    z 0.066800 0.000000 3.364080 
# 
# 
# High freq. dielectric constant tensor:
#      x y z
#    x 1.684410 0.000000 -0.002260 
#    y 0.000000 1.683280 0.000000 
#    z -0.002260 0.000000 1.686620 
# 
# From -- ./inp_files/76615.got.cif
#   From: 2010.03.12/outbox.cif.g09.slc.cpg/sg14_39_cif.got.tgz:76615.got - 2010.03.31 13:35:05.
