data_PCOD8123958
_publ_section_title
;
Structure prediction by ZEFSAII (Michael W. Deem and Ramdas Pophale) SiO2 
 PCOD8123958
Probable space group: P 21/C
;
_chemical_formula_sum "Si O2"
_cell_formula_units_Z 32
_cell_length_a 10.944542
_cell_length_b 9.594314
_cell_length_c 27.337612
_cell_angle_alpha 90.000000
_cell_angle_beta 36.413788
_cell_angle_gamma 90.000000
_cell_volume 1704.021930
_symmetry_space_group_name_H-M "P 21/C"
_symmetry_group_IT_number 14
_symmetry_cell_setting 'monoclinic'
loop_
_space_group_symop_operation_xyz
x,y,z
-x,1/2+y,1/2-z
-x,-y,-z
x,1/2-y,1/2+z
loop_
_atom_site_type_symbol
_atom_site_label
_atom_site_fract_x
_atom_site_fract_y
_atom_site_fract_z
Si Si1 0.377935 0.511997 0.309971
Si Si2 0.532992 0.276403 0.584873
Si Si3 0.869769 0.666695 0.335061
Si Si4 0.407053 0.087756 0.903591
Si Si5 0.118250 0.786807 0.093662
Si Si6 0.946343 0.901799 0.916048
Si Si7 0.640162 0.769377 0.256602
Si Si8 0.818700 0.146793 0.822276
O O1 0.372306 0.401541 0.356618
O O2 0.547796 0.631022 0.261859
O O3 0.422937 0.413346 0.249217
O O4 0.166399 0.596842 0.371313
O O5 0.368266 0.290182 0.594184
O O6 0.594713 0.425267 0.585315
O O7 0.738284 0.206731 0.493368
O O8 0.436395 0.198528 0.663223
O O9 0.942733 0.687896 0.367472
O O10 0.898756 0.510153 0.305502
O O11 0.998713 0.772672 0.261843
O O12 0.619265 0.157663 0.852161
O O13 0.217568 0.161975 0.992648
O O14 0.228692 0.777518 0.110881
O O15 0.883630 0.735601 0.173857
O O16 0.125309 0.945860 0.075529
#
# Coordination Sequence:
#
# PCOD8123958 Si02
#       8
#     4   4   4   4   4   4   4   4
#     4  10  21  34  55  76 110 144 182 218 262 318
#     4   9  17  33  56  80 105 139 181 222 268 320
#     4  10  19  32  55  83 109 139 174 222 273 322
#     4   9  18  32  53  80 105 137 183 229 261 304
#     4   9  17  33  56  80 105 139 181 222 268 320
#     4   9  18  32  53  80 105 137 183 229 261 304
#     4  10  20  36  54  80 106 146 180 226 268 318
#     4  10  19  32  55  83 109 139 174 222 273 322
#
# _framework density 18.779102000000002
#
# number of rings (size 3 to 8) (size 9 to 14) (size 15 to 20)
#    0.000    2.500    1.250    1.125    1.750    4.000 
#    0.000    0.625    0.000    6.000    0.000    0.000 
#    0.000    0.000    0.000    0.000    0.000    0.000 
#
# Total GULP energy -396507.439586 kJ/mol
# GULP energy per Si atom -12390.857487 kJ/mol
# Density = 1.873636 g / cm^3
# Si number density = 18.779102 Si / 1000 Ang^3
#
#
#
# Elastic Constant Matrix: (Units=GPa)
#
#
# Indices 1 2 3 4 5 6 
#
# 1 84.7851 -31.3060 -69.3511 0.0000 -69.7569 0.0000
# 2 -31.3060 -29.6200 -133.5754 0.0000 -107.3114 0.0000
# 3 -69.3511 -133.5754 -252.3953 0.0000 -251.1540 0.0000
# 4 0.0000 0.0000 0.0000 4.6467 0.0000 -2.5078
# 5 -69.7569 -107.3114 -251.1540 0.0000 -151.5206 0.0000
# 6 0.0000 0.0000 0.0000 -2.5078 0.0000 21.5580
#
#
#
# Elastic Compliance Matrix: (Units=1/GPa)
#
#
# Indices 1 2 3 4 5 6 
#
# 1 0.009716 -0.001579 -0.002316 0.000000 0.000485 0.000000
# 2 -0.001579 0.029319 -0.007478 0.000000 -0.007642 0.000000
# 3 -0.002316 -0.007478 0.008776 0.000000 -0.008184 0.000000
# 4 0.000000 0.000000 0.000000 0.229623 0.000000 0.026712
# 5 0.000485 -0.007642 -0.008184 0.000000 0.012155 0.000000
# 6 0.000000 0.000000 0.000000 0.026712 0.000000 0.049494
#
#
# Mechanical properties :
#
#
# Convention : Reuss Voigt Hill
#
# Bulk Modulus (GPa) = 39.89756 -73.96611 -17.03428
# Shear Modulus (GPa) = 13.50677 -22.59635 -4.54479
#
# Velocity S-wave (km/s) = 2.68478 -3.47258 -1.55737
# Velocity P-wave (km/s) = 5.55901 7.45328 3.51061
#
# Compressibility (1/GPa) = 0.02506419
#
# Stress axis : x y z
#
# Youngs Moduli (GPa) = 102.92665 34.10723 113.94470
#
# Poissons Ratio (x) = 0.05385 0.26393
# Poissons Ratio (y) = 0.16249 0.85213
# Poissons Ratio (z) = 0.23841 0.25507
#
# Static dielectric constant tensor:
#      x y z
#    x 3.728870 0.000000 0.190600 
#    y 0.000000 2.947600 0.000000 
#    z 0.190600 0.000000 3.862730 
# 
# 
# High freq. dielectric constant tensor:
#      x y z
#    x 1.746460 0.000000 0.003560 
#    y 0.000000 1.670820 0.000000 
#    z 0.003560 0.000000 1.740070 
# 
# From -- ./inp_files/77218.got.cif
#   From: 2010.03.12/outbox.cif.g09.slc.cpg/sg14_39_cif.got.tgz:77218.got - 2010.03.31 13:35:05.
