data_PCOD8123982
_publ_section_title
;
Structure prediction by ZEFSAII (Michael W. Deem and Ramdas Pophale) SiO2 
 PCOD8123982
Probable space group: P 21/C
;
_chemical_formula_sum "Si O2"
_cell_formula_units_Z 32
_cell_length_a 9.187499
_cell_length_b 13.318960
_cell_length_c 20.749128
_cell_angle_alpha 90.000000
_cell_angle_beta 136.721608
_cell_angle_gamma 90.000000
_cell_volume 1740.614918
_symmetry_space_group_name_H-M "P 21/C"
_symmetry_group_IT_number 14
_symmetry_cell_setting 'monoclinic'
loop_
_space_group_symop_operation_xyz
x,y,z
-x,1/2+y,1/2-z
-x,-y,-z
x,1/2-y,1/2+z
loop_
_atom_site_type_symbol
_atom_site_label
_atom_site_fract_x
_atom_site_fract_y
_atom_site_fract_z
Si Si1 0.231627 0.312168 0.249369
Si Si2 0.514021 0.999271 0.157458
Si Si3 0.818159 0.135068 0.010323
Si Si4 0.508131 0.299047 0.929319
Si Si5 0.280378 0.377467 0.678306
Si Si6 0.244612 0.818532 0.366306
Si Si7 0.811365 0.103783 0.160430
Si Si8 0.263337 0.477824 0.800237
O O1 0.337651 0.415915 0.260680
O O2 0.310671 0.275964 0.346732
O O3 0.317895 0.225827 0.228970
O O4 0.978422 0.328135 0.166318
O O5 0.470844 0.093562 0.191085
O O6 0.631761 0.031809 0.130283
O O7 0.289801 0.951284 0.066547
O O8 0.792885 0.109404 0.077677
O O9 0.062942 0.136363 0.068289
O O10 0.713619 0.244689 0.962958
O O11 0.462348 0.411355 0.889198
O O12 0.554678 0.311485 0.020341
O O13 0.259096 0.470945 0.721386
O O14 0.227983 0.714362 0.321852
O O15 0.288238 0.907765 0.330512
O O16 0.042857 0.065928 0.257401
#
# Coordination Sequence:
#
# PCOD8123982 Si02
#       8
#     4   4   4   4   4   4   4   4
#     4  10  19  35  55  78 109 149 179 223 279 328
#     4  11  21  32  57  82 106 145 188 223 286 321
#     4   9  18  34  56  79 109 143 181 228 276 325
#     4   9  17  32  56  82 104 140 185 220 267 328
#     4  10  20  37  52  79 114 144 180 230 276 333
#     4  11  18  34  57  80 110 144 185 231 269 314
#     4  10  19  33  52  84 109 138 182 237 262 319
#     4  10  19  33  55  79 107 145 187 217 271 332
#
# _framework density 18.384307
#
# number of rings (size 3 to 8) (size 9 to 14) (size 15 to 20)
#    0.000    2.000    6.250    1.125    0.000    1.000 
#    0.000    0.000    0.000    9.000    0.000    0.000 
#    0.000    0.000    0.000    0.000    0.000    0.000 
#
# Total GULP energy -396472.219365 kJ/mol
# GULP energy per Si atom -12389.756855 kJ/mol
# Density = 1.834246 g / cm^3
# Si number density = 18.384307 Si / 1000 Ang^3
#
#
#
# Elastic Constant Matrix: (Units=GPa)
#
#
# Indices 1 2 3 4 5 6 
#
# 1 55.7565 20.8946 13.7909 0.0000 5.8101 0.0000
# 2 20.8946 83.8493 16.4645 0.0000 2.0518 0.0000
# 3 13.7909 16.4645 78.5677 0.0000 11.4006 0.0000
# 4 0.0000 0.0000 0.0000 23.6993 0.0000 0.2259
# 5 5.8101 2.0518 11.4006 0.0000 13.8342 0.0000
# 6 0.0000 0.0000 0.0000 0.2259 0.0000 33.2146
#
#
#
# Elastic Compliance Matrix: (Units=1/GPa)
#
#
# Indices 1 2 3 4 5 6 
#
# 1 0.020805 -0.004687 -0.001707 0.000000 -0.006636 0.000000
# 2 -0.004687 0.013495 -0.002272 0.000000 0.001840 0.000000
# 3 -0.001707 -0.002272 0.015164 0.000000 -0.011443 0.000000
# 4 0.000000 0.000000 0.000000 0.042198 0.000000 -0.000287
# 5 -0.006636 0.001840 -0.011443 0.000000 0.084229 0.000000
# 6 0.000000 0.000000 0.000000 -0.000287 0.000000 0.030109
#
#
# Mechanical properties :
#
#
# Convention : Reuss Voigt Hill
#
# Bulk Modulus (GPa) = 31.12115 35.60818 33.36466
# Shear Modulus (GPa) = 21.36355 25.28454 23.32405
#
# Velocity S-wave (km/s) = 3.41259 3.71257 3.56574
# Velocity P-wave (km/s) = 5.70022 6.14723 5.92794
#
# Compressibility (1/GPa) = 0.03213249
#
# Stress axis : x y z
#
# Youngs Moduli (GPa) = 48.06487 74.09999 65.94552
#
# Poissons Ratio (x) = 0.34730 0.11255
# Poissons Ratio (y) = 0.22528 0.14985
# Poissons Ratio (z) = 0.08204 0.16838
#
# Static dielectric constant tensor:
#      x y z
#    x 2.951460 0.000000 0.161120 
#    y 0.000000 3.519450 0.000000 
#    z 0.161120 0.000000 3.594930 
# 
# 
# High freq. dielectric constant tensor:
#      x y z
#    x 1.663580 0.000000 0.014850 
#    y 0.000000 1.719270 0.000000 
#    z 0.014850 0.000000 1.719110 
# 
# From -- ./inp_files/65847.got.cif
#   From: 2010.03.12/outbox.cif.g09.slc.cpg/sg14_33_cif.got.tgz:65847.got - 2010.03.31 13:35:05.
