data_PCOD8123935
_publ_section_title
;
Structure prediction by ZEFSAII (Michael W. Deem and Ramdas Pophale) SiO2 
 PCOD8123935
Probable space group: P 21/C
;
_chemical_formula_sum "Si O2"
_cell_formula_units_Z 28
_cell_length_a 14.655153
_cell_length_b 17.507936
_cell_length_c 12.454540
_cell_angle_alpha 90.000000
_cell_angle_beta 151.642917
_cell_angle_gamma 90.000000
_cell_volume 1517.800783
_symmetry_space_group_name_H-M "P 21/C"
_symmetry_group_IT_number 14
_symmetry_cell_setting 'monoclinic'
loop_
_space_group_symop_operation_xyz
x,y,z
-x,1/2+y,1/2-z
-x,-y,-z
x,1/2-y,1/2+z
loop_
_atom_site_type_symbol
_atom_site_label
_atom_site_fract_x
_atom_site_fract_y
_atom_site_fract_z
Si Si1 0.614099 0.223528 0.999276
Si Si2 0.746498 0.003060 0.853910
Si Si3 0.967514 0.712292 0.523943
Si Si4 0.505076 0.637267 0.827535
Si Si5 0.128275 0.073638 0.223373
Si Si6 0.323917 0.347733 0.617429
Si Si7 0.368949 0.288438 0.434076
O O1 0.830462 0.248728 0.243844
O O2 0.601515 0.161322 0.891475
O O3 0.495585 0.300050 0.848878
O O4 0.522874 0.179249 0.007425
O O5 0.620890 0.078023 0.736970
O O6 0.746282 0.977508 0.729403
O O7 0.658956 0.936980 0.838017
O O8 0.967209 0.022914 0.115610
O O9 0.979933 0.640950 0.454985
O O10 0.877089 0.684849 0.544029
O O11 0.836004 0.777458 0.334755
O O12 0.721675 0.604399 0.031835
O O13 0.533750 0.708713 0.934109
O O14 0.335931 0.342884 0.501328
#
# Coordination Sequence:
#
# PCOD8123935 Si02
#       7
#     4   4   4   4   4   4   4
#     4  10  20  34  54  77 102 135 173 210 252 303
#     4  10  19  32  52  77 103 133 167 207 259 306
#     4   9  18  33  53  75  98 132 173 211 254 303
#     4  10  20  33  53  77 103 133 167 212 254 299
#     4   9  19  33  52  77 104 130 165 211 258 303
#     4   9  20  34  50  75 105 133 169 214 255 302
#     4   9  19  35  51  73 104 135 169 211 254 302
#
# _framework density 18.447744
#
# number of rings (size 3 to 8) (size 9 to 14) (size 15 to 20)
#    0.000    2.571    0.000    2.143    0.000   10.286 
#    0.000    0.714    0.000    1.714    0.000    0.000 
#    0.000    0.000    0.000    0.000    0.000    0.000 
#
# Total GULP energy -347061.443904 kJ/mol
# GULP energy per Si atom -12395.051568 kJ/mol
# Density = 1.840576 g / cm^3
# Si number density = 18.447744 Si / 1000 Ang^3
#
#
#
# Elastic Constant Matrix: (Units=GPa)
#
#
# Indices 1 2 3 4 5 6 
#
# 1 66.0557 22.0867 60.2148 0.0000 4.0208 0.0000
# 2 22.0867 66.8514 34.6397 0.0000 6.0139 0.0000
# 3 60.2148 34.6397 102.6595 0.0000 6.0113 0.0000
# 4 0.0000 0.0000 0.0000 20.3688 0.0000 11.8585
# 5 4.0208 6.0139 6.0113 0.0000 20.2144 0.0000
# 6 0.0000 0.0000 0.0000 11.8585 0.0000 26.3606
#
#
#
# Elastic Compliance Matrix: (Units=1/GPa)
#
#
# Indices 1 2 3 4 5 6 
#
# 1 0.032602 -0.001001 -0.018749 0.000000 -0.000611 0.000000
# 2 -0.001001 0.018425 -0.005415 0.000000 -0.003672 0.000000
# 3 -0.018749 -0.005415 0.022647 0.000000 -0.001394 0.000000
# 4 0.000000 0.000000 0.000000 0.066515 0.000000 -0.029922
# 5 -0.000611 -0.003672 -0.001394 0.000000 0.051098 0.000000
# 6 0.000000 0.000000 0.000000 -0.029922 0.000000 0.051396
#
#
# Mechanical properties :
#
#
# Convention : Reuss Voigt Hill
#
# Bulk Modulus (GPa) = 42.83740 52.16099 47.49919
# Shear Modulus (GPa) = 16.62262 21.29712 18.95987
#
# Velocity S-wave (km/s) = 3.00503 3.40142 3.20935
# Velocity P-wave (km/s) = 5.94236 6.61533 6.28785
#
# Compressibility (1/GPa) = 0.02334409
#
# Stress axis : x y z
#
# Youngs Moduli (GPa) = 30.67319 54.27269 44.15624
#
# Poissons Ratio (x) = 0.05434 0.82788
# Poissons Ratio (y) = 0.03071 0.23910
# Poissons Ratio (z) = 0.57509 0.29388
#
# Static dielectric constant tensor:
#      x y z
#    x 3.415150 0.000000 0.063700 
#    y 0.000000 3.283490 0.000000 
#    z 0.063700 0.000000 3.346340 
# 
# 
# High freq. dielectric constant tensor:
#      x y z
#    x 1.708800 0.000000 0.015420 
#    y 0.000000 1.694230 0.000000 
#    z 0.015420 0.000000 1.712280 
# 
# From -- ./inp_files/32915.got.cif
#   From: 2010.03.12/outbox.cif.g09.slc.cpg/sg14_17_cif.got.tgz:32915.got - 2010.03.31 13:35:05.
