data_PCOD8123735
_publ_section_title
;
Structure prediction by ZEFSAII (Michael W. Deem and Ramdas Pophale) SiO2 
 PCOD8123735
Probable space group: P 21/C
;
_chemical_formula_sum "Si O2"
_cell_formula_units_Z 32
_cell_length_a 8.819691
_cell_length_b 11.103860
_cell_length_c 24.750219
_cell_angle_alpha 90.000000
_cell_angle_beta 44.432122
_cell_angle_gamma 90.000000
_cell_volume 1696.852167
_symmetry_space_group_name_H-M "P 21/C"
_symmetry_group_IT_number 14
_symmetry_cell_setting 'monoclinic'
loop_
_space_group_symop_operation_xyz
x,y,z
-x,1/2+y,1/2-z
-x,-y,-z
x,1/2-y,1/2+z
loop_
_atom_site_type_symbol
_atom_site_label
_atom_site_fract_x
_atom_site_fract_y
_atom_site_fract_z
Si Si1 0.243657 0.886847 0.238954
Si Si2 0.150550 0.771280 0.660726
Si Si3 0.010896 0.054614 0.592174
Si Si4 0.667727 0.169079 0.596364
Si Si5 0.617697 0.716479 0.171175
Si Si6 0.928758 0.231973 0.434403
Si Si7 0.332853 0.142779 0.226601
Si Si8 0.565205 0.923041 0.576469
O O1 0.167454 0.831253 0.201679
O O2 0.407083 0.798202 0.227447
O O3 0.046061 0.910427 0.331223
O O4 0.370478 0.010538 0.191756
O O5 0.183078 0.717373 0.591860
O O6 0.329374 0.876192 0.619723
O O7 0.913424 0.826522 0.725400
O O8 0.252088 0.103834 0.515841
O O9 0.835850 0.114005 0.596371
O O10 0.017195 0.911243 0.583803
O O11 0.786138 0.256782 0.523263
O O12 0.486353 0.251367 0.668385
O O13 0.547554 0.064712 0.593211
O O14 0.618753 0.626272 0.222028
O O15 0.638695 0.640991 0.111949
O O16 0.837278 0.797489 0.118949
#
# Coordination Sequence:
#
# PCOD8123735 Si02
#       8
#     4   4   4   4   4   4   4   4
#     4  11  22  38  56  86 122 151 194 235 292 349
#     4  10  24  37  54  82 125 160 180 237 298 348
#     4  11  18  35  65  91 114 138 198 265 285 325
#     4  11  20  34  66  91 110 149 198 251 286 338
#     4  10  18  36  59  81 121 151 182 244 288 343
#     4  10  19  38  58  90 118 146 194 243 296 338
#     4  11  23  37  56  87 120 154 195 235 285 357
#     4  10  20  35  61  90 114 146 193 245 300 334
#
# _framework density 18.858449
#
# number of rings (size 3 to 8) (size 9 to 14) (size 15 to 20)
#    0.000    1.500    6.250    0.750    1.750    3.000 
#    0.000    1.250    0.000    0.000    0.000    0.000 
#    0.000    0.000    0.000    0.000    0.000    0.000 
#
# Total GULP energy -396493.728170 kJ/mol
# GULP energy per Si atom -12390.429005 kJ/mol
# Density = 1.881553 g / cm^3
# Si number density = 18.858449 Si / 1000 Ang^3
#
#
#
# Elastic Constant Matrix: (Units=GPa)
#
#
# Indices 1 2 3 4 5 6 
#
# 1 102.7943 21.3257 34.6134 0.0000 5.4654 0.0000
# 2 21.3257 57.1686 25.2675 0.0000 -1.7743 0.0000
# 3 34.6134 25.2675 110.0589 0.0000 -3.2296 0.0000
# 4 0.0000 0.0000 0.0000 27.7879 0.0000 1.2940
# 5 5.4654 -1.7743 -3.2296 0.0000 22.0658 0.0000
# 6 0.0000 0.0000 0.0000 1.2940 0.0000 13.9726
#
#
#
# Elastic Compliance Matrix: (Units=1/GPa)
#
#
# Indices 1 2 3 4 5 6 
#
# 1 0.011581 -0.003088 -0.003038 0.000000 -0.003561 0.000000
# 2 -0.003088 0.020309 -0.003637 0.000000 0.001866 0.000000
# 3 -0.003038 -0.003637 0.010937 0.000000 0.002061 0.000000
# 4 0.000000 0.000000 0.000000 0.036143 0.000000 -0.003347
# 5 -0.003561 0.001866 0.002061 0.000000 0.046653 0.000000
# 6 0.000000 0.000000 0.000000 -0.003347 0.000000 0.071879
#
#
# Mechanical properties :
#
#
# Convention : Reuss Voigt Hill
#
# Bulk Modulus (GPa) = 42.91447 48.04834 45.48141
# Shear Modulus (GPa) = 22.24262 25.35295 23.79779
#
# Velocity S-wave (km/s) = 3.43804 3.67056 3.55620
# Velocity P-wave (km/s) = 6.21013 6.59528 6.40560
#
# Compressibility (1/GPa) = 0.02330216
#
# Stress axis : x y z
#
# Youngs Moduli (GPa) = 86.34799 49.23856 91.43423
#
# Poissons Ratio (x) = 0.15205 0.27776
# Poissons Ratio (y) = 0.26664 0.33252
# Poissons Ratio (z) = 0.26231 0.17907
#
# Static dielectric constant tensor:
#      x y z
#    x 3.613970 0.000000 0.024730 
#    y 0.000000 3.243030 0.000000 
#    z 0.024730 0.000000 3.827950 
# 
# 
# High freq. dielectric constant tensor:
#      x y z
#    x 1.744580 0.000000 0.001920 
#    y 0.000000 1.694810 0.000000 
#    z 0.001920 0.000000 1.744340 
# 
# From -- ./inp_files/55414.got.cif
#   From: 2010.03.12/outbox.cif.g09.slc.cpg/sg14_28_cif.got.tgz:55414.got - 2010.03.31 13:35:05.
