data_PCOD8123444
_publ_section_title
;
Structure prediction by ZEFSAII (Michael W. Deem and Ramdas Pophale) SiO2 
 PCOD8123444
Probable space group: P 21/C
;
_chemical_formula_sum "Si O2"
_cell_formula_units_Z 20
_cell_length_a 22.746528
_cell_length_b 7.164880
_cell_length_c 5.344607
_cell_angle_alpha 90.000000
_cell_angle_beta 103.589651
_cell_angle_gamma 90.000000
_cell_volume 846.657233
_symmetry_space_group_name_H-M "P 21/C"
_symmetry_group_IT_number 14
_symmetry_cell_setting 'monoclinic'
loop_
_space_group_symop_operation_xyz
x,y,z
-x,1/2+y,1/2-z
-x,-y,-z
x,1/2-y,1/2+z
loop_
_atom_site_type_symbol
_atom_site_label
_atom_site_fract_x
_atom_site_fract_y
_atom_site_fract_z
Si Si1 0.057838 0.370875 0.543359
Si Si2 0.379181 0.946446 0.879616
Si Si3 0.187229 0.966683 0.190096
Si Si4 0.237465 0.553540 0.240350
Si Si5 0.570696 0.033126 0.570252
O O1 0.057863 0.269013 0.276579
O O2 0.115874 0.503734 0.617333
O O3 0.000000 0.500000 0.500000
O O4 0.308315 0.906260 0.807784
O O5 0.415055 0.752284 0.915984
O O6 0.399483 0.058477 0.649877
O O7 0.399290 0.058382 0.150107
O O8 0.201315 0.747486 0.207381
O O9 0.216760 0.058770 0.470497
O O10 0.217955 0.058189 0.972114
O O11 0.500000 0.000000 0.500000
#
# Coordination Sequence:
#
# PCOD8123444 Si02
#       5
#     4   4   4   4   4
#     4  12  28  46  70 101 141 182 223 271 332 400
#     4  10  19  33  52  88 107 146 214 249 321 365
#     4  10  20  35  62  93 124 155 212 259 328 367
#     4  10  19  35  65  96 116 157 210 282 316 390
#     4  10  18  29  48  77 112 146 180 249 302 370
#
# _framework density 23.622312000000001
#
# number of rings (size 3 to 8) (size 9 to 14) (size 15 to 20)
#    0.000    1.600    0.000    8.400    5.600    0.000 
#    0.000    0.000    0.000    0.000  176.800    0.000 
#    0.000    0.000    0.000    0.000    0.000    0.000 
#
# Total GULP energy -247873.454835 kJ/mol
# GULP energy per Si atom -12393.672742 kJ/mol
# Density = 2.356855 g / cm^3
# Si number density = 23.622312 Si / 1000 Ang^3
#
#
#
# Elastic Constant Matrix: (Units=GPa)
#
#
# Indices 1 2 3 4 5 6 
#
# 1 233.8189 44.1214 82.9375 0.0000 14.3356 0.0000
# 2 44.1214 39.7674 3.6709 0.0000 10.9118 0.0000
# 3 82.9375 3.6709 263.9661 0.0000 -23.2485 0.0000
# 4 0.0000 0.0000 0.0000 2.9480 0.0000 6.2403
# 5 14.3356 10.9118 -23.2485 0.0000 56.8462 0.0000
# 6 0.0000 0.0000 0.0000 6.2403 0.0000 29.0279
#
#
#
# Elastic Compliance Matrix: (Units=1/GPa)
#
#
# Indices 1 2 3 4 5 6 
#
# 1 0.006268 -0.006456 -0.001981 0.000000 -0.001152 0.000000
# 2 -0.006456 0.033377 0.001186 0.000000 -0.004294 0.000000
# 3 -0.001981 0.001186 0.004583 0.000000 0.002146 0.000000
# 4 0.000000 0.000000 0.000000 0.622486 0.000000 -0.133819
# 5 -0.001152 -0.004294 0.002146 0.000000 0.019584 0.000000
# 6 0.000000 0.000000 0.000000 -0.133819 0.000000 0.063217
#
#
# Mechanical properties :
#
#
# Convention : Reuss Voigt Hill
#
# Bulk Modulus (GPa) = 33.63892 88.77912 61.20902
# Shear Modulus (GPa) = 6.46056 44.88592 25.67324
#
# Velocity S-wave (km/s) = 1.65556 4.36380 3.30027
# Velocity P-wave (km/s) = 4.23388 7.94070 6.36319
#
# Compressibility (1/GPa) = 0.02972747
#
# Stress axis : x y z
#
# Youngs Moduli (GPa) = 159.53146 29.96034 218.17892
#
# Poissons Ratio (x) = 0.19342 0.43225
# Poissons Ratio (y) = 1.02989 -0.25876
# Poissons Ratio (z) = 0.31606 -0.03553
#
# Static dielectric constant tensor:
#      x y z
#    x 5.978030 0.000000 -7.607160 
#    y 0.000000 6.258340 0.000000 
#    z -7.607160 0.000000 35.982170 
# 
# 
# High freq. dielectric constant tensor:
#      x y z
#    x 1.944010 0.000000 -0.010930 
#    y 0.000000 1.891040 0.000000 
#    z -0.010930 0.000000 1.985240 
# 
# From -- ./inp_files/4041.got.cif
#   From: 2010.03.12/outbox.cif.g09.slc.cpg/sg14_3_cif.got.tgz:4041.got - 2010.03.31 13:35:05.
