data_PCOD8123645
_publ_section_title
;
Structure prediction by ZEFSAII (Michael W. Deem and Ramdas Pophale) SiO2 
 PCOD8123645
Probable space group: P 21/C
;
_chemical_formula_sum "Si O2"
_cell_formula_units_Z 28
_cell_length_a 9.826152
_cell_length_b 10.589849
_cell_length_c 19.185034
_cell_angle_alpha 90.000000
_cell_angle_beta 52.751880
_cell_angle_gamma 90.000000
_cell_volume 1589.135080
_symmetry_space_group_name_H-M "P 21/C"
_symmetry_group_IT_number 14
_symmetry_cell_setting 'monoclinic'
loop_
_space_group_symop_operation_xyz
x,y,z
-x,1/2+y,1/2-z
-x,-y,-z
x,1/2-y,1/2+z
loop_
_atom_site_type_symbol
_atom_site_label
_atom_site_fract_x
_atom_site_fract_y
_atom_site_fract_z
Si Si1 0.162377 0.320487 0.764269
Si Si2 0.066885 0.132450 0.908666
Si Si3 0.948075 0.971306 0.406037
Si Si4 0.238084 0.042189 0.984691
Si Si5 0.741387 0.746943 0.908037
Si Si6 0.476554 0.814642 0.887387
Si Si7 0.841375 0.161000 0.550997
O O1 0.129385 0.191034 0.816800
O O2 0.037968 0.431658 0.826035
O O3 0.128238 0.299050 0.692239
O O4 0.364812 0.353139 0.712489
O O5 0.222852 0.081539 0.907871
O O6 0.938186 0.018156 0.932389
O O7 0.976010 0.237418 0.983336
O O8 0.098248 0.883284 0.391310
O O9 0.806947 0.890397 0.409420
O O10 0.842352 0.041339 0.499301
O O11 0.275329 0.162756 0.020386
O O12 0.390122 0.941543 0.943264
O O13 0.552928 0.738433 0.930773
O O14 0.345900 0.723479 0.886944
#
# Coordination Sequence:
#
# PCOD8123645 Si02
#       7
#     4   4   4   4   4   4   4
#     4   9  22  34  52  81 116 135 175 232 277 312
#     4   9  18  34  57  82 100 141 188 219 259 328
#     4  10  19  36  59  76 106 145 186 218 267 328
#     4  10  18  34  60  77 107 146 186 217 264 330
#     4  10  21  34  53  82 108 143 174 224 273 328
#     4   9  21  35  53  82 114 135 176 230 278 314
#     4   9  18  36  59  79  99 142 185 223 260 329
#
# _framework density 17.619648000000002
#
# number of rings (size 3 to 8) (size 9 to 14) (size 15 to 20)
#    0.857    1.714    1.429    0.429    2.000    1.714 
#    0.000    0.000    0.000    0.000    0.000    0.000 
#    0.000    0.000    0.000    0.000    0.000    0.000 
#
# Total GULP energy -347001.128666 kJ/mol
# GULP energy per Si atom -12392.897452 kJ/mol
# Density = 1.757955 g / cm^3
# Si number density = 17.619648 Si / 1000 Ang^3
#
#
#
# Elastic Constant Matrix: (Units=GPa)
#
#
# Indices 1 2 3 4 5 6 
#
# 1 64.1335 28.8190 4.1794 0.0000 -11.2530 0.0000
# 2 28.8190 69.7364 9.7426 0.0000 -6.0960 0.0000
# 3 4.1794 9.7426 38.4991 0.0000 -5.7501 0.0000
# 4 0.0000 0.0000 0.0000 24.9433 0.0000 -0.3835
# 5 -11.2530 -6.0960 -5.7501 0.0000 19.8496 0.0000
# 6 0.0000 0.0000 0.0000 -0.3835 0.0000 39.0986
#
#
#
# Elastic Compliance Matrix: (Units=1/GPa)
#
#
# Indices 1 2 3 4 5 6 
#
# 1 0.020766 -0.007901 0.001193 0.000000 0.009691 0.000000
# 2 -0.007901 0.018126 -0.003728 0.000000 0.000008 0.000000
# 3 0.001193 -0.003728 0.027927 0.000000 0.007621 0.000000
# 4 0.000000 0.000000 0.000000 0.040097 0.000000 0.000393
# 5 0.009691 0.000008 0.007621 0.000000 0.058083 0.000000
# 6 0.000000 0.000000 0.000000 0.000393 0.000000 0.025580
#
#
# Mechanical properties :
#
#
# Convention : Reuss Voigt Hill
#
# Bulk Modulus (GPa) = 21.76485 28.65012 25.20748
# Shear Modulus (GPa) = 22.04903 25.42017 23.73460
#
# Velocity S-wave (km/s) = 3.54133 3.80243 3.67420
# Velocity P-wave (km/s) = 5.39452 5.96436 5.68658
#
# Compressibility (1/GPa) = 0.04594564
#
# Stress axis : x y z
#
# Youngs Moduli (GPa) = 48.15666 55.16830 35.80783
#
# Poissons Ratio (x) = 0.43588 -0.04270
# Poissons Ratio (y) = 0.38048 0.13350
# Poissons Ratio (z) = -0.05743 0.20568
#
# Static dielectric constant tensor:
#      x y z
#    x 3.217780 0.000000 -0.002390 
#    y 0.000000 3.307490 0.000000 
#    z -0.002390 0.000000 3.056040 
# 
# 
# High freq. dielectric constant tensor:
#      x y z
#    x 1.678640 0.000000 0.003200 
#    y 0.000000 1.686000 0.000000 
#    z 0.003200 0.000000 1.657130 
# 
# From -- ./inp_files/65395.got.cif
#   From: 2010.03.12/outbox.cif.g09.slc.cpg/sg14_33_cif.got.tgz:65395.got - 2010.03.31 13:35:05.
