data_PCOD8123512
_publ_section_title
;
Structure prediction by ZEFSAII (Michael W. Deem and Ramdas Pophale) SiO2 
 PCOD8123512
Probable space group: P 21/C
;
_chemical_formula_sum "Si O2"
_cell_formula_units_Z 28
_cell_length_a 19.264904
_cell_length_b 8.427883
_cell_length_c 16.032699
_cell_angle_alpha 90.000000
_cell_angle_beta 34.675579
_cell_angle_gamma 90.000000
_cell_volume 1480.983082
_symmetry_space_group_name_H-M "P 21/C"
_symmetry_group_IT_number 14
_symmetry_cell_setting 'monoclinic'
loop_
_space_group_symop_operation_xyz
x,y,z
-x,1/2+y,1/2-z
-x,-y,-z
x,1/2-y,1/2+z
loop_
_atom_site_type_symbol
_atom_site_label
_atom_site_fract_x
_atom_site_fract_y
_atom_site_fract_z
Si Si1 0.707999 0.053499 0.946835
Si Si2 0.864167 0.659652 0.184714
Si Si3 0.736920 0.341084 0.015890
Si Si4 0.509023 0.697704 0.643856
Si Si5 0.644269 0.258673 0.860627
Si Si6 0.690431 0.943560 0.411320
Si Si7 0.863093 0.106441 0.557307
O O1 0.633120 0.163798 0.957141
O O2 0.823123 0.967205 0.793563
O O3 0.766568 0.158670 0.962661
O O4 0.606382 0.931560 0.077212
O O5 0.782361 0.818113 0.275286
O O6 0.850869 0.572031 0.107697
O O7 0.006011 0.689988 0.061328
O O8 0.597872 0.325986 0.184682
O O9 0.829026 0.407582 0.993814
O O10 0.758920 0.450343 0.912884
O O11 0.461027 0.690134 0.595677
O O12 0.580981 0.864454 0.572657
O O13 0.636026 0.446331 0.890748
O O14 0.774231 0.230800 0.689169
#
# Coordination Sequence:
#
# PCOD8123512 Si02
#       7
#     4   4   4   4   4   4   4
#     4   9  18  32  50  71  99 132 166 206 253 303
#     4   9  19  36  54  72  99 136 173 210 258 312
#     4  10  20  33  50  75 103 131 168 215 260 301
#     4  10  18  32  50  72 101 135 166 200 248 307
#     4   9  18  32  51  74 100 131 167 206 248 300
#     4  10  20  33  51  78 105 131 168 214 257 302
#     4   9  19  36  54  72  99 136 174 212 257 309
#
# _framework density 18.906361
#
# number of rings (size 3 to 8) (size 9 to 14) (size 15 to 20)
#    0.000    2.571    0.000    1.714    0.000    2.857 
#    0.000    7.143    0.000    0.000    0.000    0.000 
#    0.000    0.000    0.000    0.000    0.000    0.000 
#
# Total GULP energy -346922.279071 kJ/mol
# GULP energy per Si atom -12390.081395 kJ/mol
# Density = 1.886333 g / cm^3
# Si number density = 18.906361 Si / 1000 Ang^3
#
#
#
# Elastic Constant Matrix: (Units=GPa)
#
#
# Indices 1 2 3 4 5 6 
#
# 1 79.0889 28.7366 17.2508 0.0000 4.9959 0.0000
# 2 28.7366 91.8479 17.6634 0.0000 4.7085 0.0000
# 3 17.2508 17.6634 40.2366 0.0000 -1.2573 0.0000
# 4 0.0000 0.0000 0.0000 20.6367 0.0000 10.6197
# 5 4.9959 4.7085 -1.2573 0.0000 27.3683 0.0000
# 6 0.0000 0.0000 0.0000 10.6197 0.0000 19.4650
#
#
#
# Elastic Compliance Matrix: (Units=1/GPa)
#
#
# Indices 1 2 3 4 5 6 
#
# 1 0.015218 -0.003682 -0.004983 0.000000 -0.002374 0.000000
# 2 -0.003682 0.012927 -0.004151 0.000000 -0.001743 0.000000
# 3 -0.004983 -0.004151 0.028904 0.000000 0.002951 0.000000
# 4 0.000000 0.000000 0.000000 0.067373 0.000000 -0.036757
# 5 -0.002374 -0.001743 0.002951 0.000000 0.037407 0.000000
# 6 0.000000 0.000000 0.000000 -0.036757 0.000000 0.071428
#
#
# Mechanical properties :
#
#
# Convention : Reuss Voigt Hill
#
# Bulk Modulus (GPa) = 31.82792 37.60833 34.71813
# Shear Modulus (GPa) = 18.56250 23.32884 20.94567
#
# Velocity S-wave (km/s) = 3.13679 3.51652 3.33207
# Velocity P-wave (km/s) = 5.47634 6.03515 5.76252
#
# Compressibility (1/GPa) = 0.03141896
#
# Stress axis : x y z
#
# Youngs Moduli (GPa) = 65.70991 77.35748 34.59770
#
# Poissons Ratio (x) = 0.28479 0.17239
# Poissons Ratio (y) = 0.24191 0.14361
# Poissons Ratio (z) = 0.32741 0.32110
#
# Static dielectric constant tensor:
#      x y z
#    x 3.402260 0.000000 0.078920 
#    y 0.000000 3.576340 0.000000 
#    z 0.078920 0.000000 3.504150 
# 
# 
# High freq. dielectric constant tensor:
#      x y z
#    x 1.720910 0.000000 0.002530 
#    y 0.000000 1.734540 0.000000 
#    z 0.002530 0.000000 1.733790 
# 
# From -- ./inp_files/48538.got.cif
#   From: 2010.03.12/outbox.cif.g09.slc.cpg/sg14_25_cif.got.tgz:48538.got - 2010.03.31 13:35:05.
