data_PCOD8123165
_publ_section_title
;
Structure prediction by ZEFSAII (Michael W. Deem and Ramdas Pophale) SiO2 
 PCOD8123165
Probable space group: P 2/C
;
_chemical_formula_sum "Si O2"
_cell_formula_units_Z 22
_cell_length_a 5.690248
_cell_length_b 5.086728
_cell_length_c 28.995724
_cell_angle_alpha 90.000000
_cell_angle_beta 85.239495
_cell_angle_gamma 90.000000
_cell_volume 836.378563
_symmetry_space_group_name_H-M "P 2/C"
_symmetry_group_IT_number 13
_symmetry_cell_setting 'monoclinic'
loop_
_space_group_symop_operation_xyz
x,y,z
-x,y,1/2-z
-x,-y,-z
x,-y,1/2+z
loop_
_atom_site_type_symbol
_atom_site_label
_atom_site_fract_x
_atom_site_fract_y
_atom_site_fract_z
Si Si1 0.391240 0.710624 0.204212
Si Si2 0.076093 0.040035 0.077012
Si Si3 0.304821 0.300666 0.883640
Si Si4 0.948886 0.331667 0.337729
Si Si5 0.344967 0.537472 0.047251
Si Si6 0.000000 0.915502 0.750000
O O1 0.500000 0.606218 0.250000
O O2 0.585145 0.823626 0.165038
O O3 0.281052 0.465247 0.179555
O O4 0.200969 0.927110 0.220632
O O5 0.138006 0.078277 0.130740
O O6 0.136237 0.317229 0.050995
O O7 0.232034 0.825580 0.048388
O O8 0.802499 0.936868 0.082541
O O9 0.489465 0.475242 0.910005
O O10 0.088052 0.485931 0.871572
O O11 0.109908 0.256964 0.290331
O O12 0.500000 0.500000 0.000000
#
# Coordination Sequence:
#
# PCOD8123165 Si02
#       6
#     4   4   4   4   4   2
#     4  12  25  47  72 111 157 214 262 329 399 465
#     4  12  26  53  77 118 157 197 268 317 393 494
#     4  12  26  49  81 108 163 212 256 335 404 468
#     4  12  25  48  73 110 158 204 268 319 389 485
#     4  12  29  53  83 117 157 205 262 331 407 480
#     4  12  26  44  70 110 158 200 276 316 380 488
#
# _framework density 26.303874
#
# number of rings (size 3 to 8) (size 9 to 14) (size 15 to 20)
#    0.000    0.000    3.636    6.545    2.545    5.091 
#    3.273    1.818    0.000    0.000    0.000    0.000 
#    0.000    0.000    0.000    0.000    0.000    0.000 
#
# Total GULP energy -272608.833180 kJ/mol
# GULP energy per Si atom -12391.310599 kJ/mol
# Density = 2.624401 g / cm^3
# Si number density = 26.303874 Si / 1000 Ang^3
#
#
#
# Elastic Constant Matrix: (Units=GPa)
#
#
# Indices 1 2 3 4 5 6 
#
# 1 75.7601 20.3647 12.0035 0.0000 -21.8456 0.0000
# 2 20.3647 116.1923 26.1221 0.0000 -23.7921 0.0000
# 3 12.0035 26.1221 149.6612 0.0000 -51.3966 0.0000
# 4 0.0000 0.0000 0.0000 48.9149 0.0000 -9.1465
# 5 -21.8456 -23.7921 -51.3966 0.0000 57.2272 0.0000
# 6 0.0000 0.0000 0.0000 -9.1465 0.0000 16.4661
#
#
#
# Elastic Compliance Matrix: (Units=1/GPa)
#
#
# Indices 1 2 3 4 5 6 
#
# 1 0.015247 -0.001672 0.001199 0.000000 0.006202 0.000000
# 2 -0.001672 0.009610 -0.000564 0.000000 0.002850 0.000000
# 3 0.001199 -0.000564 0.009776 0.000000 0.009003 0.000000
# 4 0.000000 0.000000 0.000000 0.022813 0.000000 0.012672
# 5 0.006202 0.002850 0.009003 0.000000 0.029112 0.000000
# 6 0.000000 0.000000 0.000000 0.012672 0.000000 0.067770
#
#
# Mechanical properties :
#
#
# Convention : Reuss Voigt Hill
#
# Bulk Modulus (GPa) = 30.71428 50.95491 40.83460
# Shear Modulus (GPa) = 29.89421 43.39653 36.64537
#
# Velocity S-wave (km/s) = 3.37485 4.06620 3.73655
# Velocity P-wave (km/s) = 5.18539 6.43886 5.84582
#
# Compressibility (1/GPa) = 0.03255814
#
# Stress axis : x y z
#
# Youngs Moduli (GPa) = 65.58490 104.05860 102.29261
#
# Poissons Ratio (x) = 0.17398 -0.12263
# Poissons Ratio (y) = 0.10965 0.05774
# Poissons Ratio (z) = -0.07862 0.05873
#
# Static dielectric constant tensor:
#      x y z
#    x 4.774940 0.000000 -0.176370 
#    y 0.000000 4.732960 0.000000 
#    z -0.176370 0.000000 5.541310 
# 
# 
# High freq. dielectric constant tensor:
#      x y z
#    x 2.039360 0.000000 -0.024850 
#    y 0.000000 2.052200 0.000000 
#    z -0.024850 0.000000 2.078340 
# 
# From -- ./inp_files/94562.got.cif
#   From: 2010.06.25/outbox.cif.g09.slc.cpg/sg13_48_cif.got.tgz:94562.got - 2010.06.28 04:50:58.
