data_PCOD8123819
_publ_section_title
;
Structure prediction by ZEFSAII (Michael W. Deem and Ramdas Pophale) SiO2 
 PCOD8123819
Probable space group: P 21/C
;
_chemical_formula_sum "Si O2"
_cell_formula_units_Z 20
_cell_length_a 6.963497
_cell_length_b 12.511914
_cell_length_c 10.131844
_cell_angle_alpha 90.000000
_cell_angle_beta 123.785915
_cell_angle_gamma 90.000000
_cell_volume 733.675467
_symmetry_space_group_name_H-M "P 21/C"
_symmetry_group_IT_number 14
_symmetry_cell_setting 'monoclinic'
loop_
_space_group_symop_operation_xyz
x,y,z
-x,1/2+y,1/2-z
-x,-y,-z
x,1/2-y,1/2+z
loop_
_atom_site_type_symbol
_atom_site_label
_atom_site_fract_x
_atom_site_fract_y
_atom_site_fract_z
Si Si1 0.886482 0.462065 0.821861
Si Si2 0.089033 0.779013 0.170165
Si Si3 0.353992 0.172934 0.140348
Si Si4 0.686884 0.489224 0.184696
Si Si5 0.335769 0.165274 0.844143
O O1 0.071921 0.463620 0.775142
O O2 0.794487 0.339411 0.801743
O O3 0.676339 0.541589 0.706212
O O4 0.000000 0.500000 0.000000
O O5 0.925954 0.787908 0.237975
O O6 0.291795 0.866902 0.259236
O O7 0.921724 0.804108 0.981673
O O8 0.394940 0.057508 0.220887
O O9 0.459921 0.263885 0.278707
O O10 0.470047 0.175039 0.036688
O O11 0.500000 0.500000 0.000000
#
# Coordination Sequence:
#
# PCOD8123819 Si02
#       5
#     4   4   4   4   4
#     4  11  19  37  63  92 122 162 218 252 301 383
#     4   9  20  34  63  86 117 166 213 245 304 381
#     4  10  18  38  61  91 118 166 214 253 307 390
#     4  11  23  39  61  95 127 161 205 274 324 365
#     4   9  19  31  64  89 114 155 219 257 287 366
#
# _framework density 27.260007999999999
#
# number of rings (size 3 to 8) (size 9 to 14) (size 15 to 20)
#    1.200    0.800    4.000    0.600    0.000    0.000 
#    0.000    4.000    0.000    2.400    0.000    0.000 
#    0.000    0.000    0.000    0.000    0.000    0.000 
#
# Total GULP energy -247912.578853 kJ/mol
# GULP energy per Si atom -12395.628943 kJ/mol
# Density = 2.719796 g / cm^3
# Si number density = 27.260008 Si / 1000 Ang^3
#
#
#
# Elastic Constant Matrix: (Units=GPa)
#
#
# Indices 1 2 3 4 5 6 
#
# 1 51.2035 52.0364 27.1479 0.0000 -18.5931 0.0000
# 2 52.0364 263.9629 94.7221 0.0000 -17.9728 0.0000
# 3 27.1479 94.7221 188.1446 0.0000 -37.6741 0.0000
# 4 0.0000 0.0000 0.0000 53.0317 0.0000 -6.0186
# 5 -18.5931 -17.9728 -37.6741 0.0000 38.4216 0.0000
# 6 0.0000 0.0000 0.0000 -6.0186 0.0000 48.3942
#
#
#
# Elastic Compliance Matrix: (Units=1/GPa)
#
#
# Indices 1 2 3 4 5 6 
#
# 1 0.028801 -0.005167 0.000936 0.000000 0.012439 0.000000
# 2 -0.005167 0.005551 -0.002526 0.000000 -0.002380 0.000000
# 3 0.000936 -0.002526 0.007846 0.000000 0.006965 0.000000
# 4 0.000000 0.000000 0.000000 0.019127 0.000000 0.002379
# 5 0.012439 -0.002380 0.006965 0.000000 0.037763 0.000000
# 6 0.000000 0.000000 0.000000 0.002379 0.000000 0.020959
#
#
# Mechanical properties :
#
#
# Convention : Reuss Voigt Hill
#
# Bulk Modulus (GPa) = 34.86061 94.56934 64.71498
# Shear Modulus (GPa) = 34.93514 49.92979 42.43247
#
# Velocity S-wave (km/s) = 3.58376 4.28438 3.94964
# Velocity P-wave (km/s) = 5.47178 7.69685 6.67764
#
# Compressibility (1/GPa) = 0.02868567
#
# Stress axis : x y z
#
# Youngs Moduli (GPa) = 34.72096 180.13780 127.44713
#
# Poissons Ratio (x) = 0.93072 -0.11930
# Poissons Ratio (y) = 0.17939 0.32192
# Poissons Ratio (z) = -0.03250 0.45502
#
# Static dielectric constant tensor:
#      x y z
#    x 4.858970 0.000000 -0.165150 
#    y 0.000000 5.058700 0.000000 
#    z -0.165150 0.000000 4.693380 
# 
# 
# High freq. dielectric constant tensor:
#      x y z
#    x 2.099380 0.000000 -0.008320 
#    y 0.000000 2.107780 0.000000 
#    z -0.008320 0.000000 2.094590 
# 
# From -- ./inp_files/28790.got.cif
#   From: 2010.03.12/outbox.cif.g09.slc.cpg/sg14_15_cif.got.tgz:28790.got - 2010.03.31 13:35:05.
