data_PCOD8123703
_publ_section_title
;
Structure prediction by ZEFSAII (Michael W. Deem and Ramdas Pophale) SiO2 
 PCOD8123703
Probable space group: P 21/C
;
_chemical_formula_sum "Si O2"
_cell_formula_units_Z 32
_cell_length_a 9.555380
_cell_length_b 9.515341
_cell_length_c 18.669425
_cell_angle_alpha 90.000000
_cell_angle_beta 103.697014
_cell_angle_gamma 90.000000
_cell_volume 1649.200817
_symmetry_space_group_name_H-M "P 21/C"
_symmetry_group_IT_number 14
_symmetry_cell_setting 'monoclinic'
loop_
_space_group_symop_operation_xyz
x,y,z
-x,1/2+y,1/2-z
-x,-y,-z
x,1/2-y,1/2+z
loop_
_atom_site_type_symbol
_atom_site_label
_atom_site_fract_x
_atom_site_fract_y
_atom_site_fract_z
Si Si1 0.675806 0.577856 0.759955
Si Si2 0.123775 0.100006 0.587866
Si Si3 0.409142 0.735692 0.245977
Si Si4 0.639655 0.928834 0.097224
Si Si5 0.804670 0.132654 0.510277
Si Si6 0.322629 0.866924 0.093445
Si Si7 0.712469 0.671463 0.458829
Si Si8 0.402163 0.751214 0.404527
O O1 0.819859 0.592152 0.824150
O O2 0.589963 0.432850 0.765342
O O3 0.573090 0.709653 0.763761
O O4 0.724143 0.582228 0.682555
O O5 0.148800 0.247944 0.552180
O O6 0.951708 0.091824 0.568834
O O7 0.211968 0.983533 0.553326
O O8 0.312900 0.811419 0.173934
O O9 0.343630 0.770643 0.316414
O O10 0.486254 0.847936 0.084248
O O11 0.620955 0.090914 0.070949
O O12 0.731346 0.856326 0.045790
O O13 0.793444 0.283085 0.468807
O O14 0.678708 0.134725 0.555151
O O15 0.290270 0.031321 0.089054
O O16 0.574358 0.771972 0.427242
#
# Coordination Sequence:
#
# PCOD8123703 Si02
#       8
#     4   4   4   4   4   4   4   4
#     4  10  20  37  57  86 117 150 183 241 291 336
#     4  11  25  38  56  84 123 154 188 236 290 347
#     4  10  20  34  61  88 114 145 189 241 290 334
#     4   9  18  33  62  87 112 141 191 249 287 326
#     4  11  22  41  57  79 119 162 183 229 299 346
#     4  10  18  35  61  85 116 151 186 235 292 340
#     4  11  19  37  60  90 110 141 205 245 270 339
#     4  10  18  36  61  86 111 147 195 237 285 336
#
# _framework density 19.403335999999999
#
# number of rings (size 3 to 8) (size 9 to 14) (size 15 to 20)
#    0.000    1.750    5.000    1.500    0.000    1.000 
#    4.500    1.250    2.750    0.000    0.000    0.000 
#    0.000    0.000    0.000    0.000    0.000    0.000 
#
# Total GULP energy -396631.152400 kJ/mol
# GULP energy per Si atom -12394.723512 kJ/mol
# Density = 1.935917 g / cm^3
# Si number density = 19.403336 Si / 1000 Ang^3
#
#
#
# Elastic Constant Matrix: (Units=GPa)
#
#
# Indices 1 2 3 4 5 6 
#
# 1 25.3164 20.3023 25.9796 0.0000 7.3898 0.0000
# 2 20.3023 66.2699 32.1630 0.0000 1.2924 0.0000
# 3 25.9796 32.1630 123.5256 0.0000 7.0728 0.0000
# 4 0.0000 0.0000 0.0000 30.4465 0.0000 -5.4352
# 5 7.3898 1.2924 7.0728 0.0000 25.8709 0.0000
# 6 0.0000 0.0000 0.0000 -5.4352 0.0000 24.6486
#
#
#
# Elastic Compliance Matrix: (Units=1/GPa)
#
#
# Indices 1 2 3 4 5 6 
#
# 1 0.065538 -0.015472 -0.008866 0.000000 -0.015523 0.000000
# 2 -0.015472 0.020929 -0.002426 0.000000 0.004037 0.000000
# 3 -0.008866 -0.002426 0.010606 0.000000 -0.000246 0.000000
# 4 0.000000 0.000000 0.000000 0.034190 0.000000 0.007539
# 5 -0.015523 0.004037 -0.000246 0.000000 0.042953 0.000000
# 6 0.000000 0.000000 0.000000 0.007539 0.000000 0.042233
#
#
# Mechanical properties :
#
#
# Convention : Reuss Voigt Hill
#
# Bulk Modulus (GPa) = 22.96599 41.33354 32.14976
# Shear Modulus (GPa) = 17.57517 25.30434 21.43975
#
# Velocity S-wave (km/s) = 3.01288 3.61518 3.32769
# Velocity P-wave (km/s) = 4.89542 6.22692 5.60088
#
# Compressibility (1/GPa) = 0.04354265
#
# Stress axis : x y z
#
# Youngs Moduli (GPa) = 15.25844 47.78127 94.28550
#
# Poissons Ratio (x) = 0.73928 0.83596
# Poissons Ratio (y) = 0.23608 0.22878
# Poissons Ratio (z) = 0.13529 0.11594
#
# Static dielectric constant tensor:
#      x y z
#    x 3.048190 0.000000 -0.049430 
#    y 0.000000 3.510960 0.000000 
#    z -0.049430 0.000000 3.814520 
# 
# 
# High freq. dielectric constant tensor:
#      x y z
#    x 1.701560 0.000000 -0.001300 
#    y 0.000000 1.750570 0.000000 
#    z -0.001300 0.000000 1.779480 
# 
# From -- ./inp_files/64857.got.cif
#   From: 2010.03.12/outbox.cif.g09.slc.cpg/sg14_33_cif.got.tgz:64857.got - 2010.03.31 13:35:05.
