data_PCOD8123631
_publ_section_title
;
Structure prediction by ZEFSAII (Michael W. Deem and Ramdas Pophale) SiO2 
 PCOD8123631
Probable space group: P 21/C
;
_chemical_formula_sum "Si O2"
_cell_formula_units_Z 32
_cell_length_a 11.924733
_cell_length_b 14.136548
_cell_length_c 9.182332
_cell_angle_alpha 90.000000
_cell_angle_beta 79.639524
_cell_angle_gamma 90.000000
_cell_volume 1522.670129
_symmetry_space_group_name_H-M "P 21/C"
_symmetry_group_IT_number 14
_symmetry_cell_setting 'monoclinic'
loop_
_space_group_symop_operation_xyz
x,y,z
-x,1/2+y,1/2-z
-x,-y,-z
x,1/2-y,1/2+z
loop_
_atom_site_type_symbol
_atom_site_label
_atom_site_fract_x
_atom_site_fract_y
_atom_site_fract_z
Si Si1 0.271563 0.054139 0.664712
Si Si2 0.623272 0.833287 0.837750
Si Si3 0.723544 0.153923 0.391576
Si Si4 0.536761 0.834751 0.541536
Si Si5 0.742060 0.980657 0.997762
Si Si6 0.205374 0.676525 0.439603
Si Si7 0.147721 0.271501 0.263601
Si Si8 0.951105 0.854079 0.934079
O O1 0.385537 0.086331 0.554398
O O2 0.169675 0.130369 0.669507
O O3 0.227345 0.953332 0.612696
O O4 0.298897 0.046726 0.830316
O O5 0.543131 0.845409 0.715654
O O6 0.655743 0.933929 0.902144
O O7 0.735436 0.784600 0.749921
O O8 0.567697 0.769954 0.977725
O O9 0.593358 0.148737 0.473650
O O10 0.731426 0.194602 0.226882
O O11 0.797099 0.223700 0.476700
O O12 0.874143 0.948540 0.937642
O O13 0.731583 0.094432 0.981397
O O14 0.081810 0.628370 0.441581
O O15 0.109190 0.287814 0.435053
O O16 0.050600 0.208450 0.211698
#
# Coordination Sequence:
#
# PCOD8123631 Si02
#       8
#     4   4   4   4   4   4   4   4
#     4   9  19  37  57  79 109 141 179 228 276 319
#     4  10  19  34  59  86 109 135 179 231 273 321
#     4  11  24  39  53  76 112 150 185 223 268 322
#     4  11  20  36  58  82 108 144 180 222 275 324
#     4   9  20  37  58  83 109 139 182 228 272 322
#     4  11  23  39  54  78 113 149 184 222 267 323
#     4   9  17  32  56  83 105 132 177 226 271 322
#     4  10  18  34  58  81 108 144 177 218 273 323
#
# _framework density 21.015715
#
# number of rings (size 3 to 8) (size 9 to 14) (size 15 to 20)
#    0.000    2.000    0.000    6.000    0.000    1.000 
#    0.000    8.750    0.000    0.000    0.000    0.000 
#    0.000    0.000    0.000    0.000    0.000    0.000 
#
# Total GULP energy -396679.326822 kJ/mol
# GULP energy per Si atom -12396.228963 kJ/mol
# Density = 2.096788 g / cm^3
# Si number density = 21.015715 Si / 1000 Ang^3
#
#
#
# Elastic Constant Matrix: (Units=GPa)
#
#
# Indices 1 2 3 4 5 6 
#
# 1 45.0959 -0.5665 3.6746 0.0000 3.9746 0.0000
# 2 -0.5665 82.8374 10.1116 0.0000 6.6186 0.0000
# 3 3.6746 10.1116 45.9394 0.0000 -0.4023 0.0000
# 4 0.0000 0.0000 0.0000 28.6184 0.0000 1.2788
# 5 3.9746 6.6186 -0.4023 0.0000 23.6112 0.0000
# 6 0.0000 0.0000 0.0000 1.2788 0.0000 14.0473
#
#
#
# Elastic Compliance Matrix: (Units=1/GPa)
#
#
# Indices 1 2 3 4 5 6 
#
# 1 0.022706 0.000725 -0.002011 0.000000 -0.004060 0.000000
# 2 0.000725 0.012729 -0.002892 0.000000 -0.003739 0.000000
# 3 -0.002011 -0.002892 0.022579 0.000000 0.001534 0.000000
# 4 0.000000 0.000000 0.000000 0.035085 0.000000 -0.003194
# 5 -0.004060 -0.003739 0.001534 0.000000 0.044111 0.000000
# 6 0.000000 0.000000 0.000000 -0.003194 0.000000 0.071479
#
#
# Mechanical properties :
#
#
# Convention : Reuss Voigt Hill
#
# Bulk Modulus (GPa) = 20.13859 22.25692 21.19775
# Shear Modulus (GPa) = 21.40438 23.96558 22.68498
#
# Velocity S-wave (km/s) = 3.19485 3.38059 3.28903
# Velocity P-wave (km/s) = 4.81797 5.08443 4.95299
#
# Compressibility (1/GPa) = 0.04965591
#
# Stress axis : x y z
#
# Youngs Moduli (GPa) = 44.04170 78.56293 44.28938
#
# Poissons Ratio (x) = -0.05697 0.08908
# Poissons Ratio (y) = -0.03194 0.12810
# Poissons Ratio (z) = 0.08858 0.22724
#
# Static dielectric constant tensor:
#      x y z
#    x 3.639270 0.000000 -0.183080 
#    y 0.000000 3.920960 0.000000 
#    z -0.183080 0.000000 3.734650 
# 
# 
# High freq. dielectric constant tensor:
#      x y z
#    x 1.803970 0.000000 -0.017820 
#    y 0.000000 1.827330 0.000000 
#    z -0.017820 0.000000 1.817940 
# 
# From -- ./inp_files/13324.got.cif
#   From: 2010.03.12/outbox.cif.g09.slc.cpg/sg14_7_cif.got.tgz:13324.got - 2010.03.31 13:35:05.
