data_PCOD8123570
_publ_section_title
;
Structure prediction by ZEFSAII (Michael W. Deem and Ramdas Pophale) SiO2 
 PCOD8123570
Probable space group: P 21/C
;
_chemical_formula_sum "Si O2"
_cell_formula_units_Z 32
_cell_length_a 11.152325
_cell_length_b 6.572929
_cell_length_c 22.567944
_cell_angle_alpha 90.000000
_cell_angle_beta 88.443970
_cell_angle_gamma 90.000000
_cell_volume 1653.697909
_symmetry_space_group_name_H-M "P 21/C"
_symmetry_group_IT_number 14
_symmetry_cell_setting 'monoclinic'
loop_
_space_group_symop_operation_xyz
x,y,z
-x,1/2+y,1/2-z
-x,-y,-z
x,1/2-y,1/2+z
loop_
_atom_site_type_symbol
_atom_site_label
_atom_site_fract_x
_atom_site_fract_y
_atom_site_fract_z
Si Si1 0.503848 0.473914 0.640377
Si Si2 0.278873 0.012775 0.218343
Si Si3 0.839828 0.828579 0.356275
Si Si4 0.586780 0.864888 0.574773
Si Si5 0.935460 0.271429 0.801078
Si Si6 0.294419 0.665963 0.843645
Si Si7 0.377680 0.168515 0.559031
Si Si8 0.057130 0.600431 0.332536
O O1 0.410603 0.540402 0.692199
O O2 0.575759 0.670523 0.617291
O O3 0.435471 0.371333 0.585991
O O4 0.593991 0.314657 0.669682
O O5 0.239949 0.240179 0.197881
O O6 0.277576 0.988043 0.289069
O O7 0.186816 0.854434 0.191358
O O8 0.754094 0.871490 0.412916
O O9 0.945244 0.673610 0.374447
O O10 0.914032 0.026469 0.337671
O O11 0.682646 0.025667 0.599563
O O12 0.635602 0.793677 0.510645
O O13 0.456637 0.968985 0.570965
O O14 0.969537 0.314993 0.732996
O O15 0.047763 0.146114 0.828649
O O16 0.181062 0.814031 0.856556
#
# Coordination Sequence:
#
# PCOD8123570 Si02
#       8
#     4   4   4   4   4   4   4   4
#     4  10  20  36  56  83 111 148 182 226 282 333
#     4   9  21  34  50  82 114 141 181 228 272 340
#     4  10  19  35  59  79 108 143 191 235 273 319
#     4  10  20  37  60  80 111 149 185 230 286 330
#     4  10  18  33  55  76 105 146 181 224 279 327
#     4  10  23  35  50  83 119 149 179 224 285 341
#     4   9  20  38  59  84 105 141 198 239 267 329
#     4  10  20  34  50  80 110 144 187 225 272 342
#
# _framework density 19.350570999999999
#
# number of rings (size 3 to 8) (size 9 to 14) (size 15 to 20)
#    0.000    2.250    1.250    1.125    1.750    3.000 
#    2.250    0.625    0.000    1.500    0.000    0.000 
#    0.000    0.000    0.000    0.000    0.000    0.000 
#
# Total GULP energy -396733.275529 kJ/mol
# GULP energy per Si atom -12397.914860 kJ/mol
# Density = 1.930653 g / cm^3
# Si number density = 19.350571 Si / 1000 Ang^3
#
#
#
# Elastic Constant Matrix: (Units=GPa)
#
#
# Indices 1 2 3 4 5 6 
#
# 1 87.7827 23.0318 37.3348 0.0000 -11.7515 0.0000
# 2 23.0318 88.0548 18.7637 0.0000 -2.5860 0.0000
# 3 37.3348 18.7637 52.7387 0.0000 -6.2338 0.0000
# 4 0.0000 0.0000 0.0000 21.5917 0.0000 -3.4642
# 5 -11.7515 -2.5860 -6.2338 0.0000 26.4687 0.0000
# 6 0.0000 0.0000 0.0000 -3.4642 0.0000 33.0926
#
#
#
# Elastic Compliance Matrix: (Units=1/GPa)
#
#
# Indices 1 2 3 4 5 6 
#
# 1 0.017207 -0.002039 -0.010879 0.000000 0.004878 0.000000
# 2 -0.002039 0.012531 -0.003062 0.000000 -0.000402 0.000000
# 3 -0.010879 -0.003062 0.027923 0.000000 0.001447 0.000000
# 4 0.000000 0.000000 0.000000 0.047105 0.000000 0.004931
# 5 0.004878 -0.000402 0.001447 0.000000 0.040248 0.000000
# 6 0.000000 0.000000 0.000000 0.004931 0.000000 0.030734
#
#
# Mechanical properties :
#
#
# Convention : Reuss Voigt Hill
#
# Bulk Modulus (GPa) = 38.91022 42.98186 40.94604
# Shear Modulus (GPa) = 23.11870 26.19367 24.65618
#
# Velocity S-wave (km/s) = 3.46024 3.68317 3.57344
# Velocity P-wave (km/s) = 6.00966 6.35202 6.18321
#
# Compressibility (1/GPa) = 0.02570019
#
# Stress axis : x y z
#
# Youngs Moduli (GPa) = 58.11695 79.80433 35.81238
#
# Poissons Ratio (x) = 0.16274 0.38960
# Poissons Ratio (y) = 0.11851 0.10966
# Poissons Ratio (z) = 0.63225 0.24438
#
# Static dielectric constant tensor:
#      x y z
#    x 3.613120 0.000000 -0.118450 
#    y 0.000000 3.670770 0.000000 
#    z -0.118450 0.000000 3.279630 
# 
# 
# High freq. dielectric constant tensor:
#      x y z
#    x 1.756930 0.000000 -0.013870 
#    y 0.000000 1.762260 0.000000 
#    z -0.013870 0.000000 1.715640 
# 
# From -- ./inp_files/72755.got.cif
#   From: 2010.03.12/outbox.cif.g09.slc.cpg/sg14_37_cif.got.tgz:72755.got - 2010.03.31 13:35:05.
