data_PCOD8123213
_publ_section_title
;
Structure prediction by ZEFSAII (Michael W. Deem and Ramdas Pophale) SiO2 
 PCOD8123213
Probable space group: P 2/C
;
_chemical_formula_sum "Si O2"
_cell_formula_units_Z 16
_cell_length_a 7.581066
_cell_length_b 4.951012
_cell_length_c 22.224363
_cell_angle_alpha 90.000000
_cell_angle_beta 47.043942
_cell_angle_gamma 90.000000
_cell_volume 610.508058
_symmetry_space_group_name_H-M "P 2/C"
_symmetry_group_IT_number 13
_symmetry_cell_setting 'monoclinic'
loop_
_space_group_symop_operation_xyz
x,y,z
-x,y,1/2-z
-x,-y,-z
x,-y,1/2+z
loop_
_atom_site_type_symbol
_atom_site_label
_atom_site_fract_x
_atom_site_fract_y
_atom_site_fract_z
Si Si1 0.610022 0.324976 0.662135
Si Si2 0.679197 0.952561 0.545265
Si Si3 0.244244 0.628728 0.661029
Si Si4 0.102235 0.547505 0.565884
O O1 0.500000 0.216025 0.750000
O O2 0.401234 0.443099 0.668590
O O3 0.811668 0.552338 0.629852
O O4 0.737848 0.071534 0.598312
O O5 0.390997 0.901363 0.609609
O O6 0.802390 0.660966 0.506786
O O7 0.776792 0.162131 0.473484
O O8 0.185138 0.462438 0.613737
O O9 0.000000 0.723254 0.750000
#
# Coordination Sequence:
#
# PCOD8123213 Si02
#       4
#     4   4   4   4
#     4  12  28  51  81 115 162 210 261 326 400 469
#     4  12  28  52  82 116 156 208 262 330 392 466
#     4  12  28  51  81 115 162 210 261 326 400 469
#     4  12  28  52  82 116 154 204 270 326 390 472
#
# _framework density 26.207681000000001
#
# number of rings (size 3 to 8) (size 9 to 14) (size 15 to 20)
#    0.000    0.000    5.000    3.000    7.000    4.000 
#    0.000    0.000    0.000    0.000    0.000    0.000 
#    0.000    0.000    0.000    0.000    0.000    0.000 
#
# Total GULP energy -198380.846885 kJ/mol
# GULP energy per Si atom -12398.802930 kJ/mol
# Density = 2.614803 g / cm^3
# Si number density = 26.207681 Si / 1000 Ang^3
#
#
#
# Elastic Constant Matrix: (Units=GPa)
#
#
# Indices 1 2 3 4 5 6 
#
# 1 150.8132 13.5830 36.4025 0.0000 7.7960 0.0000
# 2 13.5830 91.3023 10.6951 0.0000 -8.1796 0.0000
# 3 36.4025 10.6951 119.8986 0.0000 1.8540 0.0000
# 4 0.0000 0.0000 0.0000 -63.2156 0.0000 -2.4137
# 5 7.7960 -8.1796 1.8540 0.0000 50.4074 0.0000
# 6 0.0000 0.0000 0.0000 -2.4137 0.0000 31.2344
#
#
#
# Elastic Compliance Matrix: (Units=1/GPa)
#
#
# Indices 1 2 3 4 5 6 
#
# 1 0.007287 -0.000945 -0.002110 0.000000 -0.001203 0.000000
# 2 -0.000945 0.011363 -0.000758 0.000000 0.002018 0.000000
# 3 -0.002110 -0.000758 0.009050 0.000000 -0.000130 0.000000
# 4 0.000000 0.000000 0.000000 -0.015772 0.000000 -0.001219
# 5 -0.001203 0.002018 -0.000130 0.000000 0.020357 0.000000
# 6 0.000000 0.000000 0.000000 -0.001219 0.000000 0.031922
#
#
# Mechanical properties :
#
#
# Convention : Reuss Voigt Hill
#
# Bulk Modulus (GPa) = 49.81111 53.70838 51.75975
# Shear Modulus (GPa) = 63.67567 23.77414 43.72491
#
# Velocity S-wave (km/s) = 4.93450 3.01515 4.08904
# Velocity P-wave (km/s) = 7.17728 5.71484 6.48740
#
# Compressibility (1/GPa) = 0.02007584
#
# Stress axis : x y z
#
# Youngs Moduli (GPa) = 137.22720 88.00705 110.49124
#
# Poissons Ratio (x) = 0.08314 0.23309
# Poissons Ratio (y) = 0.12965 0.08375
# Poissons Ratio (z) = 0.28949 0.06670
#
# Static dielectric constant tensor:
#      x y z
#    x 4.820580 0.000000 -0.113960 
#    y 0.000000 4.390490 0.000000 
#    z -0.113960 0.000000 5.173760 
# 
# 
# High freq. dielectric constant tensor:
#      x y z
#    x 2.063440 0.000000 -0.001880 
#    y 0.000000 2.029250 0.000000 
#    z -0.001880 0.000000 2.069880 
# 
# From -- ./inp_files/83965.got.cif
#   From: 2010.06.25/outbox.cif.g09.slc.cpg/sg13_42_cif.got.tgz:83965.got - 2010.06.28 04:50:58.
