data_PCOD8123376
_publ_section_title
;
Structure prediction by ZEFSAII (Michael W. Deem and Ramdas Pophale) SiO2 
 PCOD8123376
Probable space group: P 21/C
;
_chemical_formula_sum "Si O2"
_cell_formula_units_Z 32
_cell_length_a 8.379924
_cell_length_b 11.601672
_cell_length_c 15.324685
_cell_angle_alpha 90.000000
_cell_angle_beta 109.701371
_cell_angle_gamma 90.000000
_cell_volume 1402.669118
_symmetry_space_group_name_H-M "P 21/C"
_symmetry_group_IT_number 14
_symmetry_cell_setting 'monoclinic'
loop_
_space_group_symop_operation_xyz
x,y,z
-x,1/2+y,1/2-z
-x,-y,-z
x,1/2-y,1/2+z
loop_
_atom_site_type_symbol
_atom_site_label
_atom_site_fract_x
_atom_site_fract_y
_atom_site_fract_z
Si Si1 0.933415 0.073187 0.603662
Si Si2 0.789605 0.748341 0.312604
Si Si3 0.053113 0.168938 0.325005
Si Si4 0.458712 0.433209 0.273923
Si Si5 0.353506 0.972831 0.579830
Si Si6 0.751220 0.181629 0.731673
Si Si7 0.484831 0.145235 0.118614
Si Si8 0.408947 0.184685 0.471667
O O1 0.834511 0.051916 0.493743
O O2 0.798367 0.118666 0.649794
O O3 0.084321 0.163171 0.614056
O O4 0.014440 0.955759 0.657480
O O5 0.895656 0.665185 0.268401
O O6 0.693538 0.675033 0.367420
O O7 0.653817 0.819976 0.227714
O O8 0.215473 0.200617 0.411404
O O9 0.916362 0.270778 0.313400
O O10 0.355640 0.509822 0.183744
O O11 0.647459 0.405539 0.273782
O O12 0.481278 0.508285 0.366526
O O13 0.475408 0.862859 0.585305
O O14 0.428840 0.091909 0.554249
O O15 0.640871 0.293584 0.693438
O O16 0.474749 0.190428 0.017136
#
# Coordination Sequence:
#
# PCOD8123376 Si02
#       8
#     4   4   4   4   4   4   4   4
#     4  10  19  34  58  86 110 140 182 236 283 327
#     4  10  21  35  52  86 115 140 185 231 278 334
#     4  10  21  35  58  78 112 147 186 227 278 332
#     4  11  21  35  58  81 113 149 183 232 277 329
#     4  10  17  34  59  83 111 141 182 238 286 317
#     4  10  19  36  54  80 112 149 185 221 277 344
#     4  11  20  36  55  83 115 146 186 226 286 325
#     4  10  18  34  58  83 106 146 187 227 277 330
#
# _framework density 22.813648000000001
#
# number of rings (size 3 to 8) (size 9 to 14) (size 15 to 20)
#    0.000    1.750    3.750    3.750    0.000    0.500 
#    2.250    1.250    0.000    0.000    0.000    0.000 
#    0.000    0.000    0.000    0.000    0.000    0.000 
#
# Total GULP energy -396741.628822 kJ/mol
# GULP energy per Si atom -12398.175901 kJ/mol
# Density = 2.276172 g / cm^3
# Si number density = 22.813648 Si / 1000 Ang^3
#
#
#
# Elastic Constant Matrix: (Units=GPa)
#
#
# Indices 1 2 3 4 5 6 
#
# 1 56.0793 9.9731 10.7892 0.0000 18.6015 0.0000
# 2 9.9731 49.4455 19.0667 0.0000 4.2055 0.0000
# 3 10.7892 19.0667 61.6973 0.0000 19.4371 0.0000
# 4 0.0000 0.0000 0.0000 31.7212 0.0000 -0.3136
# 5 18.6015 4.2055 19.4371 0.0000 28.4416 0.0000
# 6 0.0000 0.0000 0.0000 -0.3136 0.0000 30.1024
#
#
#
# Elastic Compliance Matrix: (Units=1/GPa)
#
#
# Indices 1 2 3 4 5 6 
#
# 1 0.023578 -0.004273 0.002366 0.000000 -0.016406 0.000000
# 2 -0.004273 0.023812 -0.008134 0.000000 0.004832 0.000000
# 3 0.002366 -0.008134 0.023470 0.000000 -0.016384 0.000000
# 4 0.000000 0.000000 0.000000 0.031528 0.000000 0.000328
# 5 -0.016406 0.004832 -0.016384 0.000000 0.056372 0.000000
# 6 0.000000 0.000000 0.000000 0.000328 0.000000 0.033223
#
#
# Mechanical properties :
#
#
# Convention : Reuss Voigt Hill
#
# Bulk Modulus (GPa) = 19.69354 27.43112 23.56233
# Shear Modulus (GPa) = 21.83500 26.54591 24.19045
#
# Velocity S-wave (km/s) = 3.09706 3.41486 3.25983
# Velocity P-wave (km/s) = 4.63035 5.25342 4.95170
#
# Compressibility (1/GPa) = 0.05077807
#
# Stress axis : x y z
#
# Youngs Moduli (GPa) = 42.41169 41.99639 42.60825
#
# Poissons Ratio (x) = 0.17943 -0.10080
# Poissons Ratio (y) = 0.18121 0.34657
# Poissons Ratio (z) = -0.10033 0.34159
#
# Static dielectric constant tensor:
#      x y z
#    x 4.091590 0.000000 0.177290 
#    y 0.000000 4.091540 0.000000 
#    z 0.177290 0.000000 3.843730 
# 
# 
# High freq. dielectric constant tensor:
#      x y z
#    x 1.904430 0.000000 0.019460 
#    y 0.000000 1.885250 0.000000 
#    z 0.019460 0.000000 1.879840 
# 
# From -- ./inp_files/65623.got.cif
#   From: 2010.03.12/outbox.cif.g09.slc.cpg/sg14_33_cif.got.tgz:65623.got - 2010.03.31 13:35:05.
