data_PCOD8123071
_publ_section_title
;
Structure prediction by ZEFSAII (Michael W. Deem and Ramdas Pophale) SiO2 
 PCOD8123071
Probable space group: P 2/C
;
_chemical_formula_sum "Si O2"
_cell_formula_units_Z 24
_cell_length_a 9.635937
_cell_length_b 8.464361
_cell_length_c 15.032313
_cell_angle_alpha 90.000000
_cell_angle_beta 72.231879
_cell_angle_gamma 90.000000
_cell_volume 1167.582076
_symmetry_space_group_name_H-M "P 2/C"
_symmetry_group_IT_number 13
_symmetry_cell_setting 'monoclinic'
loop_
_space_group_symop_operation_xyz
x,y,z
-x,y,1/2-z
-x,-y,-z
x,-y,1/2+z
loop_
_atom_site_type_symbol
_atom_site_label
_atom_site_fract_x
_atom_site_fract_y
_atom_site_fract_z
Si Si1 0.500000 0.338365 0.750000
Si Si2 0.744767 0.816678 0.569359
Si Si3 0.314741 0.181123 0.921844
Si Si4 0.000000 0.523317 0.250000
Si Si5 0.474347 0.673970 0.544691
Si Si6 0.984406 0.657478 0.060570
Si Si7 0.294686 0.388728 0.247422
O O1 0.462446 0.225892 0.840032
O O2 0.645819 0.440845 0.734639
O O3 0.631528 0.755939 0.517355
O O4 0.905312 0.787811 0.498959
O O5 0.722801 0.728506 0.666893
O O6 0.724336 0.001105 0.587586
O O7 0.179238 0.284720 0.917696
O O8 0.356325 0.222091 0.014778
O O9 0.983376 0.629589 0.341488
O O10 0.860326 0.409724 0.269847
O O11 0.500000 0.500000 0.500000
O O12 0.414671 0.676606 0.656445
O O13 0.000000 0.500000 0.000000
#
# Coordination Sequence:
#
# PCOD8123071 Si02
#       7
#     2   4   4   2   4   4   4
#     4  12  22  44  72  96 134 180 232 276 340 414
#     4  12  26  45  68 101 147 178 223 298 353 401
#     4  12  27  44  68 104 144 177 222 297 354 401
#     4  12  24  42  74 104 124 184 244 282 326 416
#     4  12  23  44  72 102 132 185 237 279 334 424
#     4  12  24  48  72  99 137 187 236 281 338 422
#     4  12  23  44  71 101 132 183 242 277 337 420
#
# _framework density 20.555299999999999
#
# number of rings (size 3 to 8) (size 9 to 14) (size 15 to 20)
#    0.000    0.000    6.667    4.000    2.333    0.000 
#    3.000    0.000    0.000    0.000    0.000    0.000 
#    0.000    0.000    0.000    0.000    0.000    0.000 
#
# Total GULP energy -297655.542869 kJ/mol
# GULP energy per Si atom -12402.314286 kJ/mol
# Density = 2.050852 g / cm^3
# Si number density = 20.555300 Si / 1000 Ang^3
#
#
#
# Elastic Constant Matrix: (Units=GPa)
#
#
# Indices 1 2 3 4 5 6 
#
# 1 122.6245 39.4259 24.8511 0.0000 9.0471 0.0000
# 2 39.4259 120.5225 44.8263 0.0000 -1.1679 0.0000
# 3 24.8511 44.8263 133.5887 0.0000 2.1710 0.0000
# 4 0.0000 0.0000 0.0000 28.7896 0.0000 -2.9187
# 5 9.0471 -1.1679 2.1710 0.0000 38.3663 0.0000
# 6 0.0000 0.0000 0.0000 -2.9187 0.0000 24.9583
#
#
#
# Elastic Compliance Matrix: (Units=1/GPa)
#
#
# Indices 1 2 3 4 5 6 
#
# 1 0.009378 -0.002804 -0.000767 0.000000 -0.002253 0.000000
# 2 -0.002804 0.010327 -0.002962 0.000000 0.001143 0.000000
# 3 -0.000767 -0.002962 0.008629 0.000000 -0.000398 0.000000
# 4 0.000000 0.000000 0.000000 0.035152 0.000000 0.004111
# 5 -0.002253 0.001143 -0.000398 0.000000 0.026653 0.000000
# 6 0.000000 0.000000 0.000000 0.004111 0.000000 0.040548
#
#
# Mechanical properties :
#
#
# Convention : Reuss Voigt Hill
#
# Bulk Modulus (GPa) = 65.49995 66.10469 65.80232
# Shear Modulus (GPa) = 33.59232 36.26498 34.92865
#
# Velocity S-wave (km/s) = 4.04696 4.20487 4.12667
# Velocity P-wave (km/s) = 7.33291 7.47020 7.40187
#
# Compressibility (1/GPa) = 0.01526719
#
# Stress axis : x y z
#
# Youngs Moduli (GPa) = 106.62848 96.82898 115.89076
#
# Poissons Ratio (x) = 0.27156 0.08888
# Poissons Ratio (y) = 0.29904 0.34330
# Poissons Ratio (z) = 0.08178 0.28684
#
# Static dielectric constant tensor:
#      x y z
#    x 3.789630 0.000000 0.041690 
#    y 0.000000 3.743120 0.000000 
#    z 0.041690 0.000000 3.931930 
# 
# 
# High freq. dielectric constant tensor:
#      x y z
#    x 1.824940 0.000000 -0.004120 
#    y 0.000000 1.789320 0.000000 
#    z -0.004120 0.000000 1.818810 
# 
# From -- ./inp_files/46072.got.cif
#   From: 2010.06.25/outbox.cif.g09.slc.cpg/sg13_24_cif.got.tgz:46072.got - 2010.06.28 04:50:58.
