data_PCOD8123597
_publ_section_title
;
Structure prediction by ZEFSAII (Michael W. Deem and Ramdas Pophale) SiO2 
 PCOD8123597
Probable space group: P 21/C
;
_chemical_formula_sum "Si O2"
_cell_formula_units_Z 28
_cell_length_a 11.559414
_cell_length_b 15.995803
_cell_length_c 13.451832
_cell_angle_alpha 90.000000
_cell_angle_beta 33.824240
_cell_angle_gamma 90.000000
_cell_volume 1384.532877
_symmetry_space_group_name_H-M "P 21/C"
_symmetry_group_IT_number 14
_symmetry_cell_setting 'monoclinic'
loop_
_space_group_symop_operation_xyz
x,y,z
-x,1/2+y,1/2-z
-x,-y,-z
x,1/2-y,1/2+z
loop_
_atom_site_type_symbol
_atom_site_label
_atom_site_fract_x
_atom_site_fract_y
_atom_site_fract_z
Si Si1 0.766898 0.862396 0.402098
Si Si2 0.304349 0.880312 0.759863
Si Si3 0.076015 0.127444 0.503500
Si Si4 0.260631 0.951047 0.380789
Si Si5 0.867677 0.453193 0.806630
Si Si6 0.723276 0.947367 0.101639
Si Si7 0.103541 0.299479 0.391297
O O1 0.534880 0.843474 0.608481
O O2 0.933359 0.852248 0.372292
O O3 0.831837 0.798893 0.269971
O O4 0.768133 0.956179 0.358988
O O5 0.255820 0.889751 0.676902
O O6 0.274504 0.969319 0.834225
O O7 0.144032 0.814423 0.921991
O O8 0.167143 0.208155 0.383617
O O9 0.846307 0.105186 0.627635
O O10 0.229255 0.048855 0.377453
O O11 0.158420 0.926862 0.560064
O O12 0.503458 0.931727 0.206577
O O13 0.110658 0.454379 0.605482
O O14 0.771455 0.869567 0.137963
#
# Coordination Sequence:
#
# PCOD8123597 Si02
#       7
#     4   4   4   4   4   4   4
#     4  11  20  38  63  82 122 161 191 245 307 350
#     4  11  19  35  62  95 116 149 199 249 295 359
#     4  10  24  42  58  85 123 163 199 241 295 366
#     4  10  22  43  60  80 127 166 196 236 297 370
#     4  10  18  33  63  92 113 153 199 243 299 347
#     4  11  19  36  65  94 115 152 202 250 292 356
#     4  11  23  37  60  93 120 146 203 260 295 341
#
# _framework density 20.223426
#
# number of rings (size 3 to 8) (size 9 to 14) (size 15 to 20)
#    0.000    1.429    5.714    2.143    0.000    3.429 
#    0.000   12.143    0.000    0.000    0.000    0.000 
#    0.000    0.000    0.000    0.000    0.000    0.000 
#
# Total GULP energy -347254.942423 kJ/mol
# GULP energy per Si atom -12401.962229 kJ/mol
# Density = 2.017740 g / cm^3
# Si number density = 20.223426 Si / 1000 Ang^3
#
#
#
# Elastic Constant Matrix: (Units=GPa)
#
#
# Indices 1 2 3 4 5 6 
#
# 1 114.8080 33.3848 60.3431 0.0000 -12.2210 0.0000
# 2 33.3848 70.6433 20.5812 0.0000 9.0062 0.0000
# 3 60.3431 20.5812 127.3186 0.0000 -11.4606 0.0000
# 4 0.0000 0.0000 0.0000 12.8999 0.0000 5.4008
# 5 -12.2210 9.0062 -11.4606 0.0000 25.8229 0.0000
# 6 0.0000 0.0000 0.0000 5.4008 0.0000 17.6446
#
#
#
# Elastic Compliance Matrix: (Units=1/GPa)
#
#
# Indices 1 2 3 4 5 6 
#
# 1 0.013692 -0.005823 -0.004981 0.000000 0.006300 0.000000
# 2 -0.005823 0.018461 -0.001096 0.000000 -0.009680 0.000000
# 3 -0.004981 -0.001096 0.010640 0.000000 0.002747 0.000000
# 4 0.000000 0.000000 0.000000 0.088914 0.000000 -0.027216
# 5 0.006300 -0.009680 0.002747 0.000000 0.046302 0.000000
# 6 0.000000 0.000000 0.000000 -0.027216 0.000000 0.065005
#
#
# Mechanical properties :
#
#
# Convention : Reuss Voigt Hill
#
# Bulk Modulus (GPa) = 52.65084 60.15426 56.40255
# Shear Modulus (GPa) = 18.30536 24.50420 21.40478
#
# Velocity S-wave (km/s) = 3.01185 3.48469 3.25686
# Velocity P-wave (km/s) = 6.17949 6.78234 6.48792
#
# Compressibility (1/GPa) = 0.01899305
#
# Stress axis : x y z
#
# Youngs Moduli (GPa) = 73.03540 54.16903 93.98920
#
# Poissons Ratio (x) = 0.31540 0.46816
# Poissons Ratio (y) = 0.42526 0.10301
# Poissons Ratio (z) = 0.36379 0.05937
#
# Static dielectric constant tensor:
#      x y z
#    x 3.800090 0.000000 -0.036070 
#    y 0.000000 3.469170 0.000000 
#    z -0.036070 0.000000 3.682480 
# 
# 
# High freq. dielectric constant tensor:
#      x y z
#    x 1.796800 0.000000 -0.003490 
#    y 0.000000 1.770190 0.000000 
#    z -0.003490 0.000000 1.779740 
# 
# From -- ./inp_files/45269.got.cif
#   From: 2010.03.12/outbox.cif.g09.slc.cpg/sg14_23_cif.got.tgz:45269.got - 2010.03.31 13:35:05.
