data_PCOD8123180
_publ_section_title
;
Structure prediction by ZEFSAII (Michael W. Deem and Ramdas Pophale) SiO2 
 PCOD8123180
Probable space group: P 2/C
;
_chemical_formula_sum "Si O2"
_cell_formula_units_Z 14
_cell_length_a 5.565663
_cell_length_b 11.034834
_cell_length_c 9.324856
_cell_angle_alpha 90.000000
_cell_angle_beta 76.116091
_cell_angle_gamma 90.000000
_cell_volume 555.964951
_symmetry_space_group_name_H-M "P 2/C"
_symmetry_group_IT_number 13
_symmetry_cell_setting 'monoclinic'
loop_
_space_group_symop_operation_xyz
x,y,z
-x,y,1/2-z
-x,-y,-z
x,-y,1/2+z
loop_
_atom_site_type_symbol
_atom_site_label
_atom_site_fract_x
_atom_site_fract_y
_atom_site_fract_z
Si Si1 0.500000 0.394982 0.750000
Si Si2 0.000000 0.458299 0.250000
Si Si3 0.147117 0.270544 0.000329
Si Si4 0.652807 0.058672 0.353951
Si Si5 0.000000 0.853347 0.250000
O O1 0.743432 0.468121 0.767230
O O2 0.413356 0.310567 0.895836
O O3 0.979693 0.380689 0.398057
O O4 0.969003 0.231831 0.893984
O O5 0.163909 0.158199 0.106993
O O6 0.500000 0.126054 0.250000
O O7 0.500000 0.000000 0.500000
O O8 0.773729 0.944070 0.256606
#
# Coordination Sequence:
#
# PCOD8123180 Si02
#       5
#     2   2   4   4   2
#     4  12  28  56  76 116 156 204 270 334 384 456
#     4  12  30  52  84 114 152 204 278 330 384 456
#     4  12  27  49  82 111 155 210 252 324 396 458
#     4  12  26  46  74 113 157 197 250 309 384 479
#     4  12  26  50  72 116 158 196 250 312 392 478
#
# _framework density 25.181443000000002
#
# number of rings (size 3 to 8) (size 9 to 14) (size 15 to 20)
#    0.000    0.000    2.857    6.000    6.000    2.286 
#    0.000    0.000    0.000    0.000    0.000    0.000 
#    0.000    0.000    0.000    0.000    0.000    0.000 
#
# Total GULP energy -173530.612219 kJ/mol
# GULP energy per Si atom -12395.043730 kJ/mol
# Density = 2.512413 g / cm^3
# Si number density = 25.181443 Si / 1000 Ang^3
#
#
#
# Elastic Constant Matrix: (Units=GPa)
#
#
# Indices 1 2 3 4 5 6 
#
# 1 116.7043 53.8865 35.1445 0.0000 20.6583 0.0000
# 2 53.8865 123.5151 48.7966 0.0000 11.7413 0.0000
# 3 35.1445 48.7966 140.9629 0.0000 22.0190 0.0000
# 4 0.0000 0.0000 0.0000 38.3665 0.0000 -3.1006
# 5 20.6583 11.7413 22.0190 0.0000 58.6128 0.0000
# 6 0.0000 0.0000 0.0000 -3.1006 0.0000 28.0075
#
#
#
# Elastic Compliance Matrix: (Units=1/GPa)
#
#
# Indices 1 2 3 4 5 6 
#
# 1 0.011328 -0.004325 -0.000891 0.000000 -0.002791 0.000000
# 2 -0.004325 0.011057 -0.002806 0.000000 0.000363 0.000000
# 3 -0.000891 -0.002806 0.008659 0.000000 -0.002377 0.000000
# 4 0.000000 0.000000 0.000000 0.026300 0.000000 0.002912
# 5 -0.002791 0.000363 -0.002377 0.000000 0.018865 0.000000
# 6 0.000000 0.000000 0.000000 0.002912 0.000000 0.036027
#
#
# Mechanical properties :
#
#
# Convention : Reuss Voigt Hill
#
# Bulk Modulus (GPa) = 66.66698 72.98196 69.82447
# Shear Modulus (GPa) = 37.51512 41.22100 39.36806
#
# Velocity S-wave (km/s) = 3.86397 4.05032 3.95824
# Velocity P-wave (km/s) = 6.81463 7.13575 6.97703
#
# Compressibility (1/GPa) = 0.01499993
#
# Stress axis : x y z
#
# Youngs Moduli (GPa) = 88.27659 90.44056 115.48846
#
# Poissons Ratio (x) = 0.39113 0.10292
# Poissons Ratio (y) = 0.38177 0.32407
# Poissons Ratio (z) = 0.07867 0.25379
#
# Static dielectric constant tensor:
#      x y z
#    x 3.871370 0.000000 -0.330610 
#    y 0.000000 5.041880 0.000000 
#    z -0.330610 0.000000 4.624960 
# 
# 
# High freq. dielectric constant tensor:
#      x y z
#    x 1.996290 0.000000 -0.001550 
#    y 0.000000 2.018760 0.000000 
#    z -0.001550 0.000000 2.029190 
# 
# From -- ./inp_files/8426.got.cif
#   From: 2010.06.25/outbox.cif.g09.slc.cpg/sg13_5_cif.got.tgz:8426.got - 2010.06.28 04:50:58.
