data_PCOD8123697
_publ_section_title
;
Structure prediction by ZEFSAII (Michael W. Deem and Ramdas Pophale) SiO2 
 PCOD8123697
Probable space group: P 21/C
;
_chemical_formula_sum "Si O2"
_cell_formula_units_Z 32
_cell_length_a 8.617664
_cell_length_b 11.857404
_cell_length_c 17.476752
_cell_angle_alpha 90.000000
_cell_angle_beta 117.025135
_cell_angle_gamma 90.000000
_cell_volume 1590.829568
_symmetry_space_group_name_H-M "P 21/C"
_symmetry_group_IT_number 14
_symmetry_cell_setting 'monoclinic'
loop_
_space_group_symop_operation_xyz
x,y,z
-x,1/2+y,1/2-z
-x,-y,-z
x,1/2-y,1/2+z
loop_
_atom_site_type_symbol
_atom_site_label
_atom_site_fract_x
_atom_site_fract_y
_atom_site_fract_z
Si Si1 0.100504 0.994838 0.897887
Si Si2 0.042957 0.200475 0.773047
Si Si3 0.184776 0.404235 0.566853
Si Si4 0.753887 0.256964 0.604119
Si Si5 0.502782 0.256871 0.671848
Si Si6 0.834530 0.135254 0.317460
Si Si7 0.054835 0.695322 0.993472
Si Si8 0.772922 0.614614 0.819322
O O1 0.091582 0.100135 0.840057
O O2 0.179248 0.886824 0.871119
O O3 0.222517 0.021536 0.999478
O O4 0.904369 0.974221 0.884684
O O5 0.193919 0.207186 0.741318
O O6 0.870274 0.175243 0.684185
O O7 0.006935 0.317190 0.811736
O O8 0.360792 0.355880 0.641796
O O9 0.045753 0.309836 0.508537
O O10 0.559205 0.243643 0.594688
O O11 0.773801 0.220012 0.520687
O O12 0.669743 0.285914 0.760876
O O13 0.414711 0.142643 0.685038
O O14 0.872054 0.135410 0.415719
O O15 0.782707 0.008419 0.282734
O O16 0.920075 0.616491 0.917986
#
# Coordination Sequence:
#
# PCOD8123697 Si02
#       8
#     4   4   4   4   4   4   4   4
#     4  10  18  35  60  86 109 149 202 233 289 345
#     4  10  19  35  59  83 110 148 195 241 276 349
#     4   9  19  35  59  86 114 148 191 246 290 340
#     4   9  20  35  55  82 121 149 188 240 291 337
#     4  10  22  38  51  82 124 148 182 248 291 341
#     4  11  21  38  62  88 111 154 198 235 301 351
#     4   9  18  39  60  84 112 153 196 241 280 357
#     4  10  22  39  58  84 119 151 191 245 290 338
#
# _framework density 20.115292
#
# number of rings (size 3 to 8) (size 9 to 14) (size 15 to 20)
#    0.000    2.250    1.250    2.625    0.000    2.500 
#    2.250    1.875    0.000    0.000    0.000    0.000 
#    0.000    0.000    0.000    0.000    0.000    0.000 
#
# Total GULP energy -396478.999409 kJ/mol
# GULP energy per Si atom -12389.968732 kJ/mol
# Density = 2.006951 g / cm^3
# Si number density = 20.115292 Si / 1000 Ang^3
#
#
#
# Elastic Constant Matrix: (Units=GPa)
#
#
# Indices 1 2 3 4 5 6 
#
# 1 116.4800 39.2153 35.5087 0.0000 -26.5982 0.0000
# 2 39.2153 72.4524 18.1518 0.0000 -11.4462 0.0000
# 3 35.5087 18.1518 73.6618 0.0000 -16.9814 0.0000
# 4 0.0000 0.0000 0.0000 29.4201 0.0000 -3.4146
# 5 -26.5982 -11.4462 -16.9814 0.0000 28.1835 0.0000
# 6 0.0000 0.0000 0.0000 -3.4146 0.0000 24.0661
#
#
#
# Elastic Compliance Matrix: (Units=1/GPa)
#
#
# Indices 1 2 3 4 5 6 
#
# 1 0.013170 -0.004994 -0.003159 0.000000 0.008497 0.000000
# 2 -0.004994 0.017090 -0.001498 0.000000 0.001324 0.000000
# 3 -0.003159 -0.001498 0.017002 0.000000 0.006654 0.000000
# 4 0.000000 0.000000 0.000000 0.034560 0.000000 0.004903
# 5 0.008497 0.001324 0.006654 0.000000 0.048048 0.000000
# 6 0.000000 0.000000 0.000000 0.004903 0.000000 0.042248
#
#
# Mechanical properties :
#
#
# Convention : Reuss Voigt Hill
#
# Bulk Modulus (GPa) = 35.76797 49.81621 42.79209
# Shear Modulus (GPa) = 24.90775 27.64849 26.27812
#
# Velocity S-wave (km/s) = 3.52269 3.71145 3.61830
# Velocity P-wave (km/s) = 5.86225 6.57157 6.22702
#
# Compressibility (1/GPa) = 0.02795797
#
# Stress axis : x y z
#
# Youngs Moduli (GPa) = 75.92992 58.51332 58.81814
#
# Poissons Ratio (x) = 0.29224 0.18580
# Poissons Ratio (y) = 0.37923 0.08814
# Poissons Ratio (z) = 0.23986 0.08768
#
# Static dielectric constant tensor:
#      x y z
#    x 3.768820 0.000000 -0.368260 
#    y 0.000000 3.594990 0.000000 
#    z -0.368260 0.000000 3.534250 
# 
# 
# High freq. dielectric constant tensor:
#      x y z
#    x 1.773170 0.000000 -0.031950 
#    y 0.000000 1.771650 0.000000 
#    z -0.031950 0.000000 1.780670 
# 
# From -- ./inp_files/55485.got.cif
#   From: 2010.03.12/outbox.cif.g09.slc.cpg/sg14_28_cif.got.tgz:55485.got - 2010.03.31 13:35:05.
