data_PCOD8123585
_publ_section_title
;
Structure prediction by ZEFSAII (Michael W. Deem and Ramdas Pophale) SiO2 
 PCOD8123585
Probable space group: P 21/C
;
_chemical_formula_sum "Si O2"
_cell_formula_units_Z 32
_cell_length_a 12.266813
_cell_length_b 8.495146
_cell_length_c 27.953717
_cell_angle_alpha 90.000000
_cell_angle_beta 30.438093
_cell_angle_gamma 90.000000
_cell_volume 1475.752141
_symmetry_space_group_name_H-M "P 21/C"
_symmetry_group_IT_number 14
_symmetry_cell_setting 'monoclinic'
loop_
_space_group_symop_operation_xyz
x,y,z
-x,1/2+y,1/2-z
-x,-y,-z
x,1/2-y,1/2+z
loop_
_atom_site_type_symbol
_atom_site_label
_atom_site_fract_x
_atom_site_fract_y
_atom_site_fract_z
Si Si1 0.682411 0.503412 0.500735
Si Si2 0.323450 0.155186 0.818811
Si Si3 0.093731 0.171779 0.816318
Si Si4 0.649936 0.107233 0.316856
Si Si5 0.714679 0.879510 0.887588
Si Si6 0.763611 0.294359 0.672950
Si Si7 0.909122 0.217719 0.793840
Si Si8 0.773311 0.748109 0.540527
O O1 0.496168 0.369748 0.566991
O O2 0.641669 0.619042 0.470548
O O3 0.659770 0.596534 0.558833
O O4 0.921657 0.437278 0.408833
O O5 0.224337 0.252239 0.810520
O O6 0.578972 0.181250 0.721977
O O7 0.209167 0.220119 0.909532
O O8 0.275806 0.970825 0.830953
O O9 0.970520 0.284130 0.824587
O O10 0.260822 0.069098 0.721075
O O11 0.753647 0.210208 0.234353
O O12 0.389092 0.106878 0.409668
O O13 0.716240 0.184886 0.342552
O O14 0.873157 0.732662 0.820076
O O15 0.850111 0.035921 0.822599
O O16 0.990349 0.221765 0.569999
#
# Coordination Sequence:
#
# PCOD8123585 Si02
#       8
#     4   4   4   4   4   4   4   4
#     4  10  18  33  57  84 109 150 193 234 268 345
#     4  10  22  38  59  86 113 154 191 235 293 331
#     4  10  21  38  55  80 127 143 185 245 285 326
#     4  10  19  35  58  87 109 153 190 227 291 334
#     4  10  21  32  57  87 113 147 193 232 289 338
#     4  10  21  39  59  86 115 146 193 246 271 345
#     4  11  18  35  56  83 114 151 184 231 288 339
#     4  11  19  34  66  83 110 152 203 224 281 353
#
# _framework density 21.683857
#
# number of rings (size 3 to 8) (size 9 to 14) (size 15 to 20)
#    0.000    1.750    6.250    0.375    0.000    1.000 
#    0.000    5.625    0.000   14.250    0.000    0.000 
#    0.000    0.000    0.000    0.000    0.000    0.000 
#
# Total GULP energy -396507.054544 kJ/mol
# GULP energy per Si atom -12390.845454 kJ/mol
# Density = 2.163450 g / cm^3
# Si number density = 21.683857 Si / 1000 Ang^3
#
#
#
# Elastic Constant Matrix: (Units=GPa)
#
#
# Indices 1 2 3 4 5 6 
#
# 1 173.0661 15.5079 36.9792 0.0000 4.2313 0.0000
# 2 15.5079 20.0384 10.1593 0.0000 -0.0750 0.0000
# 3 36.9792 10.1593 108.8990 0.0000 -18.8700 0.0000
# 4 0.0000 0.0000 0.0000 21.5019 0.0000 -6.8830
# 5 4.2313 -0.0750 -18.8700 0.0000 37.7852 0.0000
# 6 0.0000 0.0000 0.0000 -6.8830 0.0000 22.2849
#
#
#
# Elastic Compliance Matrix: (Units=1/GPa)
#
#
# Indices 1 2 3 4 5 6 
#
# 1 0.006657 -0.004041 -0.002205 0.000000 -0.001855 0.000000
# 2 -0.004041 0.055061 -0.004015 0.000000 -0.001443 0.000000
# 3 -0.002205 -0.004015 0.011328 0.000000 0.005896 0.000000
# 4 0.000000 0.000000 0.000000 0.051610 0.000000 0.015941
# 5 -0.001855 -0.001443 0.005896 0.000000 0.029615 0.000000
# 6 0.000000 0.000000 0.000000 0.015941 0.000000 0.049797
#
#
# Mechanical properties :
#
#
# Convention : Reuss Voigt Hill
#
# Bulk Modulus (GPa) = 19.03848 47.47737 33.25792
# Shear Modulus (GPa) = 20.65294 32.27154 26.46224
#
# Velocity S-wave (km/s) = 3.08954 3.86200 3.49716
# Velocity P-wave (km/s) = 4.63962 6.46758 5.62830
#
# Compressibility (1/GPa) = 0.05252521
#
# Stress axis : x y z
#
# Youngs Moduli (GPa) = 150.22541 18.16159 88.27908
#
# Poissons Ratio (x) = 0.07339 0.19464
# Poissons Ratio (y) = 0.60702 0.35441
# Poissons Ratio (z) = 0.33122 0.07291
#
# Static dielectric constant tensor:
#      x y z
#    x 4.466250 0.000000 -0.166020 
#    y 0.000000 3.319360 0.000000 
#    z -0.166020 0.000000 3.998060 
# 
# 
# High freq. dielectric constant tensor:
#      x y z
#    x 1.881960 0.000000 -0.014430 
#    y 0.000000 1.781090 0.000000 
#    z -0.014430 0.000000 1.853860 
# 
# From -- ./inp_files/77211.got.cif
#   From: 2010.03.12/outbox.cif.g09.slc.cpg/sg14_39_cif.got.tgz:77211.got - 2010.03.31 13:35:05.
