data_PCOD8123594
_publ_section_title
;
Structure prediction by ZEFSAII (Michael W. Deem and Ramdas Pophale) SiO2 
 PCOD8123594
Probable space group: P 21/C
;
_chemical_formula_sum "Si O2"
_cell_formula_units_Z 28
_cell_length_a 18.776381
_cell_length_b 9.166083
_cell_length_c 14.890853
_cell_angle_alpha 90.000000
_cell_angle_beta 148.654906
_cell_angle_gamma 90.000000
_cell_volume 1333.148275
_symmetry_space_group_name_H-M "P 21/C"
_symmetry_group_IT_number 14
_symmetry_cell_setting 'monoclinic'
loop_
_space_group_symop_operation_xyz
x,y,z
-x,1/2+y,1/2-z
-x,-y,-z
x,1/2-y,1/2+z
loop_
_atom_site_type_symbol
_atom_site_label
_atom_site_fract_x
_atom_site_fract_y
_atom_site_fract_z
Si Si1 0.773108 0.050787 0.895052
Si Si2 0.214639 0.459723 0.783013
Si Si3 0.136732 0.717410 0.256227
Si Si4 0.386712 0.949601 0.104546
Si Si5 0.641598 0.719418 0.918375
Si Si6 0.024047 0.764286 0.452366
Si Si7 0.079130 0.181780 0.842597
O O1 0.644812 0.068455 0.823074
O O2 0.728832 0.963672 0.757976
O O3 0.830408 0.208103 0.928572
O O4 0.897769 0.967472 0.079760
O O5 0.192221 0.620567 0.798148
O O6 0.070825 0.375048 0.629222
O O7 0.330610 0.376955 0.963862
O O8 0.262869 0.611115 0.411321
O O9 0.036895 0.720098 0.235325
O O10 0.054547 0.654834 0.079986
O O11 0.524483 0.859139 0.232969
O O12 0.407349 0.119673 0.103595
O O13 0.778237 0.727737 0.004466
O O14 0.957987 0.861526 0.301511
#
# Coordination Sequence:
#
# PCOD8123594 Si02
#       7
#     4   4   4   4   4   4   4
#     4  10  18  34  61  90 116 159 201 241 298 365
#     4  10  19  36  64  93 120 149 201 253 297 353
#     4  11  19  35  68  91 124 150 197 250 300 359
#     4  11  23  41  60  86 122 163 200 243 302 355
#     4  10  24  39  59  86 122 158 205 242 296 356
#     4  10  18  33  59  98 122 150 197 245 301 358
#     4  10  19  35  60  93 121 152 196 249 297 349
#
# _framework density 21.002914000000001
#
# number of rings (size 3 to 8) (size 9 to 14) (size 15 to 20)
#    0.000    1.714    4.286    1.714    0.000    0.571 
#    0.000    9.286    0.000    6.857    0.000    0.000 
#    0.000    0.000    0.000    0.000    0.000    0.000 
#
# Total GULP energy -347117.347842 kJ/mol
# GULP energy per Si atom -12397.048137 kJ/mol
# Density = 2.095511 g / cm^3
# Si number density = 21.002914 Si / 1000 Ang^3
#
#
#
# Elastic Constant Matrix: (Units=GPa)
#
#
# Indices 1 2 3 4 5 6 
#
# 1 81.4651 11.6347 45.2528 0.0000 -16.5256 0.0000
# 2 11.6347 75.2114 46.2792 0.0000 -0.7794 0.0000
# 3 45.2528 46.2792 125.6445 0.0000 -2.8003 0.0000
# 4 0.0000 0.0000 0.0000 37.8774 0.0000 -4.0325
# 5 -16.5256 -0.7794 -2.8003 0.0000 33.7684 0.0000
# 6 0.0000 0.0000 0.0000 -4.0325 0.0000 21.5927
#
#
#
# Elastic Compliance Matrix: (Units=1/GPa)
#
#
# Indices 1 2 3 4 5 6 
#
# 1 0.017359 0.001468 -0.006615 0.000000 0.007980 0.000000
# 2 0.001468 0.017317 -0.006895 0.000000 0.000546 0.000000
# 3 -0.006615 -0.006895 0.012829 0.000000 -0.002332 0.000000
# 4 0.000000 0.000000 0.000000 0.026936 0.000000 0.005031
# 5 0.007980 0.000546 -0.002332 0.000000 0.033338 0.000000
# 6 0.000000 0.000000 0.000000 0.005031 0.000000 0.047251
#
#
# Mechanical properties :
#
#
# Convention : Reuss Voigt Hill
#
# Bulk Modulus (GPa) = 42.69699 54.29493 48.49596
# Shear Modulus (GPa) = 26.74910 30.59132 28.67021
#
# Velocity S-wave (km/s) = 3.57261 3.82059 3.69868
# Velocity P-wave (km/s) = 6.11484 6.73571 6.43277
#
# Compressibility (1/GPa) = 0.02342086
#
# Stress axis : x y z
#
# Youngs Moduli (GPa) = 57.60735 57.74655 77.94829
#
# Poissons Ratio (x) = -0.08475 0.51561
# Poissons Ratio (y) = -0.08454 0.53744
# Poissons Ratio (z) = 0.38106 0.39816
#
# Static dielectric constant tensor:
#      x y z
#    x 3.852720 0.000000 -0.250170 
#    y 0.000000 3.567580 0.000000 
#    z -0.250170 0.000000 3.843820 
# 
# 
# High freq. dielectric constant tensor:
#      x y z
#    x 1.811250 0.000000 -0.011310 
#    y 0.000000 1.808330 0.000000 
#    z -0.011310 0.000000 1.822850 
# 
# From -- ./inp_files/50117.got.cif
#   From: 2010.03.12/outbox.cif.g09.slc.cpg/sg14_26_cif.got.tgz:50117.got - 2010.03.31 13:35:05.
