data_PCOD8123883
_publ_section_title
;
Structure prediction by ZEFSAII (Michael W. Deem and Ramdas Pophale) SiO2 
 PCOD8123883
Probable space group: P 21/C
;
_chemical_formula_sum "Si O2"
_cell_formula_units_Z 32
_cell_length_a 24.827218
_cell_length_b 19.293271
_cell_length_c 21.937174
_cell_angle_alpha 90.000000
_cell_angle_beta 10.632782
_cell_angle_gamma 90.000000
_cell_volume 1938.845688
_symmetry_space_group_name_H-M "P 21/C"
_symmetry_group_IT_number 14
_symmetry_cell_setting 'monoclinic'
loop_
_space_group_symop_operation_xyz
x,y,z
-x,1/2+y,1/2-z
-x,-y,-z
x,1/2-y,1/2+z
loop_
_atom_site_type_symbol
_atom_site_label
_atom_site_fract_x
_atom_site_fract_y
_atom_site_fract_z
Si Si1 0.493436 0.362729 0.259602
Si Si2 0.111149 0.921364 0.082916
Si Si3 0.111058 0.078662 0.082991
Si Si4 0.341638 0.805259 0.736979
Si Si5 0.275622 0.746413 0.587006
Si Si6 0.341579 0.305242 0.237016
Si Si7 0.724381 0.753559 0.913018
Si Si8 0.493449 0.862760 0.759614
O O1 0.262316 0.408693 0.479797
O O2 0.338976 0.330910 0.491470
O O3 0.602130 0.300641 0.097015
O O4 0.767451 0.409039 0.974626
O O5 0.767581 0.909025 0.474523
O O6 0.165622 0.000010 0.001469
O O7 0.245866 0.873108 0.880652
O O8 0.262475 0.908772 0.979650
O O9 0.245735 0.126909 0.880761
O O10 0.499883 0.832004 0.500126
O O11 0.562718 0.757076 0.528827
O O12 0.068850 0.757359 0.022127
O O13 0.437572 0.757036 0.470846
O O14 0.338893 0.669060 0.491580
O O15 0.931187 0.757356 0.977919
O O16 0.601916 0.699326 0.097253
#
# Coordination Sequence:
#
# PCOD8123883 Si02
#       8
#     4   4   4   4   4   4   4   4
#     4   9  17  30  47  65  87 117 153 195 235 260
#     4  10  19  30  45  67  96 126 153 181 216 267
#     4  10  19  30  45  67  96 126 153 181 216 267
#     4  10  19  30  45  67  96 126 153 181 216 267
#     4   9  17  30  47  65  87 117 153 195 235 260
#     4  10  19  30  45  67  96 126 153 181 216 267
#     4   9  17  30  47  65  87 117 153 195 235 260
#     4   9  17  30  47  65  87 117 153 195 235 260
#
# _framework density 16.504664999999999
#
# number of rings (size 3 to 8) (size 9 to 14) (size 15 to 20)
#    0.000    2.500    0.000    3.000    0.000    6.500 
#    0.000    0.000    0.000    9.000    0.000    0.000 
#    0.000   70.000    0.000    0.000    0.000    0.000 
#
# Total GULP energy -396785.779478 kJ/mol
# GULP energy per Si atom -12399.555609 kJ/mol
# Density = 1.646710 g / cm^3
# Si number density = 16.504665 Si / 1000 Ang^3
#
#
#
# Elastic Constant Matrix: (Units=GPa)
#
#
# Indices 1 2 3 4 5 6 
#
# 1 84.8918 52.8291 72.5961 0.0000 -19.1462 0.0000
# 2 52.8291 70.5819 52.0446 0.0000 4.9144 0.0000
# 3 72.5961 52.0446 106.0614 0.0000 -28.2557 0.0000
# 4 0.0000 0.0000 0.0000 12.5845 0.0000 2.6144
# 5 -19.1462 4.9144 -28.2557 0.0000 35.2425 0.0000
# 6 0.0000 0.0000 0.0000 2.6144 0.0000 12.9511
#
#
#
# Elastic Compliance Matrix: (Units=1/GPa)
#
#
# Indices 1 2 3 4 5 6 
#
# 1 0.038198 -0.020181 -0.012671 0.000000 0.013407 0.000000
# 2 -0.020181 0.041604 -0.014075 0.000000 -0.028049 0.000000
# 3 -0.012671 -0.014075 0.030133 0.000000 0.019238 0.000000
# 4 0.000000 0.000000 0.000000 0.082941 0.000000 -0.016743
# 5 0.013407 -0.028049 0.019238 0.000000 0.054994 0.000000
# 6 0.000000 0.000000 0.000000 -0.016743 0.000000 0.080593
#
#
# Mechanical properties :
#
#
# Convention : Reuss Voigt Hill
#
# Bulk Modulus (GPa) = 62.18010 68.49721 65.33866
# Shear Modulus (GPa) = 11.69110 17.75996 14.72553
#
# Velocity S-wave (km/s) = 2.66437 3.28389 2.99022
# Velocity P-wave (km/s) = 6.87177 7.48134 7.18302
#
# Compressibility (1/GPa) = 0.01608231
#
# Stress axis : x y z
#
# Youngs Moduli (GPa) = 26.17957 24.03628 33.18615
#
# Poissons Ratio (x) = 0.48507 0.42050
# Poissons Ratio (y) = 0.52832 0.46708
# Poissons Ratio (z) = 0.33172 0.33830
#
# Static dielectric constant tensor:
#      x y z
#    x 3.133980 0.000000 -0.270640 
#    y 0.000000 2.904950 0.000000 
#    z -0.270640 0.000000 3.229260 
# 
# 
# High freq. dielectric constant tensor:
#      x y z
#    x 1.629900 0.000000 -0.026610 
#    y 0.000000 1.607300 0.000000 
#    z -0.026610 0.000000 1.639160 
# 
# From -- ./inp_files/47666.got.cif
#   From: 2010.03.12/outbox.cif.g09.slc.cpg/sg14_24_cif.got.tgz:47666.got - 2010.03.31 13:35:05.
