data_PCOD8123979
_publ_section_title
;
Structure prediction by ZEFSAII (Michael W. Deem and Ramdas Pophale) SiO2 
 PCOD8123979
Probable space group: P 21/C
;
_chemical_formula_sum "Si O2"
_cell_formula_units_Z 28
_cell_length_a 14.133866
_cell_length_b 21.394910
_cell_length_c 4.993154
_cell_angle_alpha 90.000000
_cell_angle_beta 63.163873
_cell_angle_gamma 90.000000
_cell_volume 1347.280248
_symmetry_space_group_name_H-M "P 21/C"
_symmetry_group_IT_number 14
_symmetry_cell_setting 'monoclinic'
loop_
_space_group_symop_operation_xyz
x,y,z
-x,1/2+y,1/2-z
-x,-y,-z
x,1/2-y,1/2+z
loop_
_atom_site_type_symbol
_atom_site_label
_atom_site_fract_x
_atom_site_fract_y
_atom_site_fract_z
Si Si1 0.860929 0.496476 0.428322
Si Si2 0.781728 0.711804 0.794035
Si Si3 0.370098 0.029708 0.932897
Si Si4 0.547686 0.790853 0.535335
Si Si5 0.071393 0.572729 0.161551
Si Si6 0.006878 0.793986 0.876215
Si Si7 0.484163 0.079308 0.270682
O O1 0.753454 0.530602 0.479562
O O2 0.852712 0.464810 0.730506
O O3 0.950511 0.549377 0.327698
O O4 0.886984 0.440393 0.189368
O O5 0.785775 0.775412 0.607198
O O6 0.668076 0.680352 0.881967
O O7 0.886990 0.676399 0.553679
O O8 0.411047 0.959400 0.950249
O O9 0.437180 0.053625 0.601883
O O10 0.394422 0.074838 0.153688
O O11 0.525803 0.733088 0.763906
O O12 0.477167 0.849461 0.720286
O O13 0.080321 0.646258 0.222198
O O14 0.028390 0.741439 0.625959
#
# Coordination Sequence:
#
# PCOD8123979 Si02
#       7
#     4   4   4   4   4   4   4
#     4  10  21  38  56  81 109 144 186 233 273 314
#     4   8  16  28  42  68 101 134 169 198 253 320
#     4  10  21  38  58  83 110 143 187 234 274 318
#     4  10  19  33  51  78 112 144 174 218 272 332
#     4  10  21  36  56  81 108 145 187 222 277 331
#     4  10  19  33  51  76 108 143 176 223 273 326
#     4  10  21  36  58  85 109 145 186 222 280 334
#
# _framework density 20.782610999999999
#
# number of rings (size 3 to 8) (size 9 to 14) (size 15 to 20)
#    0.000    2.286    0.000    2.571    2.000    0.000 
#    7.714    0.000    0.000    5.143    0.000    0.000 
#    0.000    0.000    0.000    0.000    0.000    0.000 
#
# Total GULP energy -346929.998777 kJ/mol
# GULP energy per Si atom -12390.357099 kJ/mol
# Density = 2.073531 g / cm^3
# Si number density = 20.782611 Si / 1000 Ang^3
#
#
#
# Elastic Constant Matrix: (Units=GPa)
#
#
# Indices 1 2 3 4 5 6 
#
# 1 66.3355 -2.9988 10.8151 0.0000 12.6044 0.0000
# 2 -2.9988 84.8919 11.6668 0.0000 1.7163 0.0000
# 3 10.8151 11.6668 69.9451 0.0000 21.1659 0.0000
# 4 0.0000 0.0000 0.0000 26.6261 0.0000 4.4127
# 5 12.6044 1.7163 21.1659 0.0000 26.2530 0.0000
# 6 0.0000 0.0000 0.0000 4.4127 0.0000 20.4346
#
#
#
# Elastic Compliance Matrix: (Units=1/GPa)
#
#
# Indices 1 2 3 4 5 6 
#
# 1 0.016642 0.000794 -0.000360 0.000000 -0.007752 0.000000
# 2 0.000794 0.012118 -0.002366 0.000000 0.000734 0.000000
# 3 -0.000360 -0.002366 0.019375 0.000000 -0.015293 0.000000
# 4 0.000000 0.000000 0.000000 0.038951 0.000000 -0.008411
# 5 -0.007752 0.000734 -0.015293 0.000000 0.054094 0.000000
# 6 0.000000 0.000000 0.000000 -0.008411 0.000000 0.050753
#
#
# Mechanical properties :
#
#
# Convention : Reuss Voigt Hill
#
# Bulk Modulus (GPa) = 22.58798 28.90430 25.74614
# Shear Modulus (GPa) = 23.74671 28.10870 25.92770
#
# Velocity S-wave (km/s) = 3.38394 3.68164 3.53592
# Velocity P-wave (km/s) = 5.11472 5.65780 5.39310
#
# Compressibility (1/GPa) = 0.04427134
#
# Stress axis : x y z
#
# Youngs Moduli (GPa) = 60.08745 82.52124 51.61265
#
# Poissons Ratio (x) = -0.06553 0.01858
# Poissons Ratio (y) = -0.04771 0.12213
# Poissons Ratio (z) = 0.02163 0.19527
#
# Static dielectric constant tensor:
#      x y z
#    x 3.630790 0.000000 0.165740 
#    y 0.000000 3.492690 0.000000 
#    z 0.165740 0.000000 3.819950 
# 
# 
# High freq. dielectric constant tensor:
#      x y z
#    x 1.785390 0.000000 0.029310 
#    y 0.000000 1.795490 0.000000 
#    z 0.029310 0.000000 1.820790 
# 
# From -- ./inp_files/3768.got.cif
#   From: 2010.03.12/outbox.cif.g09.slc.cpg/sg14_2_cif.got.tgz:3768.got - 2010.03.31 13:35:05.
