data_PCOD8123721
_publ_section_title
;
Structure prediction by ZEFSAII (Michael W. Deem and Ramdas Pophale) SiO2 
 PCOD8123721
Probable space group: P 21/C
;
_chemical_formula_sum "Si O2"
_cell_formula_units_Z 32
_cell_length_a 19.254728
_cell_length_b 13.492624
_cell_length_c 22.186040
_cell_angle_alpha 90.000000
_cell_angle_beta 16.151274
_cell_angle_gamma 90.000000
_cell_volume 1603.358614
_symmetry_space_group_name_H-M "P 21/C"
_symmetry_group_IT_number 14
_symmetry_cell_setting 'monoclinic'
loop_
_space_group_symop_operation_xyz
x,y,z
-x,1/2+y,1/2-z
-x,-y,-z
x,1/2-y,1/2+z
loop_
_atom_site_type_symbol
_atom_site_label
_atom_site_fract_x
_atom_site_fract_y
_atom_site_fract_z
Si Si1 0.225195 0.903585 0.374763
Si Si2 0.394875 0.826073 0.448317
Si Si3 0.658143 0.725506 0.474710
Si Si4 0.704185 0.905087 0.750128
Si Si5 0.589103 0.248940 0.439996
Si Si6 0.857432 0.734281 0.022336
Si Si7 0.934195 0.444635 0.861774
Si Si8 0.007418 0.166395 0.717932
O O1 0.401778 0.806908 0.222268
O O2 0.226384 0.944608 0.442418
O O3 0.939358 0.880536 0.596841
O O4 0.332282 0.978996 0.233969
O O5 0.428601 0.835209 0.493010
O O6 0.244181 0.917181 0.545770
O O7 0.250952 0.722742 0.551790
O O8 0.671904 0.826433 0.188729
O O9 0.602626 0.768525 0.454421
O O10 0.791684 0.817470 0.396350
O O11 0.838042 0.630829 0.322410
O O12 0.744498 0.859361 0.650745
O O13 0.465492 0.856634 0.982763
O O14 0.866248 0.247402 0.181538
O O15 0.865542 0.718745 0.944799
O O16 0.045796 0.551712 0.751859
#
# Coordination Sequence:
#
# PCOD8123721 Si02
#       8
#     4   4   4   4   4   4   4   4
#     4  11  21  32  55  86 115 144 184 230 288 350
#     4   9  22  37  57  83 112 153 192 228 290 340
#     4  11  23  36  57  88 114 148 195 232 289 342
#     4  10  20  30  52  89 112 145 175 224 296 342
#     4  10  20  36  57  82 117 147 183 242 283 339
#     4  10  18  36  54  79 114 146 180 230 286 336
#     4  11  22  39  57  81 117 152 193 237 276 343
#     4  10  22  38  57  80 115 156 188 235 279 339
#
# _framework density 19.958105
#
# number of rings (size 3 to 8) (size 9 to 14) (size 15 to 20)
#    0.000    1.750    3.750    0.750    5.250    0.500 
#    0.000    0.625    0.000    0.750    0.000    0.000 
#    0.000    0.000    0.000    0.000    0.000    0.000 
#
# Total GULP energy -396614.649318 kJ/mol
# GULP energy per Si atom -12394.207791 kJ/mol
# Density = 1.991268 g / cm^3
# Si number density = 19.958105 Si / 1000 Ang^3
#
#
#
# Elastic Constant Matrix: (Units=GPa)
#
#
# Indices 1 2 3 4 5 6 
#
# 1 126.1581 19.6162 21.8622 0.0000 -13.4677 0.0000
# 2 19.6162 28.7700 6.9057 0.0000 -0.9444 0.0000
# 3 21.8622 6.9057 91.5324 0.0000 -1.7761 0.0000
# 4 0.0000 0.0000 0.0000 20.4681 0.0000 -4.0234
# 5 -13.4677 -0.9444 -1.7761 0.0000 27.4077 0.0000
# 6 0.0000 0.0000 0.0000 -4.0234 0.0000 24.1016
#
#
#
# Elastic Compliance Matrix: (Units=1/GPa)
#
#
# Indices 1 2 3 4 5 6 
#
# 1 0.009637 -0.006002 -0.001763 0.000000 0.004414 0.000000
# 2 -0.006002 0.039168 -0.001554 0.000000 -0.001701 0.000000
# 3 -0.001763 -0.001554 0.011460 0.000000 -0.000177 0.000000
# 4 0.000000 0.000000 0.000000 0.050514 0.000000 0.008433
# 5 0.004414 -0.001701 -0.000177 0.000000 0.038585 0.000000
# 6 0.000000 0.000000 0.000000 0.008433 0.000000 0.042899
#
#
# Mechanical properties :
#
#
# Convention : Reuss Voigt Hill
#
# Bulk Modulus (GPa) = 24.02404 38.13654 31.08029
# Shear Modulus (GPa) = 22.24416 27.60055 24.92235
#
# Velocity S-wave (km/s) = 3.34210 3.72280 3.53758
# Velocity P-wave (km/s) = 5.19194 6.13423 5.68265
#
# Compressibility (1/GPa) = 0.04162498
#
# Stress axis : x y z
#
# Youngs Moduli (GPa) = 103.77054 25.53085 87.25958
#
# Poissons Ratio (x) = 0.15325 0.15385
# Poissons Ratio (y) = 0.62287 0.13564
# Poissons Ratio (z) = 0.18297 0.03969
#
# Static dielectric constant tensor:
#      x y z
#    x 3.820880 0.000000 -0.068830 
#    y 0.000000 3.175750 0.000000 
#    z -0.068830 0.000000 3.725040 
# 
# 
# High freq. dielectric constant tensor:
#      x y z
#    x 1.791710 0.000000 -0.004700 
#    y 0.000000 1.722560 0.000000 
#    z -0.004700 0.000000 1.787100 
# 
# From -- ./inp_files/69428.got.cif
#   From: 2010.03.12/outbox.cif.g09.slc.cpg/sg14_35_cif.got.tgz:69428.got - 2010.03.31 13:35:05.
