data_PCOD8123366
_publ_section_title
;
Structure prediction by ZEFSAII (Michael W. Deem and Ramdas Pophale) SiO2 
 PCOD8123366
Probable space group: P 21/C
;
_chemical_formula_sum "Si O2"
_cell_formula_units_Z 28
_cell_length_a 9.555823
_cell_length_b 24.573430
_cell_length_c 7.620706
_cell_angle_alpha 90.000000
_cell_angle_beta 66.500563
_cell_angle_gamma 90.000000
_cell_volume 1641.076120
_symmetry_space_group_name_H-M "P 21/C"
_symmetry_group_IT_number 14
_symmetry_cell_setting 'monoclinic'
loop_
_space_group_symop_operation_xyz
x,y,z
-x,1/2+y,1/2-z
-x,-y,-z
x,1/2-y,1/2+z
loop_
_atom_site_type_symbol
_atom_site_label
_atom_site_fract_x
_atom_site_fract_y
_atom_site_fract_z
Si Si1 0.281446 0.310807 0.311222
Si Si2 0.460119 0.135481 0.019941
Si Si3 0.228962 0.038727 0.135517
Si Si4 0.220768 0.915494 0.139620
Si Si5 0.930313 0.592357 0.976153
Si Si6 0.281445 0.189195 0.407329
Si Si7 0.069694 0.092354 0.906447
O O1 0.419922 0.330530 0.365486
O O2 0.232324 0.250001 0.383839
O O3 0.133850 0.348094 0.426098
O O4 0.334698 0.314868 0.082649
O O5 0.375409 0.077432 0.062302
O O6 0.419921 0.169473 0.214588
O O7 0.640756 0.126442 0.929626
O O8 0.121655 0.047891 0.357828
O O9 0.285540 0.976857 0.107241
O O10 0.121674 0.047887 0.020483
O O11 0.115124 0.905254 0.366103
O O12 0.115118 0.905258 0.018784
O O13 0.866153 0.651908 0.059955
O O14 0.861859 0.575302 0.819080
#
# Coordination Sequence:
#
# PCOD8123366 Si02
#       7
#     4   4   4   4   4   4   4
#     4  10  18  35  58  73  94 136 176 208 247 311
#     4  10  21  33  51  79 108 131 172 207 253 307
#     4  10  17  34  56  73  98 151 171 195 249 309
#     4  10  19  35  49  76 116 126 164 222 254 286
#     4   8  19  32  52  78 100 127 178 210 245 299
#     4  10  18  35  58  73  94 136 176 208 247 311
#     4   8  19  32  52  78 100 127 178 210 245 299
#
# _framework density 17.061975
#
# number of rings (size 3 to 8) (size 9 to 14) (size 15 to 20)
#    0.857    1.714    1.429    1.286    0.000    0.000 
#    2.571    1.429    0.000    6.857    0.000    0.000 
#    0.000    0.000    0.000    0.000    0.000    0.000 
#
# Total GULP energy -347001.282308 kJ/mol
# GULP energy per Si atom -12392.902940 kJ/mol
# Density = 1.702314 g / cm^3
# Si number density = 17.061975 Si / 1000 Ang^3
#
#
#
# Elastic Constant Matrix: (Units=GPa)
#
#
# Indices 1 2 3 4 5 6 
#
# 1 67.3601 24.7816 35.8801 0.0000 -1.8947 0.0000
# 2 24.7816 90.0939 27.6762 0.0000 2.5031 0.0000
# 3 35.8801 27.6762 80.3271 0.0000 13.1024 0.0000
# 4 0.0000 0.0000 0.0000 17.8553 0.0000 0.2239
# 5 -1.8947 2.5031 13.1024 0.0000 27.6364 0.0000
# 6 0.0000 0.0000 0.0000 0.2239 0.0000 17.5967
#
#
#
# Elastic Compliance Matrix: (Units=1/GPa)
#
#
# Indices 1 2 3 4 5 6 
#
# 1 0.021166 -0.003109 -0.009392 0.000000 0.006186 0.000000
# 2 -0.003109 0.012894 -0.003066 0.000000 0.000073 0.000000
# 3 -0.009392 -0.003066 0.019249 0.000000 -0.009492 0.000000
# 4 0.000000 0.000000 0.000000 0.056015 0.000000 -0.000713
# 5 0.006186 0.000073 -0.009492 0.000000 0.041102 0.000000
# 6 0.000000 0.000000 0.000000 -0.000713 0.000000 0.056838
#
#
# Mechanical properties :
#
#
# Convention : Reuss Voigt Hill
#
# Bulk Modulus (GPa) = 45.09410 46.05073 45.57241
# Shear Modulus (GPa) = 20.34260 22.58057 21.46158
#
# Velocity S-wave (km/s) = 3.45668 3.64186 3.55048
# Velocity P-wave (km/s) = 6.51295 6.68828 6.60120
#
# Compressibility (1/GPa) = 0.02217585
#
# Stress axis : x y z
#
# Youngs Moduli (GPa) = 47.24535 77.55277 51.95066
#
# Poissons Ratio (x) = 0.24109 0.48793
# Poissons Ratio (y) = 0.14687 0.15928
# Poissons Ratio (z) = 0.44374 0.23778
#
# Static dielectric constant tensor:
#      x y z
#    x 2.975490 0.000000 0.203520 
#    y 0.000000 3.143030 0.000000 
#    z 0.203520 0.000000 3.210530 
# 
# 
# High freq. dielectric constant tensor:
#      x y z
#    x 1.635100 0.000000 0.016070 
#    y 0.000000 1.660620 0.000000 
#    z 0.016070 0.000000 1.653650 
# 
# From -- ./inp_files/10881.got.cif
#   From: 2010.03.12/outbox.cif.g09.slc.cpg/sg14_6_cif.got.tgz:10881.got - 2010.03.31 13:35:05.
