data_PCOD8123985
_publ_section_title
;
Structure prediction by ZEFSAII (Michael W. Deem and Ramdas Pophale) SiO2 
 PCOD8123985
Probable space group: P 21/C
;
_chemical_formula_sum "Si O2"
_cell_formula_units_Z 32
_cell_length_a 15.050122
_cell_length_b 5.103583
_cell_length_c 20.668376
_cell_angle_alpha 90.000000
_cell_angle_beta 92.112844
_cell_angle_gamma 90.000000
_cell_volume 1586.449319
_symmetry_space_group_name_H-M "P 21/C"
_symmetry_group_IT_number 14
_symmetry_cell_setting 'monoclinic'
loop_
_space_group_symop_operation_xyz
x,y,z
-x,1/2+y,1/2-z
-x,-y,-z
x,1/2-y,1/2+z
loop_
_atom_site_type_symbol
_atom_site_label
_atom_site_fract_x
_atom_site_fract_y
_atom_site_fract_z
Si Si1 0.125801 0.481175 0.307962
Si Si2 0.510029 0.239608 0.210598
Si Si3 0.953361 0.632918 0.095905
Si Si4 0.301868 0.853857 0.761630
Si Si5 0.052762 0.219098 0.683305
Si Si6 0.675855 0.856173 0.824930
Si Si7 0.173771 0.300907 0.573847
Si Si8 0.104493 0.719533 0.008678
O O1 0.215576 0.653469 0.306392
O O2 0.038286 0.652893 0.296788
O O3 0.122202 0.295717 0.244197
O O4 0.121922 0.320245 0.375319
O O5 0.498456 0.046915 0.272585
O O6 0.611455 0.187537 0.189431
O O7 0.430144 0.157983 0.159662
O O8 0.025228 0.565502 0.153565
O O9 0.005057 0.764249 0.036487
O O10 0.907392 0.363710 0.067203
O O11 0.303888 0.134257 0.727220
O O12 0.297772 0.633339 0.706071
O O13 0.102997 0.378837 0.628073
O O14 0.727810 0.814693 0.893408
O O15 0.157476 0.011910 0.546430
O O16 0.161626 0.514649 0.516215
#
# Coordination Sequence:
#
# PCOD8123985 Si02
#       8
#     4   4   4   4   4   4   4   4
#     4  12  22  33  50  77 108 144 171 208 265 316
#     4   8  16  32  48  73 103 136 164 202 254 314
#     4  10  23  37  50  70 101 146 176 225 249 301
#     4  10  21  31  52  76 109 139 166 203 259 324
#     4  11  23  32  51  75 109 138 175 211 261 313
#     4  10  19  33  53  77 107 133 169 212 259 309
#     4  11  21  36  54  78  99 139 174 222 253 303
#     4  10  23  38  54  70 101 137 191 218 255 285
#
# _framework density 20.170829000000001
#
# number of rings (size 3 to 8) (size 9 to 14) (size 15 to 20)
#    0.000    1.750    3.750    0.750    7.000    1.500 
#    0.000    0.000    0.000    0.000    0.000    1.750 
#    0.000    0.000    0.000    0.000    0.000    0.000 
#
# Total GULP energy -396550.409481 kJ/mol
# GULP energy per Si atom -12392.200296 kJ/mol
# Density = 2.012492 g / cm^3
# Si number density = 20.170829 Si / 1000 Ang^3
#
#
#
# Elastic Constant Matrix: (Units=GPa)
#
#
# Indices 1 2 3 4 5 6 
#
# 1 103.3334 7.3913 23.4766 0.0000 25.8043 0.0000
# 2 7.3913 65.5813 -0.9656 0.0000 -3.0260 0.0000
# 3 23.4766 -0.9656 49.2080 0.0000 6.6127 0.0000
# 4 0.0000 0.0000 0.0000 19.9298 0.0000 6.8989
# 5 25.8043 -3.0260 6.6127 0.0000 24.3643 0.0000
# 6 0.0000 0.0000 0.0000 6.8989 0.0000 21.8943
#
#
#
# Elastic Compliance Matrix: (Units=1/GPa)
#
#
# Indices 1 2 3 4 5 6 
#
# 1 0.014590 -0.002382 -0.005076 0.000000 -0.014370 0.000000
# 2 -0.002382 0.015725 0.000875 0.000000 0.004238 0.000000
# 3 -0.005076 0.000875 0.022857 0.000000 -0.000719 0.000000
# 4 0.000000 0.000000 0.000000 0.056319 0.000000 -0.017746
# 5 -0.014370 0.004238 -0.000719 0.000000 0.056984 0.000000
# 6 0.000000 0.000000 0.000000 -0.017746 0.000000 0.051266
#
#
# Mechanical properties :
#
#
# Convention : Reuss Voigt Hill
#
# Bulk Modulus (GPa) = 24.99591 30.88083 27.93837
# Shear Modulus (GPa) = 20.47142 25.78568 23.12855
#
# Velocity S-wave (km/s) = 3.18921 3.57930 3.38987
# Velocity P-wave (km/s) = 5.09710 5.69427 5.40394
#
# Compressibility (1/GPa) = 0.04000654
#
# Stress axis : x y z
#
# Youngs Moduli (GPa) = 68.54221 63.59233 43.74935
#
# Poissons Ratio (x) = 0.15148 0.22208
# Poissons Ratio (y) = 0.16327 -0.03830
# Poissons Ratio (z) = 0.34793 -0.05567
#
# Static dielectric constant tensor:
#      x y z
#    x 3.850010 0.000000 0.276640 
#    y 0.000000 3.723550 0.000000 
#    z 0.276640 0.000000 3.628920 
# 
# 
# High freq. dielectric constant tensor:
#      x y z
#    x 1.762600 0.000000 0.028300 
#    y 0.000000 1.803470 0.000000 
#    z 0.028300 0.000000 1.753220 
# 
# From -- ./inp_files/67722.got.cif
#   From: 2010.03.12/outbox.cif.g09.slc.cpg/sg14_34_cif.got.tgz:67722.got - 2010.03.31 13:35:05.
