data_PCOD8123948
_publ_section_title
;
Structure prediction by ZEFSAII (Michael W. Deem and Ramdas Pophale) SiO2 
 PCOD8123948
Probable space group: P 21/C
;
_chemical_formula_sum "Si O2"
_cell_formula_units_Z 28
_cell_length_a 5.222754
_cell_length_b 15.254470
_cell_length_c 18.997126
_cell_angle_alpha 90.000000
_cell_angle_beta 80.695003
_cell_angle_gamma 90.000000
_cell_volume 1493.592257
_symmetry_space_group_name_H-M "P 21/C"
_symmetry_group_IT_number 14
_symmetry_cell_setting 'monoclinic'
loop_
_space_group_symop_operation_xyz
x,y,z
-x,1/2+y,1/2-z
-x,-y,-z
x,1/2-y,1/2+z
loop_
_atom_site_type_symbol
_atom_site_label
_atom_site_fract_x
_atom_site_fract_y
_atom_site_fract_z
Si Si1 0.074305 0.981757 0.884376
Si Si2 0.616432 0.452240 0.318681
Si Si3 0.556390 0.207131 0.926445
Si Si4 0.470041 0.400120 0.921401
Si Si5 0.248069 0.432228 0.075037
Si Si6 0.693077 0.445545 0.153231
Si Si7 0.986053 0.641524 0.507920
O O1 0.359030 0.989335 0.838401
O O2 0.859258 0.989294 0.832955
O O3 0.025395 0.057261 0.942433
O O4 0.046011 0.888604 0.925289
O O5 0.596762 0.361619 0.362032
O O6 0.654981 0.426848 0.236530
O O7 0.561800 0.304299 0.892300
O O8 0.285854 0.191790 0.978509
O O9 0.782989 0.202886 0.974415
O O10 0.714990 0.461475 0.933822
O O11 0.321433 0.449658 0.863844
O O12 0.280412 0.388821 0.997111
O O13 0.467015 0.395535 0.119524
O O14 0.968340 0.406869 0.117224
#
# Coordination Sequence:
#
# PCOD8123948 Si02
#       7
#     4   4   4   4   4   4   4
#     4   9  17  32  51  73 105 138 179 200 245 316
#     4  10  19  32  54  78 104 144 173 203 260 325
#     4  10  20  31  54  80 104 133 175 221 264 300
#     4   9  21  34  58  77 101 132 182 222 262 300
#     4   9  20  34  58  75  96 136 181 221 256 308
#     4  10  19  34  55  77 102 138 175 217 254 321
#     4   9  18  31  50  77 103 136 170 221 247 289
#
# _framework density 18.746751
#
# number of rings (size 3 to 8) (size 9 to 14) (size 15 to 20)
#    0.857    1.714    0.000    2.143    2.000    3.429 
#    0.000    0.000    9.429    0.000    0.000    0.000 
#    0.000    0.000    0.000    0.000    0.000    0.000 
#
# Total GULP energy -347049.475601 kJ/mol
# GULP energy per Si atom -12394.624129 kJ/mol
# Density = 1.870408 g / cm^3
# Si number density = 18.746751 Si / 1000 Ang^3
#
#
#
# Elastic Constant Matrix: (Units=GPa)
#
#
# Indices 1 2 3 4 5 6 
#
# 1 134.8347 14.7048 33.6462 0.0000 -0.1449 0.0000
# 2 14.7048 47.4489 17.9502 0.0000 2.7939 0.0000
# 3 33.6462 17.9502 88.6876 0.0000 -2.8765 0.0000
# 4 0.0000 0.0000 0.0000 9.6595 0.0000 2.5846
# 5 -0.1449 2.7939 -2.8765 0.0000 22.2747 0.0000
# 6 0.0000 0.0000 0.0000 2.5846 0.0000 9.2377
#
#
#
# Elastic Compliance Matrix: (Units=1/GPa)
#
#
# Indices 1 2 3 4 5 6 
#
# 1 0.008289 -0.001484 -0.002849 0.000000 -0.000128 0.000000
# 2 -0.001484 0.023359 -0.004278 0.000000 -0.003492 0.000000
# 3 -0.002849 -0.004278 0.013295 0.000000 0.002235 0.000000
# 4 0.000000 0.000000 0.000000 0.111902 0.000000 -0.031308
# 5 -0.000128 -0.003492 0.002235 0.000000 0.045620 0.000000
# 6 0.000000 0.000000 0.000000 -0.031308 0.000000 0.117011
#
#
# Mechanical properties :
#
#
# Convention : Reuss Voigt Hill
#
# Bulk Modulus (GPa) = 36.07256 44.84151 40.45703
# Shear Modulus (GPa) = 14.45351 21.87907 18.16629
#
# Velocity S-wave (km/s) = 2.77968 3.41997 3.11631
# Velocity P-wave (km/s) = 5.43930 6.29019 5.88015
#
# Compressibility (1/GPa) = 0.02772190
#
# Stress axis : x y z
#
# Youngs Moduli (GPa) = 120.64235 42.80970 75.21859
#
# Poissons Ratio (x) = 0.06352 0.21426
# Poissons Ratio (y) = 0.17899 0.32180
# Poissons Ratio (z) = 0.34365 0.18315
#
# Static dielectric constant tensor:
#      x y z
#    x 3.584760 0.000000 0.032930 
#    y 0.000000 3.105560 0.000000 
#    z 0.032930 0.000000 3.227960 
# 
# 
# High freq. dielectric constant tensor:
#      x y z
#    x 1.741010 0.000000 0.000750 
#    y 0.000000 1.690810 0.000000 
#    z 0.000750 0.000000 1.711450 
# 
# From -- ./inp_files/53176.got.cif
#   From: 2010.03.12/outbox.cif.g09.slc.cpg/sg14_27_cif.got.tgz:53176.got - 2010.03.31 13:35:05.
