data_PCOD8123596
_publ_section_title
;
Structure prediction by ZEFSAII (Michael W. Deem and Ramdas Pophale) SiO2 
 PCOD8123596
Probable space group: P 21/C
;
_chemical_formula_sum "Si O2"
_cell_formula_units_Z 32
_cell_length_a 15.182189
_cell_length_b 17.916745
_cell_length_c 9.975259
_cell_angle_alpha 90.000000
_cell_angle_beta 143.923916
_cell_angle_gamma 90.000000
_cell_volume 1597.824345
_symmetry_space_group_name_H-M "P 21/C"
_symmetry_group_IT_number 14
_symmetry_cell_setting 'monoclinic'
loop_
_space_group_symop_operation_xyz
x,y,z
-x,1/2+y,1/2-z
-x,-y,-z
x,1/2-y,1/2+z
loop_
_atom_site_type_symbol
_atom_site_label
_atom_site_fract_x
_atom_site_fract_y
_atom_site_fract_z
Si Si1 0.423269 0.288039 0.793729
Si Si2 0.672370 0.822553 0.545198
Si Si3 0.040624 0.389095 0.516991
Si Si4 0.790431 0.467079 0.355119
Si Si5 0.589771 0.068104 0.856273
Si Si6 0.576696 0.073690 0.369019
Si Si7 0.714658 0.200330 0.156884
Si Si8 0.179678 0.687445 0.929990
O O1 0.317492 0.290609 0.792000
O O2 0.340230 0.243392 0.575685
O O3 0.453593 0.371125 0.778686
O O4 0.572772 0.247993 0.029758
O O5 0.834984 0.858823 0.727183
O O6 0.535248 0.879743 0.366045
O O7 0.106125 0.460018 0.519050
O O8 0.897764 0.400352 0.437921
O O9 0.982529 0.336261 0.324851
O O10 0.722370 0.452439 0.416839
O O11 0.654387 0.472847 0.083670
O O12 0.513184 0.992077 0.821042
O O13 0.667639 0.114496 0.071656
O O14 0.696328 0.120790 0.430000
O O15 0.831586 0.204248 0.424601
O O16 0.774855 0.237839 0.094443
#
# Coordination Sequence:
#
# PCOD8123596 Si02
#       8
#     4   4   4   4   4   4   4   4
#     4  10  20  34  59  86 121 143 201 249 296 347
#     4  11  21  37  57  90 117 154 194 250 300 349
#     4  10  22  36  60  85 123 153 201 242 296 355
#     4  10  19  36  60  92 115 157 200 244 290 368
#     4  11  20  35  66  88 116 152 204 248 301 348
#     4  10  18  33  62  90 117 151 194 253 297 353
#     4  10  22  39  61  89 117 162 203 245 294 361
#     4  10  23  39  58  85 125 160 200 240 297 364
#
# _framework density 20.027232000000001
#
# number of rings (size 3 to 8) (size 9 to 14) (size 15 to 20)
#    0.000    1.750    2.500    3.375    3.500    1.500 
#    0.000    0.625    0.000    0.000    0.000    0.000 
#    0.000    0.000    0.000    0.000    0.000    0.000 
#
# Total GULP energy -396664.094419 kJ/mol
# GULP energy per Si atom -12395.752951 kJ/mol
# Density = 1.998165 g / cm^3
# Si number density = 20.027232 Si / 1000 Ang^3
#
#
#
# Elastic Constant Matrix: (Units=GPa)
#
#
# Indices 1 2 3 4 5 6 
#
# 1 55.7275 15.1600 24.7690 0.0000 -1.5373 0.0000
# 2 15.1600 79.0540 25.5161 0.0000 -3.9860 0.0000
# 3 24.7690 25.5161 98.2100 0.0000 -3.1338 0.0000
# 4 0.0000 0.0000 0.0000 31.1612 0.0000 4.5004
# 5 -1.5373 -3.9860 -3.1338 0.0000 28.1502 0.0000
# 6 0.0000 0.0000 0.0000 4.5004 0.0000 14.8094
#
#
#
# Elastic Compliance Matrix: (Units=1/GPa)
#
#
# Indices 1 2 3 4 5 6 
#
# 1 0.020651 -0.002476 -0.004556 0.000000 0.000270 0.000000
# 2 -0.002476 0.014173 -0.003009 0.000000 0.001537 0.000000
# 3 -0.004556 -0.003009 0.012135 0.000000 0.000676 0.000000
# 4 0.000000 0.000000 0.000000 0.033564 0.000000 -0.010200
# 5 0.000270 0.001537 0.000676 0.000000 0.035831 0.000000
# 6 0.000000 0.000000 0.000000 -0.010200 0.000000 0.070624
#
#
# Mechanical properties :
#
#
# Convention : Reuss Voigt Hill
#
# Bulk Modulus (GPa) = 37.20761 40.43130 38.81946
# Shear Modulus (GPa) = 23.14610 25.99390 24.57000
#
# Velocity S-wave (km/s) = 3.40329 3.60658 3.50641
# Velocity P-wave (km/s) = 5.83627 6.12987 5.98487
#
# Compressibility (1/GPa) = 0.02687622
#
# Stress axis : x y z
#
# Youngs Moduli (GPa) = 48.42479 70.55662 82.40847
#
# Poissons Ratio (x) = 0.17469 0.37548
# Poissons Ratio (y) = 0.11989 0.24795
# Poissons Ratio (z) = 0.22064 0.21229
#
# Static dielectric constant tensor:
#      x y z
#    x 3.371510 0.000000 0.143190 
#    y 0.000000 3.783560 0.000000 
#    z 0.143190 0.000000 3.555350 
# 
# 
# High freq. dielectric constant tensor:
#      x y z
#    x 1.761520 0.000000 0.008840 
#    y 0.000000 1.789670 0.000000 
#    z 0.008840 0.000000 1.767120 
# 
# From -- ./inp_files/16868.got.cif
#   From: 2010.03.12/outbox.cif.g09.slc.cpg/sg14_9_cif.got.tgz:16868.got - 2010.03.31 13:35:05.
