data_PCOD8123197
_publ_section_title
;
Structure prediction by ZEFSAII (Michael W. Deem and Ramdas Pophale) SiO2 
 PCOD8123197
Probable space group: P 2/C
;
_chemical_formula_sum "Si O2"
_cell_formula_units_Z 18
_cell_length_a 5.058917
_cell_length_b 8.437989
_cell_length_c 17.180837
_cell_angle_alpha 90.000000
_cell_angle_beta 100.944073
_cell_angle_gamma 90.000000
_cell_volume 720.061499
_symmetry_space_group_name_H-M "P 2/C"
_symmetry_group_IT_number 13
_symmetry_cell_setting 'monoclinic'
loop_
_space_group_symop_operation_xyz
x,y,z
-x,y,1/2-z
-x,-y,-z
x,-y,1/2+z
loop_
_atom_site_type_symbol
_atom_site_label
_atom_site_fract_x
_atom_site_fract_y
_atom_site_fract_z
Si Si1 0.000000 0.913921 0.750000
Si Si2 0.328940 0.836933 0.350157
Si Si3 0.957513 0.332118 0.109427
Si Si4 0.110795 0.849260 0.047077
Si Si5 0.483920 0.508281 0.665435
O O1 0.951773 0.809089 0.825753
O O2 0.256463 0.030727 0.780599
O O3 0.580804 0.891993 0.415840
O O4 0.417739 0.671147 0.317362
O O5 0.062029 0.807548 0.386550
O O6 0.668868 0.396398 0.117230
O O7 0.175783 0.474452 0.120545
O O8 0.913817 0.288204 0.017687
O O9 0.000000 0.000000 0.000000
O O10 0.500000 0.592745 0.750000
#
# Coordination Sequence:
#
# PCOD8123197 Si02
#       5
#     2   4   4   4   4
#     4  12  28  48  82 114 144 208 256 306 380 454
#     4  12  30  47  79 110 151 196 251 310 377 446
#     4  12  27  48  79 106 150 200 251 306 378 449
#     4  12  27  49  75 113 151 192 252 317 371 442
#     4  12  27  48  74 113 152 193 250 316 373 443
#
# _framework density 24.997862999999999
#
# number of rings (size 3 to 8) (size 9 to 14) (size 15 to 20)
#    0.000    0.000    4.444    3.333    9.333    7.111 
#    0.000    0.000    0.000    0.000    0.000    0.000 
#    0.000    0.000    0.000    0.000    0.000    0.000 
#
# Total GULP energy -223159.580416 kJ/mol
# GULP energy per Si atom -12397.754468 kJ/mol
# Density = 2.494097 g / cm^3
# Si number density = 24.997863 Si / 1000 Ang^3
#
#
#
# Elastic Constant Matrix: (Units=GPa)
#
#
# Indices 1 2 3 4 5 6 
#
# 1 126.8446 22.9864 33.6265 0.0000 7.8230 0.0000
# 2 22.9864 90.3514 13.2336 0.0000 8.4836 0.0000
# 3 33.6265 13.2336 100.3148 0.0000 14.8385 0.0000
# 4 0.0000 0.0000 0.0000 36.9229 0.0000 18.6086
# 5 7.8230 8.4836 14.8385 0.0000 49.7628 0.0000
# 6 0.0000 0.0000 0.0000 18.6086 0.0000 35.0439
#
#
#
# Elastic Compliance Matrix: (Units=1/GPa)
#
#
# Indices 1 2 3 4 5 6 
#
# 1 0.008957 -0.001854 -0.002716 0.000000 -0.000282 0.000000
# 2 -0.001854 0.011785 -0.000710 0.000000 -0.001506 0.000000
# 3 -0.002716 -0.000710 0.011394 0.000000 -0.002850 0.000000
# 4 0.000000 0.000000 0.000000 0.036980 0.000000 -0.019637
# 5 -0.000282 -0.001506 -0.002850 0.000000 0.021246 0.000000
# 6 0.000000 0.000000 0.000000 -0.019637 0.000000 0.038963
#
#
# Mechanical properties :
#
#
# Convention : Reuss Voigt Hill
#
# Bulk Modulus (GPa) = 46.35066 50.80041 48.57554
# Shear Modulus (GPa) = 33.99533 40.85688 37.42611
#
# Velocity S-wave (km/s) = 3.69172 4.04718 3.87353
# Velocity P-wave (km/s) = 6.06250 6.49658 6.28329
#
# Compressibility (1/GPa) = 0.02157466
#
# Stress axis : x y z
#
# Youngs Moduli (GPa) = 111.64232 84.85268 87.76308
#
# Poissons Ratio (x) = 0.15736 0.23838
# Poissons Ratio (y) = 0.20704 0.06234
# Poissons Ratio (z) = 0.30324 0.06027
#
# Static dielectric constant tensor:
#      x y z
#    x 4.714880 0.000000 0.152680 
#    y 0.000000 4.527100 0.000000 
#    z 0.152680 0.000000 4.444970 
# 
# 
# High freq. dielectric constant tensor:
#      x y z
#    x 2.005060 0.000000 0.001260 
#    y 0.000000 2.001690 0.000000 
#    z 0.001260 0.000000 2.009480 
# 
# From -- ./inp_files/72855.got.cif
#   From: 2010.06.25/outbox.cif.g09.slc.cpg/sg13_37_cif.got.tgz:72855.got - 2010.06.28 04:50:58.
