data_PCOD8123785
_publ_section_title
;
Structure prediction by ZEFSAII (Michael W. Deem and Ramdas Pophale) SiO2 
 PCOD8123785
Probable space group: P 21/C
;
_chemical_formula_sum "Si O2"
_cell_formula_units_Z 20
_cell_length_a 7.596407
_cell_length_b 13.147220
_cell_length_c 14.572483
_cell_angle_alpha 90.000000
_cell_angle_beta 40.258785
_cell_angle_gamma 90.000000
_cell_volume 940.524728
_symmetry_space_group_name_H-M "P 21/C"
_symmetry_group_IT_number 14
_symmetry_cell_setting 'monoclinic'
loop_
_space_group_symop_operation_xyz
x,y,z
-x,1/2+y,1/2-z
-x,-y,-z
x,1/2-y,1/2+z
loop_
_atom_site_type_symbol
_atom_site_label
_atom_site_fract_x
_atom_site_fract_y
_atom_site_fract_z
Si Si1 0.365867 0.596352 0.367626
Si Si2 0.326888 0.772005 0.522592
Si Si3 0.948897 0.549811 0.182483
Si Si4 0.995214 0.475269 0.639804
Si Si5 0.905933 0.850736 0.297828
O O1 0.313386 0.703910 0.436761
O O2 0.686080 0.576475 0.226661
O O3 0.220170 0.597481 0.326307
O O4 0.248288 0.501662 0.473180
O O5 0.639446 0.786235 0.429691
O O6 0.198799 0.881529 0.547670
O O7 0.162526 0.721710 0.672782
O O8 0.890372 0.579200 0.313612
O O9 0.021395 0.429100 0.147561
O O10 0.845525 0.580503 0.730690
#
# Coordination Sequence:
#
# PCOD8123785 Si02
#       5
#     4   4   4   4   4
#     4  10  18  37  60  82 117 163 186 245 290 355
#     4  11  19  36  62  88 119 154 202 232 302 338
#     4  10  20  36  61  84 119 156 193 244 291 337
#     4   8  20  35  57  86 115 152 198 233 298 339
#     4   9  21  35  61  87 120 155 188 251 280 359
#
# _framework density 21.264726
#
# number of rings (size 3 to 8) (size 9 to 14) (size 15 to 20)
#    1.200    1.200    2.000    1.200    0.000    0.000 
#    0.000    5.000    0.000    0.000    0.000    0.000 
#    0.000    0.000    0.000    0.000    0.000    0.000 
#
# Total GULP energy -247822.215561 kJ/mol
# GULP energy per Si atom -12391.110778 kJ/mol
# Density = 2.121633 g / cm^3
# Si number density = 21.264726 Si / 1000 Ang^3
#
#
#
# Elastic Constant Matrix: (Units=GPa)
#
#
# Indices 1 2 3 4 5 6 
#
# 1 44.6590 2.3106 3.2168 0.0000 -11.7189 0.0000
# 2 2.3106 94.9219 39.6580 0.0000 -10.3710 0.0000
# 3 3.2168 39.6580 106.3728 0.0000 -28.3129 0.0000
# 4 0.0000 0.0000 0.0000 34.7123 0.0000 -8.5952
# 5 -11.7189 -10.3710 -28.3129 0.0000 20.6961 0.0000
# 6 0.0000 0.0000 0.0000 -8.5952 0.0000 19.2179
#
#
#
# Elastic Compliance Matrix: (Units=1/GPa)
#
#
# Indices 1 2 3 4 5 6 
#
# 1 0.028109 -0.000443 0.005493 0.000000 0.023208 0.000000
# 2 -0.000443 0.012486 -0.004786 0.000000 -0.000541 0.000000
# 3 0.005493 -0.004786 0.017627 0.000000 0.024826 0.000000
# 4 0.000000 0.000000 0.000000 0.032396 0.000000 0.014489
# 5 0.023208 -0.000541 0.024826 0.000000 0.095152 0.000000
# 6 0.000000 0.000000 0.000000 0.014489 0.000000 0.058515
#
#
# Mechanical properties :
#
#
# Convention : Reuss Voigt Hill
#
# Bulk Modulus (GPa) = 17.02144 37.36939 27.19542
# Shear Modulus (GPa) = 18.98679 28.30980 23.64829
#
# Velocity S-wave (km/s) = 2.99135 3.65266 3.33842
# Velocity P-wave (km/s) = 4.46685 5.94986 5.26087
#
# Compressibility (1/GPa) = 0.05874944
#
# Stress axis : x y z
#
# Youngs Moduli (GPa) = 35.57537 80.08914 56.73158
#
# Poissons Ratio (x) = 0.03550 -0.31160
# Poissons Ratio (y) = 0.01577 0.27150
# Poissons Ratio (z) = -0.19540 0.38328
#
# Static dielectric constant tensor:
#      x y z
#    x 3.369020 0.000000 -0.089680 
#    y 0.000000 3.812520 0.000000 
#    z -0.089680 0.000000 3.635500 
# 
# 
# High freq. dielectric constant tensor:
#      x y z
#    x 1.789440 0.000000 -0.015720 
#    y 0.000000 1.833070 0.000000 
#    z -0.015720 0.000000 1.825480 
# 
# From -- ./inp_files/55880.got.cif
#   From: 2010.03.12/outbox.cif.g09.slc.cpg/sg14_28_cif.got.tgz:55880.got - 2010.03.31 13:35:05.
