data_PCOD8123502
_publ_section_title
;
Structure prediction by ZEFSAII (Michael W. Deem and Ramdas Pophale) SiO2 
 PCOD8123502
Probable space group: P 21/C
;
_chemical_formula_sum "Si O2"
_cell_formula_units_Z 32
_cell_length_a 22.599331
_cell_length_b 11.569476
_cell_length_c 17.895502
_cell_angle_alpha 90.000000
_cell_angle_beta 19.481234
_cell_angle_gamma 90.000000
_cell_volume 1560.438013
_symmetry_space_group_name_H-M "P 21/C"
_symmetry_group_IT_number 14
_symmetry_cell_setting 'monoclinic'
loop_
_space_group_symop_operation_xyz
x,y,z
-x,1/2+y,1/2-z
-x,-y,-z
x,1/2-y,1/2+z
loop_
_atom_site_type_symbol
_atom_site_label
_atom_site_fract_x
_atom_site_fract_y
_atom_site_fract_z
Si Si1 0.149376 0.875838 0.688803
Si Si2 0.322408 0.066164 0.851248
Si Si3 0.024965 0.295273 0.753894
Si Si4 0.552586 0.638217 0.060710
Si Si5 0.720644 0.244917 0.221754
Si Si6 0.412328 0.730230 0.467051
Si Si7 0.298146 0.384795 0.968141
Si Si8 0.175991 0.010008 0.868314
O O1 0.050992 0.811143 0.738492
O O2 0.254571 0.770014 0.600447
O O3 0.276761 0.977873 0.506259
O O4 0.025092 0.938746 0.901266
O O5 0.473861 0.156792 0.652304
O O6 0.406414 0.944541 0.774465
O O7 0.214623 0.053192 0.904459
O O8 0.183632 0.111736 0.079156
O O9 0.114458 0.167471 0.653815
O O10 0.872045 0.314429 0.997158
O O11 0.448399 0.729032 0.132847
O O12 0.658605 0.687383 0.006091
O O13 0.687188 0.562942 0.852319
O O14 0.659823 0.317089 0.367002
O O15 0.805671 0.127675 0.153743
O O16 0.535791 0.630422 0.285376
#
# Coordination Sequence:
#
# PCOD8123502 Si02
#       8
#     4   4   4   4   4   4   4   4
#     4  11  22  39  58  87 126 151 192 249 286 348
#     4   9  17  34  52  81 118 144 178 233 293 347
#     4  10  23  36  55  85 119 156 196 232 286 350
#     4  11  19  34  61  87 115 148 189 246 310 343
#     4  11  19  35  57  89 118 149 193 245 289 354
#     4  11  21  36  58  88 118 151 195 241 292 349
#     4  11  23  38  58  88 116 163 194 231 301 356
#     4  10  18  31  57  89 115 145 178 247 317 328
#
# _framework density 20.507062000000001
#
# number of rings (size 3 to 8) (size 9 to 14) (size 15 to 20)
#    0.000    1.500    5.000    1.500    1.750    1.000 
#    0.000    0.625    0.000    0.750    0.000    0.000 
#    0.000    0.000    0.000    0.000    0.000    0.000 
#
# Total GULP energy -396553.379526 kJ/mol
# GULP energy per Si atom -12392.293110 kJ/mol
# Density = 2.046039 g / cm^3
# Si number density = 20.507062 Si / 1000 Ang^3
#
#
#
# Elastic Constant Matrix: (Units=GPa)
#
#
# Indices 1 2 3 4 5 6 
#
# 1 281.7732 -50.8565 23.0241 0.0000 -18.5858 0.0000
# 2 -50.8565 51.3699 30.0201 0.0000 14.2519 0.0000
# 3 23.0241 30.0201 137.4108 0.0000 20.2781 0.0000
# 4 0.0000 0.0000 0.0000 28.8137 0.0000 1.1078
# 5 -18.5858 14.2519 20.2781 0.0000 38.0188 0.0000
# 6 0.0000 0.0000 0.0000 1.1078 0.0000 19.0623
#
#
#
# Elastic Compliance Matrix: (Units=1/GPa)
#
#
# Indices 1 2 3 4 5 6 
#
# 1 0.004870 0.005758 -0.002287 0.000000 0.001442 0.000000
# 2 0.005758 0.030584 -0.006914 0.000000 -0.004962 0.000000
# 3 -0.002287 -0.006914 0.009719 0.000000 -0.003710 0.000000
# 4 0.000000 0.000000 0.000000 0.034783 0.000000 -0.002022
# 5 0.001442 -0.004962 -0.003710 0.000000 0.030847 0.000000
# 6 0.000000 0.000000 0.000000 -0.002022 0.000000 0.052577
#
#
# Mechanical properties :
#
#
# Convention : Reuss Voigt Hill
#
# Bulk Modulus (GPa) = 26.11887 52.76991 39.44439
# Shear Modulus (GPa) = 27.31817 48.40336 37.86077
#
# Velocity S-wave (km/s) = 3.65380 4.86359 4.30144
# Velocity P-wave (km/s) = 5.52852 7.57151 6.62919
#
# Compressibility (1/GPa) = 0.03828649
#
# Stress axis : x y z
#
# Youngs Moduli (GPa) = 205.33381 32.69670 102.89577
#
# Poissons Ratio (x) = -0.18826 0.23529
# Poissons Ratio (y) = -1.18225 0.71144
# Poissons Ratio (z) = 0.46954 0.22607
#
# Static dielectric constant tensor:
#      x y z
#    x 3.837910 0.000000 -0.117990 
#    y 0.000000 3.306250 0.000000 
#    z -0.117990 0.000000 4.143650 
# 
# 
# High freq. dielectric constant tensor:
#      x y z
#    x 1.811500 0.000000 -0.010750 
#    y 0.000000 1.747150 0.000000 
#    z -0.010750 0.000000 1.819210 
# 
# From -- ./inp_files/55568.got.cif
#   From: 2010.03.12/outbox.cif.g09.slc.cpg/sg14_28_cif.got.tgz:55568.got - 2010.03.31 13:35:05.
