data_PCOD8123306
_publ_section_title
;
Structure prediction by ZEFSAII (Michael W. Deem and Ramdas Pophale) SiO2 
 PCOD8123306
Probable space group: P 21/C
;
_chemical_formula_sum "Si O2"
_cell_formula_units_Z 28
_cell_length_a 15.484112
_cell_length_b 18.912706
_cell_length_c 8.942000
_cell_angle_alpha 90.000000
_cell_angle_beta 39.979635
_cell_angle_gamma 90.000000
_cell_volume 1682.511756
_symmetry_space_group_name_H-M "P 21/C"
_symmetry_group_IT_number 14
_symmetry_cell_setting 'monoclinic'
loop_
_space_group_symop_operation_xyz
x,y,z
-x,1/2+y,1/2-z
-x,-y,-z
x,1/2-y,1/2+z
loop_
_atom_site_type_symbol
_atom_site_label
_atom_site_fract_x
_atom_site_fract_y
_atom_site_fract_z
Si Si1 0.857391 0.488126 0.766356
Si Si2 0.858762 0.932813 0.828488
Si Si3 0.654733 0.488444 0.765842
Si Si4 0.948024 0.344946 0.765680
Si Si5 0.159863 0.742476 0.819556
Si Si6 0.040913 0.070927 0.619199
Si Si7 0.777632 0.346482 0.524881
O O1 0.736727 0.496897 0.810508
O O2 0.849285 0.409226 0.847566
O O3 0.847468 0.550543 0.903793
O O4 0.000000 0.500000 0.500000
O O5 0.875013 0.903679 0.637998
O O6 0.904418 0.875924 0.893635
O O7 0.706958 0.954647 0.073543
O O8 0.953766 0.000912 0.710317
O O9 0.675669 0.411256 0.667040
O O10 0.500000 0.500000 0.000000
O O11 0.951504 0.284808 0.633068
O O12 0.902966 0.313556 0.984368
O O13 0.247331 0.799340 0.794731
O O14 0.255816 0.699292 0.578561
O O15 0.936509 0.131578 0.809747
#
# Coordination Sequence:
#
# PCOD8123306 Si02
#       7
#     4   4   4   4   4   4   4
#     4  11  17  31  54  79 102 133 173 225 272 305
#     4   9  17  30  50  74 106 130 163 219 267 300
#     4  11  22  35  53  77 105 145 181 221 263 316
#     4  10  17  29  48  81 106 130 166 214 271 305
#     4  10  19  27  50  83 108 132 165 226 254 323
#     4   9  16  28  52  77 102 126 163 220 271 300
#     4  10  18  32  50  82 105 129 176 213 271 311
#
# _framework density 16.641786
#
# number of rings (size 3 to 8) (size 9 to 14) (size 15 to 20)
#    0.000    2.000    7.143    0.000    2.000    0.000 
#    0.000    0.714    0.000    1.714    0.000    0.000 
#    0.000    0.000    0.000    0.000    0.000    0.000 
#
# Total GULP energy -346915.236131 kJ/mol
# GULP energy per Si atom -12389.829862 kJ/mol
# Density = 1.660391 g / cm^3
# Si number density = 16.641786 Si / 1000 Ang^3
#
#
#
# Elastic Constant Matrix: (Units=GPa)
#
#
# Indices 1 2 3 4 5 6 
#
# 1 83.4410 31.0636 54.5232 0.0000 11.2702 0.0000
# 2 31.0636 72.1877 39.6574 0.0000 5.2860 0.0000
# 3 54.5232 39.6574 99.1613 0.0000 0.9420 0.0000
# 4 0.0000 0.0000 0.0000 23.4760 0.0000 14.3039
# 5 11.2702 5.2860 0.9420 0.0000 28.4177 0.0000
# 6 0.0000 0.0000 0.0000 14.3039 0.0000 29.8589
#
#
#
# Elastic Compliance Matrix: (Units=1/GPa)
#
#
# Indices 1 2 3 4 5 6 
#
# 1 0.020659 -0.002756 -0.010187 0.000000 -0.007343 0.000000
# 2 -0.002756 0.018392 -0.005820 0.000000 -0.002135 0.000000
# 3 -0.010187 -0.005820 0.017971 0.000000 0.004527 0.000000
# 4 0.000000 0.000000 0.000000 0.060155 0.000000 -0.028817
# 5 -0.007343 -0.002135 0.004527 0.000000 0.038349 0.000000
# 6 0.000000 0.000000 0.000000 -0.028817 0.000000 0.047296
#
#
# Mechanical properties :
#
#
# Convention : Reuss Voigt Hill
#
# Bulk Modulus (GPa) = 51.29356 56.14204 53.71780
# Shear Modulus (GPa) = 20.25551 24.98689 22.62120
#
# Velocity S-wave (km/s) = 3.49255 3.87907 3.69087
# Velocity P-wave (km/s) = 6.86680 7.33973 7.10720
#
# Compressibility (1/GPa) = 0.01949563
#
# Stress axis : x y z
#
# Youngs Moduli (GPa) = 48.40518 54.37049 55.64623
#
# Poissons Ratio (x) = 0.14983 0.56689
# Poissons Ratio (y) = 0.13339 0.32387
# Poissons Ratio (z) = 0.49312 0.31644
#
# Static dielectric constant tensor:
#      x y z
#    x 3.552360 0.000000 0.622470 
#    y 0.000000 3.370860 0.000000 
#    z 0.622470 0.000000 2.998740 
# 
# 
# High freq. dielectric constant tensor:
#      x y z
#    x 1.625150 0.000000 0.053300 
#    y 0.000000 1.648090 0.000000 
#    z 0.053300 0.000000 1.602140 
# 
# From -- ./inp_files/13989.got.cif
#   From: 2010.03.12/outbox.cif.g09.slc.cpg/sg14_7_cif.got.tgz:13989.got - 2010.03.31 13:35:05.
