data_PCOD8123921
_publ_section_title
;
Structure prediction by ZEFSAII (Michael W. Deem and Ramdas Pophale) SiO2 
 PCOD8123921
Probable space group: P 21/C
;
_chemical_formula_sum "Si O2"
_cell_formula_units_Z 24
_cell_length_a 10.158820
_cell_length_b 5.319025
_cell_length_c 26.494210
_cell_angle_alpha 90.000000
_cell_angle_beta 56.305946
_cell_angle_gamma 90.000000
_cell_volume 1191.120512
_symmetry_space_group_name_H-M "P 21/C"
_symmetry_group_IT_number 14
_symmetry_cell_setting 'monoclinic'
loop_
_space_group_symop_operation_xyz
x,y,z
-x,1/2+y,1/2-z
-x,-y,-z
x,1/2-y,1/2+z
loop_
_atom_site_type_symbol
_atom_site_label
_atom_site_fract_x
_atom_site_fract_y
_atom_site_fract_z
Si Si1 0.941371 0.381576 0.237653
Si Si2 0.185968 0.477733 0.971889
Si Si3 0.319064 0.186696 0.245521
Si Si4 0.359939 0.906310 0.337654
Si Si5 0.895791 0.424732 0.656998
Si Si6 0.882718 0.477629 0.477672
O O1 0.756334 0.469743 0.274298
O O2 0.982624 0.294849 0.171308
O O3 0.042504 0.631867 0.230648
O O4 0.288671 0.439179 0.899548
O O5 0.218494 0.236725 0.000878
O O6 0.000000 0.500000 0.000000
O O7 0.232587 0.736714 0.990765
O O8 0.467233 0.302142 0.184068
O O9 0.179217 0.384876 0.286456
O O10 0.384204 0.087879 0.285008
O O11 0.239896 0.681912 0.350579
O O12 0.024397 0.560047 0.594588
O O13 0.000000 0.500000 0.500000
#
# Coordination Sequence:
#
# PCOD8123921 Si02
#       6
#     4   4   4   4   4   4
#     4  11  24  43  59  82 115 158 216 251 284 348
#     4  10  19  32  49  76 123 155 187 221 274 370
#     4  11  22  35  58  90 123 161 188 246 308 366
#     4  11  21  32  54  90 130 154 185 233 311 381
#     4  11  21  36  60  86 124 154 192 248 302 353
#     4  10  19  32  52  80 117 152 193 229 285 357
#
# _framework density 20.149093000000001
#
# number of rings (size 3 to 8) (size 9 to 14) (size 15 to 20)
#    0.000    1.333    6.667    2.000    2.333    0.000 
#    0.000    0.000    0.000    0.000    0.000    7.000 
#    0.000    0.000    0.000    0.000    0.000    0.000 
#
# Total GULP energy -297374.337652 kJ/mol
# GULP energy per Si atom -12390.597402 kJ/mol
# Density = 2.010323 g / cm^3
# Si number density = 20.149093 Si / 1000 Ang^3
#
#
#
# Elastic Constant Matrix: (Units=GPa)
#
#
# Indices 1 2 3 4 5 6 
#
# 1 64.5662 31.0874 37.4582 0.0000 2.9773 0.0000
# 2 31.0874 144.8727 29.4085 0.0000 0.6992 0.0000
# 3 37.4582 29.4085 99.1382 0.0000 -9.9723 0.0000
# 4 0.0000 0.0000 0.0000 28.2924 0.0000 4.2015
# 5 2.9773 0.6992 -9.9723 0.0000 11.8836 0.0000
# 6 0.0000 0.0000 0.0000 4.2015 0.0000 27.8300
#
#
#
# Elastic Compliance Matrix: (Units=1/GPa)
#
#
# Indices 1 2 3 4 5 6 
#
# 1 0.022775 -0.002989 -0.009038 0.000000 -0.013115 0.000000
# 2 -0.002989 0.007804 -0.001263 0.000000 -0.000770 0.000000
# 3 -0.009038 -0.001263 0.015413 0.000000 0.015272 0.000000
# 4 0.000000 0.000000 0.000000 0.036156 0.000000 -0.005458
# 5 -0.013115 -0.000770 0.015272 0.000000 0.100297 0.000000
# 6 0.000000 0.000000 0.000000 -0.005458 0.000000 0.036756
#
#
# Mechanical properties :
#
#
# Convention : Reuss Voigt Hill
#
# Bulk Modulus (GPa) = 51.51486 56.05392 53.78439
# Shear Modulus (GPa) = 19.82143 27.64272 23.73208
#
# Velocity S-wave (km/s) = 3.13986 3.70795 3.43567
# Velocity P-wave (km/s) = 6.22634 6.79793 6.51840
#
# Compressibility (1/GPa) = 0.01941187
#
# Stress axis : x y z
#
# Youngs Moduli (GPa) = 43.90711 128.13647 64.88157
#
# Poissons Ratio (x) = 0.38304 0.58639
# Poissons Ratio (y) = 0.13125 0.08195
# Poissons Ratio (z) = 0.39683 0.16184
#
# Static dielectric constant tensor:
#      x y z
#    x 3.166990 0.000000 0.067610 
#    y 0.000000 2.983860 0.000000 
#    z 0.067610 0.000000 3.494410 
# 
# 
# High freq. dielectric constant tensor:
#      x y z
#    x 1.721900 0.000000 0.005730 
#    y 0.000000 1.817810 0.000000 
#    z 0.005730 0.000000 1.767730 
# 
# From -- ./inp_files/76833.got.cif
#   From: 2010.03.12/outbox.cif.g09.slc.cpg/sg14_39_cif.got.tgz:76833.got - 2010.03.31 13:35:05.
