data_PCOD8123068
_publ_section_title
;
Structure prediction by ZEFSAII (Michael W. Deem and Ramdas Pophale) SiO2 
 PCOD8123068
Probable space group: P 2/C
;
_chemical_formula_sum "Si O2"
_cell_formula_units_Z 16
_cell_length_a 13.531304
_cell_length_b 11.022469
_cell_length_c 15.451475
_cell_angle_alpha 90.000000
_cell_angle_beta 161.754967
_cell_angle_gamma 90.000000
_cell_volume 721.515811
_symmetry_space_group_name_H-M "P 2/C"
_symmetry_group_IT_number 13
_symmetry_cell_setting 'monoclinic'
loop_
_space_group_symop_operation_xyz
x,y,z
-x,y,1/2-z
-x,-y,-z
x,-y,1/2+z
loop_
_atom_site_type_symbol
_atom_site_label
_atom_site_fract_x
_atom_site_fract_y
_atom_site_fract_z
Si Si1 0.324361 0.372410 0.845908
Si Si2 0.377310 0.713644 0.741558
Si Si3 0.361245 0.016208 0.289130
Si Si4 0.629698 0.777382 0.446591
O O1 0.512508 0.295559 0.931900
O O2 0.950377 0.360872 0.511863
O O3 0.500000 0.500000 0.000000
O O4 0.355952 0.319511 0.967609
O O5 0.500000 0.674733 0.750000
O O6 0.374784 0.857614 0.749650
O O7 0.500000 0.000000 0.500000
O O8 0.516548 0.916202 0.356627
O O9 0.000000 0.000000 0.000000
O O10 0.500000 0.718194 0.250000
O O11 0.000000 0.771247 0.750000
#
# Coordination Sequence:
#
# PCOD8123068 Si02
#       4
#     4   4   4   4
#     4  12  27  48  70 101 144 190 242 296 346 418
#     4  12  25  46  74 104 140 187 237 293 362 425
#     4  12  22  43  72 101 145 183 222 292 363 423
#     4  12  25  43  71 104 143 186 236 289 362 429
#
# _framework density 22.175538
#
# number of rings (size 3 to 8) (size 9 to 14) (size 15 to 20)
#    0.000    0.000    5.000    5.250    0.000    5.000 
#    0.000    0.000    0.000    0.000    0.000    0.000 
#    0.000    0.000    0.000    0.000    0.000    0.000 
#
# Total GULP energy -198260.540474 kJ/mol
# GULP energy per Si atom -12391.283780 kJ/mol
# Density = 2.212507 g / cm^3
# Si number density = 22.175538 Si / 1000 Ang^3
#
#
#
# Elastic Constant Matrix: (Units=GPa)
#
#
# Indices 1 2 3 4 5 6 
#
# 1 145.2274 14.5060 36.5847 0.0000 -8.6704 0.0000
# 2 14.5060 102.4781 3.9126 0.0000 2.7744 0.0000
# 3 36.5847 3.9126 145.8769 0.0000 -1.5691 0.0000
# 4 0.0000 0.0000 0.0000 39.7127 0.0000 -13.8998
# 5 -8.6704 2.7744 -1.5691 0.0000 45.8604 0.0000
# 6 0.0000 0.0000 0.0000 -13.8998 0.0000 -7.2617
#
#
#
# Elastic Compliance Matrix: (Units=1/GPa)
#
#
# Indices 1 2 3 4 5 6 
#
# 1 0.007540 -0.001035 -0.001848 0.000000 0.001425 0.000000
# 2 -0.001035 0.009927 -0.000015 0.000000 -0.000797 0.000000
# 3 -0.001848 -0.000015 0.007318 0.000000 -0.000098 0.000000
# 4 0.000000 0.000000 0.000000 0.015079 0.000000 -0.028863
# 5 0.001425 -0.000797 -0.000098 0.000000 0.022120 0.000000
# 6 0.000000 0.000000 0.000000 -0.028863 0.000000 -0.082462
#
#
# Mechanical properties :
#
#
# Convention : Reuss Voigt Hill
#
# Bulk Modulus (GPa) = 52.66510 55.95435 54.30973
# Shear Modulus (GPa) = -598.54007 38.23421 -280.15293
#
# Velocity S-wave (km/s) = -16.44676 4.15681 -11.25204
# Velocity P-wave (km/s) = 18.35376 6.95169 12.01113
#
# Compressibility (1/GPa) = 0.01898791
#
# Stress axis : x y z
#
# Youngs Moduli (GPa) = 132.63100 100.73657 136.65196
#
# Poissons Ratio (x) = 0.10429 0.25251
# Poissons Ratio (y) = 0.13731 0.00207
# Poissons Ratio (z) = 0.24508 0.00153
#
# Static dielectric constant tensor:
#      x y z
#    x 4.364840 0.000000 -0.359700 
#    y 0.000000 4.194420 0.000000 
#    z -0.359700 0.000000 4.345420 
# 
# 
# High freq. dielectric constant tensor:
#      x y z
#    x 1.894450 0.000000 -0.009390 
#    y 0.000000 1.873360 0.000000 
#    z -0.009390 0.000000 1.891840 
# 
# From -- ./inp_files/25536.got.cif
#   From: 2010.06.25/outbox.cif.g09.slc.cpg/sg13_13_cif.got.tgz:25536.got - 2010.06.28 04:50:58.
