data_PCOD8123333
_publ_section_title
;
Structure prediction by ZEFSAII (Michael W. Deem and Ramdas Pophale) SiO2 
 PCOD8123333
Probable space group: P 21/C
;
_chemical_formula_sum "Si O2"
_cell_formula_units_Z 32
_cell_length_a 16.688035
_cell_length_b 12.655271
_cell_length_c 13.935197
_cell_angle_alpha 90.000000
_cell_angle_beta 35.670025
_cell_angle_gamma 90.000000
_cell_volume 1716.109244
_symmetry_space_group_name_H-M "P 21/C"
_symmetry_group_IT_number 14
_symmetry_cell_setting 'monoclinic'
loop_
_space_group_symop_operation_xyz
x,y,z
-x,1/2+y,1/2-z
-x,-y,-z
x,1/2-y,1/2+z
loop_
_atom_site_type_symbol
_atom_site_label
_atom_site_fract_x
_atom_site_fract_y
_atom_site_fract_z
Si Si1 0.027102 0.502076 0.231249
Si Si2 0.649060 0.389407 0.897537
Si Si3 0.765507 0.316131 0.972017
Si Si4 0.834916 0.258229 0.097371
Si Si5 0.131344 0.198853 0.726114
Si Si6 0.846268 0.829836 0.981541
Si Si7 0.929447 0.164810 0.687943
Si Si8 0.345167 0.368318 0.165327
O O1 0.112098 0.604734 0.120801
O O2 0.121169 0.421087 0.198547
O O3 0.902888 0.549883 0.415568
O O4 0.977330 0.448216 0.180684
O O5 0.657149 0.371873 0.006081
O O6 0.776589 0.335842 0.719934
O O7 0.663502 0.510986 0.858366
O O8 0.505555 0.337023 0.003475
O O9 0.818258 0.208572 0.871860
O O10 0.721294 0.286219 0.124885
O O11 0.863956 0.352610 0.145799
O O12 0.979032 0.226415 0.909525
O O13 0.182860 0.278558 0.593793
O O14 0.250194 0.204011 0.689964
O O15 0.705782 0.846266 0.176910
O O16 0.949230 0.752261 0.939417
#
# Coordination Sequence:
#
# PCOD8123333 Si02
#       8
#     4   4   4   4   4   4   4   4
#     4  10  17  32  52  83 116 133 173 234 270 323
#     4  10  24  37  55  83 107 150 192 223 273 326
#     4  10  19  34  53  80 112 140 183 224 275 326
#     4  11  19  35  56  82 113 138 182 229 275 332
#     4  11  20  33  58  87 110 140 182 229 282 318
#     4  10  20  33  55  85 113 141 180 227 280 319
#     4   9  19  30  51  86 108 139 181 216 285 330
#     4  11  22  38  57  79 111 147 190 228 270 327
#
# _framework density 18.646832
#
# number of rings (size 3 to 8) (size 9 to 14) (size 15 to 20)
#    0.000    1.750    6.250    0.750    0.000    2.500 
#    0.000    0.000    0.000    0.000    0.000    6.125 
#    0.000    0.000    0.000    0.000    0.000    0.000 
#
# Total GULP energy -396443.646082 kJ/mol
# GULP energy per Si atom -12388.863940 kJ/mol
# Density = 1.860439 g / cm^3
# Si number density = 18.646832 Si / 1000 Ang^3
#
#
#
# Elastic Constant Matrix: (Units=GPa)
#
#
# Indices 1 2 3 4 5 6 
#
# 1 132.5979 28.1774 51.5910 0.0000 17.3926 0.0000
# 2 28.1774 48.6974 14.1806 0.0000 3.7080 0.0000
# 3 51.5910 14.1806 64.6843 0.0000 0.9644 0.0000
# 4 0.0000 0.0000 0.0000 13.0226 0.0000 2.8470
# 5 17.3926 3.7080 0.9644 0.0000 25.9654 0.0000
# 6 0.0000 0.0000 0.0000 2.8470 0.0000 25.6874
#
#
#
# Elastic Compliance Matrix: (Units=1/GPa)
#
#
# Indices 1 2 3 4 5 6 
#
# 1 0.013148 -0.004263 -0.009435 0.000000 -0.007848 0.000000
# 2 -0.004263 0.023546 -0.001756 0.000000 -0.000442 0.000000
# 3 -0.009435 -0.001756 0.023285 0.000000 0.005706 0.000000
# 4 0.000000 0.000000 0.000000 0.078697 0.000000 -0.008722
# 5 -0.007848 -0.000442 0.005706 0.000000 0.043621 0.000000
# 6 0.000000 0.000000 0.000000 -0.008722 0.000000 0.039896
#
#
# Mechanical properties :
#
#
# Convention : Reuss Voigt Hill
#
# Bulk Modulus (GPa) = 34.39694 48.20863 41.30279
# Shear Modulus (GPa) = 19.02667 23.07045 21.04856
#
# Velocity S-wave (km/s) = 3.19779 3.52125 3.36341
# Velocity P-wave (km/s) = 5.66754 6.51474 6.10585
#
# Compressibility (1/GPa) = 0.02907235
#
# Stress axis : x y z
#
# Youngs Moduli (GPa) = 76.05915 42.46952 42.94683
#
# Poissons Ratio (x) = 0.18103 0.40520
# Poissons Ratio (y) = 0.32421 0.07540
# Poissons Ratio (z) = 0.71761 0.07456
#
# Static dielectric constant tensor:
#      x y z
#    x 3.741900 0.000000 0.157410 
#    y 0.000000 3.252830 0.000000 
#    z 0.157410 0.000000 3.240150 
# 
# 
# High freq. dielectric constant tensor:
#      x y z
#    x 1.734540 0.000000 0.018240 
#    y 0.000000 1.711030 0.000000 
#    z 0.018240 0.000000 1.693830 
# 
# From -- ./inp_files/48985.got.cif
#   From: 2010.03.12/outbox.cif.g09.slc.cpg/sg14_25_cif.got.tgz:48985.got - 2010.03.31 13:35:05.
