data_PCOD8123733
_publ_section_title
;
Structure prediction by ZEFSAII (Michael W. Deem and Ramdas Pophale) SiO2 
 PCOD8123733
Probable space group: P 21/C
;
_chemical_formula_sum "Si O2"
_cell_formula_units_Z 32
_cell_length_a 19.452568
_cell_length_b 8.110645
_cell_length_c 14.755129
_cell_angle_alpha 90.000000
_cell_angle_beta 45.000434
_cell_angle_gamma 90.000000
_cell_volume 1646.128134
_symmetry_space_group_name_H-M "P 21/C"
_symmetry_group_IT_number 14
_symmetry_cell_setting 'monoclinic'
loop_
_space_group_symop_operation_xyz
x,y,z
-x,1/2+y,1/2-z
-x,-y,-z
x,1/2-y,1/2+z
loop_
_atom_site_type_symbol
_atom_site_label
_atom_site_fract_x
_atom_site_fract_y
_atom_site_fract_z
Si Si1 0.306868 0.093133 0.187478
Si Si2 0.350076 0.759480 0.239280
Si Si3 0.547021 0.860333 0.519131
Si Si4 0.845395 0.852447 0.134391
Si Si5 0.956142 0.319983 0.035450
Si Si6 0.168144 0.639968 0.490082
Si Si7 0.191643 0.632728 0.666518
Si Si8 0.281682 0.560464 0.127679
O O1 0.399170 0.212019 0.085051
O O2 0.220106 0.189844 0.319300
O O3 0.342662 0.951590 0.221621
O O4 0.260543 0.015597 0.137801
O O5 0.278416 0.711461 0.387907
O O6 0.318877 0.649133 0.183657
O O7 0.462335 0.717763 0.160573
O O8 0.500000 0.000000 0.500000
O O9 0.631860 0.951093 0.497762
O O10 0.835611 0.966825 0.056730
O O11 0.808493 0.942292 0.260654
O O12 0.958475 0.812188 0.037988
O O13 0.900355 0.278366 0.993528
O O14 0.882405 0.305505 0.187424
O O15 0.000000 0.500000 0.000000
O O16 0.138101 0.593535 0.621543
O O17 0.252776 0.797695 0.584644
#
# Coordination Sequence:
#
# PCOD8123733 Si02
#       8
#     4   4   4   4   4   4   4   4
#     4  10  18  36  58  84 123 153 191 251 297 344
#     4   9  16  34  55  84 115 152 193 238 291 348
#     4   9  17  30  60  90 109 154 204 230 293 361
#     4  10  19  37  61  82 115 157 191 243 293 344
#     4  12  22  41  61  84 121 156 197 245 292 347
#     4  11  23  38  61  88 119 155 202 241 297 354
#     4  11  22  39  59  87 123 156 195 247 295 351
#     4   8  17  34  56  82 117 149 187 242 291 341
#
# _framework density 19.439556
#
# number of rings (size 3 to 8) (size 9 to 14) (size 15 to 20)
#    0.000    2.000    5.000    1.500    0.000    1.000 
#    0.000    5.000    0.000    0.000    0.000    0.000 
#    0.000    0.000    0.000    0.000    0.000    0.000 
#
# Total GULP energy -396431.582352 kJ/mol
# GULP energy per Si atom -12388.486948 kJ/mol
# Density = 1.939531 g / cm^3
# Si number density = 19.439556 Si / 1000 Ang^3
#
#
#
# Elastic Constant Matrix: (Units=GPa)
#
#
# Indices 1 2 3 4 5 6 
#
# 1 76.5143 44.0825 51.0053 0.0000 -3.9622 0.0000
# 2 44.0825 126.5534 31.0910 0.0000 -12.2156 0.0000
# 3 51.0053 31.0910 61.3319 0.0000 -17.9255 0.0000
# 4 0.0000 0.0000 0.0000 29.5880 0.0000 -15.2826
# 5 -3.9622 -12.2156 -17.9255 0.0000 34.8890 0.0000
# 6 0.0000 0.0000 0.0000 -15.2826 0.0000 30.9782
#
#
#
# Elastic Compliance Matrix: (Units=1/GPa)
#
#
# Indices 1 2 3 4 5 6 
#
# 1 0.037515 -0.006582 -0.032112 0.000000 -0.014543 0.000000
# 2 -0.006582 0.010208 0.001324 0.000000 0.003507 0.000000
# 3 -0.032112 0.001324 0.048725 0.000000 0.021851 0.000000
# 4 0.000000 0.000000 0.000000 0.045354 0.000000 0.022375
# 5 -0.014543 0.003507 0.021851 0.000000 0.039465 0.000000
# 6 0.000000 0.000000 0.000000 0.022375 0.000000 0.043319
#
#
# Mechanical properties :
#
#
# Convention : Reuss Voigt Hill
#
# Bulk Modulus (GPa) = 46.06667 57.41747 51.74207
# Shear Modulus (GPa) = 16.30988 28.30578 22.30783
#
# Velocity S-wave (km/s) = 2.89970 3.82002 3.39122
# Velocity P-wave (km/s) = 5.91269 7.00409 6.48140
#
# Compressibility (1/GPa) = 0.02170767
#
# Stress axis : x y z
#
# Youngs Moduli (GPa) = 26.65606 97.96467 20.52329
#
# Poissons Ratio (x) = 0.64483 0.65905
# Poissons Ratio (y) = 0.17546 -0.02718
# Poissons Ratio (z) = 0.85598 -0.12974
#
# Static dielectric constant tensor:
#      x y z
#    x 3.567230 0.000000 -0.712200 
#    y 0.000000 4.005960 0.000000 
#    z -0.712200 0.000000 3.911780 
# 
# 
# High freq. dielectric constant tensor:
#      x y z
#    x 1.723880 0.000000 -0.039750 
#    y 0.000000 1.781410 0.000000 
#    z -0.039750 0.000000 1.743340 
# 
# From -- ./inp_files/48409.got.cif
#   From: 2010.03.12/outbox.cif.g09.slc.cpg/sg14_25_cif.got.tgz:48409.got - 2010.03.31 13:35:05.
