data_PCOD8123693
_publ_section_title
;
Structure prediction by ZEFSAII (Michael W. Deem and Ramdas Pophale) SiO2 
 PCOD8123693
Probable space group: P 21/C
;
_chemical_formula_sum "Si O2"
_cell_formula_units_Z 28
_cell_length_a 9.908174
_cell_length_b 13.807220
_cell_length_c 21.867842
_cell_angle_alpha 90.000000
_cell_angle_beta 152.776133
_cell_angle_gamma 90.000000
_cell_volume 1368.569568
_symmetry_space_group_name_H-M "P 21/C"
_symmetry_group_IT_number 14
_symmetry_cell_setting 'monoclinic'
loop_
_space_group_symop_operation_xyz
x,y,z
-x,1/2+y,1/2-z
-x,-y,-z
x,1/2-y,1/2+z
loop_
_atom_site_type_symbol
_atom_site_label
_atom_site_fract_x
_atom_site_fract_y
_atom_site_fract_z
Si Si1 0.906987 0.217982 0.298497
Si Si2 0.927351 0.623842 0.730663
Si Si3 0.874443 0.569835 0.207042
Si Si4 0.064515 0.832750 0.974791
Si Si5 0.256157 0.326233 0.531234
Si Si6 0.680249 0.476345 0.508355
Si Si7 0.638263 0.780839 0.695691
O O1 0.568652 0.209790 0.182411
O O2 0.951077 0.309596 0.273123
O O3 0.997961 0.120231 0.301587
O O4 0.102785 0.233756 0.437504
O O5 0.644916 0.555615 0.597568
O O6 0.837301 0.689381 0.751932
O O7 0.187551 0.541072 0.842124
O O8 0.615236 0.635467 0.133030
O O9 0.093739 0.568654 0.352897
O O10 0.944343 0.858903 0.993117
O O11 0.787321 0.811453 0.819115
O O12 0.252370 0.925157 0.029051
O O13 0.297480 0.744195 0.070814
O O14 0.293354 0.409738 0.495020
#
# Coordination Sequence:
#
# PCOD8123693 Si02
#       7
#     4   4   4   4   4   4   4
#     4  11  23  34  60  92 115 155 180 248 302 333
#     4  10  18  35  59  87 116 143 192 241 287 345
#     4  10  18  35  59  87 116 143 192 241 287 345
#     4  10  21  39  58  85 115 159 197 239 277 341
#     4  12  22  38  60  86 120 150 201 237 285 341
#     4  10  19  36  65  84 110 155 205 243 273 337
#     4   9  21  36  60  86 115 153 190 240 296 333
#
# _framework density 20.459316999999999
#
# number of rings (size 3 to 8) (size 9 to 14) (size 15 to 20)
#    0.000    1.714    2.857    2.571    0.000    3.429 
#    0.000    2.857    0.000    1.714    0.000    0.000 
#    0.000    0.000    0.000    0.000    0.000    0.000 
#
# Total GULP energy -346903.794183 kJ/mol
# GULP energy per Si atom -12389.421221 kJ/mol
# Density = 2.041275 g / cm^3
# Si number density = 20.459317 Si / 1000 Ang^3
#
#
#
# Elastic Constant Matrix: (Units=GPa)
#
#
# Indices 1 2 3 4 5 6 
#
# 1 99.3010 11.9130 -4.5549 0.0000 13.6279 0.0000
# 2 11.9130 79.5455 -19.5226 0.0000 0.3131 0.0000
# 3 -4.5549 -19.5226 20.2553 0.0000 4.5886 0.0000
# 4 0.0000 0.0000 0.0000 23.4257 0.0000 1.0025
# 5 13.6279 0.3131 4.5886 0.0000 28.5657 0.0000
# 6 0.0000 0.0000 0.0000 1.0025 0.0000 28.8901
#
#
#
# Elastic Compliance Matrix: (Units=1/GPa)
#
#
# Indices 1 2 3 4 5 6 
#
# 1 0.011105 -0.000927 0.002908 0.000000 -0.005755 0.000000
# 2 -0.000927 0.016768 0.016495 0.000000 -0.002391 0.000000
# 3 0.002908 0.016495 0.068780 0.000000 -0.012616 0.000000
# 4 0.000000 0.000000 0.000000 0.042752 0.000000 -0.001484
# 5 -0.005755 -0.002391 -0.012616 0.000000 0.039805 0.000000
# 6 0.000000 0.000000 0.000000 -0.001484 0.000000 0.034665
#
#
# Mechanical properties :
#
#
# Convention : Reuss Voigt Hill
#
# Bulk Modulus (GPa) = 7.48485 19.41917 13.45201
# Shear Modulus (GPa) = 22.57760 30.26072 26.41916
#
# Velocity S-wave (km/s) = 3.32556 3.85004 3.59737
# Velocity P-wave (km/s) = 4.29093 5.41072 4.88303
#
# Compressibility (1/GPa) = 0.13360322
#
# Stress axis : x y z
#
# Youngs Moduli (GPa) = 90.05188 59.63778 14.53913
#
# Poissons Ratio (x) = 0.05527 -0.04227
# Poissons Ratio (y) = 0.08346 -0.23982
# Poissons Ratio (z) = -0.26183 -0.98371
#
# Static dielectric constant tensor:
#      x y z
#    x 3.715110 0.000000 0.078420 
#    y 0.000000 4.021740 0.000000 
#    z 0.078420 0.000000 3.534790 
# 
# 
# High freq. dielectric constant tensor:
#      x y z
#    x 1.805930 0.000000 0.003950 
#    y 0.000000 1.807410 0.000000 
#    z 0.003950 0.000000 1.774870 
# 
# From -- ./inp_files/19124.got.cif
#   From: 2010.03.12/outbox.cif.g09.slc.cpg/sg14_10_cif.got.tgz:19124.got - 2010.03.31 13:35:05.
