data_PCOD8123207
_publ_section_title
;
Structure prediction by ZEFSAII (Michael W. Deem and Ramdas Pophale) SiO2 
 PCOD8123207
Probable space group: P 2/C
;
_chemical_formula_sum "Si O2"
_cell_formula_units_Z 12
_cell_length_a 8.565482
_cell_length_b 4.860902
_cell_length_c 19.287122
_cell_angle_alpha 90.000000
_cell_angle_beta 148.580019
_cell_angle_gamma 90.000000
_cell_volume 418.629544
_symmetry_space_group_name_H-M "P 2/C"
_symmetry_group_IT_number 13
_symmetry_cell_setting 'monoclinic'
loop_
_space_group_symop_operation_xyz
x,y,z
-x,y,1/2-z
-x,-y,-z
x,-y,1/2+z
loop_
_atom_site_type_symbol
_atom_site_label
_atom_site_fract_x
_atom_site_fract_y
_atom_site_fract_z
Si Si1 0.763233 0.542252 0.043120
Si Si2 0.684952 0.155776 0.890411
Si Si3 0.098638 0.043707 0.213567
O O1 0.903477 0.849139 0.087692
O O2 0.500000 0.500000 0.000000
O O3 0.709733 0.437594 0.944083
O O4 0.031608 0.360395 0.175563
O O5 0.500000 0.224325 0.750000
O O6 0.457995 0.960223 0.847261
O O7 0.000000 0.000000 0.000000
O O8 0.000000 0.931975 0.250000
#
# Coordination Sequence:
#
# PCOD8123207 Si02
#       3
#     4   4   4
#     4  12  27  51  88 127 171 231 297 356 431 531
#     4  12  28  56  85 132 178 232 286 371 443 516
#     4  12  27  51  87 128 170 232 296 359 430 527
#
# _framework density 28.664961999999999
#
# number of rings (size 3 to 8) (size 9 to 14) (size 15 to 20)
#    0.000    0.000    6.667    2.000    0.000    1.333 
#    6.000    0.000    0.000    0.000    0.000    0.000 
#    0.000    0.000    0.000    0.000    0.000    0.000 
#
# Total GULP energy -148703.564371 kJ/mol
# GULP energy per Si atom -12391.963698 kJ/mol
# Density = 2.859972 g / cm^3
# Si number density = 28.664962 Si / 1000 Ang^3
#
#
#
# Elastic Constant Matrix: (Units=GPa)
#
#
# Indices 1 2 3 4 5 6 
#
# 1 203.1360 14.2640 85.8711 0.0000 12.7966 0.0000
# 2 14.2640 65.1385 19.9081 0.0000 17.8291 0.0000
# 3 85.8711 19.9081 193.6086 0.0000 14.3897 0.0000
# 4 0.0000 0.0000 0.0000 40.3646 0.0000 2.5499
# 5 12.7966 17.8291 14.3897 0.0000 70.6837 0.0000
# 6 0.0000 0.0000 0.0000 2.5499 0.0000 35.6255
#
#
#
# Elastic Compliance Matrix: (Units=1/GPa)
#
#
# Indices 1 2 3 4 5 6 
#
# 1 0.006090 -0.000404 -0.002625 0.000000 -0.000466 0.000000
# 2 -0.000404 0.016904 -0.001267 0.000000 -0.003933 0.000000
# 3 -0.002625 -0.001267 0.006499 0.000000 -0.000528 0.000000
# 4 0.000000 0.000000 0.000000 0.024887 0.000000 -0.001781
# 5 -0.000466 -0.003933 -0.000528 0.000000 0.015332 0.000000
# 6 0.000000 0.000000 0.000000 -0.001781 0.000000 0.028197
#
#
# Mechanical properties :
#
#
# Convention : Reuss Voigt Hill
#
# Bulk Modulus (GPa) = 47.84250 77.99659 62.91955
# Shear Modulus (GPa) = 44.06572 52.12408 48.09490
#
# Velocity S-wave (km/s) = 3.92505 4.26888 4.10057
# Velocity P-wave (km/s) = 6.10474 7.18099 6.66463
#
# Compressibility (1/GPa) = 0.02090192
#
# Stress axis : x y z
#
# Youngs Moduli (GPa) = 164.19824 59.15784 153.87332
#
# Poissons Ratio (x) = 0.02388 0.40392
# Poissons Ratio (y) = 0.06629 0.19493
# Poissons Ratio (z) = 0.43102 0.07494
#
# Static dielectric constant tensor:
#      x y z
#    x 6.257610 0.000000 -0.301420 
#    y 0.000000 4.970710 0.000000 
#    z -0.301420 0.000000 5.820710 
# 
# 
# High freq. dielectric constant tensor:
#      x y z
#    x 2.194470 0.000000 -0.002700 
#    y 0.000000 2.154580 0.000000 
#    z -0.002700 0.000000 2.193900 
# 
# From -- ./inp_files/10433.got.cif
#   From: 2010.06.25/outbox.cif.g09.slc.cpg/sg13_6_cif.got.tgz:10433.got - 2010.06.28 04:50:58.
