data_PCOD8123709
_publ_section_title
;
Structure prediction by ZEFSAII (Michael W. Deem and Ramdas Pophale) SiO2 
 PCOD8123709
Probable space group: P 21/C
;
_chemical_formula_sum "Si O2"
_cell_formula_units_Z 28
_cell_length_a 22.601627
_cell_length_b 9.390045
_cell_length_c 9.688075
_cell_angle_alpha 90.000000
_cell_angle_beta 35.333782
_cell_angle_gamma 90.000000
_cell_volume 1189.123993
_symmetry_space_group_name_H-M "P 21/C"
_symmetry_group_IT_number 14
_symmetry_cell_setting 'monoclinic'
loop_
_space_group_symop_operation_xyz
x,y,z
-x,1/2+y,1/2-z
-x,-y,-z
x,1/2-y,1/2+z
loop_
_atom_site_type_symbol
_atom_site_label
_atom_site_fract_x
_atom_site_fract_y
_atom_site_fract_z
Si Si1 0.538131 0.888625 0.315147
Si Si2 0.006439 0.564692 0.317542
Si Si3 0.141020 0.607608 0.545754
Si Si4 0.557934 0.077202 0.009145
Si Si5 0.780240 0.419274 0.142940
Si Si6 0.240817 0.421677 0.546048
Si Si7 0.977439 0.806365 0.572732
O O1 0.472068 0.744486 0.421273
O O2 0.500000 0.000000 0.500000
O O3 0.652814 0.835246 0.141169
O O4 0.532723 0.982931 0.189182
O O5 0.916835 0.448545 0.480278
O O6 0.998973 0.645123 0.478627
O O7 0.994416 0.672637 0.205437
O O8 0.120173 0.491035 0.097219
O O9 0.182913 0.758463 0.430772
O O10 0.234908 0.504679 0.410243
O O11 0.057444 0.594824 0.832186
O O12 0.679109 0.065073 0.742757
O O13 0.500000 0.000000 0.000000
O O14 0.752933 0.455529 0.350816
O O15 0.140669 0.324456 0.750174
#
# Coordination Sequence:
#
# PCOD8123709 Si02
#       7
#     4   4   4   4   4   4   4
#     4  11  24  45  73  98 134 180 234 292 351 409
#     4  10  19  37  60  91 128 169 211 259 319 404
#     4  10  18  35  62  90 126 171 216 253 329 405
#     4  11  25  48  70 101 138 175 235 297 349 415
#     4  10  20  37  62  90 123 173 212 269 332 391
#     4  10  19  39  60  87 125 171 214 261 336 391
#     4  10  19  36  59  87 129 165 209 257 321 390
#
# _framework density 23.546745000000001
#
# number of rings (size 3 to 8) (size 9 to 14) (size 15 to 20)
#    0.000    1.714    2.857    2.571    0.000    1.143 
#   18.000    4.286    0.000    0.000    0.000    0.000 
#    0.000    0.000    0.000    0.000    0.000    0.000 
#
# Total GULP energy -346879.506409 kJ/mol
# GULP energy per Si atom -12388.553800 kJ/mol
# Density = 2.349315 g / cm^3
# Si number density = 23.546745 Si / 1000 Ang^3
#
#
#
# Elastic Constant Matrix: (Units=GPa)
#
#
# Indices 1 2 3 4 5 6 
#
# 1 138.7233 34.8937 66.3173 0.0000 -31.3885 0.0000
# 2 34.8937 68.5176 17.7964 0.0000 -7.6672 0.0000
# 3 66.3173 17.7964 88.9487 0.0000 -25.2821 0.0000
# 4 0.0000 0.0000 0.0000 35.1816 0.0000 -2.7033
# 5 -31.3885 -7.6672 -25.2821 0.0000 47.6764 0.0000
# 6 0.0000 0.0000 0.0000 -2.7033 0.0000 30.9158
#
#
#
# Elastic Compliance Matrix: (Units=1/GPa)
#
#
# Indices 1 2 3 4 5 6 
#
# 1 0.012705 -0.004082 -0.007612 0.000000 0.003672 0.000000
# 2 -0.004082 0.016746 -0.000360 0.000000 -0.000185 0.000000
# 3 -0.007612 -0.000360 0.018308 0.000000 0.004639 0.000000
# 4 0.000000 0.000000 0.000000 0.028616 0.000000 0.002502
# 5 0.003672 -0.000185 0.004639 0.000000 0.025822 0.000000
# 6 0.000000 0.000000 0.000000 0.002502 0.000000 0.032565
#
#
# Mechanical properties :
#
#
# Convention : Reuss Voigt Hill
#
# Bulk Modulus (GPa) = 42.27996 59.35605 50.81801
# Shear Modulus (GPa) = 29.98397 34.56690 32.27543
#
# Velocity S-wave (km/s) = 3.57232 3.83562 3.70631
# Velocity P-wave (km/s) = 5.91693 6.69914 6.32014
#
# Compressibility (1/GPa) = 0.02365186
#
# Stress axis : x y z
#
# Youngs Moduli (GPa) = 78.70745 59.71413 54.61950
#
# Poissons Ratio (x) = 0.24377 0.41578
# Poissons Ratio (y) = 0.32131 0.01964
# Poissons Ratio (z) = 0.59915 0.02147
#
# Static dielectric constant tensor:
#      x y z
#    x 4.618860 0.000000 -0.542800 
#    y 0.000000 4.207870 0.000000 
#    z -0.542800 0.000000 4.637520 
# 
# 
# High freq. dielectric constant tensor:
#      x y z
#    x 1.956400 0.000000 -0.016510 
#    y 0.000000 1.932800 0.000000 
#    z -0.016510 0.000000 1.917080 
# 
# From -- ./inp_files/36095.got.cif
#   From: 2010.03.12/outbox.cif.g09.slc.cpg/sg14_19_cif.got.tgz:36095.got - 2010.03.31 13:35:05.
