data_PCOD8123121
_publ_section_title
;
Structure prediction by ZEFSAII (Michael W. Deem and Ramdas Pophale) SiO2 
 PCOD8123121
Probable space group: P 2/C
;
_chemical_formula_sum "Si O2"
_cell_formula_units_Z 16
_cell_length_a 4.992336
_cell_length_b 10.298456
_cell_length_c 17.167505
_cell_angle_alpha 90.000000
_cell_angle_beta 124.934288
_cell_angle_gamma 90.000000
_cell_volume 723.595682
_symmetry_space_group_name_H-M "P 2/C"
_symmetry_group_IT_number 13
_symmetry_cell_setting 'monoclinic'
loop_
_space_group_symop_operation_xyz
x,y,z
-x,y,1/2-z
-x,-y,-z
x,-y,1/2+z
loop_
_atom_site_type_symbol
_atom_site_label
_atom_site_fract_x
_atom_site_fract_y
_atom_site_fract_z
Si Si1 0.394888 0.802842 0.147022
Si Si2 0.245064 0.592430 0.999036
Si Si3 0.883644 0.765808 0.813287
Si Si4 0.805376 0.962207 0.103443
O O1 0.500000 0.755733 0.250000
O O2 0.661892 0.906221 0.160527
O O3 0.028308 0.861495 0.091279
O O4 0.415713 0.682331 0.091890
O O5 0.055596 0.682328 0.907587
O O6 0.500000 0.500000 0.000000
O O7 0.000000 0.500000 0.000000
O O8 0.500000 0.748103 0.750000
O O9 0.000000 0.712450 0.750000
O O10 0.972495 0.915562 0.839633
O O11 0.500000 0.000000 0.000000
#
# Coordination Sequence:
#
# PCOD8123121 Si02
#       4
#     4   4   4   4
#     4  12  26  46  72 107 143 185 234 297 360 426
#     4  12  28  48  72  99 141 193 247 289 342 414
#     4  12  26  45  74 106 142 182 232 293 360 425
#     4  12  24  44  75 107 146 181 226 293 374 432
#
# _framework density 22.111794
#
# number of rings (size 3 to 8) (size 9 to 14) (size 15 to 20)
#    0.000    0.000    2.500    8.250    3.500    3.000 
#    0.000    0.000    0.000    0.000    0.000    0.000 
#    0.000    0.000    0.000    0.000    0.000    0.000 
#
# Total GULP energy -198491.597017 kJ/mol
# GULP energy per Si atom -12405.724814 kJ/mol
# Density = 2.206147 g / cm^3
# Si number density = 22.111794 Si / 1000 Ang^3
#
#
#
# Elastic Constant Matrix: (Units=GPa)
#
#
# Indices 1 2 3 4 5 6 
#
# 1 197.4993 72.9921 66.9749 0.0000 -3.4868 0.0000
# 2 72.9921 132.2064 79.0877 0.0000 -9.7423 0.0000
# 3 66.9749 79.0877 161.1384 0.0000 -13.6549 0.0000
# 4 0.0000 0.0000 0.0000 5.5905 0.0000 -15.3804
# 5 -3.4868 -9.7423 -13.6549 0.0000 45.6792 0.0000
# 6 0.0000 0.0000 0.0000 -15.3804 0.0000 54.0255
#
#
#
# Elastic Compliance Matrix: (Units=1/GPa)
#
#
# Indices 1 2 3 4 5 6 
#
# 1 0.006572 -0.002840 -0.001381 0.000000 -0.000517 0.000000
# 2 -0.002840 0.011959 -0.004608 0.000000 0.000956 0.000000
# 3 -0.001381 -0.004608 0.009182 0.000000 0.001657 0.000000
# 4 0.000000 0.000000 0.000000 0.825146 0.000000 0.234909
# 5 -0.000517 0.000956 0.001657 0.000000 0.022551 0.000000
# 6 0.000000 0.000000 0.000000 0.234909 0.000000 0.085385
#
#
# Mechanical properties :
#
#
# Convention : Reuss Voigt Hill
#
# Bulk Modulus (GPa) = 99.46392 103.21705 101.34048
# Shear Modulus (GPa) = 5.09265 39.17835 22.13550
#
# Velocity S-wave (km/s) = 1.51926 4.21388 3.16740
# Velocity P-wave (km/s) = 6.93956 8.39385 7.70111
#
# Compressibility (1/GPa) = 0.01005390
#
# Stress axis : x y z
#
# Youngs Moduli (GPa) = 152.15139 83.61779 108.90792
#
# Poissons Ratio (x) = 0.23750 0.15045
# Poissons Ratio (y) = 0.43216 0.50185
# Poissons Ratio (z) = 0.21019 0.38531
#
# Static dielectric constant tensor:
#      x y z
#    x 4.314990 0.000000 -0.337900 
#    y 0.000000 4.146500 0.000000 
#    z -0.337900 0.000000 3.641780 
# 
# 
# High freq. dielectric constant tensor:
#      x y z
#    x 1.898780 0.000000 -0.004120 
#    y 0.000000 1.869250 0.000000 
#    z -0.004120 0.000000 1.888730 
# 
# From -- ./inp_files/52832.got.cif
#   From: 2010.06.25/outbox.cif.g09.slc.cpg/sg13_27_cif.got.tgz:52832.got - 2010.06.28 04:50:58.
