data_PCOD8123458
_publ_section_title
;
Structure prediction by ZEFSAII (Michael W. Deem and Ramdas Pophale) SiO2 
 PCOD8123458
Probable space group: P 21/C
;
_chemical_formula_sum "Si O2"
_cell_formula_units_Z 32
_cell_length_a 32.444023
_cell_length_b 7.641175
_cell_length_c 22.611772
_cell_angle_alpha 90.000000
_cell_angle_beta 160.565614
_cell_angle_gamma 90.000000
_cell_volume 1865.166813
_symmetry_space_group_name_H-M "P 21/C"
_symmetry_group_IT_number 14
_symmetry_cell_setting 'monoclinic'
loop_
_space_group_symop_operation_xyz
x,y,z
-x,1/2+y,1/2-z
-x,-y,-z
x,1/2-y,1/2+z
loop_
_atom_site_type_symbol
_atom_site_label
_atom_site_fract_x
_atom_site_fract_y
_atom_site_fract_z
Si Si1 0.132330 0.637018 0.627785
Si Si2 0.639714 0.676086 0.232542
Si Si3 0.366309 0.621760 0.867136
Si Si4 0.888312 0.835482 0.132284
Si Si5 0.042195 0.969420 0.441259
Si Si6 0.956912 0.324114 0.366814
Si Si7 0.098389 0.935566 0.332448
Si Si8 0.274910 0.946427 0.675511
O O1 0.273404 0.643953 0.796171
O O2 0.049907 0.794316 0.490341
O O3 0.135303 0.649788 0.702804
O O4 0.071569 0.457016 0.524632
O O5 0.660879 0.561311 0.202249
O O6 0.745073 0.630493 0.423124
O O7 0.640573 0.882396 0.218328
O O8 0.506947 0.627205 0.081582
O O9 0.354087 0.782324 0.804553
O O10 0.912643 0.642402 0.189004
O O11 0.931266 0.962882 0.242913
O O12 0.968571 0.861620 0.181534
O O13 0.169698 0.001019 0.579494
O O14 0.014634 0.130320 0.447175
O O15 0.878672 0.353788 0.201075
O O16 0.212099 0.884892 0.529015
#
# Coordination Sequence:
#
# PCOD8123458 Si02
#       8
#     4   4   4   4   4   4   4   4
#     4  10  21  35  50  74 102 136 166 205 246 298
#     4  10  20  32  50  78  98 131 162 204 247 298
#     4  10  20  34  52  71 102 132 168 199 249 296
#     4  10  19  30  51  77 106 123 162 209 257 294
#     4  10  19  32  51  79 103 127 161 208 255 297
#     4  11  20  32  52  75 104 131 166 202 250 299
#     4  10  18  30  48  80 100 130 158 206 261 294
#     4   9  19  31  51  76 103 125 157 208 253 295
#
# _framework density 17.156642999999999
#
# number of rings (size 3 to 8) (size 9 to 14) (size 15 to 20)
#    0.000    2.000    1.250    4.500    5.250    0.000 
#    0.000    0.000    0.000    3.000    0.000    0.000 
#    0.000    0.000    0.000    0.000    0.000    0.000 
#
# Total GULP energy -396830.326323 kJ/mol
# GULP energy per Si atom -12400.947698 kJ/mol
# Density = 1.711759 g / cm^3
# Si number density = 17.156643 Si / 1000 Ang^3
#
#
#
# Elastic Constant Matrix: (Units=GPa)
#
#
# Indices 1 2 3 4 5 6 
#
# 1 98.1645 34.6352 43.2564 0.0000 -1.6238 0.0000
# 2 34.6352 75.7832 39.7633 0.0000 1.7520 0.0000
# 3 43.2564 39.7633 91.9596 0.0000 4.7092 0.0000
# 4 0.0000 0.0000 0.0000 35.7312 0.0000 -6.0273
# 5 -1.6238 1.7520 4.7092 0.0000 17.2398 0.0000
# 6 0.0000 0.0000 0.0000 -6.0273 0.0000 21.2977
#
#
#
# Elastic Compliance Matrix: (Units=1/GPa)
#
#
# Indices 1 2 3 4 5 6 
#
# 1 0.013764 -0.003728 -0.005018 0.000000 0.003046 0.000000
# 2 -0.003728 0.018079 -0.006036 0.000000 -0.000539 0.000000
# 3 -0.005018 -0.006036 0.016063 0.000000 -0.004247 0.000000
# 4 0.000000 0.000000 0.000000 0.029390 0.000000 0.008317
# 5 0.003046 -0.000539 -0.004247 0.000000 0.059507 0.000000
# 6 0.000000 0.000000 0.000000 0.008317 0.000000 0.049307
#
#
# Mechanical properties :
#
#
# Convention : Reuss Voigt Hill
#
# Bulk Modulus (GPa) = 54.52418 55.69078 55.10748
# Shear Modulus (GPa) = 22.54404 24.73723 23.64063
#
# Velocity S-wave (km/s) = 3.62886 3.80128 3.71607
# Velocity P-wave (km/s) = 7.02904 7.19701 7.11352
#
# Compressibility (1/GPa) = 0.01834049
#
# Stress axis : x y z
#
# Youngs Moduli (GPa) = 72.65304 55.31308 62.25679
#
# Poissons Ratio (x) = 0.20620 0.31244
# Poissons Ratio (y) = 0.27084 0.37579
# Poissons Ratio (z) = 0.36461 0.33388
#
# Static dielectric constant tensor:
#      x y z
#    x 2.992270 0.000000 -0.072670 
#    y 0.000000 3.358730 0.000000 
#    z -0.072670 0.000000 3.067130 
# 
# 
# High freq. dielectric constant tensor:
#      x y z
#    x 1.637560 0.000000 -0.008120 
#    y 0.000000 1.684190 0.000000 
#    z -0.008120 0.000000 1.645770 
# 
# From -- ./inp_files/68098.got.cif
#   From: 2010.03.12/outbox.cif.g09.slc.cpg/sg14_35_cif.got.tgz:68098.got - 2010.03.31 13:35:05.
