data_PCOD8123983
_publ_section_title
;
Structure prediction by ZEFSAII (Michael W. Deem and Ramdas Pophale) SiO2 
 PCOD8123983
Probable space group: P 21/C
;
_chemical_formula_sum "Si O2"
_cell_formula_units_Z 24
_cell_length_a 10.115184
_cell_length_b 27.342713
_cell_length_c 7.628486
_cell_angle_alpha 90.000000
_cell_angle_beta 29.330447
_cell_angle_gamma 90.000000
_cell_volume 1033.506313
_symmetry_space_group_name_H-M "P 21/C"
_symmetry_group_IT_number 14
_symmetry_cell_setting 'monoclinic'
loop_
_space_group_symop_operation_xyz
x,y,z
-x,1/2+y,1/2-z
-x,-y,-z
x,1/2-y,1/2+z
loop_
_atom_site_type_symbol
_atom_site_label
_atom_site_fract_x
_atom_site_fract_y
_atom_site_fract_z
Si Si1 0.953936 0.541747 0.413176
Si Si2 0.453956 0.458251 0.413153
Si Si3 0.287498 0.693952 0.751794
Si Si4 0.282694 0.143436 0.758037
Si Si5 0.212365 0.693940 0.248474
Si Si6 0.217419 0.356553 0.741777
O O1 0.796686 0.587013 0.685793
O O2 0.000000 0.500000 0.500000
O O3 0.749994 0.521370 0.500002
O O4 0.249988 0.558572 0.000014
O O5 0.500000 0.500000 0.500000
O O6 0.296735 0.412978 0.685719
O O7 0.249924 0.684138 0.000138
O O8 0.249942 0.750009 0.750157
O O9 0.592156 0.677209 0.356355
O O10 0.090355 0.659355 0.861983
O O11 0.092301 0.177195 0.856099
O O12 0.250057 0.155639 0.999902
O O13 0.590485 0.159331 0.361769
#
# Coordination Sequence:
#
# PCOD8123983 Si02
#       6
#     4   4   4   4   4   4
#     4  11  22  39  62  88 118 158 202 247 296 355
#     4  11  22  39  62  88 118 158 202 247 296 355
#     4  10  19  33  53  77 104 140 183 229 279 337
#     4   9  18  34  55  75 105 148 186 220 279 356
#     4  10  19  33  53  77 104 140 183 229 279 337
#     4   9  18  34  55  75 105 148 186 220 279 356
#
# _framework density 23.221920000000001
#
# number of rings (size 3 to 8) (size 9 to 14) (size 15 to 20)
#    0.000    2.000    0.000    7.000    0.000    0.000 
#    0.000    5.000    0.000    0.000    0.000    0.000 
#    0.000    0.000    0.000    0.000    0.000    0.000 
#
# Total GULP energy -297359.316589 kJ/mol
# GULP energy per Si atom -12389.971525 kJ/mol
# Density = 2.316907 g / cm^3
# Si number density = 23.221920 Si / 1000 Ang^3
#
#
#
# Elastic Constant Matrix: (Units=GPa)
#
#
# Indices 1 2 3 4 5 6 
#
# 1 79.0207 66.7577 47.1584 0.0000 -50.6514 0.0000
# 2 66.7577 195.2026 58.3077 0.0000 -44.0728 0.0000
# 3 47.1584 58.3077 108.3445 0.0000 -52.8361 0.0000
# 4 0.0000 0.0000 0.0000 39.1208 0.0000 -18.9941
# 5 -50.6514 -44.0728 -52.8361 0.0000 46.0294 0.0000
# 6 0.0000 0.0000 0.0000 -18.9941 0.0000 48.0071
#
#
#
# Elastic Compliance Matrix: (Units=1/GPa)
#
#
# Indices 1 2 3 4 5 6 
#
# 1 0.055223 -0.007291 0.013896 0.000000 0.069738 0.000000
# 2 -0.007291 0.007552 -0.002901 0.000000 -0.004122 0.000000
# 3 0.013896 -0.002901 0.024636 0.000000 0.040793 0.000000
# 4 0.000000 0.000000 0.000000 0.031640 0.000000 0.012518
# 5 0.069738 -0.004122 0.040793 0.000000 0.141345 0.000000
# 6 0.000000 0.000000 0.000000 0.012518 0.000000 0.025783
#
#
# Mechanical properties :
#
#
# Convention : Reuss Voigt Hill
#
# Bulk Modulus (GPa) = 10.54636 80.77949 45.66292
# Shear Modulus (GPa) = 16.10945 40.65438 28.38192
#
# Velocity S-wave (km/s) = 2.63671 4.18866 3.49980
# Velocity P-wave (km/s) = 3.71767 7.63247 6.00315
#
# Compressibility (1/GPa) = 0.09481948
#
# Stress axis : x y z
#
# Youngs Moduli (GPa) = 18.10849 132.41063 40.59105
#
# Poissons Ratio (x) = 0.96543 -0.56407
# Poissons Ratio (y) = 0.13203 0.11776
# Poissons Ratio (z) = -0.25164 0.38413
#
# Static dielectric constant tensor:
#      x y z
#    x 4.139360 0.000000 -0.809840 
#    y 0.000000 3.996400 0.000000 
#    z -0.809840 0.000000 4.809790 
# 
# 
# High freq. dielectric constant tensor:
#      x y z
#    x 1.903860 0.000000 -0.052110 
#    y 0.000000 1.916230 0.000000 
#    z -0.052110 0.000000 1.918970 
# 
# From -- ./inp_files/11309.got.cif
#   From: 2010.03.12/outbox.cif.g09.slc.cpg/sg14_6_cif.got.tgz:11309.got - 2010.03.31 13:35:05.
