data_PCOD8123069
_publ_section_title
;
Structure prediction by ZEFSAII (Michael W. Deem and Ramdas Pophale) SiO2 
 PCOD8123069
Probable space group: P 2/C
;
_chemical_formula_sum "Si O2"
_cell_formula_units_Z 20
_cell_length_a 5.004260
_cell_length_b 8.713823
_cell_length_c 22.031287
_cell_angle_alpha 90.000000
_cell_angle_beta 76.900409
_cell_angle_gamma 90.000000
_cell_volume 935.701725
_symmetry_space_group_name_H-M "P 2/C"
_symmetry_group_IT_number 13
_symmetry_cell_setting 'monoclinic'
loop_
_space_group_symop_operation_xyz
x,y,z
-x,y,1/2-z
-x,-y,-z
x,-y,1/2+z
loop_
_atom_site_type_symbol
_atom_site_label
_atom_site_fract_x
_atom_site_fract_y
_atom_site_fract_z
Si Si1 0.650543 0.914795 0.121534
Si Si2 0.786597 0.235183 0.936423
Si Si3 0.682476 0.251016 0.079863
Si Si4 0.000000 0.442973 0.750000
Si Si5 0.146273 0.433185 0.117278
Si Si6 0.500000 0.232938 0.750000
O O1 0.475023 0.860821 0.072743
O O2 0.487491 0.873378 0.191225
O O3 0.941522 0.831385 0.107700
O O4 0.697827 0.096293 0.117936
O O5 0.750483 0.410846 0.918803
O O6 0.807649 0.220067 0.007400
O O7 0.368598 0.303592 0.090716
O O8 0.855776 0.382769 0.104462
O O9 0.122824 0.549726 0.690936
O O10 0.233194 0.338380 0.767361
#
# Coordination Sequence:
#
# PCOD8123069 Si02
#       6
#     4   4   4   2   4   2
#     4  12  24  42  69  96 131 178 218 272 324 384
#     4  12  23  45  68  97 133 182 217 260 324 406
#     4  12  26  42  66 104 138 163 219 277 334 378
#     4  12  24  44  70  90 132 170 230 264 322 400
#     4  12  24  43  67  97 130 178 214 274 325 386
#     4  12  22  44  66  94 124 172 230 266 312 404
#
# _framework density 21.374331999999999
#
# number of rings (size 3 to 8) (size 9 to 14) (size 15 to 20)
#    0.000    0.000    4.000    7.200    0.000    1.600 
#    0.000    0.000    0.000    0.000    0.000    0.000 
#    0.000    0.000    0.000    0.000    0.000    0.000 
#
# Total GULP energy -248242.299595 kJ/mol
# GULP energy per Si atom -12412.114980 kJ/mol
# Density = 2.132568 g / cm^3
# Si number density = 21.374332 Si / 1000 Ang^3
#
#
#
# Elastic Constant Matrix: (Units=GPa)
#
#
# Indices 1 2 3 4 5 6 
#
# 1 95.0703 16.7005 5.4754 0.0000 -0.2777 0.0000
# 2 16.7005 78.7662 43.0985 0.0000 -6.4314 0.0000
# 3 5.4754 43.0985 88.4875 0.0000 3.1413 0.0000
# 4 0.0000 0.0000 0.0000 21.5729 0.0000 2.5068
# 5 -0.2777 -6.4314 3.1413 0.0000 34.0358 0.0000
# 6 0.0000 0.0000 0.0000 2.5068 0.0000 31.2906
#
#
#
# Elastic Compliance Matrix: (Units=1/GPa)
#
#
# Indices 1 2 3 4 5 6 
#
# 1 0.010958 -0.002729 0.000668 0.000000 -0.000488 0.000000
# 2 -0.002729 0.018567 -0.009028 0.000000 0.004319 0.000000
# 3 0.000668 -0.009028 0.015769 0.000000 -0.003156 0.000000
# 4 0.000000 0.000000 0.000000 0.046790 0.000000 -0.003748
# 5 -0.000488 0.004319 -0.003156 0.000000 0.030484 0.000000
# 6 0.000000 0.000000 0.000000 -0.003748 0.000000 0.032259
#
#
# Mechanical properties :
#
#
# Convention : Reuss Voigt Hill
#
# Bulk Modulus (GPa) = 43.25785 43.65253 43.45519
# Shear Modulus (GPa) = 27.06971 30.51648 28.79310
#
# Velocity S-wave (km/s) = 3.56259 3.78261 3.67425
# Velocity P-wave (km/s) = 6.09958 6.28846 6.19474
#
# Compressibility (1/GPa) = 0.02311719
#
# Stress axis : x y z
#
# Youngs Moduli (GPa) = 91.25756 53.85992 63.41713
#
# Poissons Ratio (x) = 0.14698 -0.04239
# Poissons Ratio (y) = 0.24904 0.57250
# Poissons Ratio (z) = -0.06100 0.48622
#
# Static dielectric constant tensor:
#      x y z
#    x 3.866450 0.000000 -0.054010 
#    y 0.000000 3.795350 0.000000 
#    z -0.054010 0.000000 3.851910 
# 
# 
# High freq. dielectric constant tensor:
#      x y z
#    x 1.852560 0.000000 -0.001400 
#    y 0.000000 1.839740 0.000000 
#    z -0.001400 0.000000 1.849450 
# 
# From -- ./inp_files/72994.got.cif
#   From: 2010.06.25/outbox.cif.g09.slc.cpg/sg13_37_cif.got.tgz:72994.got - 2010.06.28 04:50:58.
