data_PCOD8123611
_publ_section_title
;
Structure prediction by ZEFSAII (Michael W. Deem and Ramdas Pophale) SiO2 
 PCOD8123611
Probable space group: P 21/C
;
_chemical_formula_sum "Si O2"
_cell_formula_units_Z 24
_cell_length_a 12.626883
_cell_length_b 15.962598
_cell_length_c 8.554760
_cell_angle_alpha 90.000000
_cell_angle_beta 134.527155
_cell_angle_gamma 90.000000
_cell_volume 1229.269910
_symmetry_space_group_name_H-M "P 21/C"
_symmetry_group_IT_number 14
_symmetry_cell_setting 'monoclinic'
loop_
_space_group_symop_operation_xyz
x,y,z
-x,1/2+y,1/2-z
-x,-y,-z
x,1/2-y,1/2+z
loop_
_atom_site_type_symbol
_atom_site_label
_atom_site_fract_x
_atom_site_fract_y
_atom_site_fract_z
Si Si1 0.590582 0.844090 0.387289
Si Si2 0.931554 0.996870 0.099914
Si Si3 0.596239 0.822368 0.763285
Si Si4 0.919600 0.844448 0.604792
Si Si5 0.080845 0.324257 0.264190
Si Si6 0.578085 0.500483 0.245516
O O1 0.596615 0.831369 0.578345
O O2 0.511180 0.761868 0.228564
O O3 0.754546 0.863292 0.495627
O O4 0.485678 0.921749 0.224630
O O5 0.987401 0.909365 0.234659
O O6 0.983502 0.073959 0.258897
O O7 0.754440 0.002141 0.907046
O O8 0.000000 0.000000 0.000000
O O9 0.534866 0.908890 0.777679
O O10 0.759786 0.806871 0.996527
O O11 0.913457 0.830829 0.414376
O O12 0.999970 0.762968 0.768357
O O13 0.500000 0.500000 0.000000
#
# Coordination Sequence:
#
# PCOD8123611 Si02
#       6
#     4   4   4   4   4   4
#     4  10  18  34  56  78 105 140 180 223 268 324
#     4  11  21  37  58  81 110 147 184 227 274 323
#     4   9  17  32  53  76 101 140 179 212 263 329
#     4  11  20  35  57  82 106 142 184 225 269 326
#     4  10  20  35  56  81 109 144 185 221 270 336
#     4   9  19  35  54  78 107 141 180 218 267 328
#
# _framework density 19.523783000000002
#
# number of rings (size 3 to 8) (size 9 to 14) (size 15 to 20)
#    0.000    2.000    0.000    8.500    0.000    0.000 
#    0.000   15.833    0.000    2.000    0.000    0.000 
#    0.000    0.000    0.000    0.000    0.000    0.000 
#
# Total GULP energy -297320.187305 kJ/mol
# GULP energy per Si atom -12388.341138 kJ/mol
# Density = 1.947935 g / cm^3
# Si number density = 19.523783 Si / 1000 Ang^3
#
#
#
# Elastic Constant Matrix: (Units=GPa)
#
#
# Indices 1 2 3 4 5 6 
#
# 1 79.2795 63.3752 35.4288 0.0000 -16.6028 0.0000
# 2 63.3752 212.0820 25.5701 0.0000 4.6924 0.0000
# 3 35.4288 25.5701 41.9297 0.0000 -6.2481 0.0000
# 4 0.0000 0.0000 0.0000 36.1936 0.0000 -1.7204
# 5 -16.6028 4.6924 -6.2481 0.0000 33.0164 0.0000
# 6 0.0000 0.0000 0.0000 -1.7204 0.0000 37.7621
#
#
#
# Elastic Compliance Matrix: (Units=1/GPa)
#
#
# Indices 1 2 3 4 5 6 
#
# 1 0.028549 -0.006580 -0.018348 0.000000 0.011819 0.000000
# 2 -0.006580 0.006665 0.000886 0.000000 -0.004089 0.000000
# 3 -0.018348 0.000886 0.038505 0.000000 -0.002066 0.000000
# 4 0.000000 0.000000 0.000000 0.027689 0.000000 0.001261
# 5 0.011819 -0.004089 -0.002066 0.000000 0.036421 0.000000
# 6 0.000000 0.000000 0.000000 0.001261 0.000000 0.026539
#
#
# Mechanical properties :
#
#
# Convention : Reuss Voigt Hill
#
# Bulk Modulus (GPa) = 39.01121 64.67103 51.84112
# Shear Modulus (GPa) = 22.62473 35.32223 28.97348
#
# Velocity S-wave (km/s) = 3.40785 4.25807 3.85646
# Velocity P-wave (km/s) = 5.95897 7.57437 6.81470
#
# Compressibility (1/GPa) = 0.02563366
#
# Stress axis : x y z
#
# Youngs Moduli (GPa) = 35.02809 150.03476 25.97091
#
# Poissons Ratio (x) = 0.98727 0.47652
# Poissons Ratio (y) = 0.23050 -0.02302
# Poissons Ratio (z) = 0.64270 -0.13296
#
# Static dielectric constant tensor:
#      x y z
#    x 3.430840 0.000000 -0.016420 
#    y 0.000000 5.105780 0.000000 
#    z -0.016420 0.000000 3.500340 
# 
# 
# High freq. dielectric constant tensor:
#      x y z
#    x 1.723210 0.000000 -0.019900 
#    y 0.000000 1.805640 0.000000 
#    z -0.019900 0.000000 1.745320 
# 
# From -- ./inp_files/16545.got.cif
#   From: 2010.03.12/outbox.cif.g09.slc.cpg/sg14_9_cif.got.tgz:16545.got - 2010.03.31 13:35:05.
