data_PCOD8123851
_publ_section_title
;
Structure prediction by ZEFSAII (Michael W. Deem and Ramdas Pophale) SiO2 
 PCOD8123851
Probable space group: P 21/C
;
_chemical_formula_sum "Si O2"
_cell_formula_units_Z 32
_cell_length_a 12.127372
_cell_length_b 17.614607
_cell_length_c 15.939578
_cell_angle_alpha 90.000000
_cell_angle_beta 26.885032
_cell_angle_gamma 90.000000
_cell_volume 1539.744589
_symmetry_space_group_name_H-M "P 21/C"
_symmetry_group_IT_number 14
_symmetry_cell_setting 'monoclinic'
loop_
_space_group_symop_operation_xyz
x,y,z
-x,1/2+y,1/2-z
-x,-y,-z
x,1/2-y,1/2+z
loop_
_atom_site_type_symbol
_atom_site_label
_atom_site_fract_x
_atom_site_fract_y
_atom_site_fract_z
Si Si1 0.380297 0.092952 0.276515
Si Si2 0.798755 0.919371 0.286148
Si Si3 0.620654 0.068508 0.800628
Si Si4 0.746722 0.092801 0.298316
Si Si5 0.091462 0.385158 0.704436
Si Si6 0.042137 0.831249 0.532838
Si Si7 0.181083 0.662807 0.428854
Si Si8 0.977081 0.551543 0.839909
O O1 0.629075 0.136753 0.128345
O O2 0.204867 0.153630 0.351093
O O3 0.262431 0.061815 0.441490
O O4 0.431840 0.020767 0.180518
O O5 0.515900 0.899009 0.481208
O O6 0.933544 0.902659 0.283361
O O7 0.834483 0.006029 0.233438
O O8 0.914996 0.866574 0.136093
O O9 0.762132 0.103273 0.624387
O O10 0.782946 0.079526 0.774084
O O11 0.373361 0.113593 0.986560
O O12 0.737753 0.127234 0.213102
O O13 0.937656 0.138583 0.226824
O O14 0.998998 0.463858 0.804306
O O15 0.032254 0.326212 0.818813
O O16 0.169528 0.752513 0.422821
#
# Coordination Sequence:
#
# PCOD8123851 Si02
#       8
#     4   4   4   4   4   4   4   4
#     4  11  21  43  71  92 133 171 221 278 321 388
#     4  10  22  40  67  94 127 179 222 277 311 389
#     4  11  22  40  73  98 128 168 223 278 330 377
#     4  10  23  42  63  94 132 174 224 268 315 391
#     4  11  22  39  68  97 129 165 217 274 328 382
#     4  11  26  43  61 100 137 169 213 280 334 388
#     4  12  26  43  64  97 136 180 217 260 347 399
#     4  10  18  39  68 100 125 157 227 281 317 371
#
# _framework density 20.782668000000001
#
# number of rings (size 3 to 8) (size 9 to 14) (size 15 to 20)
#    0.000    1.250    3.750    3.000    1.750    4.000 
#    4.500    0.000    0.000    0.000    0.000    0.000 
#    0.000    0.000    0.000    0.000    0.000    0.000 
#
# Total GULP energy -396882.218148 kJ/mol
# GULP energy per Si atom -12402.569317 kJ/mol
# Density = 2.073537 g / cm^3
# Si number density = 20.782668 Si / 1000 Ang^3
#
#
#
# Elastic Constant Matrix: (Units=GPa)
#
#
# Indices 1 2 3 4 5 6 
#
# 1 93.2460 35.0224 28.5085 0.0000 -20.5130 0.0000
# 2 35.0224 68.6702 26.0474 0.0000 -8.0750 0.0000
# 3 28.5085 26.0474 71.6153 0.0000 -10.3479 0.0000
# 4 0.0000 0.0000 0.0000 15.3610 0.0000 -2.4535
# 5 -20.5130 -8.0750 -10.3479 0.0000 30.4305 0.0000
# 6 0.0000 0.0000 0.0000 -2.4535 0.0000 17.0323
#
#
#
# Elastic Compliance Matrix: (Units=1/GPa)
#
#
# Indices 1 2 3 4 5 6 
#
# 1 0.015580 -0.005910 -0.002904 0.000000 0.007947 0.000000
# 2 -0.005910 0.019320 -0.004742 0.000000 -0.000470 0.000000
# 3 -0.002904 -0.004742 0.017226 0.000000 0.002642 0.000000
# 4 0.000000 0.000000 0.000000 0.066633 0.000000 0.009599
# 5 0.007947 -0.000470 0.002642 0.000000 0.038992 0.000000
# 6 0.000000 0.000000 0.000000 0.009599 0.000000 0.060095
#
#
# Mechanical properties :
#
#
# Convention : Reuss Voigt Hill
#
# Bulk Modulus (GPa) = 39.97870 45.85424 42.91647
# Shear Modulus (GPa) = 19.73968 22.16164 20.95066
#
# Velocity S-wave (km/s) = 3.08525 3.26905 3.17848
# Velocity P-wave (km/s) = 5.65420 6.02997 5.84510
#
# Compressibility (1/GPa) = 0.02501332
#
# Stress axis : x y z
#
# Youngs Moduli (GPa) = 64.18425 51.75987 58.05132
#
# Poissons Ratio (x) = 0.30590 0.16860
# Poissons Ratio (y) = 0.37932 0.27529
# Poissons Ratio (z) = 0.18642 0.24545
#
# Static dielectric constant tensor:
#      x y z
#    x 4.035450 0.000000 0.024240 
#    y 0.000000 3.498390 0.000000 
#    z 0.024240 0.000000 3.762420 
# 
# 
# High freq. dielectric constant tensor:
#      x y z
#    x 1.822840 0.000000 0.000840 
#    y 0.000000 1.779640 0.000000 
#    z 0.000840 0.000000 1.826860 
# 
# From -- ./inp_files/45418.got.cif
#   From: 2010.03.12/outbox.cif.g09.slc.cpg/sg14_23_cif.got.tgz:45418.got - 2010.03.31 13:35:05.
