data_PCOD8123220
_publ_section_title
;
Structure prediction by ZEFSAII (Michael W. Deem and Ramdas Pophale) SiO2 
 PCOD8123220
Probable space group: P 2/C
;
_chemical_formula_sum "Si O2"
_cell_formula_units_Z 26
_cell_length_a 17.693103
_cell_length_b 13.683323
_cell_length_c 8.517532
_cell_angle_alpha 90.000000
_cell_angle_beta 50.304951
_cell_angle_gamma 90.000000
_cell_volume 1586.691308
_symmetry_space_group_name_H-M "P 2/C"
_symmetry_group_IT_number 13
_symmetry_cell_setting 'monoclinic'
loop_
_space_group_symop_operation_xyz
x,y,z
-x,y,1/2-z
-x,-y,-z
x,-y,1/2+z
loop_
_atom_site_type_symbol
_atom_site_label
_atom_site_fract_x
_atom_site_fract_y
_atom_site_fract_z
Si Si1 0.200140 0.875133 0.417240
Si Si2 0.500000 0.747330 0.250000
Si Si3 0.296311 0.964043 0.003067
Si Si4 0.000000 0.215314 0.250000
Si Si5 0.904188 0.622140 0.672133
Si Si6 0.000000 0.461165 0.750000
Si Si7 0.712165 0.276556 0.482151
Si Si8 0.624682 0.125732 0.395357
O O1 0.226249 0.968323 0.489748
O O2 0.255613 0.776907 0.400269
O O3 0.084132 0.855802 0.574656
O O4 0.228384 0.895175 0.199982
O O5 0.401274 0.683915 0.345187
O O6 0.478309 0.819337 0.428669
O O7 0.363244 0.894447 0.804531
O O8 0.370754 0.024753 0.013330
O O9 0.039248 0.282772 0.339726
O O10 0.935493 0.606352 0.450446
O O11 0.926204 0.526970 0.746348
O O12 0.786352 0.636865 0.838599
O O13 0.713232 0.195928 0.340587
#
# Coordination Sequence:
#
# PCOD8123220 Si02
#       8
#     4   2   4   2   4   2   4   4
#     4   9  17  29  41  61  87 125 156 191 231 257
#     4   8  16  30  46  64  82 122 162 176 232 266
#     4   9  16  28  40  60  91 116 159 205 218 252
#     4   9  18  30  46  63  92 124 146 179 230 264
#     4   9  17  32  50  72  95 110 138 182 210 278
#     4   9  18  30  52  81  88 110 140 163 232 266
#     4   8  16  31  46  62  90 118 148 182 222 260
#     4   8  16  27  41  63  83 119 158 188 227 251
#
# _framework density 16.386299999999999
#
# number of rings (size 3 to 8) (size 9 to 14) (size 15 to 20)
#    0.923    2.462    0.000    0.000    0.000    2.462 
#    0.000    0.000    0.000    0.923    0.000    0.000 
#    0.000    0.000    0.000    0.000    0.000    0.000 
#
# Total GULP energy -322128.529994 kJ/mol
# GULP energy per Si atom -12389.558846 kJ/mol
# Density = 1.634900 g / cm^3
# Si number density = 16.386300 Si / 1000 Ang^3
#
#
#
# Elastic Constant Matrix: (Units=GPa)
#
#
# Indices 1 2 3 4 5 6 
#
# 1 59.4950 14.7415 56.1433 0.0000 -14.0649 0.0000
# 2 14.7415 40.7711 44.4365 0.0000 -3.5129 0.0000
# 3 56.1433 44.4365 143.4087 0.0000 -3.1468 0.0000
# 4 0.0000 0.0000 0.0000 29.2327 0.0000 -5.3258
# 5 -14.0649 -3.5129 -3.1468 0.0000 37.7151 0.0000
# 6 0.0000 0.0000 0.0000 -5.3258 0.0000 10.6834
#
#
#
# Elastic Compliance Matrix: (Units=1/GPa)
#
#
# Indices 1 2 3 4 5 6 
#
# 1 0.030601 0.004015 -0.012989 0.000000 0.010702 0.000000
# 2 0.004015 0.037797 -0.013198 0.000000 0.003917 0.000000
# 3 -0.012989 -0.013198 0.016044 0.000000 -0.004735 0.000000
# 4 0.000000 0.000000 0.000000 0.037626 0.000000 0.018757
# 5 0.010702 0.003917 -0.004735 0.000000 0.030475 0.000000
# 6 0.000000 0.000000 0.000000 0.018757 0.000000 0.102954
#
#
# Mechanical properties :
#
#
# Convention : Reuss Voigt Hill
#
# Bulk Modulus (GPa) = 24.93915 52.70196 38.82055
# Shear Modulus (GPa) = 15.96390 24.08311 20.02351
#
# Velocity S-wave (km/s) = 3.12464 3.83784 3.49946
# Velocity P-wave (km/s) = 5.31699 7.20213 6.33013
#
# Compressibility (1/GPa) = 0.04009760
#
# Stress axis : x y z
#
# Youngs Moduli (GPa) = 32.67892 26.45707 62.32968
#
# Poissons Ratio (x) = -0.10622 0.80961
# Poissons Ratio (y) = -0.13120 0.82260
# Poissons Ratio (z) = 0.42447 0.34917
#
# Static dielectric constant tensor:
#      x y z
#    x 2.962430 0.000000 -0.002390 
#    y 0.000000 2.822110 0.000000 
#    z -0.002390 0.000000 3.098910 
# 
# 
# High freq. dielectric constant tensor:
#      x y z
#    x 1.618090 0.000000 -0.000870 
#    y 0.000000 1.597360 0.000000 
#    z -0.000870 0.000000 1.629970 
# 
# From -- ./inp_files/19179.got.cif
#   From: 2010.06.25/outbox.cif.g09.slc.cpg/sg13_10_cif.got.tgz:19179.got - 2010.06.28 04:50:58.
