data_PCOD8123406
_publ_section_title
;
Structure prediction by ZEFSAII (Michael W. Deem and Ramdas Pophale) SiO2 
 PCOD8123406
Probable space group: P 21/C
;
_chemical_formula_sum "Si O2"
_cell_formula_units_Z 24
_cell_length_a 8.853749
_cell_length_b 17.070320
_cell_length_c 16.066366
_cell_angle_alpha 90.000000
_cell_angle_beta 31.810659
_cell_angle_gamma 90.000000
_cell_volume 1279.944062
_symmetry_space_group_name_H-M "P 21/C"
_symmetry_group_IT_number 14
_symmetry_cell_setting 'monoclinic'
loop_
_space_group_symop_operation_xyz
x,y,z
-x,1/2+y,1/2-z
-x,-y,-z
x,1/2-y,1/2+z
loop_
_atom_site_type_symbol
_atom_site_label
_atom_site_fract_x
_atom_site_fract_y
_atom_site_fract_z
Si Si1 0.742383 0.053169 0.781050
Si Si2 0.766585 0.490181 0.038028
Si Si3 0.973484 0.315655 0.491652
Si Si4 0.144139 0.955514 0.854619
Si Si5 0.375819 0.838444 0.320598
Si Si6 0.256113 0.935267 0.033736
O O1 0.661707 0.118249 0.750421
O O2 0.700410 0.092223 0.891448
O O3 0.072943 0.022607 0.619105
O O4 0.540242 0.976976 0.864603
O O5 0.485521 0.540582 0.189277
O O6 0.677082 0.398826 0.078106
O O7 0.000000 0.500000 0.000000
O O8 0.932794 0.364317 0.596837
O O9 0.849672 0.230395 0.564296
O O10 0.817223 0.360019 0.488207
O O11 0.307464 0.304472 0.316668
O O12 0.995855 0.997943 0.845560
O O13 0.000000 0.000000 0.000000
#
# Coordination Sequence:
#
# PCOD8123406 Si02
#       6
#     4   4   4   4   4   4
#     4  10  22  38  62  86 115 147 199 243 285 333
#     4  10  19  34  59  85 111 146 201 236 270 336
#     4  11  22  36  59  83 116 155 190 231 291 344
#     4  10  17  36  59  80 110 153 192 234 276 332
#     4  11  22  37  56  87 116 152 191 234 285 351
#     4  10  20  41  61  82 114 155 190 243 290 333
#
# _framework density 18.750819
#
# number of rings (size 3 to 8) (size 9 to 14) (size 15 to 20)
#    0.000    1.667    5.000    3.000    7.000    0.667 
#    0.000    3.333    0.000    0.000    0.000    0.000 
#    0.000    0.000    0.000    0.000    0.000    0.000 
#
# Total GULP energy -297412.528795 kJ/mol
# GULP energy per Si atom -12392.188700 kJ/mol
# Density = 1.870814 g / cm^3
# Si number density = 18.750819 Si / 1000 Ang^3
#
#
#
# Elastic Constant Matrix: (Units=GPa)
#
#
# Indices 1 2 3 4 5 6 
#
# 1 64.2627 14.7628 23.6726 0.0000 8.1253 0.0000
# 2 14.7628 93.9413 40.9543 0.0000 6.9280 0.0000
# 3 23.6726 40.9543 145.8844 0.0000 -20.0791 0.0000
# 4 0.0000 0.0000 0.0000 36.7514 0.0000 -6.7483
# 5 8.1253 6.9280 -20.0791 0.0000 28.3208 0.0000
# 6 0.0000 0.0000 0.0000 -6.7483 0.0000 21.0970
#
#
#
# Elastic Compliance Matrix: (Units=1/GPa)
#
#
# Indices 1 2 3 4 5 6 
#
# 1 0.018094 -0.000598 -0.003837 0.000000 -0.007765 0.000000
# 2 -0.000598 0.013132 -0.004441 0.000000 -0.006190 0.000000
# 3 -0.003837 -0.004441 0.010001 0.000000 0.009278 0.000000
# 4 0.000000 0.000000 0.000000 0.028908 0.000000 0.009247
# 5 -0.007765 -0.006190 0.009278 0.000000 0.045630 0.000000
# 6 0.000000 0.000000 0.000000 0.009247 0.000000 0.050358
#
#
# Mechanical properties :
#
#
# Convention : Reuss Voigt Hill
#
# Bulk Modulus (GPa) = 42.60042 51.42974 47.01508
# Shear Modulus (GPa) = 26.08254 32.21375 29.14814
#
# Velocity S-wave (km/s) = 3.73367 4.14936 3.94699
# Velocity P-wave (km/s) = 6.43083 7.10238 6.77493
#
# Compressibility (1/GPa) = 0.02347395
#
# Stress axis : x y z
#
# Youngs Moduli (GPa) = 55.26768 76.15213 99.98820
#
# Poissons Ratio (x) = 0.04554 0.38365
# Poissons Ratio (y) = 0.03305 0.44408
# Poissons Ratio (z) = 0.21206 0.33822
#
# Static dielectric constant tensor:
#      x y z
#    x 3.543490 0.000000 -0.084450 
#    y 0.000000 3.517590 0.000000 
#    z -0.084450 0.000000 3.963210 
# 
# 
# High freq. dielectric constant tensor:
#      x y z
#    x 1.708880 0.000000 -0.016880 
#    y 0.000000 1.708790 0.000000 
#    z -0.016880 0.000000 1.745480 
# 
# From -- ./inp_files/13613.got.cif
#   From: 2010.03.12/outbox.cif.g09.slc.cpg/sg14_7_cif.got.tgz:13613.got - 2010.03.31 13:35:05.
