data_PCOD8123945
_publ_section_title
;
Structure prediction by ZEFSAII (Michael W. Deem and Ramdas Pophale) SiO2 
 PCOD8123945
Probable space group: P 21/C
;
_chemical_formula_sum "Si O2"
_cell_formula_units_Z 32
_cell_length_a 10.032745
_cell_length_b 12.603390
_cell_length_c 12.748276
_cell_angle_alpha 90.000000
_cell_angle_beta 113.512229
_cell_angle_gamma 90.000000
_cell_volume 1478.141725
_symmetry_space_group_name_H-M "P 21/C"
_symmetry_group_IT_number 14
_symmetry_cell_setting 'monoclinic'
loop_
_space_group_symop_operation_xyz
x,y,z
-x,1/2+y,1/2-z
-x,-y,-z
x,1/2-y,1/2+z
loop_
_atom_site_type_symbol
_atom_site_label
_atom_site_fract_x
_atom_site_fract_y
_atom_site_fract_z
Si Si1 0.716116 0.350365 0.286408
Si Si2 0.483144 0.841460 0.572343
Si Si3 0.592377 0.755528 0.301738
Si Si4 0.886623 0.442196 0.143306
Si Si5 0.767532 0.943325 0.906302
Si Si6 0.947120 0.044819 0.137152
Si Si7 0.343866 0.441381 0.054318
Si Si8 0.821093 0.245649 0.017318
O O1 0.578224 0.274075 0.224266
O O2 0.785763 0.383156 0.197945
O O3 0.669585 0.456507 0.337302
O O4 0.835992 0.292072 0.400179
O O5 0.600442 0.781985 0.683010
O O6 0.552880 0.866614 0.483206
O O7 0.347128 0.765894 0.510495
O O8 0.428153 0.950776 0.610900
O O9 0.667036 0.660096 0.390733
O O10 0.680617 0.866031 0.351112
O O11 0.921086 0.350318 0.068471
O O12 0.030054 0.493659 0.239864
O O13 0.802064 0.535485 0.055949
O O14 0.893130 0.931732 0.858620
O O15 0.849264 0.962352 0.041800
O O16 0.867347 0.157273 0.116572
#
# Coordination Sequence:
#
# PCOD8123945 Si02
#       8
#     4   4   4   4   4   4   4   4
#     4   9  18  33  53  77 104 135 169 211 260 311
#     4   9  18  33  52  77 107 137 171 213 258 311
#     4  11  18  28  54  81 106 129 167 222 264 294
#     4  10  19  34  56  77 102 136 176 216 250 302
#     4   9  18  32  52  76  99 134 176 211 251 305
#     4   9  18  34  52  71 100 137 180 213 242 300
#     4  10  19  32  53  81 103 131 177 212 253 314
#     4   9  18  31  54  77  97 134 180 212 254 302
#
# _framework density 21.648804999999999
#
# number of rings (size 3 to 8) (size 9 to 14) (size 15 to 20)
#    0.000    2.500    0.000    5.250    0.000    1.000 
#    0.000    0.000    0.000   45.750    0.000    0.000 
#    0.000    0.000    0.000    0.000    0.000    0.000 
#
# Total GULP energy -396455.469777 kJ/mol
# GULP energy per Si atom -12389.233431 kJ/mol
# Density = 2.159953 g / cm^3
# Si number density = 21.648805 Si / 1000 Ang^3
#
#
#
# Elastic Constant Matrix: (Units=GPa)
#
#
# Indices 1 2 3 4 5 6 
#
# 1 25.4550 33.3970 15.4745 0.0000 14.6798 0.0000
# 2 33.3970 137.6251 68.2605 0.0000 20.5129 0.0000
# 3 15.4745 68.2605 128.8054 0.0000 26.5658 0.0000
# 4 0.0000 0.0000 0.0000 57.6984 0.0000 10.0546
# 5 14.6798 20.5129 26.5658 0.0000 23.0918 0.0000
# 6 0.0000 0.0000 0.0000 10.0546 0.0000 32.2605
#
#
#
# Elastic Compliance Matrix: (Units=1/GPa)
#
#
# Indices 1 2 3 4 5 6 
#
# 1 0.085817 -0.018185 0.009502 0.000000 -0.049333 0.000000
# 2 -0.018185 0.013944 -0.006601 0.000000 0.006767 0.000000
# 3 0.009502 -0.006601 0.013316 0.000000 -0.015496 0.000000
# 4 0.000000 0.000000 0.000000 0.018327 0.000000 -0.005712
# 5 -0.049333 0.006767 -0.015496 0.000000 0.086484 0.000000
# 6 0.000000 0.000000 0.000000 -0.005712 0.000000 0.032778
#
#
# Mechanical properties :
#
#
# Convention : Reuss Voigt Hill
#
# Bulk Modulus (GPa) = 12.11970 58.46107 35.29038
# Shear Modulus (GPa) = 16.19503 34.26037 25.22770
#
# Velocity S-wave (km/s) = 2.73807 3.98245 3.41738
# Velocity P-wave (km/s) = 3.95051 6.94330 5.64871
#
# Compressibility (1/GPa) = 0.08251030
#
# Stress axis : x y z
#
# Youngs Moduli (GPa) = 11.65268 71.71449 75.09597
#
# Poissons Ratio (x) = 1.30411 -0.71354
# Poissons Ratio (y) = 0.21190 0.49569
# Poissons Ratio (z) = -0.11072 0.47337
#
# Static dielectric constant tensor:
#      x y z
#    x 3.245590 0.000000 0.199600 
#    y 0.000000 4.268110 0.000000 
#    z 0.199600 0.000000 4.350870 
# 
# 
# High freq. dielectric constant tensor:
#      x y z
#    x 1.777940 0.000000 0.026670 
#    y 0.000000 1.858410 0.000000 
#    z 0.026670 0.000000 1.872730 
# 
# From -- ./inp_files/44421.got.cif
#   From: 2010.03.12/outbox.cif.g09.slc.cpg/sg14_23_cif.got.tgz:44421.got - 2010.03.31 13:35:05.
