data_PCOD8123416
_publ_section_title
;
Structure prediction by ZEFSAII (Michael W. Deem and Ramdas Pophale) SiO2 
 PCOD8123416
Probable space group: P 21/C
;
_chemical_formula_sum "Si O2"
_cell_formula_units_Z 20
_cell_length_a 9.227700
_cell_length_b 15.232340
_cell_length_c 8.935574
_cell_angle_alpha 90.000000
_cell_angle_beta 131.335888
_cell_angle_gamma 90.000000
_cell_volume 943.052935
_symmetry_space_group_name_H-M "P 21/C"
_symmetry_group_IT_number 14
_symmetry_cell_setting 'monoclinic'
loop_
_space_group_symop_operation_xyz
x,y,z
-x,1/2+y,1/2-z
-x,-y,-z
x,1/2-y,1/2+z
loop_
_atom_site_type_symbol
_atom_site_label
_atom_site_fract_x
_atom_site_fract_y
_atom_site_fract_z
Si Si1 0.415678 0.380609 0.861940
Si Si2 0.071027 0.235309 0.842482
Si Si3 0.331811 0.188909 0.759728
Si Si4 0.578745 0.446027 0.276386
Si Si5 0.970753 0.132999 0.048785
O O1 0.450642 0.281375 0.829962
O O2 0.483681 0.452042 0.783193
O O3 0.187072 0.399210 0.733936
O O4 0.533530 0.393771 0.093584
O O5 0.228538 0.182207 0.850292
O O6 0.925425 0.286523 0.632437
O O7 0.177254 0.307350 0.019854
O O8 0.956620 0.166496 0.867314
O O9 0.466185 0.103046 0.833816
O O10 0.809909 0.441394 0.463517
#
# Coordination Sequence:
#
# PCOD8123416 Si02
#       5
#     4   4   4   4   4
#     4   9  21  37  51  87 113 141 181 225 277 320
#     4   8  18  33  53  77 117 136 178 223 279 306
#     4  10  17  37  56  79 111 149 170 232 274 319
#     4  11  20  33  64  78 108 148 188 219 267 335
#     4  10  19  34  55  83 107 144 182 227 265 331
#
# _framework density 21.207716000000001
#
# number of rings (size 3 to 8) (size 9 to 14) (size 15 to 20)
#    0.000    2.800    4.000    0.600    2.800    0.000 
#    0.000    4.000    0.000    4.800    0.000    0.000 
#    0.000    0.000    0.000    0.000    0.000    0.000 
#
# Total GULP energy -247791.526558 kJ/mol
# GULP energy per Si atom -12389.576328 kJ/mol
# Density = 2.115945 g / cm^3
# Si number density = 21.207716 Si / 1000 Ang^3
#
#
#
# Elastic Constant Matrix: (Units=GPa)
#
#
# Indices 1 2 3 4 5 6 
#
# 1 49.4844 -4.5293 15.1327 0.0000 -11.2696 0.0000
# 2 -4.5293 55.0073 -6.8919 0.0000 -10.7449 0.0000
# 3 15.1327 -6.8919 57.1358 0.0000 -8.6479 0.0000
# 4 0.0000 0.0000 0.0000 19.5693 0.0000 -0.7111
# 5 -11.2696 -10.7449 -8.6479 0.0000 33.6872 0.0000
# 6 0.0000 0.0000 0.0000 -0.7111 0.0000 28.5661
#
#
#
# Elastic Compliance Matrix: (Units=1/GPa)
#
#
# Indices 1 2 3 4 5 6 
#
# 1 0.023657 0.002833 -0.004775 0.000000 0.007592 0.000000
# 2 0.002833 0.020386 0.002951 0.000000 0.008207 0.000000
# 3 -0.004775 0.002951 0.019792 0.000000 0.004425 0.000000
# 4 0.000000 0.000000 0.000000 0.051147 0.000000 0.001273
# 5 0.007592 0.008207 0.004425 0.000000 0.035978 0.000000
# 6 0.000000 0.000000 0.000000 0.001273 0.000000 0.035038
#
#
# Mechanical properties :
#
#
# Convention : Reuss Voigt Hill
#
# Bulk Modulus (GPa) = 15.18548 18.78337 16.98442
# Shear Modulus (GPa) = 24.27993 26.89226 25.58610
#
# Velocity S-wave (km/s) = 3.38725 3.56482 3.47717
# Velocity P-wave (km/s) = 4.74066 5.08134 4.91395
#
# Compressibility (1/GPa) = 0.06585237
#
# Stress axis : x y z
#
# Youngs Moduli (GPa) = 42.27116 49.05428 50.52421
#
# Poissons Ratio (x) = -0.13895 0.24125
# Poissons Ratio (y) = -0.11974 -0.14910
# Poissons Ratio (z) = 0.20184 -0.14476
#
# Static dielectric constant tensor:
#      x y z
#    x 3.609640 0.000000 -0.175050 
#    y 0.000000 3.714580 0.000000 
#    z -0.175050 0.000000 3.812150 
# 
# 
# High freq. dielectric constant tensor:
#      x y z
#    x 1.800500 0.000000 -0.010330 
#    y 0.000000 1.812780 0.000000 
#    z -0.010330 0.000000 1.833140 
# 
# From -- ./inp_files/8261.got.cif
#   From: 2010.03.12/outbox.cif.g09.slc.cpg/sg14_5_cif.got.tgz:8261.got - 2010.03.31 13:35:05.
