data_PCOD8123391
_publ_section_title
;
Structure prediction by ZEFSAII (Michael W. Deem and Ramdas Pophale) SiO2 
 PCOD8123391
Probable space group: P 21/C
;
_chemical_formula_sum "Si O2"
_cell_formula_units_Z 32
_cell_length_a 8.643172
_cell_length_b 18.832863
_cell_length_c 13.239563
_cell_angle_alpha 90.000000
_cell_angle_beta 129.385184
_cell_angle_gamma 90.000000
_cell_volume 1665.655402
_symmetry_space_group_name_H-M "P 21/C"
_symmetry_group_IT_number 14
_symmetry_cell_setting 'monoclinic'
loop_
_space_group_symop_operation_xyz
x,y,z
-x,1/2+y,1/2-z
-x,-y,-z
x,1/2-y,1/2+z
loop_
_atom_site_type_symbol
_atom_site_label
_atom_site_fract_x
_atom_site_fract_y
_atom_site_fract_z
Si Si1 0.320487 0.174019 0.705491
Si Si2 0.473847 0.612918 0.228812
Si Si3 0.907104 0.904361 0.939831
Si Si4 0.953883 0.255298 0.476410
Si Si5 0.611966 0.246574 0.189531
Si Si6 0.351261 0.015646 0.793440
Si Si7 0.416629 0.766266 0.555315
Si Si8 0.802002 0.010797 0.057420
O O1 0.493829 0.189733 0.695958
O O2 0.308182 0.091242 0.725933
O O3 0.382987 0.222869 0.828384
O O4 0.100694 0.191890 0.570974
O O5 0.693085 0.580695 0.299521
O O6 0.485009 0.669659 0.326577
O O7 0.327816 0.547610 0.200342
O O8 0.406506 0.654042 0.099353
O O9 0.909493 0.823828 0.977233
O O10 0.927108 0.949579 0.051275
O O11 0.080583 0.918211 0.928378
O O12 0.842751 0.240769 0.323350
O O13 0.783902 0.271675 0.489217
O O14 0.594678 0.268677 0.067925
O O15 0.194903 0.001306 0.820476
O O16 0.574939 0.014672 0.927861
#
# Coordination Sequence:
#
# PCOD8123391 Si02
#       8
#     4   4   4   4   4   4   4   4
#     4  10  21  38  59  88 117 150 199 246 290 344
#     4   9  20  39  56  83 120 152 190 246 290 347
#     4  10  17  35  54  87 119 143 195 245 287 348
#     4  10  20  37  57  85 117 149 194 249 286 350
#     4  10  22  38  58  83 116 156 196 238 299 346
#     4  10  20  35  57  85 120 155 193 238 297 350
#     4  10  22  38  59  87 118 154 197 241 300 343
#     4   9  20  30  57  88 118 152 190 239 301 344
#
# _framework density 19.211656999999999
#
# number of rings (size 3 to 8) (size 9 to 14) (size 15 to 20)
#    0.000    2.500    2.500    1.500    7.000    2.000 
#    0.000    3.125    0.000    0.000    0.000    0.000 
#    0.000    0.000    0.000    0.000    0.000    0.000 
#
# Total GULP energy -396501.945689 kJ/mol
# GULP energy per Si atom -12390.685803 kJ/mol
# Density = 1.916793 g / cm^3
# Si number density = 19.211657 Si / 1000 Ang^3
#
#
#
# Elastic Constant Matrix: (Units=GPa)
#
#
# Indices 1 2 3 4 5 6 
#
# 1 92.5397 41.8824 53.6590 0.0000 -16.4326 0.0000
# 2 41.8824 126.6208 41.5280 0.0000 -16.4911 0.0000
# 3 53.6590 41.5280 107.3697 0.0000 -19.7382 0.0000
# 4 0.0000 0.0000 0.0000 19.3181 0.0000 -4.7471
# 5 -16.4326 -16.4911 -19.7382 0.0000 36.3042 0.0000
# 6 0.0000 0.0000 0.0000 -4.7471 0.0000 6.9702
#
#
#
# Elastic Compliance Matrix: (Units=1/GPa)
#
#
# Indices 1 2 3 4 5 6 
#
# 1 0.016409 -0.002935 -0.006605 0.000000 0.002503 0.000000
# 2 -0.002935 0.009771 -0.001934 0.000000 0.002058 0.000000
# 3 -0.006605 -0.001934 0.014056 0.000000 0.003774 0.000000
# 4 0.000000 0.000000 0.000000 0.062170 0.000000 0.042341
# 5 0.002503 0.002058 0.003774 0.000000 0.031665 0.000000
# 6 0.000000 0.000000 0.000000 0.042341 0.000000 0.172304
#
#
# Mechanical properties :
#
#
# Convention : Reuss Voigt Hill
#
# Bulk Modulus (GPa) = 57.84456 66.74102 62.29279
# Shear Modulus (GPa) = 14.92154 25.14922 20.03538
#
# Velocity S-wave (km/s) = 2.78994 3.62202 3.23286
# Velocity P-wave (km/s) = 6.36811 7.23238 6.81396
#
# Compressibility (1/GPa) = 0.01728771
#
# Stress axis : x y z
#
# Youngs Moduli (GPa) = 60.94170 102.34551 71.14222
#
# Poissons Ratio (x) = 0.30042 0.46991
# Poissons Ratio (y) = 0.17889 0.13757
# Poissons Ratio (z) = 0.40253 0.19791
#
# Static dielectric constant tensor:
#      x y z
#    x 3.574280 0.000000 0.073280 
#    y 0.000000 3.546930 0.000000 
#    z 0.073280 0.000000 3.351070 
# 
# 
# High freq. dielectric constant tensor:
#      x y z
#    x 1.746180 0.000000 0.008790 
#    y 0.000000 1.746140 0.000000 
#    z 0.008790 0.000000 1.720110 
# 
# From -- ./inp_files/41712.got.cif
#   From: 2010.03.12/outbox.cif.g09.slc.cpg/sg14_21_cif.got.tgz:41712.got - 2010.03.31 13:35:05.
