data_PCOD8123175
_publ_section_title
;
Structure prediction by ZEFSAII (Michael W. Deem and Ramdas Pophale) SiO2 
 PCOD8123175
Probable space group: P 2/C
;
_chemical_formula_sum "Si O2"
_cell_formula_units_Z 16
_cell_length_a 5.134821
_cell_length_b 16.352997
_cell_length_c 8.300648
_cell_angle_alpha 90.000000
_cell_angle_beta 115.033168
_cell_angle_gamma 90.000000
_cell_volume 631.528642
_symmetry_space_group_name_H-M "P 2/C"
_symmetry_group_IT_number 13
_symmetry_cell_setting 'monoclinic'
loop_
_space_group_symop_operation_xyz
x,y,z
-x,y,1/2-z
-x,-y,-z
x,-y,1/2+z
loop_
_atom_site_type_symbol
_atom_site_label
_atom_site_fract_x
_atom_site_fract_y
_atom_site_fract_z
Si Si1 0.558171 0.589902 0.452364
Si Si2 0.000000 0.193477 0.750000
Si Si3 0.000000 0.807898 0.750000
Si Si4 0.911852 0.686294 0.973583
Si Si5 0.497738 0.907594 0.555313
O O1 0.500000 0.593440 0.250000
O O2 0.500000 0.500000 0.500000
O O3 0.360227 0.650050 0.504815
O O4 0.891747 0.615959 0.557835
O O5 0.111738 0.257155 0.642573
O O6 0.756012 0.137301 0.606348
O O7 0.200512 0.748799 0.692960
O O8 0.203529 0.864120 0.916843
O O9 0.500000 0.902670 0.750000
O O10 0.500000 0.000000 0.500000
#
# Coordination Sequence:
#
# PCOD8123175 Si02
#       5
#     4   2   2   4   4
#     4  12  27  48  76 114 159 212 266 334 411 485
#     4  12  25  52  81 112 160 214 272 340 397 482
#     4  12  29  48  81 118 158 212 278 332 405 488
#     4  12  27  48  81 114 159 212 273 336 403 480
#     4  12  29  50  77 117 162 214 269 337 410 489
#
# _framework density 25.335350999999999
#
# number of rings (size 3 to 8) (size 9 to 14) (size 15 to 20)
#    0.000    0.000    5.000    3.000    7.000    2.000 
#    0.000    0.000    0.000    0.000    0.000    0.000 
#    0.000    0.000    0.000    0.000    0.000    0.000 
#
# Total GULP energy -198227.923690 kJ/mol
# GULP energy per Si atom -12389.245231 kJ/mol
# Density = 2.527769 g / cm^3
# Si number density = 25.335351 Si / 1000 Ang^3
#
#
#
# Elastic Constant Matrix: (Units=GPa)
#
#
# Indices 1 2 3 4 5 6 
#
# 1 122.4559 47.4060 23.2650 0.0000 -4.7235 0.0000
# 2 47.4060 166.2566 50.3243 0.0000 -6.6306 0.0000
# 3 23.2650 50.3243 96.8582 0.0000 7.9536 0.0000
# 4 0.0000 0.0000 0.0000 47.1456 0.0000 -6.1233
# 5 -4.7235 -6.6306 7.9536 0.0000 45.9547 0.0000
# 6 0.0000 0.0000 0.0000 -6.1233 0.0000 36.4369
#
#
#
# Elastic Compliance Matrix: (Units=1/GPa)
#
#
# Indices 1 2 3 4 5 6 
#
# 1 0.009292 -0.002279 -0.001115 0.000000 0.000819 0.000000
# 2 -0.002279 0.007829 -0.003646 0.000000 0.001526 0.000000
# 3 -0.001115 -0.003646 0.012720 0.000000 -0.002842 0.000000
# 4 0.000000 0.000000 0.000000 0.021684 0.000000 0.003644
# 5 0.000819 0.001526 -0.002842 0.000000 0.022557 0.000000
# 6 0.000000 0.000000 0.000000 0.003644 0.000000 0.028057
#
#
# Mechanical properties :
#
#
# Convention : Reuss Voigt Hill
#
# Bulk Modulus (GPa) = 63.44736 69.72905 66.58820
# Shear Modulus (GPa) = 41.16167 43.54582 42.35375
#
# Velocity S-wave (km/s) = 4.03510 4.15031 4.09311
# Velocity P-wave (km/s) = 6.84154 7.10978 6.97695
#
# Compressibility (1/GPa) = 0.01576110
#
# Stress axis : x y z
#
# Youngs Moduli (GPa) = 107.61922 127.72893 78.61853
#
# Poissons Ratio (x) = 0.29114 0.08765
# Poissons Ratio (y) = 0.24530 0.28661
# Poissons Ratio (z) = 0.11998 0.46564
#
# Static dielectric constant tensor:
#      x y z
#    x 4.632680 0.000000 -0.312170 
#    y 0.000000 4.966970 0.000000 
#    z -0.312170 0.000000 5.155860 
# 
# 
# High freq. dielectric constant tensor:
#      x y z
#    x 2.002340 0.000000 -0.013230 
#    y 0.000000 2.036990 0.000000 
#    z -0.013230 0.000000 2.032560 
# 
# From -- ./inp_files/9002.got.cif
#   From: 2010.06.25/outbox.cif.g09.slc.cpg/sg13_5_cif.got.tgz:9002.got - 2010.06.28 04:50:58.
