data_PCOD8123963
_publ_section_title
;
Structure prediction by ZEFSAII (Michael W. Deem and Ramdas Pophale) SiO2 
 PCOD8123963
Probable space group: P 21/C
;
_chemical_formula_sum "Si O2"
_cell_formula_units_Z 32
_cell_length_a 16.076690
_cell_length_b 13.562253
_cell_length_c 8.671913
_cell_angle_alpha 90.000000
_cell_angle_beta 120.735405
_cell_angle_gamma 90.000000
_cell_volume 1625.203611
_symmetry_space_group_name_H-M "P 21/C"
_symmetry_group_IT_number 14
_symmetry_cell_setting 'monoclinic'
loop_
_space_group_symop_operation_xyz
x,y,z
-x,1/2+y,1/2-z
-x,-y,-z
x,1/2-y,1/2+z
loop_
_atom_site_type_symbol
_atom_site_label
_atom_site_fract_x
_atom_site_fract_y
_atom_site_fract_z
Si Si1 0.492387 0.622447 0.636118
Si Si2 0.019311 0.244851 0.141878
Si Si3 0.577010 0.297984 0.128349
Si Si4 0.898369 0.346593 0.269481
Si Si5 0.963816 0.968305 0.709041
Si Si6 0.336295 0.003649 0.821790
Si Si7 0.308109 0.841452 0.547710
Si Si8 0.128870 0.433214 0.193036
O O1 0.485491 0.716154 0.517998
O O2 0.490784 0.640743 0.819267
O O3 0.598765 0.583243 0.703325
O O4 0.403445 0.549491 0.512343
O O5 0.050809 0.144910 0.255175
O O6 0.107505 0.313665 0.162693
O O7 0.972089 0.324862 0.204473
O O8 0.933452 0.216457 0.945775
O O9 0.657640 0.251661 0.319218
O O10 0.622434 0.364278 0.033987
O O11 0.913691 0.465532 0.298065
O O12 0.791975 0.311676 0.126631
O O13 0.902459 0.983857 0.496032
O O14 0.074703 0.003925 0.778269
O O15 0.244648 0.052285 0.822138
O O16 0.297848 0.933361 0.650011
#
# Coordination Sequence:
#
# PCOD8123963 Si02
#       8
#     4   4   4   4   4   4   4   4
#     4   9  20  38  59  84 114 148 186 241 294 343
#     4  11  22  37  56  81 119 153 194 238 292 342
#     4   9  19  36  55  84 114 142 189 244 286 347
#     4  11  21  34  56  84 114 153 193 245 289 341
#     4  10  21  38  57  81 118 154 194 242 287 341
#     4  10  20  38  61  81 113 153 191 232 296 348
#     4  10  19  32  56  82 109 145 193 237 290 344
#     4  10  21  39  60  83 116 158 192 240 293 348
#
# _framework density 19.689841000000001
#
# number of rings (size 3 to 8) (size 9 to 14) (size 15 to 20)
#    0.000    2.000    2.500    1.125    0.000    4.500 
#    2.250    0.000    0.000    0.000    0.000    0.000 
#    0.000    0.000    0.000    0.000    0.000    0.000 
#
# Total GULP energy -396443.502639 kJ/mol
# GULP energy per Si atom -12388.859457 kJ/mol
# Density = 1.964503 g / cm^3
# Si number density = 19.689841 Si / 1000 Ang^3
#
#
#
# Elastic Constant Matrix: (Units=GPa)
#
#
# Indices 1 2 3 4 5 6 
#
# 1 117.8173 45.0346 20.6261 0.0000 6.5569 0.0000
# 2 45.0346 93.3128 6.0314 0.0000 -0.3140 0.0000
# 3 20.6261 6.0314 46.3073 0.0000 -2.9484 0.0000
# 4 0.0000 0.0000 0.0000 17.0929 0.0000 -2.6873
# 5 6.5569 -0.3140 -2.9484 0.0000 31.4455 0.0000
# 6 0.0000 0.0000 0.0000 -2.6873 0.0000 26.7613
#
#
#
# Elastic Compliance Matrix: (Units=1/GPa)
#
#
# Indices 1 2 3 4 5 6 
#
# 1 0.011457 -0.005242 -0.004603 0.000000 -0.002873 0.000000
# 2 -0.005242 0.013206 0.000697 0.000000 0.001290 0.000000
# 3 -0.004603 0.000697 0.023758 0.000000 0.003194 0.000000
# 4 0.000000 0.000000 0.000000 0.059442 0.000000 0.005969
# 5 -0.002873 0.001290 0.003194 0.000000 0.032713 0.000000
# 6 0.000000 0.000000 0.000000 0.005969 0.000000 0.037967
#
#
# Mechanical properties :
#
#
# Convention : Reuss Voigt Hill
#
# Bulk Modulus (GPa) = 33.19570 44.53574 38.86572
# Shear Modulus (GPa) = 24.16864 27.44297 25.80581
#
# Velocity S-wave (km/s) = 3.50732 3.73736 3.62417
# Velocity P-wave (km/s) = 5.77041 6.42585 6.10693
#
# Compressibility (1/GPa) = 0.03012438
#
# Stress axis : x y z
#
# Youngs Moduli (GPa) = 87.28265 75.72541 42.09118
#
# Poissons Ratio (x) = 0.39692 0.19376
# Poissons Ratio (y) = 0.45749 -0.02933
# Poissons Ratio (z) = 0.40180 -0.05277
#
# Static dielectric constant tensor:
#      x y z
#    x 3.561410 0.000000 -0.270130 
#    y 0.000000 3.558590 0.000000 
#    z -0.270130 0.000000 3.330050 
# 
# 
# High freq. dielectric constant tensor:
#      x y z
#    x 1.756920 0.000000 -0.011060 
#    y 0.000000 1.764930 0.000000 
#    z -0.011060 0.000000 1.760060 
# 
# From -- ./inp_files/16251.got.cif
#   From: 2010.03.12/outbox.cif.g09.slc.cpg/sg14_9_cif.got.tgz:16251.got - 2010.03.31 13:35:05.
