data_PCOD8123957
_publ_section_title
;
Structure prediction by ZEFSAII (Michael W. Deem and Ramdas Pophale) SiO2 
 PCOD8123957
Probable space group: P 21/C
;
_chemical_formula_sum "Si O2"
_cell_formula_units_Z 24
_cell_length_a 12.089971
_cell_length_b 5.125946
_cell_length_c 22.564892
_cell_angle_alpha 90.000000
_cell_angle_beta 56.415909
_cell_angle_gamma 90.000000
_cell_volume 1164.974923
_symmetry_space_group_name_H-M "P 21/C"
_symmetry_group_IT_number 14
_symmetry_cell_setting 'monoclinic'
loop_
_space_group_symop_operation_xyz
x,y,z
-x,1/2+y,1/2-z
-x,-y,-z
x,1/2-y,1/2+z
loop_
_atom_site_type_symbol
_atom_site_label
_atom_site_fract_x
_atom_site_fract_y
_atom_site_fract_z
Si Si1 0.864390 0.883214 0.902470
Si Si2 0.558667 0.953901 0.388944
Si Si3 0.303131 0.616439 0.035815
Si Si4 0.192563 0.178915 0.212501
Si Si5 0.435841 0.604246 0.241903
Si Si6 0.149386 0.673875 0.300558
O O1 0.771057 0.654656 0.954334
O O2 0.882240 0.876199 0.826348
O O3 0.016361 0.850841 0.880478
O O4 0.802147 0.154189 0.941990
O O5 0.632413 0.126500 0.417656
O O6 0.541953 0.131983 0.335511
O O7 0.417549 0.849678 0.453138
O O8 0.648510 0.700133 0.346778
O O9 0.144865 0.459325 0.250065
O O10 0.157851 0.960832 0.270270
O O11 0.479489 0.318873 0.249556
O O12 0.279083 0.632356 0.303325
#
# Coordination Sequence:
#
# PCOD8123957 Si02
#       6
#     4   4   4   4   4   4
#     4  11  20  33  53  84 115 147 180 217 287 343
#     4   9  21  39  58  86 116 145 191 228 275 327
#     4  10  22  35  59  86 117 150 176 225 278 345
#     4  10  19  32  55  82 112 146 178 228 283 329
#     4  11  23  38  59  81 106 146 191 238 276 314
#     4  11  21  35  54  79 114 144 184 234 275 331
#
# _framework density 20.601299999999998
#
# number of rings (size 3 to 8) (size 9 to 14) (size 15 to 20)
#    0.000    1.667    0.000    7.000    0.000   11.333 
#    0.000    0.000    0.000    6.000    0.000    0.000 
#    0.000    0.000    0.000    0.000    0.000    0.000 
#
# Total GULP energy -297611.484030 kJ/mol
# GULP energy per Si atom -12400.478501 kJ/mol
# Density = 2.055441 g / cm^3
# Si number density = 20.601300 Si / 1000 Ang^3
#
#
#
# Elastic Constant Matrix: (Units=GPa)
#
#
# Indices 1 2 3 4 5 6 
#
# 1 84.0282 16.5744 40.6677 0.0000 -25.1289 0.0000
# 2 16.5744 98.9201 27.4179 0.0000 -10.6717 0.0000
# 3 40.6677 27.4179 101.1094 0.0000 -32.8301 0.0000
# 4 0.0000 0.0000 0.0000 26.8879 0.0000 -7.1993
# 5 -25.1289 -10.6717 -32.8301 0.0000 35.8618 0.0000
# 6 0.0000 0.0000 0.0000 -7.1993 0.0000 21.2218
#
#
#
# Elastic Compliance Matrix: (Units=1/GPa)
#
#
# Indices 1 2 3 4 5 6 
#
# 1 0.016185 -0.000834 -0.003816 0.000000 0.007599 0.000000
# 2 -0.000834 0.010989 -0.002522 0.000000 0.000377 0.000000
# 3 -0.003816 -0.002522 0.015649 0.000000 0.010901 0.000000
# 4 0.000000 0.000000 0.000000 0.040907 0.000000 0.013877
# 5 0.007599 0.000377 0.010901 0.000000 0.043301 0.000000
# 6 0.000000 0.000000 0.000000 0.013877 0.000000 0.051829
#
#
# Mechanical properties :
#
#
# Convention : Reuss Voigt Hill
#
# Bulk Modulus (GPa) = 35.11549 50.37529 42.74539
# Shear Modulus (GPa) = 24.66736 30.08747 27.37742
#
# Velocity S-wave (km/s) = 3.46406 3.82575 3.64939
# Velocity P-wave (km/s) = 5.75168 6.63481 6.20897
#
# Compressibility (1/GPa) = 0.02847746
#
# Stress axis : x y z
#
# Youngs Moduli (GPa) = 61.78643 91.00348 63.90320
#
# Poissons Ratio (x) = 0.07592 0.24386
# Poissons Ratio (y) = 0.05155 0.16116
# Poissons Ratio (z) = 0.23578 0.22950
#
# Static dielectric constant tensor:
#      x y z
#    x 3.805270 0.000000 -0.380410 
#    y 0.000000 3.621760 0.000000 
#    z -0.380410 0.000000 3.679470 
# 
# 
# High freq. dielectric constant tensor:
#      x y z
#    x 1.788810 0.000000 -0.037760 
#    y 0.000000 1.813110 0.000000 
#    z -0.037760 0.000000 1.786620 
# 
# From -- ./inp_files/66225.got.cif
#   From: 2010.03.12/outbox.cif.g09.slc.cpg/sg14_34_cif.got.tgz:66225.got - 2010.03.31 13:35:05.
