data_PCOD8123009
_publ_section_title
;
Structure prediction by ZEFSAII (Michael W. Deem and Ramdas Pophale) SiO2 
 PCOD8123009
Probable space group: P 2/C
;
_chemical_formula_sum "Si O2"
_cell_formula_units_Z 16
_cell_length_a 12.127528
_cell_length_b 5.027379
_cell_length_c 18.334043
_cell_angle_alpha 90.000000
_cell_angle_beta 145.429830
_cell_angle_gamma 90.000000
_cell_volume 634.268379
_symmetry_space_group_name_H-M "P 2/C"
_symmetry_group_IT_number 13
_symmetry_cell_setting 'monoclinic'
loop_
_space_group_symop_operation_xyz
x,y,z
-x,y,1/2-z
-x,-y,-z
x,-y,1/2+z
loop_
_atom_site_type_symbol
_atom_site_label
_atom_site_fract_x
_atom_site_fract_y
_atom_site_fract_z
Si Si1 0.208303 0.627336 0.886183
Si Si2 0.562005 0.266984 0.127543
Si Si3 0.223581 0.567553 0.618148
Si Si4 0.309080 0.086684 0.571892
O O1 0.312754 0.783490 0.876662
O O2 0.000000 0.502503 0.750000
O O3 0.354497 0.403253 0.995935
O O4 0.160587 0.837734 0.925257
O O5 0.691223 0.435275 0.254180
O O6 0.511200 0.989448 0.140692
O O7 0.343751 0.347211 0.639333
O O8 0.000000 0.500000 0.500000
O O9 0.239866 0.848139 0.585464
#
# Coordination Sequence:
#
# PCOD8123009 Si02
#       4
#     4   4   4   4
#     4  11  26  52  75 113 156 205 257 318 387 463
#     4  11  27  47  82 112 158 199 264 316 393 453
#     4  12  28  50  80 116 156 205 259 322 387 461
#     4  12  26  50  77 113 155 201 257 318 384 458
#
# _framework density 25.225918
#
# number of rings (size 3 to 8) (size 9 to 14) (size 15 to 20)
#    0.000    0.500    2.500    3.750    7.000    1.000 
#    4.500    0.000    0.000    0.000    0.000    0.000 
#    0.000    0.000    0.000    0.000    0.000    0.000 
#
# Total GULP energy -198302.915283 kJ/mol
# GULP energy per Si atom -12393.932205 kJ/mol
# Density = 2.516850 g / cm^3
# Si number density = 25.225918 Si / 1000 Ang^3
#
#
#
# Elastic Constant Matrix: (Units=GPa)
#
#
# Indices 1 2 3 4 5 6 
#
# 1 95.0103 25.4941 54.6579 0.0000 -25.8445 0.0000
# 2 25.4941 105.6034 43.0553 0.0000 -20.5700 0.0000
# 3 54.6579 43.0553 196.8445 0.0000 -3.3615 0.0000
# 4 0.0000 0.0000 0.0000 11.8512 0.0000 2.2113
# 5 -25.8445 -20.5700 -3.3615 0.0000 50.8844 0.0000
# 6 0.0000 0.0000 0.0000 2.2113 0.0000 37.4602
#
#
#
# Elastic Compliance Matrix: (Units=1/GPa)
#
#
# Indices 1 2 3 4 5 6 
#
# 1 0.014824 -0.000640 -0.003856 0.000000 0.007016 0.000000
# 2 -0.000640 0.011334 -0.002231 0.000000 0.004109 0.000000
# 3 -0.003856 -0.002231 0.006598 0.000000 -0.002425 0.000000
# 4 0.000000 0.000000 0.000000 0.085320 0.000000 -0.005036
# 5 0.007016 0.004109 -0.002425 0.000000 0.024717 0.000000
# 6 0.000000 0.000000 0.000000 -0.005036 0.000000 0.026992
#
#
# Mechanical properties :
#
#
# Convention : Reuss Voigt Hill
#
# Bulk Modulus (GPa) = 51.81216 71.54141 61.67679
# Shear Modulus (GPa) = 26.36127 38.32255 32.34191
#
# Velocity S-wave (km/s) = 3.23616 3.90189 3.58451
# Velocity P-wave (km/s) = 5.87771 6.98008 6.45248
#
# Compressibility (1/GPa) = 0.01930049
#
# Stress axis : x y z
#
# Youngs Moduli (GPa) = 67.45930 88.23021 151.57095
#
# Poissons Ratio (x) = 0.05645 0.58451
# Poissons Ratio (y) = 0.04316 0.33819
# Poissons Ratio (z) = 0.26015 0.19686
#
# Static dielectric constant tensor:
#      x y z
#    x 4.657640 0.000000 -0.352650 
#    y 0.000000 4.516970 0.000000 
#    z -0.352650 0.000000 4.773550 
# 
# 
# High freq. dielectric constant tensor:
#      x y z
#    x 2.021320 0.000000 -0.025220 
#    y 0.000000 1.992450 0.000000 
#    z -0.025220 0.000000 2.024050 
# 
# From -- ./inp_files/65210.got.cif
#   From: 2010.06.25/outbox.cif.g09.slc.cpg/sg13_33_cif.got.tgz:65210.got - 2010.06.28 04:50:58.
