data_PCOD8123245
_publ_section_title
;
Structure prediction by ZEFSAII (Michael W. Deem and Ramdas Pophale) SiO2 
 PCOD8123245
Probable space group: P 21/C
;
_chemical_formula_sum "Si O2"
_cell_formula_units_Z 32
_cell_length_a 9.749505
_cell_length_b 20.942197
_cell_length_c 16.792178
_cell_angle_alpha 90.000000
_cell_angle_beta 153.455665
_cell_angle_gamma 90.000000
_cell_volume 1532.190059
_symmetry_space_group_name_H-M "P 21/C"
_symmetry_group_IT_number 14
_symmetry_cell_setting 'monoclinic'
loop_
_space_group_symop_operation_xyz
x,y,z
-x,1/2+y,1/2-z
-x,-y,-z
x,1/2-y,1/2+z
loop_
_atom_site_type_symbol
_atom_site_label
_atom_site_fract_x
_atom_site_fract_y
_atom_site_fract_z
Si Si1 0.620142 0.165874 0.998970
Si Si2 0.196896 0.992375 0.292079
Si Si3 0.656127 0.112552 0.849088
Si Si4 0.320163 0.296379 0.864514
Si Si5 0.185253 0.941373 0.788838
Si Si6 0.537442 0.622797 0.916415
Si Si7 0.315251 0.395286 0.734121
Si Si8 0.340801 0.981683 0.700144
O O1 0.603038 0.110763 0.056840
O O2 0.957612 0.195198 0.174767
O O3 0.523139 0.138850 0.862654
O O4 0.380049 0.221480 0.891915
O O5 0.236334 0.923404 0.271340
O O6 0.500000 0.000000 0.500000
O O7 0.179515 0.050339 0.221407
O O8 0.895049 0.999714 0.192228
O O9 0.493722 0.148839 0.690233
O O10 0.578916 0.037232 0.802027
O O11 0.018925 0.126359 0.029943
O O12 0.454813 0.337220 0.859582
O O13 0.476804 0.320422 0.027497
O O14 0.372101 0.966267 0.809886
O O15 0.860121 0.913213 0.591926
O O16 0.576188 0.419893 0.809951
O O17 0.000000 0.000000 0.500000
#
# Coordination Sequence:
#
# PCOD8123245 Si02
#       8
#     4   4   4   4   4   4   4   4
#     4  10  23  45  61  85 123 166 211 257 304 366
#     4  10  15  34  64  86 115 162 199 231 310 379
#     4  11  22  40  61  91 127 159 196 261 316 367
#     4  10  22  44  64  82 117 169 217 246 301 377
#     4  10  20  39  59  90 130 158 194 259 302 362
#     4  10  19  36  66  87 116 165 202 239 309 383
#     4  11  21  39  62  87 126 164 200 250 309 379
#     4  12  23  35  62 100 130 153 203 258 317 366
#
# _framework density 20.885137
#
# number of rings (size 3 to 8) (size 9 to 14) (size 15 to 20)
#    0.000    1.500    7.500    1.125    0.000    1.500 
#    4.500    2.500    0.000    0.000    0.000    0.000 
#    0.000    0.000    0.000    0.000    0.000    0.000 
#
# Total GULP energy -396714.019299 kJ/mol
# GULP energy per Si atom -12397.313103 kJ/mol
# Density = 2.083760 g / cm^3
# Si number density = 20.885137 Si / 1000 Ang^3
#
#
#
# Elastic Constant Matrix: (Units=GPa)
#
#
# Indices 1 2 3 4 5 6 
#
# 1 106.4260 19.4550 27.7254 0.0000 -25.7362 0.0000
# 2 19.4550 61.6006 28.6466 0.0000 -13.8109 0.0000
# 3 27.7254 28.6466 77.6059 0.0000 -35.8342 0.0000
# 4 0.0000 0.0000 0.0000 26.1283 0.0000 3.8795
# 5 -25.7362 -13.8109 -35.8342 0.0000 35.1967 0.0000
# 6 0.0000 0.0000 0.0000 3.8795 0.0000 33.4893
#
#
#
# Elastic Compliance Matrix: (Units=1/GPa)
#
#
# Indices 1 2 3 4 5 6 
#
# 1 0.011624 -0.002009 0.000282 0.000000 0.007999 0.000000
# 2 -0.002009 0.019952 -0.007002 0.000000 -0.000769 0.000000
# 3 0.000282 -0.007002 0.026791 0.000000 0.024734 0.000000
# 4 0.000000 0.000000 0.000000 0.038943 0.000000 -0.004511
# 5 0.007999 -0.000769 0.024734 0.000000 0.059141 0.000000
# 6 0.000000 0.000000 0.000000 -0.004511 0.000000 0.030383
#
#
# Mechanical properties :
#
#
# Convention : Reuss Voigt Hill
#
# Bulk Modulus (GPa) = 24.44496 44.14295 34.29395
# Shear Modulus (GPa) = 22.94339 30.28323 26.61331
#
# Velocity S-wave (km/s) = 3.31804 3.81200 3.57356
# Velocity P-wave (km/s) = 5.13897 6.36845 5.78646
#
# Compressibility (1/GPa) = 0.04090823
#
# Stress axis : x y z
#
# Youngs Moduli (GPa) = 86.02734 50.12032 37.32657
#
# Poissons Ratio (x) = 0.10070 -0.01053
# Poissons Ratio (y) = 0.17284 0.26137
# Poissons Ratio (z) = -0.02426 0.35095
#
# Static dielectric constant tensor:
#      x y z
#    x 3.938780 0.000000 -0.357140 
#    y 0.000000 3.655020 0.000000 
#    z -0.357140 0.000000 3.658730 
# 
# 
# High freq. dielectric constant tensor:
#      x y z
#    x 1.817080 0.000000 -0.020920 
#    y 0.000000 1.784690 0.000000 
#    z -0.020920 0.000000 1.823030 
# 
# From -- ./inp_files/42246.got.cif
#   From: 2010.03.12/outbox.cif.g09.slc.cpg/sg14_22_cif.got.tgz:42246.got - 2010.03.31 13:35:05.
