data_PCOD8123119
_publ_section_title
;
Structure prediction by ZEFSAII (Michael W. Deem and Ramdas Pophale) SiO2 
 PCOD8123119
Probable space group: P 2/C
;
_chemical_formula_sum "Si O2"
_cell_formula_units_Z 18
_cell_length_a 11.884383
_cell_length_b 9.149088
_cell_length_c 8.073135
_cell_angle_alpha 90.000000
_cell_angle_beta 59.516455
_cell_angle_gamma 90.000000
_cell_volume 756.467881
_symmetry_space_group_name_H-M "P 2/C"
_symmetry_group_IT_number 13
_symmetry_cell_setting 'monoclinic'
loop_
_space_group_symop_operation_xyz
x,y,z
-x,y,1/2-z
-x,-y,-z
x,-y,1/2+z
loop_
_atom_site_type_symbol
_atom_site_label
_atom_site_fract_x
_atom_site_fract_y
_atom_site_fract_z
Si Si1 0.221547 0.694413 0.896922
Si Si2 0.650563 0.453697 0.888157
Si Si3 0.000000 0.826647 0.250000
Si Si4 0.358328 0.823831 0.289756
Si Si5 0.229885 0.028626 0.178666
O O1 0.248164 0.587928 0.719155
O O2 0.247583 0.860788 0.820654
O O3 0.317151 0.634794 0.969064
O O4 0.073329 0.710199 0.074000
O O5 0.666452 0.347695 0.717302
O O6 0.500000 0.500000 0.000000
O O7 0.904336 0.935396 0.220851
O O8 0.500000 0.856932 0.250000
O O9 0.247397 0.883032 0.496570
O O10 0.342414 0.907689 0.126102
#
# Coordination Sequence:
#
# PCOD8123119 Si02
#       5
#     4   4   2   4   4
#     4  12  26  47  76 109 147 199 245 305 375 448
#     4  12  26  49  74 111 152 193 245 313 380 447
#     4  12  26  50  74 108 154 192 262 300 374 442
#     4  12  24  44  73 112 145 192 248 313 381 440
#     4  12  25  47  76 107 148 195 250 310 370 441
#
# _framework density 23.794799000000001
#
# number of rings (size 3 to 8) (size 9 to 14) (size 15 to 20)
#    0.000    0.000    4.444    6.000    0.000    2.667 
#    0.000    2.222    0.000    0.000    0.000    0.000 
#    0.000    0.000    0.000    0.000    0.000    0.000 
#
# Total GULP energy -223015.758660 kJ/mol
# GULP energy per Si atom -12389.764370 kJ/mol
# Density = 2.374064 g / cm^3
# Si number density = 23.794799 Si / 1000 Ang^3
#
#
#
# Elastic Constant Matrix: (Units=GPa)
#
#
# Indices 1 2 3 4 5 6 
#
# 1 120.4879 68.5560 16.5059 0.0000 5.6949 0.0000
# 2 68.5560 153.7093 60.3103 0.0000 -13.8307 0.0000
# 3 16.5059 60.3103 96.4997 0.0000 -12.8699 0.0000
# 4 0.0000 0.0000 0.0000 40.3631 0.0000 8.5498
# 5 5.6949 -13.8307 -12.8699 0.0000 28.8197 0.0000
# 6 0.0000 0.0000 0.0000 8.5498 0.0000 50.3438
#
#
#
# Elastic Compliance Matrix: (Units=1/GPa)
#
#
# Indices 1 2 3 4 5 6 
#
# 1 0.011894 -0.006210 0.001208 0.000000 -0.004791 0.000000
# 2 -0.006210 0.011954 -0.005827 0.000000 0.004362 0.000000
# 3 0.001208 -0.005827 0.014242 0.000000 0.003325 0.000000
# 4 0.000000 0.000000 0.000000 0.025700 0.000000 -0.004365
# 5 -0.004791 0.004362 0.003325 0.000000 0.039223 0.000000
# 6 0.000000 0.000000 0.000000 -0.004365 0.000000 0.020605
#
#
# Mechanical properties :
#
#
# Convention : Reuss Voigt Hill
#
# Bulk Modulus (GPa) = 60.86151 73.49348 67.17749
# Shear Modulus (GPa) = 33.16685 38.92696 36.04690
#
# Velocity S-wave (km/s) = 3.73751 4.04907 3.89640
# Velocity P-wave (km/s) = 6.65270 7.26728 6.96677
#
# Compressibility (1/GPa) = 0.01643075
#
# Stress axis : x y z
#
# Youngs Moduli (GPa) = 84.07709 83.65200 70.21710
#
# Poissons Ratio (x) = 0.51945 -0.08479
# Poissons Ratio (y) = 0.52209 0.40918
# Poissons Ratio (z) = -0.10153 0.48747
#
# Static dielectric constant tensor:
#      x y z
#    x 4.140810 0.000000 0.235140 
#    y 0.000000 4.745700 0.000000 
#    z 0.235140 0.000000 4.499300 
# 
# 
# High freq. dielectric constant tensor:
#      x y z
#    x 1.929440 0.000000 0.015410 
#    y 0.000000 1.970020 0.000000 
#    z 0.015410 0.000000 1.946190 
# 
# From -- ./inp_files/14607.got.cif
#   From: 2010.06.25/outbox.cif.g09.slc.cpg/sg13_8_cif.got.tgz:14607.got - 2010.06.28 04:50:58.
