data_PCOD8123531
_publ_section_title
;
Structure prediction by ZEFSAII (Michael W. Deem and Ramdas Pophale) SiO2 
 PCOD8123531
Probable space group: P 21/C
;
_chemical_formula_sum "Si O2"
_cell_formula_units_Z 32
_cell_length_a 8.875283
_cell_length_b 19.581452
_cell_length_c 10.519236
_cell_angle_alpha 90.000000
_cell_angle_beta 62.591942
_cell_angle_gamma 90.000000
_cell_volume 1622.939394
_symmetry_space_group_name_H-M "P 21/C"
_symmetry_group_IT_number 14
_symmetry_cell_setting 'monoclinic'
loop_
_space_group_symop_operation_xyz
x,y,z
-x,1/2+y,1/2-z
-x,-y,-z
x,1/2-y,1/2+z
loop_
_atom_site_type_symbol
_atom_site_label
_atom_site_fract_x
_atom_site_fract_y
_atom_site_fract_z
Si Si1 0.209828 0.400283 0.933406
Si Si2 0.006864 0.253484 0.742045
Si Si3 0.014066 0.394824 0.262860
Si Si4 0.088297 0.023022 0.091868
Si Si5 0.778347 0.749585 0.091118
Si Si6 0.096218 0.892395 0.641238
Si Si7 0.312883 0.107614 0.849057
Si Si8 0.407290 0.527281 0.911835
O O1 0.302009 0.325525 0.907019
O O2 0.343484 0.461204 0.857164
O O3 0.072152 0.399047 0.876950
O O4 0.118745 0.418448 0.099895
O O5 0.873140 0.313058 0.830020
O O6 0.920288 0.178080 0.778410
O O7 0.078905 0.265095 0.571782
O O8 0.153249 0.253444 0.791619
O O9 0.146609 0.390512 0.326325
O O10 0.872453 0.453407 0.343352
O O11 0.940737 0.065884 0.217608
O O12 0.259451 0.066377 0.998472
O O13 0.000000 0.000000 0.000000
O O14 0.643735 0.812637 0.134974
O O15 0.258080 0.920563 0.505106
O O16 0.470083 0.070594 0.724662
O O17 0.500000 0.500000 0.000000
#
# Coordination Sequence:
#
# PCOD8123531 Si02
#       8
#     4   4   4   4   4   4   4   4
#     4  10  20  36  60  84 109 153 198 235 280 351
#     4   9  18  33  57  87 108 148 200 241 276 344
#     4   9  17  33  58  83 112 145 193 232 283 335
#     4  10  18  32  54  83 109 147 191 234 275 337
#     4   9  18  34  60  82 113 151 201 232 290 343
#     4  11  21  36  61  83 111 147 200 240 281 337
#     4  10  19  34  56  85 115 152 189 234 285 355
#     4  12  22  37  57  88 119 153 188 238 299 351
#
# _framework density 19.717310000000001
#
# number of rings (size 3 to 8) (size 9 to 14) (size 15 to 20)
#    0.000    2.000    3.750    1.125    0.000    0.000 
#    0.000    1.875    5.500    0.000    0.000    0.000 
#    0.000    0.000    0.000    0.000    0.000    0.000 
#
# Total GULP energy -396441.491097 kJ/mol
# GULP energy per Si atom -12388.796597 kJ/mol
# Density = 1.967243 g / cm^3
# Si number density = 19.717310 Si / 1000 Ang^3
#
#
#
# Elastic Constant Matrix: (Units=GPa)
#
#
# Indices 1 2 3 4 5 6 
#
# 1 31.1652 26.3542 8.8178 0.0000 -6.7037 0.0000
# 2 26.3542 200.2005 63.4584 0.0000 -29.0493 0.0000
# 3 8.8178 63.4584 91.3784 0.0000 -13.5014 0.0000
# 4 0.0000 0.0000 0.0000 31.6746 0.0000 1.2583
# 5 -6.7037 -29.0493 -13.5014 0.0000 26.4181 0.0000
# 6 0.0000 0.0000 0.0000 1.2583 0.0000 16.1843
#
#
#
# Elastic Compliance Matrix: (Units=1/GPa)
#
#
# Indices 1 2 3 4 5 6 
#
# 1 0.036600 -0.004143 0.000048 0.000000 0.004756 0.000000
# 2 -0.004143 0.007597 -0.004107 0.000000 0.005204 0.000000
# 3 0.000048 -0.004107 0.014198 0.000000 0.002752 0.000000
# 4 0.000000 0.000000 0.000000 0.031669 0.000000 -0.002462
# 5 0.004756 0.005204 0.002752 0.000000 0.046188 0.000000
# 6 0.000000 0.000000 0.000000 -0.002462 0.000000 0.061980
#
#
# Mechanical properties :
#
#
# Convention : Reuss Voigt Hill
#
# Bulk Modulus (GPa) = 23.81493 57.77834 40.79663
# Shear Modulus (GPa) = 21.86908 29.79631 25.83270
#
# Velocity S-wave (km/s) = 3.33397 3.89160 3.62353
# Velocity P-wave (km/s) = 5.18892 7.03987 6.18404
#
# Compressibility (1/GPa) = 0.04199046
#
# Stress axis : x y z
#
# Youngs Moduli (GPa) = 27.32239 131.62438 70.43312
#
# Poissons Ratio (x) = 0.54534 -0.00339
# Poissons Ratio (y) = 0.11320 0.28930
# Poissons Ratio (z) = -0.00132 0.54064
#
# Static dielectric constant tensor:
#      x y z
#    x 3.110500 0.000000 0.484220 
#    y 0.000000 4.085290 0.000000 
#    z 0.484220 0.000000 4.836560 
# 
# 
# High freq. dielectric constant tensor:
#      x y z
#    x 1.698000 0.000000 0.033270 
#    y 0.000000 1.808950 0.000000 
#    z 0.033270 0.000000 1.771370 
# 
# From -- ./inp_files/26647.got.cif
#   From: 2010.03.12/outbox.cif.g09.slc.cpg/sg14_14_cif.got.tgz:26647.got - 2010.03.31 13:35:05.
