data_PCOD8123575
_publ_section_title
;
Structure prediction by ZEFSAII (Michael W. Deem and Ramdas Pophale) SiO2 
 PCOD8123575
Probable space group: P 21/C
;
_chemical_formula_sum "Si O2"
_cell_formula_units_Z 28
_cell_length_a 10.788001
_cell_length_b 18.567661
_cell_length_c 19.780734
_cell_angle_alpha 90.000000
_cell_angle_beta 156.687802
_cell_angle_gamma 90.000000
_cell_volume 1568.020207
_symmetry_space_group_name_H-M "P 21/C"
_symmetry_group_IT_number 14
_symmetry_cell_setting 'monoclinic'
loop_
_space_group_symop_operation_xyz
x,y,z
-x,1/2+y,1/2-z
-x,-y,-z
x,1/2-y,1/2+z
loop_
_atom_site_type_symbol
_atom_site_label
_atom_site_fract_x
_atom_site_fract_y
_atom_site_fract_z
Si Si1 0.661445 0.425745 0.659657
Si Si2 0.401133 0.439877 0.808797
Si Si3 0.344886 0.667113 0.954152
Si Si4 0.607234 0.675322 0.581505
Si Si5 0.365413 0.445389 0.986537
Si Si6 0.325824 0.970846 0.690565
Si Si7 0.669239 0.441660 0.463874
O O1 0.524090 0.354870 0.555496
O O2 0.718452 0.414269 0.769132
O O3 0.421519 0.493199 0.529687
O O4 0.992918 0.443429 0.791312
O O5 0.478888 0.428502 0.768914
O O6 0.037347 0.432089 0.641744
O O7 0.582074 0.380490 0.943218
O O8 0.525578 0.521432 0.887085
O O9 0.977208 0.673512 0.762915
O O10 0.498845 0.744176 0.039751
O O11 0.486734 0.632416 0.956224
O O12 0.480424 0.630756 0.581856
O O13 0.500000 0.500000 0.000000
O O14 0.000000 0.000000 0.500000
O O15 0.521135 0.040094 0.816216
#
# Coordination Sequence:
#
# PCOD8123575 Si02
#       7
#     4   4   4   4   4   4   4
#     4  10  21  34  58  82 117 147 184 238 282 334
#     4  11  19  38  57  86 115 145 197 227 287 334
#     4  11  24  35  62  79 115 152 186 243 281 344
#     4  12  21  40  54  86 114 146 195 231 293 333
#     4  10  18  33  55  84 107 144 186 234 276 324
#     4  10  20  36  57  85 114 149 187 233 282 331
#     4  10  21  33  61  85 113 150 185 245 273 340
#
# _framework density 17.856912999999999
#
# number of rings (size 3 to 8) (size 9 to 14) (size 15 to 20)
#    0.857    0.571    1.429    7.714    0.000    0.000 
#    0.000    0.000    3.143    3.429    0.000    0.000 
#    0.000    0.000    0.000    0.000    0.000    0.000 
#
# Total GULP energy -347053.369085 kJ/mol
# GULP energy per Si atom -12394.763182 kJ/mol
# Density = 1.781627 g / cm^3
# Si number density = 17.856913 Si / 1000 Ang^3
#
#
#
# Elastic Constant Matrix: (Units=GPa)
#
#
# Indices 1 2 3 4 5 6 
#
# 1 112.7646 48.0717 50.1886 0.0000 5.1654 0.0000
# 2 48.0717 97.7720 27.1560 0.0000 -2.5152 0.0000
# 3 50.1886 27.1560 130.6843 0.0000 13.1284 0.0000
# 4 0.0000 0.0000 0.0000 28.4453 0.0000 1.5648
# 5 5.1654 -2.5152 13.1284 0.0000 37.7957 0.0000
# 6 0.0000 0.0000 0.0000 1.5648 0.0000 13.8604
#
#
#
# Elastic Compliance Matrix: (Units=1/GPa)
#
#
# Indices 1 2 3 4 5 6 
#
# 1 0.012826 -0.005286 -0.003747 0.000000 -0.000803 0.000000
# 2 -0.005286 0.013123 -0.000888 0.000000 0.001904 0.000000
# 3 -0.003747 -0.000888 0.009564 0.000000 -0.002869 0.000000
# 4 0.000000 0.000000 0.000000 0.035375 0.000000 -0.003994
# 5 -0.000803 0.001904 -0.002869 0.000000 0.027691 0.000000
# 6 0.000000 0.000000 0.000000 -0.003994 0.000000 0.072599
#
#
# Mechanical properties :
#
#
# Convention : Reuss Voigt Hill
#
# Bulk Modulus (GPa) = 63.81392 65.78373 64.79882
# Shear Modulus (GPa) = 25.47876 30.40725 27.94301
#
# Velocity S-wave (km/s) = 3.78144 4.13101 3.96008
# Velocity P-wave (km/s) = 7.40807 7.72483 7.56811
#
# Compressibility (1/GPa) = 0.01567056
#
# Stress axis : x y z
#
# Youngs Moduli (GPa) = 77.96780 76.20460 104.56310
#
# Poissons Ratio (x) = 0.40283 0.39175
# Poissons Ratio (y) = 0.41215 0.09285
# Poissons Ratio (z) = 0.29211 0.06767
#
# Static dielectric constant tensor:
#      x y z
#    x 3.788670 0.000000 -0.047530 
#    y 0.000000 3.328470 0.000000 
#    z -0.047530 0.000000 3.423410 
# 
# 
# High freq. dielectric constant tensor:
#      x y z
#    x 1.691850 0.000000 0.010830 
#    y 0.000000 1.662940 0.000000 
#    z 0.010830 0.000000 1.711950 
# 
# From -- ./inp_files/73361.got.cif
#   From: 2010.03.12/outbox.cif.g09.slc.cpg/sg14_37_cif.got.tgz:73361.got - 2010.03.31 13:35:05.
