data_PCOD8123367
_publ_section_title
;
Structure prediction by ZEFSAII (Michael W. Deem and Ramdas Pophale) SiO2 
 PCOD8123367
Probable space group: P 21/C
;
_chemical_formula_sum "Si O2"
_cell_formula_units_Z 32
_cell_length_a 16.272353
_cell_length_b 14.129236
_cell_length_c 14.094135
_cell_angle_alpha 90.000000
_cell_angle_beta 149.268825
_cell_angle_gamma 90.000000
_cell_volume 1655.912755
_symmetry_space_group_name_H-M "P 21/C"
_symmetry_group_IT_number 14
_symmetry_cell_setting 'monoclinic'
loop_
_space_group_symop_operation_xyz
x,y,z
-x,1/2+y,1/2-z
-x,-y,-z
x,1/2-y,1/2+z
loop_
_atom_site_type_symbol
_atom_site_label
_atom_site_fract_x
_atom_site_fract_y
_atom_site_fract_z
Si Si1 0.411885 0.299288 0.313002
Si Si2 0.404436 0.991454 0.809643
Si Si3 0.409954 0.505492 0.685659
Si Si4 0.671716 0.289770 0.421689
Si Si5 0.148979 0.681407 0.749494
Si Si6 0.648409 0.997136 0.577935
Si Si7 0.794413 0.877927 0.875557
Si Si8 0.305660 0.800259 0.756479
O O1 0.334845 0.403761 0.217869
O O2 0.507532 0.264412 0.314480
O O3 0.267811 0.228871 0.192223
O O4 0.532962 0.299216 0.521434
O O5 0.268707 0.909486 0.688254
O O6 0.526900 0.956868 0.848213
O O7 0.500000 0.000000 0.000000
O O8 0.303642 0.596835 0.552048
O O9 0.299509 0.434805 0.636131
O O10 0.573579 0.537858 0.904018
O O11 0.820406 0.237855 0.621969
O O12 0.661844 0.261489 0.303322
O O13 0.284696 0.602414 0.868794
O O14 0.158914 0.755706 0.671338
O O15 0.980490 0.627681 0.587366
O O16 0.778599 0.927008 0.755726
O O17 0.500000 0.000000 0.500000
#
# Coordination Sequence:
#
# PCOD8123367 Si02
#       8
#     4   4   4   4   4   4   4   4
#     4   9  19  34  55  80 104 138 192 239 266 319
#     4   9  18  32  55  81 105 142 193 233 267 316
#     4  10  19  35  61  84 106 146 195 239 274 325
#     4  10  19  35  56  80 106 143 187 228 274 326
#     4  11  23  36  54  86 122 147 177 231 291 346
#     4  10  19  35  60  84 105 142 194 240 278 321
#     4  11  21  37  56  85 119 145 177 233 298 343
#     4  10  17  34  56  76 107 149 188 229 273 326
#
# _framework density 19.32469
#
# number of rings (size 3 to 8) (size 9 to 14) (size 15 to 20)
#    0.000    2.000    0.000    7.875    0.000    0.000 
#    0.000   10.625    0.000    0.000    0.000    0.000 
#    0.000    0.000    0.000    0.000    0.000    0.000 
#
# Total GULP energy -396587.090439 kJ/mol
# GULP energy per Si atom -12393.346576 kJ/mol
# Density = 1.928071 g / cm^3
# Si number density = 19.324690 Si / 1000 Ang^3
#
#
#
# Elastic Constant Matrix: (Units=GPa)
#
#
# Indices 1 2 3 4 5 6 
#
# 1 100.1742 36.4350 38.1552 0.0000 -22.8859 0.0000
# 2 36.4350 109.2708 30.2512 0.0000 8.4405 0.0000
# 3 38.1552 30.2512 72.4968 0.0000 0.1256 0.0000
# 4 0.0000 0.0000 0.0000 27.2655 0.0000 -5.0013
# 5 -22.8859 8.4405 0.1256 0.0000 23.2535 0.0000
# 6 0.0000 0.0000 0.0000 -5.0013 0.0000 30.0256
#
#
#
# Elastic Compliance Matrix: (Units=1/GPa)
#
#
# Indices 1 2 3 4 5 6 
#
# 1 0.020583 -0.006330 -0.008231 0.000000 0.022600 0.000000
# 2 -0.006330 0.012628 -0.001919 0.000000 -0.010804 0.000000
# 3 -0.008231 -0.001919 0.018939 0.000000 -0.007506 0.000000
# 4 0.000000 0.000000 0.000000 0.037832 0.000000 0.006302
# 5 0.022600 -0.010804 -0.007506 0.000000 0.069209 0.000000
# 6 0.000000 0.000000 0.000000 0.006302 0.000000 0.034355
#
#
# Mechanical properties :
#
#
# Convention : Reuss Voigt Hill
#
# Bulk Modulus (GPa) = 52.10878 54.62496 53.36687
# Shear Modulus (GPa) = 21.46812 27.91564 24.69188
#
# Velocity S-wave (km/s) = 3.33666 3.80486 3.57842
# Velocity P-wave (km/s) = 6.47053 6.90151 6.68949
#
# Compressibility (1/GPa) = 0.01919062
#
# Stress axis : x y z
#
# Youngs Moduli (GPa) = 48.58315 79.18810 52.80033
#
# Poissons Ratio (x) = 0.50129 0.43458
# Poissons Ratio (y) = 0.30755 0.10133
# Poissons Ratio (z) = 0.39987 0.15197
#
# Static dielectric constant tensor:
#      x y z
#    x 3.564420 0.000000 -0.366240 
#    y 0.000000 4.176060 0.000000 
#    z -0.366240 0.000000 3.388170 
# 
# 
# High freq. dielectric constant tensor:
#      x y z
#    x 1.748500 0.000000 -0.032000 
#    y 0.000000 1.771270 0.000000 
#    z -0.032000 0.000000 1.715680 
# 
# From -- ./inp_files/49173.got.cif
#   From: 2010.03.12/outbox.cif.g09.slc.cpg/sg14_25_cif.got.tgz:49173.got - 2010.03.31 13:35:05.
