data_PCOD8123177
_publ_section_title
;
Structure prediction by ZEFSAII (Michael W. Deem and Ramdas Pophale) SiO2 
 PCOD8123177
Probable space group: P 2/C
;
_chemical_formula_sum "Si O2"
_cell_formula_units_Z 12
_cell_length_a 9.069078
_cell_length_b 4.920795
_cell_length_c 18.631375
_cell_angle_alpha 90.000000
_cell_angle_beta 138.875663
_cell_angle_gamma 90.000000
_cell_volume 546.849773
_symmetry_space_group_name_H-M "P 2/C"
_symmetry_group_IT_number 13
_symmetry_cell_setting 'monoclinic'
loop_
_space_group_symop_operation_xyz
x,y,z
-x,y,1/2-z
-x,-y,-z
x,-y,1/2+z
loop_
_atom_site_type_symbol
_atom_site_label
_atom_site_fract_x
_atom_site_fract_y
_atom_site_fract_z
Si Si1 0.048369 0.744013 0.968000
Si Si2 0.195288 0.353287 0.268092
Si Si3 0.530438 0.121541 0.590362
O O1 0.890788 0.668930 0.843861
O O2 0.000000 0.500000 0.000000
O O3 0.301618 0.752062 0.033946
O O4 0.000000 0.000000 0.000000
O O5 0.399487 0.141601 0.339400
O O6 0.000000 0.252394 0.250000
O O7 0.279615 0.646147 0.328607
O O8 0.500000 0.000000 0.500000
#
# Coordination Sequence:
#
# PCOD8123177 Si02
#       3
#     4   4   4
#     4  12  28  47  71 109 151 189 243 315 374 436
#     4  12  26  45  77 106 144 195 251 299 370 450
#     4  12  26  46  76 107 143 194 249 301 368 448
#
# _framework density 21.943867000000001
#
# number of rings (size 3 to 8) (size 9 to 14) (size 15 to 20)
#    0.000    0.000    3.333    6.000    4.667    8.000 
#    0.000    0.000    0.000    0.000    0.000    0.000 
#    0.000    0.000    0.000    0.000    0.000    0.000 
#
# Total GULP energy -148666.529776 kJ/mol
# GULP energy per Si atom -12388.877481 kJ/mol
# Density = 2.189392 g / cm^3
# Si number density = 21.943867 Si / 1000 Ang^3
#
#
#
# Elastic Constant Matrix: (Units=GPa)
#
#
# Indices 1 2 3 4 5 6 
#
# 1 130.9431 53.0262 72.6268 0.0000 -9.4454 0.0000
# 2 53.0262 177.1643 90.8155 0.0000 -11.0582 0.0000
# 3 72.6268 90.8155 219.5425 0.0000 -20.3989 0.0000
# 4 0.0000 0.0000 0.0000 55.8238 0.0000 -0.7273
# 5 -9.4454 -11.0582 -20.3989 0.0000 34.4826 0.0000
# 6 0.0000 0.0000 0.0000 -0.7273 0.0000 43.7496
#
#
#
# Elastic Compliance Matrix: (Units=1/GPa)
#
#
# Indices 1 2 3 4 5 6 
#
# 1 0.009711 -0.001586 -0.002494 0.000000 0.000676 0.000000
# 2 -0.001586 0.007433 -0.002507 0.000000 0.000466 0.000000
# 3 -0.002494 -0.002507 0.006644 0.000000 0.002443 0.000000
# 4 0.000000 0.000000 0.000000 0.017917 0.000000 0.000298
# 5 0.000676 0.000466 0.002443 0.000000 0.030780 0.000000
# 6 0.000000 0.000000 0.000000 0.000298 0.000000 0.022862
#
#
# Mechanical properties :
#
#
# Convention : Reuss Voigt Hill
#
# Bulk Modulus (GPa) = 94.20486 106.73186 100.46836
# Shear Modulus (GPa) = 44.61914 47.55666 46.08790
#
# Velocity S-wave (km/s) = 4.51414 4.66037 4.58783
# Velocity P-wave (km/s) = 8.37813 8.81492 8.59930
#
# Compressibility (1/GPa) = 0.01061516
#
# Stress axis : x y z
#
# Youngs Moduli (GPa) = 102.97568 134.52915 150.51619
#
# Poissons Ratio (x) = 0.21338 0.37532
# Poissons Ratio (y) = 0.16333 0.37732
# Poissons Ratio (z) = 0.25677 0.33724
#
# Static dielectric constant tensor:
#      x y z
#    x 3.976490 0.000000 0.273850 
#    y 0.000000 4.081170 0.000000 
#    z 0.273850 0.000000 4.183340 
# 
# 
# High freq. dielectric constant tensor:
#      x y z
#    x 1.866440 0.000000 0.001340 
#    y 0.000000 1.885130 0.000000 
#    z 0.001340 0.000000 1.893260 
# 
# From -- ./inp_files/37806.got.cif
#   From: 2010.06.25/outbox.cif.g09.slc.cpg/sg13_19_cif.got.tgz:37806.got - 2010.06.28 04:50:58.
