data_PCOD8123309
_publ_section_title
;
Structure prediction by ZEFSAII (Michael W. Deem and Ramdas Pophale) SiO2 
 PCOD8123309
Probable space group: P 21/C
;
_chemical_formula_sum "Si O2"
_cell_formula_units_Z 32
_cell_length_a 29.872120
_cell_length_b 10.671190
_cell_length_c 18.011899
_cell_angle_alpha 90.000000
_cell_angle_beta 17.283402
_cell_angle_gamma 90.000000
_cell_volume 1705.840944
_symmetry_space_group_name_H-M "P 21/C"
_symmetry_group_IT_number 14
_symmetry_cell_setting 'monoclinic'
loop_
_space_group_symop_operation_xyz
x,y,z
-x,1/2+y,1/2-z
-x,-y,-z
x,1/2-y,1/2+z
loop_
_atom_site_type_symbol
_atom_site_label
_atom_site_fract_x
_atom_site_fract_y
_atom_site_fract_z
Si Si1 0.261134 0.483197 0.365502
Si Si2 0.611563 0.793920 0.667625
Si Si3 0.043831 0.081398 0.613563
Si Si4 0.056528 0.836028 0.499682
Si Si5 0.168585 0.163320 0.275002
Si Si6 0.358902 0.918044 0.983296
Si Si7 0.514132 0.516768 0.859438
Si Si8 0.169809 0.205923 0.551067
O O1 0.377081 0.518515 0.245861
O O2 0.202223 0.342290 0.466171
O O3 0.127113 0.584464 0.586004
O O4 0.341024 0.499882 0.159113
O O5 0.736348 0.783700 0.403420
O O6 0.481812 0.892400 0.852844
O O7 0.538818 0.657616 0.792926
O O8 0.692277 0.839757 0.615454
O O9 0.072955 0.186387 0.502355
O O10 0.151673 0.107733 0.513154
O O11 0.077922 0.945662 0.526096
O O12 0.941784 0.880966 0.616760
O O13 0.984394 0.715754 0.655347
O O14 0.224104 0.812856 0.200222
O O15 0.285629 0.053666 0.109989
O O16 0.447121 0.915190 0.765537
#
# Coordination Sequence:
#
# PCOD8123309 Si02
#       8
#     4   4   4   4   4   4   4   4
#     4   9  18  32  50  75 102 124 159 208 247 284
#     4   9  19  32  48  72 103 132 159 201 250 288
#     4  10  17  29  55  72  95 131 168 196 244 296
#     4   9  18  34  52  75  98 126 169 212 242 281
#     4   9  18  34  52  75  98 126 169 212 242 281
#     4  10  17  29  55  72  95 131 168 196 244 296
#     4   9  18  32  50  75 102 124 159 208 247 284
#     4   9  19  32  48  72 103 132 159 201 250 288
#
# _framework density 18.759076
#
# number of rings (size 3 to 8) (size 9 to 14) (size 15 to 20)
#    0.000    2.750    0.000    4.500    3.500    0.000 
#    0.000    2.500    0.000   18.750    0.000    0.000 
#    0.000    0.000    0.000    0.000    0.000    0.000 
#
# Total GULP energy -396454.666752 kJ/mol
# GULP energy per Si atom -12389.208336 kJ/mol
# Density = 1.871638 g / cm^3
# Si number density = 18.759076 Si / 1000 Ang^3
#
#
#
# Elastic Constant Matrix: (Units=GPa)
#
#
# Indices 1 2 3 4 5 6 
#
# 1 133.3153 42.8485 65.5556 0.0000 -8.6548 0.0000
# 2 42.8485 25.3678 22.1227 0.0000 -9.3909 0.0000
# 3 65.5556 22.1227 137.2109 0.0000 10.8390 0.0000
# 4 0.0000 0.0000 0.0000 17.7874 0.0000 -4.7054
# 5 -8.6548 -9.3909 10.8390 0.0000 32.9472 0.0000
# 6 0.0000 0.0000 0.0000 -4.7054 0.0000 28.1949
#
#
#
# Elastic Compliance Matrix: (Units=1/GPa)
#
#
# Indices 1 2 3 4 5 6 
#
# 1 0.018541 -0.028406 -0.004131 0.000000 -0.001867 0.000000
# 2 -0.028406 0.099278 -0.004190 0.000000 0.022213 0.000000
# 3 -0.004131 -0.004190 0.010387 0.000000 -0.005697 0.000000
# 4 0.000000 0.000000 0.000000 0.058816 0.000000 0.009816
# 5 -0.001867 0.022213 -0.005697 0.000000 0.038067 0.000000
# 6 0.000000 0.000000 0.000000 0.009816 0.000000 0.037106
#
#
# Mechanical properties :
#
#
# Convention : Reuss Voigt Hill
#
# Bulk Modulus (GPa) = 18.26408 61.88307 40.07357
# Shear Modulus (GPa) = 14.12830 26.81037 20.46933
#
# Velocity S-wave (km/s) = 2.74733 3.78457 3.30687
# Velocity P-wave (km/s) = 4.45208 7.22200 5.99909
#
# Compressibility (1/GPa) = 0.05475229
#
# Stress axis : x y z
#
# Youngs Moduli (GPa) = 53.93414 10.07273 96.27212
#
# Poissons Ratio (x) = 0.28613 0.39770
# Poissons Ratio (y) = 1.53207 0.40336
# Poissons Ratio (z) = 0.22280 0.04220
#
# Static dielectric constant tensor:
#      x y z
#    x 3.465040 0.000000 0.299760 
#    y 0.000000 2.836490 0.000000 
#    z 0.299760 0.000000 4.118040 
# 
# 
# High freq. dielectric constant tensor:
#      x y z
#    x 1.726910 0.000000 0.009850 
#    y 0.000000 1.664040 0.000000 
#    z 0.009850 0.000000 1.748080 
# 
# From -- ./inp_files/62700.got.cif
#   From: 2010.03.12/outbox.cif.g09.slc.cpg/sg14_32_cif.got.tgz:62700.got - 2010.03.31 13:35:05.
