data_PCOD8123929
_publ_section_title
;
Structure prediction by ZEFSAII (Michael W. Deem and Ramdas Pophale) SiO2 
 PCOD8123929
Probable space group: P 21/C
;
_chemical_formula_sum "Si O2"
_cell_formula_units_Z 32
_cell_length_a 11.407108
_cell_length_b 8.718438
_cell_length_c 21.781848
_cell_angle_alpha 90.000000
_cell_angle_beta 53.180465
_cell_angle_gamma 90.000000
_cell_volume 1734.143337
_symmetry_space_group_name_H-M "P 21/C"
_symmetry_group_IT_number 14
_symmetry_cell_setting 'monoclinic'
loop_
_space_group_symop_operation_xyz
x,y,z
-x,1/2+y,1/2-z
-x,-y,-z
x,1/2-y,1/2+z
loop_
_atom_site_type_symbol
_atom_site_label
_atom_site_fract_x
_atom_site_fract_y
_atom_site_fract_z
Si Si1 0.094680 0.891921 0.256832
Si Si2 0.675109 0.319091 0.145646
Si Si3 0.936837 0.930327 0.927166
Si Si4 0.758696 0.370238 0.731498
Si Si5 0.174601 0.323475 0.654204
Si Si6 0.959391 0.268505 0.486629
Si Si7 0.358244 0.187879 0.696140
Si Si8 0.184375 0.089625 0.337538
O O1 0.223787 0.765017 0.223474
O O2 0.941919 0.807984 0.291420
O O3 0.129021 0.007572 0.191510
O O4 0.086855 0.985745 0.322882
O O5 0.671280 0.187865 0.199089
O O6 0.530305 0.293999 0.151656
O O7 0.686841 0.487522 0.172368
O O8 0.813148 0.308367 0.057305
O O9 0.809728 0.850899 0.924496
O O10 0.080809 0.919403 0.840504
O O11 0.908912 0.107871 0.951438
O O12 0.946930 0.841568 0.987786
O O13 0.675918 0.507843 0.790799
O O14 0.322712 0.264622 0.640904
O O15 0.068136 0.145245 0.423797
O O16 0.263316 0.269985 0.778752
#
# Coordination Sequence:
#
# PCOD8123929 Si02
#       8
#     4   4   4   4   4   4   4   4
#     4   9  19  30  54  83 106 136 180 232 265 308
#     4  10  21  33  52  83 112 141 178 225 270 321
#     4   9  18  33  55  82 101 138 182 222 269 315
#     4   9  17  34  52  77 110 134 182 227 262 317
#     4  10  19  32  51  81 112 140 180 220 275 322
#     4  10  19  35  58  79 106 139 184 228 265 313
#     4  11  20  34  54  80 113 144 173 221 280 323
#     4  10  20  35  57  84 104 141 186 225 271 310
#
# _framework density 18.452915999999998
#
# number of rings (size 3 to 8) (size 9 to 14) (size 15 to 20)
#    0.000    2.250    1.250    3.375    1.750    0.000 
#    0.000    0.625    0.000    3.000    0.000    0.000 
#    0.000    0.000    0.000    0.000    0.000    0.000 
#
# Total GULP energy -396669.450091 kJ/mol
# GULP energy per Si atom -12395.920315 kJ/mol
# Density = 1.841092 g / cm^3
# Si number density = 18.452916 Si / 1000 Ang^3
#
#
#
# Elastic Constant Matrix: (Units=GPa)
#
#
# Indices 1 2 3 4 5 6 
#
# 1 121.7760 38.0827 28.0450 0.0000 17.5001 0.0000
# 2 38.0827 100.9702 29.0788 0.0000 7.3324 0.0000
# 3 28.0450 29.0788 44.6131 0.0000 13.2028 0.0000
# 4 0.0000 0.0000 0.0000 23.4998 0.0000 5.1259
# 5 17.5001 7.3324 13.2028 0.0000 21.3214 0.0000
# 6 0.0000 0.0000 0.0000 5.1259 0.0000 23.1959
#
#
#
# Elastic Compliance Matrix: (Units=1/GPa)
#
#
# Indices 1 2 3 4 5 6 
#
# 1 0.010619 -0.002654 -0.003228 0.000000 -0.005805 0.000000
# 2 -0.002654 0.012870 -0.007414 0.000000 0.002343 0.000000
# 3 -0.003228 -0.007414 0.033961 0.000000 -0.015831 0.000000
# 4 0.000000 0.000000 0.000000 0.044709 0.000000 -0.009880
# 5 -0.005805 0.002343 -0.015831 0.000000 0.060663 0.000000
# 6 0.000000 0.000000 0.000000 -0.009880 0.000000 0.045294
#
#
# Mechanical properties :
#
#
# Convention : Reuss Voigt Hill
#
# Bulk Modulus (GPa) = 32.40509 50.86359 41.63434
# Shear Modulus (GPa) = 20.40869 25.08026 22.74447
#
# Velocity S-wave (km/s) = 3.32925 3.69066 3.51460
# Velocity P-wave (km/s) = 5.69013 6.76647 6.25151
#
# Compressibility (1/GPa) = 0.03085935
#
# Stress axis : x y z
#
# Youngs Moduli (GPa) = 94.16764 77.70093 29.44536
#
# Poissons Ratio (x) = 0.20623 0.09504
# Poissons Ratio (y) = 0.24994 0.21829
# Poissons Ratio (z) = 0.30396 0.57604
#
# Static dielectric constant tensor:
#      x y z
#    x 3.524290 0.000000 0.381990 
#    y 0.000000 3.694280 0.000000 
#    z 0.381990 0.000000 3.098340 
# 
# 
# High freq. dielectric constant tensor:
#      x y z
#    x 1.709980 0.000000 0.027980 
#    y 0.000000 1.735140 0.000000 
#    z 0.027980 0.000000 1.677590 
# 
# From -- ./inp_files/66845.got.cif
#   From: 2010.03.12/outbox.cif.g09.slc.cpg/sg14_34_cif.got.tgz:66845.got - 2010.03.31 13:35:05.
