data_PCOD8123130
_publ_section_title
;
Structure prediction by ZEFSAII (Michael W. Deem and Ramdas Pophale) SiO2 
 PCOD8123130
Probable space group: P 2/C
;
_chemical_formula_sum "Si O2"
_cell_formula_units_Z 20
_cell_length_a 18.983038
_cell_length_b 6.536508
_cell_length_c 13.281120
_cell_angle_alpha 90.000000
_cell_angle_beta 31.780739
_cell_angle_gamma 90.000000
_cell_volume 867.930289
_symmetry_space_group_name_H-M "P 2/C"
_symmetry_group_IT_number 13
_symmetry_cell_setting 'monoclinic'
loop_
_space_group_symop_operation_xyz
x,y,z
-x,y,1/2-z
-x,-y,-z
x,-y,1/2+z
loop_
_atom_site_type_symbol
_atom_site_label
_atom_site_fract_x
_atom_site_fract_y
_atom_site_fract_z
Si Si1 0.188184 0.882702 0.433455
Si Si2 0.000000 0.217945 0.750000
Si Si3 0.311041 0.736371 0.475973
Si Si4 0.500000 0.373750 0.250000
Si Si5 0.035102 0.569069 0.847718
Si Si6 0.590833 0.047568 0.984570
O O1 0.303129 0.853642 0.378773
O O2 0.259596 0.905213 0.238430
O O3 0.089558 0.687244 0.552591
O O4 0.107396 0.086769 0.558135
O O5 0.074495 0.365331 0.738613
O O6 0.371577 0.513258 0.383697
O O7 0.160519 0.721382 0.700899
O O8 0.402170 0.859405 0.445147
O O9 0.470330 0.242612 0.385227
O O10 0.000000 0.500000 0.000000
O O11 0.500000 0.000000 0.000000
#
# Coordination Sequence:
#
# PCOD8123130 Si02
#       6
#     4   2   4   2   4   4
#     4  12  26  47  75 112 151 189 249 303 368 446
#     4  12  24  46  74 110 158 190 236 308 366 440
#     4  12  26  48  71 108 148 187 249 302 368 441
#     4  12  28  48  74  98 146 196 244 312 364 438
#     4  12  26  44  74 112 144 197 243 302 373 440
#     4  12  29  48  75 108 144 199 250 304 371 437
#
# _framework density 23.043324999999999
#
# number of rings (size 3 to 8) (size 9 to 14) (size 15 to 20)
#    0.000    0.000    4.000    5.400    8.400    6.400 
#    0.000    0.000    0.000    0.000    0.000    0.000 
#    0.000    0.000    0.000    0.000    0.000    0.000 
#
# Total GULP energy -248130.301833 kJ/mol
# GULP energy per Si atom -12406.515092 kJ/mol
# Density = 2.299088 g / cm^3
# Si number density = 23.043325 Si / 1000 Ang^3
#
#
#
# Elastic Constant Matrix: (Units=GPa)
#
#
# Indices 1 2 3 4 5 6 
#
# 1 130.1072 60.2215 33.5384 0.0000 -0.7838 0.0000
# 2 60.2215 145.0475 54.2537 0.0000 9.7388 0.0000
# 3 33.5384 54.2537 124.0838 0.0000 18.3819 0.0000
# 4 0.0000 0.0000 0.0000 46.6128 0.0000 1.3247
# 5 -0.7838 9.7388 18.3819 0.0000 41.7179 0.0000
# 6 0.0000 0.0000 0.0000 1.3247 0.0000 35.4140
#
#
#
# Elastic Compliance Matrix: (Units=1/GPa)
#
#
# Indices 1 2 3 4 5 6 
#
# 1 0.009719 -0.003672 -0.001258 0.000000 0.001594 0.000000
# 2 -0.003672 0.009635 -0.003078 0.000000 -0.000962 0.000000
# 3 -0.001258 -0.003078 0.010315 0.000000 -0.003850 0.000000
# 4 0.000000 0.000000 0.000000 0.021476 0.000000 -0.000803
# 5 0.001594 -0.000962 -0.003850 0.000000 0.025922 0.000000
# 6 0.000000 0.000000 0.000000 -0.000803 0.000000 0.028267
#
#
# Mechanical properties :
#
#
# Convention : Reuss Voigt Hill
#
# Bulk Modulus (GPa) = 73.23543 77.25176 75.24359
# Shear Modulus (GPa) = 39.71407 41.49726 40.60567
#
# Velocity S-wave (km/s) = 4.15595 4.24823 4.20234
# Velocity P-wave (km/s) = 7.40809 7.59346 7.50135
#
# Compressibility (1/GPa) = 0.01365459
#
# Stress axis : x y z
#
# Youngs Moduli (GPa) = 102.88742 103.79305 96.94628
#
# Poissons Ratio (x) = 0.38112 0.12193
# Poissons Ratio (y) = 0.37780 0.29836
# Poissons Ratio (z) = 0.12940 0.31943
#
# Static dielectric constant tensor:
#      x y z
#    x 4.090990 0.000000 0.176530 
#    y 0.000000 4.208900 0.000000 
#    z 0.176530 0.000000 4.458370 
# 
# 
# High freq. dielectric constant tensor:
#      x y z
#    x 1.914230 0.000000 0.006120 
#    y 0.000000 1.914510 0.000000 
#    z 0.006120 0.000000 1.935380 
# 
# From -- ./inp_files/56430.got.cif
#   From: 2010.06.25/outbox.cif.g09.slc.cpg/sg13_29_cif.got.tgz:56430.got - 2010.06.28 04:50:58.
