data_PCOD8123410
_publ_section_title
;
Structure prediction by ZEFSAII (Michael W. Deem and Ramdas Pophale) SiO2 
 PCOD8123410
Probable space group: P 21/C
;
_chemical_formula_sum "Si O2"
_cell_formula_units_Z 28
_cell_length_a 10.299297
_cell_length_b 14.954467
_cell_length_c 18.020106
_cell_angle_alpha 90.000000
_cell_angle_beta 30.469484
_cell_angle_gamma 90.000000
_cell_volume 1407.381427
_symmetry_space_group_name_H-M "P 21/C"
_symmetry_group_IT_number 14
_symmetry_cell_setting 'monoclinic'
loop_
_space_group_symop_operation_xyz
x,y,z
-x,1/2+y,1/2-z
-x,-y,-z
x,1/2-y,1/2+z
loop_
_atom_site_type_symbol
_atom_site_label
_atom_site_fract_x
_atom_site_fract_y
_atom_site_fract_z
Si Si1 0.376324 0.480101 0.865696
Si Si2 0.664288 0.608891 0.270789
Si Si3 0.081901 0.569291 0.813663
Si Si4 0.678456 0.167768 0.678971
Si Si5 0.075825 0.026429 0.880036
Si Si6 0.133061 0.277848 0.391431
Si Si7 0.278454 0.946974 0.067173
O O1 0.415603 0.421618 0.772526
O O2 0.268981 0.579547 0.898407
O O3 0.645063 0.488088 0.775372
O O4 0.194519 0.424651 0.011002
O O5 0.841935 0.534439 0.220042
O O6 0.809119 0.702679 0.197977
O O7 0.414582 0.624770 0.445639
O O8 0.282384 0.634627 0.755999
O O9 0.089576 0.596419 0.722428
O O10 0.388709 0.204449 0.815408
O O11 0.886666 0.245422 0.560232
O O12 0.067872 0.133674 0.878188
O O13 0.886480 0.990220 0.908671
O O14 0.000000 0.000000 0.000000
O O15 0.500000 0.000000 0.000000
#
# Coordination Sequence:
#
# PCOD8123410 Si02
#       7
#     4   4   4   4   4   4   4
#     4  10  18  35  63  83 119 152 209 252 296 367
#     4  10  17  36  60  88 114 163 196 245 300 369
#     4  10  19  36  60  86 122 157 200 239 315 376
#     4  10  20  34  57  92 116 158 205 253 303 369
#     4  11  23  38  60  93 121 157 217 261 292 362
#     4  11  21  34  63  89 121 156 217 256 299 354
#     4  10  22  37  62  86 123 161 192 244 317 370
#
# _framework density 19.895104
#
# number of rings (size 3 to 8) (size 9 to 14) (size 15 to 20)
#    0.000    1.714    4.286    1.714    2.000    0.571 
#    0.000    1.429    0.000    0.000    0.000    0.000 
#    0.000    0.000    0.000    0.000    0.000    0.000 
#
# Total GULP energy -346924.488598 kJ/mol
# GULP energy per Si atom -12390.160307 kJ/mol
# Density = 1.984982 g / cm^3
# Si number density = 19.895104 Si / 1000 Ang^3
#
#
#
# Elastic Constant Matrix: (Units=GPa)
#
#
# Indices 1 2 3 4 5 6 
#
# 1 121.3025 8.7317 63.1617 0.0000 -2.9608 0.0000
# 2 8.7317 62.7797 18.8704 0.0000 -3.8489 0.0000
# 3 63.1617 18.8704 122.8139 0.0000 15.0108 0.0000
# 4 0.0000 0.0000 0.0000 25.3686 0.0000 -9.0603
# 5 -2.9608 -3.8489 15.0108 0.0000 37.6269 0.0000
# 6 0.0000 0.0000 0.0000 -9.0603 0.0000 17.0919
#
#
#
# Elastic Compliance Matrix: (Units=1/GPa)
#
#
# Indices 1 2 3 4 5 6 
#
# 1 0.011696 0.000559 -0.006539 0.000000 0.003586 0.000000
# 2 0.000559 0.017027 -0.003282 0.000000 0.003095 0.000000
# 3 -0.006539 -0.003282 0.012735 0.000000 -0.005931 0.000000
# 4 0.000000 0.000000 0.000000 0.048624 0.000000 0.025775
# 5 0.003586 0.003095 -0.005931 0.000000 0.029541 0.000000
# 6 0.000000 0.000000 0.000000 0.025775 0.000000 0.072171
#
#
# Mechanical properties :
#
#
# Convention : Reuss Voigt Hill
#
# Bulk Modulus (GPa) = 43.60527 54.26932 48.93730
# Shear Modulus (GPa) = 22.93956 30.42630 26.68293
#
# Velocity S-wave (km/s) = 3.39931 3.91492 3.66619
# Velocity P-wave (km/s) = 6.11328 6.91176 6.52474
#
# Compressibility (1/GPa) = 0.02293301
#
# Stress axis : x y z
#
# Youngs Moduli (GPa) = 85.49771 58.72947 78.52575
#
# Poissons Ratio (x) = -0.03281 0.51351
# Poissons Ratio (y) = -0.04777 0.25771
# Poissons Ratio (z) = 0.55911 0.19274
#
# Static dielectric constant tensor:
#      x y z
#    x 3.818430 0.000000 0.072200 
#    y 0.000000 3.564250 0.000000 
#    z 0.072200 0.000000 4.163730 
# 
# 
# High freq. dielectric constant tensor:
#      x y z
#    x 1.759670 0.000000 -0.017790 
#    y 0.000000 1.748670 0.000000 
#    z -0.017790 0.000000 1.786930 
# 
# From -- ./inp_files/41409.got.cif
#   From: 2010.03.12/outbox.cif.g09.slc.cpg/sg14_21_cif.got.tgz:41409.got - 2010.03.31 13:35:05.
