data_PCOD8123513
_publ_section_title
;
Structure prediction by ZEFSAII (Michael W. Deem and Ramdas Pophale) SiO2 
 PCOD8123513
Probable space group: P 21/C
;
_chemical_formula_sum "Si O2"
_cell_formula_units_Z 28
_cell_length_a 13.422250
_cell_length_b 8.438999
_cell_length_c 15.545360
_cell_angle_alpha 90.000000
_cell_angle_beta 52.875647
_cell_angle_gamma 90.000000
_cell_volume 1403.956880
_symmetry_space_group_name_H-M "P 21/C"
_symmetry_group_IT_number 14
_symmetry_cell_setting 'monoclinic'
loop_
_space_group_symop_operation_xyz
x,y,z
-x,1/2+y,1/2-z
-x,-y,-z
x,1/2-y,1/2+z
loop_
_atom_site_type_symbol
_atom_site_label
_atom_site_fract_x
_atom_site_fract_y
_atom_site_fract_z
Si Si1 0.512856 0.768461 0.407021
Si Si2 0.860530 0.670274 0.110166
Si Si3 0.279062 0.032103 0.766102
Si Si4 0.334700 0.975617 0.178348
Si Si5 0.135971 0.901302 0.518305
Si Si6 0.367752 0.749591 0.311034
Si Si7 0.261789 0.815999 0.624972
O O1 0.634915 0.876281 0.347052
O O2 0.556129 0.592133 0.414603
O O3 0.473016 0.767661 0.327696
O O4 0.406209 0.846327 0.521672
O O5 0.816286 0.853842 0.132168
O O6 0.770792 0.577618 0.220816
O O7 0.999478 0.667845 0.074123
O O8 0.855434 0.585773 0.018331
O O9 0.361974 0.936942 0.791890
O O10 0.214641 0.902130 0.736750
O O11 0.402028 0.853641 0.209383
O O12 0.263582 0.875078 0.140454
O O13 0.230781 0.796241 0.414710
O O14 0.167004 0.879090 0.602368
#
# Coordination Sequence:
#
# PCOD8123513 Si02
#       7
#     4   4   4   4   4   4   4
#     4  10  18  32  50  72 102 137 168 201 245 296
#     4   9  19  36  54  72  98 132 168 203 248 301
#     4  10  20  33  51  77 103 130 166 208 249 293
#     4   9  18  32  50  72 101 133 166 204 248 295
#     4   9  19  36  54  72  98 132 167 206 248 296
#     4   9  18  32  51  74  99 132 170 206 243 290
#     4  10  20  33  50  75 104 130 164 209 252 291
#
# _framework density 19.943631
#
# number of rings (size 3 to 8) (size 9 to 14) (size 15 to 20)
#    0.000    2.571    0.000    1.714    0.000    2.857 
#    0.000    7.143    0.000    0.000    0.000    0.000 
#    0.000    0.000    0.000    0.000    0.000    0.000 
#
# Total GULP energy -346937.676110 kJ/mol
# GULP energy per Si atom -12390.631290 kJ/mol
# Density = 1.989824 g / cm^3
# Si number density = 19.943631 Si / 1000 Ang^3
#
#
#
# Elastic Constant Matrix: (Units=GPa)
#
#
# Indices 1 2 3 4 5 6 
#
# 1 70.2595 24.6651 5.5103 0.0000 6.0013 0.0000
# 2 24.6651 101.7924 9.4736 0.0000 2.8294 0.0000
# 3 5.5103 9.4736 19.4786 0.0000 9.5208 0.0000
# 4 0.0000 0.0000 0.0000 24.8127 0.0000 3.9600
# 5 6.0013 2.8294 9.5208 0.0000 29.9596 0.0000
# 6 0.0000 0.0000 0.0000 3.9600 0.0000 24.3162
#
#
#
# Elastic Compliance Matrix: (Units=1/GPa)
#
#
# Indices 1 2 3 4 5 6 
#
# 1 0.015828 -0.003624 -0.001578 0.000000 -0.002327 0.000000
# 2 -0.003624 0.011133 -0.005008 0.000000 0.001266 0.000000
# 3 -0.001578 -0.005008 0.063735 0.000000 -0.019465 0.000000
# 4 0.000000 0.000000 0.000000 0.041377 0.000000 -0.006738
# 5 -0.002327 0.001266 -0.019465 0.000000 0.039911 0.000000
# 6 0.000000 0.000000 0.000000 -0.006738 0.000000 0.042222
#
#
# Mechanical properties :
#
#
# Convention : Reuss Voigt Hill
#
# Bulk Modulus (GPa) = 14.22961 30.09207 22.16084
# Shear Modulus (GPa) = 19.37606 25.94315 22.65960
#
# Velocity S-wave (km/s) = 3.12034 3.61061 3.37439
# Velocity P-wave (km/s) = 4.48692 5.70117 5.13009
#
# Compressibility (1/GPa) = 0.07027599
#
# Stress axis : x y z
#
# Youngs Moduli (GPa) = 63.18104 89.82405 15.68996
#
# Poissons Ratio (x) = 0.32549 0.02476
# Poissons Ratio (y) = 0.22894 0.07858
# Poissons Ratio (z) = 0.09969 0.44987
#
# Static dielectric constant tensor:
#      x y z
#    x 3.431890 0.000000 0.050140 
#    y 0.000000 3.853080 0.000000 
#    z 0.050140 0.000000 3.569550 
# 
# 
# High freq. dielectric constant tensor:
#      x y z
#    x 1.757230 0.000000 0.000560 
#    y 0.000000 1.785980 0.000000 
#    z 0.000560 0.000000 1.768860 
# 
# From -- ./inp_files/43325.got.cif
#   From: 2010.03.12/outbox.cif.g09.slc.cpg/sg14_22_cif.got.tgz:43325.got - 2010.03.31 13:35:05.
