data_PCOD8123520
_publ_section_title
;
Structure prediction by ZEFSAII (Michael W. Deem and Ramdas Pophale) SiO2 
 PCOD8123520
Probable space group: P 21/C
;
_chemical_formula_sum "Si O2"
_cell_formula_units_Z 32
_cell_length_a 13.537034
_cell_length_b 19.307969
_cell_length_c 8.648682
_cell_angle_alpha 90.000000
_cell_angle_beta 129.709875
_cell_angle_gamma 90.000000
_cell_volume 1739.000948
_symmetry_space_group_name_H-M "P 21/C"
_symmetry_group_IT_number 14
_symmetry_cell_setting 'monoclinic'
loop_
_space_group_symop_operation_xyz
x,y,z
-x,1/2+y,1/2-z
-x,-y,-z
x,1/2-y,1/2+z
loop_
_atom_site_type_symbol
_atom_site_label
_atom_site_fract_x
_atom_site_fract_y
_atom_site_fract_z
Si Si1 0.121132 0.453261 0.939133
Si Si2 0.121132 0.046755 0.803107
Si Si3 0.731856 0.321953 0.914744
Si Si4 0.629135 0.033720 0.312601
Si Si5 0.370864 0.966294 0.054339
Si Si6 0.011560 0.321503 0.329420
Si Si7 0.011556 0.321521 0.693662
Si Si8 0.268147 0.821968 0.951095
O O1 0.111461 0.380996 0.839551
O O2 0.000005 0.500015 0.773985
O O3 0.126643 0.438630 0.126628
O O4 0.248581 0.491002 0.004157
O O5 0.111472 0.119030 0.883321
O O6 0.248576 0.009013 0.992990
O O7 0.640261 0.385649 0.874191
O O8 0.741034 0.315770 0.741003
O O9 0.675857 0.249990 0.925812
O O10 0.873301 0.337852 0.118369
O O11 0.499998 0.000012 0.254467
O O12 0.626649 0.029178 0.126646
O O13 0.359746 0.885667 0.093713
O O14 0.996731 0.315414 0.496715
O O15 0.066680 0.249987 0.316684
O O16 0.873296 0.337876 0.628177
#
# Coordination Sequence:
#
# PCOD8123520 Si02
#       8
#     4   4   4   4   4   4   4   4
#     4  10  18  33  55  79 106 138 175 215 261 311
#     4  10  18  33  55  79 106 138 175 215 261 311
#     4  10  18  32  53  78 105 136 177 217 265 315
#     4   9  18  33  54  78 106 142 179 213 257 319
#     4   9  18  33  54  78 106 142 179 213 257 319
#     4  11  21  33  52  79 109 139 177 221 271 314
#     4  11  21  33  52  79 109 139 177 221 271 314
#     4  10  18  32  53  78 105 136 177 217 265 315
#
# _framework density 18.40137
#
# number of rings (size 3 to 8) (size 9 to 14) (size 15 to 20)
#    0.000    2.000    2.500    4.500    0.000    0.500 
#    0.000    1.250    0.000    9.750    0.000    0.000 
#    0.000    0.000    0.000    0.000    0.000    0.000 
#
# Total GULP energy -396792.408882 kJ/mol
# GULP energy per Si atom -12399.762778 kJ/mol
# Density = 1.835949 g / cm^3
# Si number density = 18.401370 Si / 1000 Ang^3
#
#
#
# Elastic Constant Matrix: (Units=GPa)
#
#
# Indices 1 2 3 4 5 6 
#
# 1 67.9498 67.5718 54.8976 0.0000 11.8201 0.0000
# 2 67.5718 187.6705 65.9886 0.0000 16.1392 0.0000
# 3 54.8976 65.9886 65.9261 0.0000 9.0451 0.0000
# 4 0.0000 0.0000 0.0000 32.3314 0.0000 -0.3897
# 5 11.8201 16.1392 9.0451 0.0000 36.0917 0.0000
# 6 0.0000 0.0000 0.0000 -0.3897 0.0000 32.2981
#
#
#
# Elastic Compliance Matrix: (Units=1/GPa)
#
#
# Indices 1 2 3 4 5 6 
#
# 1 0.048640 -0.004756 -0.035054 0.000000 -0.005018 0.000000
# 2 -0.004756 0.008786 -0.004669 0.000000 -0.001201 0.000000
# 3 -0.035054 -0.004669 0.048851 0.000000 0.001326 0.000000
# 4 0.000000 0.000000 0.000000 0.030934 0.000000 0.000373
# 5 -0.005018 -0.001201 0.001326 0.000000 0.029555 0.000000
# 6 0.000000 0.000000 0.000000 0.000373 0.000000 0.030966
#
#
# Mechanical properties :
#
#
# Convention : Reuss Voigt Hill
#
# Bulk Modulus (GPa) = 57.74488 77.60694 67.67591
# Shear Modulus (GPa) = 17.09616 29.01681 23.05649
#
# Velocity S-wave (km/s) = 3.05137 3.97531 3.54358
# Velocity P-wave (km/s) = 6.62294 7.95845 7.32121
#
# Compressibility (1/GPa) = 0.01731755
#
# Stress axis : x y z
#
# Youngs Moduli (GPa) = 20.55931 113.81855 20.47056
#
# Poissons Ratio (x) = 0.54128 0.71758
# Poissons Ratio (y) = 0.09777 0.09558
# Poissons Ratio (z) = 0.72069 0.53146
#
# Static dielectric constant tensor:
#      x y z
#    x 3.253470 0.000000 0.095170 
#    y 0.000000 3.739770 0.000000 
#    z 0.095170 0.000000 3.244640 
# 
# 
# High freq. dielectric constant tensor:
#      x y z
#    x 1.688430 0.000000 -0.006660 
#    y 0.000000 1.734210 0.000000 
#    z -0.006660 0.000000 1.689040 
# 
# From -- ./inp_files/14342.got.cif
#   From: 2010.03.12/outbox.cif.g09.slc.cpg/sg14_8_cif.got.tgz:14342.got - 2010.03.31 13:35:05.
