data_PCOD8123636
_publ_section_title
;
Structure prediction by ZEFSAII (Michael W. Deem and Ramdas Pophale) SiO2 
 PCOD8123636
Probable space group: P 21/C
;
_chemical_formula_sum "Si O2"
_cell_formula_units_Z 32
_cell_length_a 15.488417
_cell_length_b 5.455276
_cell_length_c 22.318394
_cell_angle_alpha 90.000000
_cell_angle_beta 123.080180
_cell_angle_gamma 90.000000
_cell_volume 1580.093615
_symmetry_space_group_name_H-M "P 21/C"
_symmetry_group_IT_number 14
_symmetry_cell_setting 'monoclinic'
loop_
_space_group_symop_operation_xyz
x,y,z
-x,1/2+y,1/2-z
-x,-y,-z
x,1/2-y,1/2+z
loop_
_atom_site_type_symbol
_atom_site_label
_atom_site_fract_x
_atom_site_fract_y
_atom_site_fract_z
Si Si1 0.244020 0.354665 0.334074
Si Si2 0.902725 0.262140 0.772617
Si Si3 0.708552 0.348695 0.023600
Si Si4 0.107318 0.487946 0.847206
Si Si5 0.593718 0.276482 0.592824
Si Si6 0.558554 0.570168 0.286283
Si Si7 0.286870 0.525815 0.755670
Si Si8 0.374131 0.160122 0.054283
O O1 0.156630 0.554581 0.292844
O O2 0.352749 0.460209 0.397306
O O3 0.204181 0.194054 0.374209
O O4 0.259925 0.229931 0.276031
O O5 0.933031 0.054591 0.735122
O O6 0.823294 0.167470 0.793491
O O7 0.006737 0.372816 0.842023
O O8 0.831285 0.317466 0.088063
O O9 0.632630 0.389598 0.052273
O O10 0.692808 0.589014 0.975625
O O11 0.685428 0.092379 0.981780
O O12 0.633616 0.169862 0.671388
O O13 0.472026 0.313469 0.547184
O O14 0.504846 0.813251 0.237692
O O15 0.663847 0.518563 0.290002
O O16 0.585472 0.641155 0.363299
#
# Coordination Sequence:
#
# PCOD8123636 Si02
#       8
#     4   4   4   4   4   4   4   4
#     4  10  18  34  58  92 125 155 207 259 321 374
#     4  10  20  34  59  94 121 166 210 265 327 368
#     4  12  25  40  60  91 136 170 203 253 317 408
#     4  11  20  34  60  87 132 164 205 259 319 384
#     4  11  21  38  59  90 130 165 206 251 326 381
#     4  12  25  46  71  90 125 168 225 276 305 364
#     4  10  22  37  64  95 120 164 211 281 316 365
#     4  12  27  41  61  93 125 179 210 248 324 381
#
# _framework density 20.251965999999999
#
# number of rings (size 3 to 8) (size 9 to 14) (size 15 to 20)
#    0.000    1.000    6.250    3.000    3.500    0.000 
#    0.000    0.000    0.000    1.500    0.000    0.000 
#    0.000    0.000    0.000    0.000    0.000    0.000 
#
# Total GULP energy -396479.759754 kJ/mol
# GULP energy per Si atom -12389.992492 kJ/mol
# Density = 2.020587 g / cm^3
# Si number density = 20.251966 Si / 1000 Ang^3
#
#
#
# Elastic Constant Matrix: (Units=GPa)
#
#
# Indices 1 2 3 4 5 6 
#
# 1 102.2480 31.3782 32.4938 0.0000 6.2389 0.0000
# 2 31.3782 98.2744 24.9217 0.0000 8.4762 0.0000
# 3 32.4938 24.9217 74.4539 0.0000 5.9280 0.0000
# 4 0.0000 0.0000 0.0000 28.7842 0.0000 2.6979
# 5 6.2389 8.4762 5.9280 0.0000 23.4236 0.0000
# 6 0.0000 0.0000 0.0000 2.6979 0.0000 25.1195
#
#
#
# Elastic Compliance Matrix: (Units=1/GPa)
#
#
# Indices 1 2 3 4 5 6 
#
# 1 0.012022 -0.002657 -0.004265 0.000000 -0.001161 0.000000
# 2 -0.002657 0.011938 -0.002601 0.000000 -0.002954 0.000000
# 3 -0.004265 -0.002601 0.016327 0.000000 -0.002055 0.000000
# 4 0.000000 0.000000 0.000000 0.035095 0.000000 -0.003769
# 5 -0.001161 -0.002954 -0.002055 0.000000 0.044590 0.000000
# 6 0.000000 0.000000 0.000000 -0.003769 0.000000 0.040214
#
#
# Mechanical properties :
#
#
# Convention : Reuss Voigt Hill
#
# Bulk Modulus (GPa) = 47.07917 50.28484 48.68201
# Shear Modulus (GPa) = 26.83664 27.87762 27.35713
#
# Velocity S-wave (km/s) = 3.64419 3.71420 3.67936
# Velocity P-wave (km/s) = 6.40344 6.57854 6.49158
#
# Compressibility (1/GPa) = 0.02124082
#
# Stress axis : x y z
#
# Youngs Moduli (GPa) = 83.18331 83.76365 61.24903
#
# Poissons Ratio (x) = 0.22254 0.26122
# Poissons Ratio (y) = 0.22099 0.15933
# Poissons Ratio (z) = 0.35476 0.21790
#
# Static dielectric constant tensor:
#      x y z
#    x 3.609870 0.000000 0.186460 
#    y 0.000000 4.092850 0.000000 
#    z 0.186460 0.000000 3.403870 
# 
# 
# High freq. dielectric constant tensor:
#      x y z
#    x 1.773950 0.000000 0.023400 
#    y 0.000000 1.811760 0.000000 
#    z 0.023400 0.000000 1.759430 
# 
# From -- ./inp_files/67879.got.cif
#   From: 2010.03.12/outbox.cif.g09.slc.cpg/sg14_34_cif.got.tgz:67879.got - 2010.03.31 13:35:05.
