data_PCOD8123108
_publ_section_title
;
Structure prediction by ZEFSAII (Michael W. Deem and Ramdas Pophale) SiO2 
 PCOD8123108
Probable space group: P 2/C
;
_chemical_formula_sum "Si O2"
_cell_formula_units_Z 16
_cell_length_a 21.765626
_cell_length_b 4.814997
_cell_length_c 8.515934
_cell_angle_alpha 90.000000
_cell_angle_beta 48.239053
_cell_angle_gamma 90.000000
_cell_volume 665.729227
_symmetry_space_group_name_H-M "P 2/C"
_symmetry_group_IT_number 13
_symmetry_cell_setting 'monoclinic'
loop_
_space_group_symop_operation_xyz
x,y,z
-x,y,1/2-z
-x,-y,-z
x,-y,1/2+z
loop_
_atom_site_type_symbol
_atom_site_label
_atom_site_fract_x
_atom_site_fract_y
_atom_site_fract_z
Si Si1 0.909127 0.878841 0.646101
Si Si2 0.595318 0.870014 0.574783
Si Si3 0.847511 0.636266 0.428896
Si Si4 0.659173 0.627992 0.789614
O O1 0.891912 0.766692 0.503069
O O2 0.101101 0.367386 0.210478
O O3 0.846777 0.130999 0.792898
O O4 0.000000 0.000000 0.500000
O O5 0.500000 0.947365 0.750000
O O6 0.629446 0.746932 0.676450
O O7 0.607787 0.649694 0.413324
O O8 0.644865 0.150069 0.452344
O O9 0.754764 0.546135 0.624112
#
# Coordination Sequence:
#
# PCOD8123108 Si02
#       4
#     4   4   4   4
#     4  12  26  45  69  98 132 171 219 278 332 392
#     4  12  24  42  66 100 136 176 221 272 327 388
#     4  12  25  46  69  99 132 175 223 272 330 395
#     4  12  24  43  68  97 134 178 221 272 327 391
#
# _framework density 24.033794
#
# number of rings (size 3 to 8) (size 9 to 14) (size 15 to 20)
#    0.000    0.000    0.000   11.250    0.000    2.000 
#    0.000    0.000    0.000    0.000    0.000    0.000 
#    0.000    0.000    0.000    0.000    0.000    0.000 
#
# Total GULP energy -198566.404125 kJ/mol
# GULP energy per Si atom -12410.400258 kJ/mol
# Density = 2.397909 g / cm^3
# Si number density = 24.033794 Si / 1000 Ang^3
#
#
#
# Elastic Constant Matrix: (Units=GPa)
#
#
# Indices 1 2 3 4 5 6 
#
# 1 103.5269 0.0137 42.5644 0.0000 -15.9645 0.0000
# 2 0.0137 131.1481 61.1772 0.0000 -19.2865 0.0000
# 3 42.5644 61.1772 140.6509 0.0000 -14.3809 0.0000
# 4 0.0000 0.0000 0.0000 58.4883 0.0000 5.8001
# 5 -15.9645 -19.2865 -14.3809 0.0000 22.1063 0.0000
# 6 0.0000 0.0000 0.0000 5.8001 0.0000 31.8677
#
#
#
# Elastic Compliance Matrix: (Units=1/GPa)
#
#
# Indices 1 2 3 4 5 6 
#
# 1 0.012956 0.003475 -0.004463 0.000000 0.009486 0.000000
# 2 0.003475 0.011315 -0.005043 0.000000 0.009101 0.000000
# 3 -0.004463 -0.005043 0.010578 0.000000 -0.000741 0.000000
# 4 0.000000 0.000000 0.000000 0.017412 0.000000 -0.003169
# 5 0.009486 0.009101 -0.000741 0.000000 0.059545 0.000000
# 6 0.000000 0.000000 0.000000 -0.003169 0.000000 0.031956
#
#
# Mechanical properties :
#
#
# Convention : Reuss Voigt Hill
#
# Bulk Modulus (GPa) = 43.88023 64.75961 54.31992
# Shear Modulus (GPa) = 30.59612 40.59717 35.59664
#
# Velocity S-wave (km/s) = 3.57185 4.11441 3.85269
# Velocity P-wave (km/s) = 5.94207 7.04094 6.51472
#
# Compressibility (1/GPa) = 0.02278931
#
# Stress axis : x y z
#
# Youngs Moduli (GPa) = 77.18192 88.37522 94.53600
#
# Poissons Ratio (x) = -0.30713 0.42188
# Poissons Ratio (y) = -0.26823 0.47673
# Poissons Ratio (z) = 0.34444 0.44566
#
# Static dielectric constant tensor:
#      x y z
#    x 4.231490 0.000000 0.023220 
#    y 0.000000 4.826160 0.000000 
#    z 0.023220 0.000000 4.934370 
# 
# 
# High freq. dielectric constant tensor:
#      x y z
#    x 1.947560 0.000000 0.004160 
#    y 0.000000 1.975450 0.000000 
#    z 0.004160 0.000000 1.980490 
# 
# From -- ./inp_files/22172.got.cif
#   From: 2010.06.25/outbox.cif.g09.slc.cpg/sg13_12_cif.got.tgz:22172.got - 2010.06.28 04:50:58.
