data_PCOD8123967
_publ_section_title
;
Structure prediction by ZEFSAII (Michael W. Deem and Ramdas Pophale) SiO2 
 PCOD8123967
Probable space group: P 21/C
;
_chemical_formula_sum "Si O2"
_cell_formula_units_Z 32
_cell_length_a 27.406229
_cell_length_b 9.073248
_cell_length_c 21.715979
_cell_angle_alpha 90.000000
_cell_angle_beta 161.608538
_cell_angle_gamma 90.000000
_cell_volume 1703.732276
_symmetry_space_group_name_H-M "P 21/C"
_symmetry_group_IT_number 14
_symmetry_cell_setting 'monoclinic'
loop_
_space_group_symop_operation_xyz
x,y,z
-x,1/2+y,1/2-z
-x,-y,-z
x,1/2-y,1/2+z
loop_
_atom_site_type_symbol
_atom_site_label
_atom_site_fract_x
_atom_site_fract_y
_atom_site_fract_z
Si Si1 0.652573 0.158966 0.573077
Si Si2 0.658137 0.873721 0.963951
Si Si3 0.012567 0.498302 0.117989
Si Si4 0.311569 0.158933 0.391098
Si Si5 0.019662 0.768340 0.527129
Si Si6 0.698304 0.998244 0.303692
Si Si7 0.546427 0.873680 0.240555
Si Si8 0.495347 0.231666 0.002838
O O1 0.833132 0.165553 0.802901
O O2 0.597602 0.293934 0.464952
O O3 0.562290 0.166394 0.529324
O O4 0.633197 0.000027 0.516341
O O5 0.641091 0.750046 0.891050
O O6 0.526190 0.000002 0.802419
O O7 0.825634 0.949205 0.157567
O O8 0.637143 0.793860 0.004440
O O9 0.021165 0.659242 0.097056
O O10 0.961022 0.389751 0.002395
O O11 0.883704 0.500089 0.017390
O O12 0.393762 0.165569 0.424090
O O13 0.128275 0.166452 0.161202
O O14 0.661715 0.949142 0.329727
O O15 0.621816 0.889675 0.163151
O O16 0.630711 0.159198 0.206589
#
# Coordination Sequence:
#
# PCOD8123967 Si02
#       8
#     4   4   4   4   4   4   4   4
#     4  11  21  35  57  90 124 149 187 240 294 348
#     4  11  23  40  61  82 112 156 203 239 283 344
#     4  10  19  35  61  86 116 150 193 234 288 348
#     4  11  21  35  57  90 124 149 187 240 294 348
#     4  10  19  32  58  92 117 148 184 236 292 345
#     4  10  19  35  61  86 116 150 193 234 288 348
#     4  11  23  40  61  82 112 156 203 239 283 344
#     4  10  19  32  58  92 117 148 184 236 292 345
#
# _framework density 18.782292999999999
#
# number of rings (size 3 to 8) (size 9 to 14) (size 15 to 20)
#    0.000    1.500    5.000    1.500    0.000    0.000 
#    0.000    1.250    0.000    0.000    0.000    0.000 
#    0.000    0.000    0.000    0.000    0.000    0.000 
#
# Total GULP energy -396739.340475 kJ/mol
# GULP energy per Si atom -12398.104390 kJ/mol
# Density = 1.873954 g / cm^3
# Si number density = 18.782293 Si / 1000 Ang^3
#
#
#
# Elastic Constant Matrix: (Units=GPa)
#
#
# Indices 1 2 3 4 5 6 
#
# 1 74.1962 20.5278 47.2870 0.0000 16.1478 0.0000
# 2 20.5278 71.2412 19.2193 0.0000 8.9267 0.0000
# 3 47.2870 19.2193 69.9265 0.0000 13.3334 0.0000
# 4 0.0000 0.0000 0.0000 19.9706 0.0000 2.5497
# 5 16.1478 8.9267 13.3334 0.0000 31.5268 0.0000
# 6 0.0000 0.0000 0.0000 2.5497 0.0000 20.3734
#
#
#
# Elastic Compliance Matrix: (Units=1/GPa)
#
#
# Indices 1 2 3 4 5 6 
#
# 1 0.025084 -0.002407 -0.015208 0.000000 -0.005735 0.000000
# 2 -0.002407 0.015615 -0.002237 0.000000 -0.002243 0.000000
# 3 -0.015208 -0.002237 0.025663 0.000000 -0.002431 0.000000
# 4 0.000000 0.000000 0.000000 0.050887 0.000000 -0.006368
# 5 -0.005735 -0.002243 -0.002431 0.000000 0.036319 0.000000
# 6 0.000000 0.000000 0.000000 -0.006368 0.000000 0.049881
#
#
# Mechanical properties :
#
#
# Convention : Reuss Voigt Hill
#
# Bulk Modulus (GPa) = 37.50978 43.27021 40.38999
# Shear Modulus (GPa) = 19.83835 22.92948 21.38392
#
# Velocity S-wave (km/s) = 3.25349 3.49779 3.37785
# Velocity P-wave (km/s) = 5.84190 6.27698 6.06334
#
# Compressibility (1/GPa) = 0.02665971
#
# Stress axis : x y z
#
# Youngs Moduli (GPa) = 39.86610 64.04232 38.96645
#
# Poissons Ratio (x) = 0.15412 0.59259
# Poissons Ratio (y) = 0.09594 0.08716
# Poissons Ratio (z) = 0.60628 0.14324
#
# Static dielectric constant tensor:
#      x y z
#    x 3.297120 0.000000 0.129210 
#    y 0.000000 3.443040 0.000000 
#    z 0.129210 0.000000 3.277510 
# 
# 
# High freq. dielectric constant tensor:
#      x y z
#    x 1.719120 0.000000 0.018130 
#    y 0.000000 1.733100 0.000000 
#    z 0.018130 0.000000 1.716400 
# 
# From -- ./inp_files/70513.got.cif
#   From: 2010.03.12/outbox.cif.g09.slc.cpg/sg14_36_cif.got.tgz:70513.got - 2010.03.31 13:35:05.
