data_PCOD8123350
_publ_section_title
;
Structure prediction by ZEFSAII (Michael W. Deem and Ramdas Pophale) SiO2 
 PCOD8123350
Probable space group: P 21/C
;
_chemical_formula_sum "Si O2"
_cell_formula_units_Z 32
_cell_length_a 25.117677
_cell_length_b 8.643669
_cell_length_c 15.706494
_cell_angle_alpha 90.000000
_cell_angle_beta 155.516539
_cell_angle_gamma 90.000000
_cell_volume 1413.216242
_symmetry_space_group_name_H-M "P 21/C"
_symmetry_group_IT_number 14
_symmetry_cell_setting 'monoclinic'
loop_
_space_group_symop_operation_xyz
x,y,z
-x,1/2+y,1/2-z
-x,-y,-z
x,1/2-y,1/2+z
loop_
_atom_site_type_symbol
_atom_site_label
_atom_site_fract_x
_atom_site_fract_y
_atom_site_fract_z
Si Si1 0.811699 0.612441 0.712507
Si Si2 0.491848 0.178181 0.444047
Si Si3 0.080825 0.785848 0.575214
Si Si4 0.228291 0.843928 0.442193
Si Si5 0.558958 0.933960 0.257559
Si Si6 0.233335 0.685390 0.134566
Si Si7 0.347572 0.374765 0.362721
Si Si8 0.601160 0.052286 0.811028
O O1 0.871816 0.457373 0.837888
O O2 0.729813 0.694059 0.668678
O O3 0.716761 0.568483 0.497618
O O4 0.925803 0.723113 0.845328
O O5 0.463120 0.262201 0.311043
O O6 0.638158 0.210920 0.683637
O O7 0.384424 0.234858 0.354483
O O8 0.462671 0.995990 0.374466
O O9 0.140002 0.738554 0.569798
O O10 0.126556 0.673294 0.717889
O O11 0.291357 0.015007 0.527988
O O12 0.162989 0.812183 0.439643
O O13 0.346566 0.724865 0.607589
O O14 0.511822 0.950423 0.284971
O O15 0.481236 0.047989 0.082974
O O16 0.262541 0.505551 0.193608
#
# Coordination Sequence:
#
# PCOD8123350 Si02
#       8
#     4   4   4   4   4   4   4   4
#     4   8  17  35  52  72  98 135 183 214 244 298
#     4  11  18  32  50  79 106 132 167 207 263 316
#     4   9  18  33  55  75  99 138 180 217 249 295
#     4  11  19  33  53  80 105 134 174 216 261 303
#     4  10  17  33  52  74 104 135 174 210 250 313
#     4  10  18  32  53  78 105 132 174 215 251 310
#     4   9  16  31  54  72  98 137 173 211 245 307
#     4  10  21  30  51  79 106 136 167 212 266 309
#
# _framework density 22.643386
#
# number of rings (size 3 to 8) (size 9 to 14) (size 15 to 20)
#    0.000    2.250    2.500    4.500    0.000    0.500 
#    2.250    0.000    0.000    0.750    0.000    0.000 
#    0.000    0.000    0.000    0.000    0.000    0.000 
#
# Total GULP energy -396671.538943 kJ/mol
# GULP energy per Si atom -12395.985592 kJ/mol
# Density = 2.259185 g / cm^3
# Si number density = 22.643386 Si / 1000 Ang^3
#
#
#
# Elastic Constant Matrix: (Units=GPa)
#
#
# Indices 1 2 3 4 5 6 
#
# 1 105.0918 -2.1673 23.9975 0.0000 1.4249 0.0000
# 2 -2.1673 25.6983 -3.9527 0.0000 11.3889 0.0000
# 3 23.9975 -3.9527 59.9325 0.0000 10.1848 0.0000
# 4 0.0000 0.0000 0.0000 22.1595 0.0000 -7.3092
# 5 1.4249 11.3889 10.1848 0.0000 31.9657 0.0000
# 6 0.0000 0.0000 0.0000 -7.3092 0.0000 17.2170
#
#
#
# Elastic Compliance Matrix: (Units=1/GPa)
#
#
# Indices 1 2 3 4 5 6 
#
# 1 0.010500 -0.000241 -0.004393 0.000000 0.001018 0.000000
# 2 -0.000241 0.048486 0.006585 0.000000 -0.019362 0.000000
# 3 -0.004393 0.006585 0.020346 0.000000 -0.008633 0.000000
# 4 0.000000 0.000000 0.000000 0.052476 0.000000 0.022278
# 5 0.001018 -0.019362 -0.008633 0.000000 0.040887 0.000000
# 6 0.000000 0.000000 0.000000 0.022278 0.000000 0.067540
#
#
# Mechanical properties :
#
#
# Convention : Reuss Voigt Hill
#
# Bulk Modulus (GPa) = 12.01445 25.16418 18.58931
# Shear Modulus (GPa) = 18.93378 25.79145 22.36261
#
# Velocity S-wave (km/s) = 2.89480 3.37861 3.14602
# Velocity P-wave (km/s) = 4.06087 5.13394 4.62861
#
# Compressibility (1/GPa) = 0.08323311
#
# Stress axis : x y z
#
# Youngs Moduli (GPa) = 95.23934 20.62431 49.15025
#
# Poissons Ratio (x) = 0.00497 0.21592
# Poissons Ratio (y) = 0.02297 -0.32364
# Poissons Ratio (z) = 0.41839 -0.13581
#
# Static dielectric constant tensor:
#      x y z
#    x 4.390000 0.000000 -0.105240 
#    y 0.000000 4.089950 0.000000 
#    z -0.105240 0.000000 4.032440 
# 
# 
# High freq. dielectric constant tensor:
#      x y z
#    x 1.906730 0.000000 -0.018820 
#    y 0.000000 1.874430 0.000000 
#    z -0.018820 0.000000 1.867870 
# 
# From -- ./inp_files/51431.got.cif
#   From: 2010.03.12/outbox.cif.g09.slc.cpg/sg14_26_cif.got.tgz:51431.got - 2010.03.31 13:35:05.
