data_PCOD8123095
_publ_section_title
;
Structure prediction by ZEFSAII (Michael W. Deem and Ramdas Pophale) SiO2 
 PCOD8123095
Probable space group: P 2/C
;
_chemical_formula_sum "Si O2"
_cell_formula_units_Z 28
_cell_length_a 22.147619
_cell_length_b 7.645737
_cell_length_c 9.653877
_cell_angle_alpha 90.000000
_cell_angle_beta 43.755486
_cell_angle_gamma 90.000000
_cell_volume 1130.555737
_symmetry_space_group_name_H-M "P 2/C"
_symmetry_group_IT_number 13
_symmetry_cell_setting 'monoclinic'
loop_
_space_group_symop_operation_xyz
x,y,z
-x,y,1/2-z
-x,-y,-z
x,-y,1/2+z
loop_
_atom_site_type_symbol
_atom_site_label
_atom_site_fract_x
_atom_site_fract_y
_atom_site_fract_z
Si Si1 0.590518 0.103325 0.355551
Si Si2 0.218620 0.463891 0.839565
Si Si3 0.141959 0.939178 0.774343
Si Si4 0.666706 0.170023 0.530665
Si Si5 0.951728 0.373911 0.974596
Si Si6 0.332485 0.434366 0.395237
Si Si7 0.099951 0.831566 0.575067
O O1 0.613438 0.128234 0.479238
O O2 0.591523 0.291876 0.270553
O O3 0.500000 0.000000 0.500000
O O4 0.656480 0.974694 0.167264
O O5 0.286484 0.378989 0.615850
O O6 0.268766 0.582435 0.868019
O O7 0.148655 0.570574 0.869137
O O8 0.163976 0.322797 0.018650
O O9 0.230529 0.839200 0.671374
O O10 0.126923 0.985978 0.636934
O O11 0.056270 0.822197 0.953666
O O12 0.129701 0.122138 0.871642
O O13 0.636494 0.362423 0.637799
O O14 0.000000 0.372780 0.750000
O O15 0.000000 0.500000 0.000000
O O16 0.000000 0.769357 0.750000
#
# Coordination Sequence:
#
# PCOD8123095 Si02
#       7
#     4   4   4   4   4   4   4
#     4  12  29  52  82 122 157 196 250 328 406 486
#     4  12  23  45  69 108 147 204 266 316 384 468
#     4  12  24  44  65 103 144 203 263 314 382 458
#     4  12  26  50  82 116 156 205 266 319 395 485
#     4  12  24  40  65  97 146 198 258 327 380 443
#     4  12  25  49  80 113 157 202 261 320 394 484
#     4  12  25  40  64 103 155 205 263 334 387 440
#
# _framework density 24.766582
#
# number of rings (size 3 to 8) (size 9 to 14) (size 15 to 20)
#    0.000    0.000    4.286    6.000    2.000    2.857 
#    0.000    1.429    0.000    0.000    0.000    0.000 
#    0.000    0.000    0.000    0.000    0.000    0.000 
#
# Total GULP energy -346947.340204 kJ/mol
# GULP energy per Si atom -12390.976436 kJ/mol
# Density = 2.471021 g / cm^3
# Si number density = 24.766582 Si / 1000 Ang^3
#
#
#
# Elastic Constant Matrix: (Units=GPa)
#
#
# Indices 1 2 3 4 5 6 
#
# 1 108.4351 20.1367 36.1158 0.0000 11.9490 0.0000
# 2 20.1367 122.3956 35.2461 0.0000 -5.9174 0.0000
# 3 36.1158 35.2461 103.6210 0.0000 3.9828 0.0000
# 4 0.0000 0.0000 0.0000 34.4339 0.0000 -7.5720
# 5 11.9490 -5.9174 3.9828 0.0000 36.3073 0.0000
# 6 0.0000 0.0000 0.0000 -7.5720 0.0000 32.7647
#
#
#
# Elastic Compliance Matrix: (Units=1/GPa)
#
#
# Indices 1 2 3 4 5 6 
#
# 1 0.010887 -0.000997 -0.003326 0.000000 -0.003381 0.000000
# 2 -0.000997 0.009270 -0.002889 0.000000 0.002156 0.000000
# 3 -0.003326 -0.002889 0.011818 0.000000 -0.000673 0.000000
# 4 0.000000 0.000000 0.000000 0.030596 0.000000 0.007071
# 5 -0.003381 0.002156 -0.000673 0.000000 0.029080 0.000000
# 6 0.000000 0.000000 0.000000 0.007071 0.000000 0.032155
#
#
# Mechanical properties :
#
#
# Convention : Reuss Voigt Hill
#
# Bulk Modulus (GPa) = 56.96917 57.49433 57.23175
# Shear Modulus (GPa) = 34.70278 36.89805 35.80041
#
# Velocity S-wave (km/s) = 3.74731 3.86402 3.80611
# Velocity P-wave (km/s) = 6.46340 6.57057 6.51721
#
# Compressibility (1/GPa) = 0.01755335
#
# Stress axis : x y z
#
# Youngs Moduli (GPa) = 91.84900 107.87113 84.61628
#
# Poissons Ratio (x) = 0.10755 0.28140
# Poissons Ratio (y) = 0.09157 0.24442
# Poissons Ratio (z) = 0.30545 0.31160
#
# Static dielectric constant tensor:
#      x y z
#    x 4.278830 0.000000 0.161310 
#    y 0.000000 4.711870 0.000000 
#    z 0.161310 0.000000 4.673390 
# 
# 
# High freq. dielectric constant tensor:
#      x y z
#    x 1.985250 0.000000 0.021230 
#    y 0.000000 1.989660 0.000000 
#    z 0.021230 0.000000 1.994960 
# 
# From -- ./inp_files/22964.got.cif
#   From: 2010.06.25/outbox.cif.g09.slc.cpg/sg13_12_cif.got.tgz:22964.got - 2010.06.28 04:50:58.
