data_PCOD8123094
_publ_section_title
;
Structure prediction by ZEFSAII (Michael W. Deem and Ramdas Pophale) SiO2 
 PCOD8123094
Probable space group: P 2/C
;
_chemical_formula_sum "Si O2"
_cell_formula_units_Z 18
_cell_length_a 24.258124
_cell_length_b 7.174037
_cell_length_c 11.960212
_cell_angle_alpha 90.000000
_cell_angle_beta 24.273861
_cell_angle_gamma 90.000000
_cell_volume 855.668645
_symmetry_space_group_name_H-M "P 2/C"
_symmetry_group_IT_number 13
_symmetry_cell_setting 'monoclinic'
loop_
_space_group_symop_operation_xyz
x,y,z
-x,y,1/2-z
-x,-y,-z
x,-y,1/2+z
loop_
_atom_site_type_symbol
_atom_site_label
_atom_site_fract_x
_atom_site_fract_y
_atom_site_fract_z
Si Si1 0.689560 0.193424 0.507568
Si Si2 0.119094 0.127179 0.824024
Si Si3 0.419541 0.655204 0.496954
Si Si4 0.803092 0.504115 0.446558
Si Si5 0.000000 0.311605 0.250000
O O1 0.689436 0.221970 0.372035
O O2 0.788998 0.346128 0.378690
O O3 0.742499 0.987997 0.437717
O O4 0.536009 0.214920 0.837742
O O5 0.090854 0.181253 0.004030
O O6 0.135761 0.309994 0.718666
O O7 0.000000 0.000000 0.000000
O O8 0.345400 0.534831 0.727198
O O9 0.500000 0.534357 0.250000
O O10 0.904011 0.441787 0.355349
#
# Coordination Sequence:
#
# PCOD8123094 Si02
#       5
#     4   4   4   4   2
#     4   9  22  45  63 100 128 175 224 270 340 388
#     4  12  27  42  67  97 136 176 226 276 332 402
#     4   8  22  40  71  94 133 176 220 277 333 401
#     4  12  23  44  68  97 137 175 228 276 332 402
#     4  12  28  42  70 100 136 190 216 280 342 390
#
# _framework density 21.036180000000002
#
# number of rings (size 3 to 8) (size 9 to 14) (size 15 to 20)
#    1.333    0.000    2.222    2.667    6.222    0.889 
#    0.000    8.889    0.000    0.000    0.000    0.000 
#    0.000    0.000    0.000    0.000    0.000    0.000 
#
# Total GULP energy -223015.877813 kJ/mol
# GULP energy per Si atom -12389.770990 kJ/mol
# Density = 2.098830 g / cm^3
# Si number density = 21.036180 Si / 1000 Ang^3
#
#
#
# Elastic Constant Matrix: (Units=GPa)
#
#
# Indices 1 2 3 4 5 6 
#
# 1 133.4826 76.2924 41.5643 0.0000 -19.2132 0.0000
# 2 76.2924 139.9223 55.2272 0.0000 -6.7824 0.0000
# 3 41.5643 55.2272 117.4720 0.0000 -0.7180 0.0000
# 4 0.0000 0.0000 0.0000 30.0138 0.0000 -8.4298
# 5 -19.2132 -6.7824 -0.7180 0.0000 33.7818 0.0000
# 6 0.0000 0.0000 0.0000 -8.4298 0.0000 13.1237
#
#
#
# Elastic Compliance Matrix: (Units=1/GPa)
#
#
# Indices 1 2 3 4 5 6 
#
# 1 0.012035 -0.005673 -0.001557 0.000000 0.005673 0.000000
# 2 -0.005673 0.011545 -0.003426 0.000000 -0.000981 0.000000
# 3 -0.001557 -0.003426 0.010666 0.000000 -0.001347 0.000000
# 4 0.000000 0.000000 0.000000 0.040652 0.000000 0.026112
# 5 0.005673 -0.000981 -0.001347 0.000000 0.032603 0.000000
# 6 0.000000 0.000000 0.000000 0.026112 0.000000 0.092971
#
#
# Mechanical properties :
#
#
# Convention : Reuss Voigt Hill
#
# Bulk Modulus (GPa) = 77.31384 81.89385 79.60385
# Shear Modulus (GPa) = 22.11461 29.90337 26.00899
#
# Velocity S-wave (km/s) = 3.24584 3.77440 3.52005
# Velocity P-wave (km/s) = 7.13301 7.61638 7.37866
#
# Compressibility (1/GPa) = 0.01293429
#
# Stress axis : x y z
#
# Youngs Moduli (GPa) = 83.08976 86.61979 93.75517
#
# Poissons Ratio (x) = 0.49137 0.14595
# Poissons Ratio (y) = 0.47135 0.32124
# Poissons Ratio (z) = 0.12935 0.29679
#
# Static dielectric constant tensor:
#      x y z
#    x 3.937770 0.000000 -0.128340 
#    y 0.000000 3.605110 0.000000 
#    z -0.128340 0.000000 3.927870 
# 
# 
# High freq. dielectric constant tensor:
#      x y z
#    x 1.838900 0.000000 -0.011810 
#    y 0.000000 1.799530 0.000000 
#    z -0.011810 0.000000 1.824000 
# 
# From -- ./inp_files/42240.got.cif
#   From: 2010.06.25/outbox.cif.g09.slc.cpg/sg13_22_cif.got.tgz:42240.got - 2010.06.28 04:50:58.
