data_PCOD8123251
_publ_section_title
;
Structure prediction by ZEFSAII (Michael W. Deem and Ramdas Pophale) SiO2 
 PCOD8123251
Probable space group: P 21/C
;
_chemical_formula_sum "Si O2"
_cell_formula_units_Z 24
_cell_length_a 13.206840
_cell_length_b 14.036223
_cell_length_c 12.972570
_cell_angle_alpha 90.000000
_cell_angle_beta 32.333915
_cell_angle_gamma 90.000000
_cell_volume 1286.202360
_symmetry_space_group_name_H-M "P 21/C"
_symmetry_group_IT_number 14
_symmetry_cell_setting 'monoclinic'
loop_
_space_group_symop_operation_xyz
x,y,z
-x,1/2+y,1/2-z
-x,-y,-z
x,1/2-y,1/2+z
loop_
_atom_site_type_symbol
_atom_site_label
_atom_site_fract_x
_atom_site_fract_y
_atom_site_fract_z
Si Si1 0.276263 0.931242 0.973196
Si Si2 0.896990 0.648089 0.122865
Si Si3 0.261654 0.743270 0.348394
Si Si4 0.047026 0.471807 0.113072
Si Si5 0.423836 0.927380 0.262984
Si Si6 0.463839 0.649639 0.516043
O O1 0.056180 0.947247 0.190347
O O2 0.385138 0.882334 0.974441
O O3 0.288168 0.864229 0.863070
O O4 0.379758 0.032310 0.858676
O O5 0.921017 0.552885 0.168685
O O6 0.681754 0.681978 0.318999
O O7 0.038588 0.730370 0.040295
O O8 0.950551 0.623186 0.958818
O O9 0.350168 0.757175 0.157531
O O10 0.376194 0.816251 0.328282
O O11 0.260367 0.505244 0.949101
O O12 0.431336 0.934633 0.130147
#
# Coordination Sequence:
#
# PCOD8123251 Si02
#       6
#     4   4   4   4   4   4
#     4  12  18  31  53  75 101 138 158 205 261 287
#     4  10  16  30  47  73  99 123 154 214 252 287
#     4   9  22  30  45  79 108 123 166 211 246 296
#     4  10  16  26  52  72  93 126 158 196 262 294
#     4   9  19  32  50  79  99 126 169 208 248 297
#     4  10  18  32  51  72 103 127 163 210 245 296
#
# _framework density 18.659583999999999
#
# number of rings (size 3 to 8) (size 9 to 14) (size 15 to 20)
#    1.000    1.000    5.000    1.500    0.000    1.333 
#    0.000    0.000    0.000    1.000    0.000    5.833 
#    0.000    0.000    0.000    0.000    0.000    0.000 
#
# Total GULP energy -297316.215634 kJ/mol
# GULP energy per Si atom -12388.175651 kJ/mol
# Density = 1.861711 g / cm^3
# Si number density = 18.659584 Si / 1000 Ang^3
#
#
#
# Elastic Constant Matrix: (Units=GPa)
#
#
# Indices 1 2 3 4 5 6 
#
# 1 6.4856 -6.6327 6.2358 0.0000 -6.1232 0.0000
# 2 -6.6327 16.7002 -0.9733 0.0000 -2.3027 0.0000
# 3 6.2358 -0.9733 106.2802 0.0000 -19.4146 0.0000
# 4 0.0000 0.0000 0.0000 21.2415 0.0000 1.5108
# 5 -6.1232 -2.3027 -19.4146 0.0000 15.3248 0.0000
# 6 0.0000 0.0000 0.0000 1.5108 0.0000 23.2731
#
#
#
# Elastic Compliance Matrix: (Units=1/GPa)
#
#
# Indices 1 2 3 4 5 6 
#
# 1 2.411779 1.137389 0.099099 0.000000 1.260113 0.000000
# 2 1.137389 0.598236 0.049681 0.000000 0.607291 0.000000
# 3 0.099099 0.049681 0.016455 0.000000 0.067908 0.000000
# 4 0.000000 0.000000 0.000000 0.047296 0.000000 -0.003070
# 5 1.260113 0.607291 0.067908 0.000000 0.746032 0.000000
# 6 0.000000 0.000000 0.000000 -0.003070 0.000000 0.043167
#
#
# Mechanical properties :
#
#
# Convention : Reuss Voigt Hill
#
# Bulk Modulus (GPa) = 0.17861 14.08064 7.12963
# Shear Modulus (GPa) = 1.58383 20.69030 11.13707
#
# Velocity S-wave (km/s) = 0.92231 3.33352 2.44571
# Velocity P-wave (km/s) = 1.10911 4.73064 3.43577
#
# Compressibility (1/GPa) = 5.59880683
#
# Stress axis : x y z
#
# Youngs Moduli (GPa) = 0.41463 1.67158 60.77355
#
# Poissons Ratio (x) = -1.90124 -6.02262
# Poissons Ratio (y) = -0.47160 -3.01927
# Poissons Ratio (z) = -0.04109 -0.08305
#
# Static dielectric constant tensor:
#      x y z
#    x 2.816110 0.000000 -0.145470 
#    y 0.000000 3.039100 0.000000 
#    z -0.145470 0.000000 3.663180 
# 
# 
# High freq. dielectric constant tensor:
#      x y z
#    x 1.657900 0.000000 -0.018620 
#    y 0.000000 1.683210 0.000000 
#    z -0.018620 0.000000 1.748030 
# 
# From -- ./inp_files/47253.got.cif
#   From: 2010.03.12/outbox.cif.g09.slc.cpg/sg14_24_cif.got.tgz:47253.got - 2010.03.31 13:35:05.
