data_PCOD8123885
_publ_section_title
;
Structure prediction by ZEFSAII (Michael W. Deem and Ramdas Pophale) SiO2 
 PCOD8123885
Probable space group: P 21/C
;
_chemical_formula_sum "Si O2"
_cell_formula_units_Z 24
_cell_length_a 12.814247
_cell_length_b 13.507041
_cell_length_c 11.970384
_cell_angle_alpha 90.000000
_cell_angle_beta 151.299708
_cell_angle_gamma 90.000000
_cell_volume 994.967375
_symmetry_space_group_name_H-M "P 21/C"
_symmetry_group_IT_number 14
_symmetry_cell_setting 'monoclinic'
loop_
_space_group_symop_operation_xyz
x,y,z
-x,1/2+y,1/2-z
-x,-y,-z
x,1/2-y,1/2+z
loop_
_atom_site_type_symbol
_atom_site_label
_atom_site_fract_x
_atom_site_fract_y
_atom_site_fract_z
Si Si1 0.120130 0.831863 0.850737
Si Si2 0.196391 0.922350 0.704767
Si Si3 0.324925 0.124600 0.759421
Si Si4 0.502920 0.941703 0.298423
Si Si5 0.380553 0.846612 0.659861
Si Si6 0.708247 0.779330 0.600347
O O1 0.039087 0.864417 0.648631
O O2 0.943257 0.803380 0.774357
O O3 0.252719 0.924099 0.029430
O O4 0.279763 0.736986 0.984702
O O5 0.202387 0.874059 0.587627
O O6 0.154488 0.043292 0.655822
O O7 0.433756 0.911547 0.982151
O O8 0.328166 0.115108 0.628169
O O9 0.272248 0.234669 0.755731
O O10 0.562506 0.880830 0.467880
O O11 0.556022 0.057723 0.354785
O O12 0.597923 0.806162 0.921833
#
# Coordination Sequence:
#
# PCOD8123885 Si02
#       6
#     4   4   4   4   4   4
#     4  10  19  30  50  79 104 127 162 208 252 292
#     4   8  15  31  53  74  98 128 163 204 247 292
#     4   8  15  31  53  74  98 128 163 204 247 292
#     4   9  19  35  53  74 101 132 166 205 248 294
#     4   9  19  35  53  74 101 132 166 205 248 294
#     4  10  19  30  50  79 104 127 162 208 252 292
#
# _framework density 24.121393000000001
#
# number of rings (size 3 to 8) (size 9 to 14) (size 15 to 20)
#    0.000    3.000    0.000    3.000    0.000    4.000 
#    0.000    3.333    0.000   27.000    0.000   60.667 
#    0.000    0.000    0.000    0.000    0.000    0.000 
#
# Total GULP energy -297493.322281 kJ/mol
# GULP energy per Si atom -12395.555095 kJ/mol
# Density = 2.406649 g / cm^3
# Si number density = 24.121393 Si / 1000 Ang^3
#
#
#
# Elastic Constant Matrix: (Units=GPa)
#
#
# Indices 1 2 3 4 5 6 
#
# 1 43.0841 -2.6709 7.0143 0.0000 12.7096 0.0000
# 2 -2.6709 104.7929 16.8166 0.0000 -9.6072 0.0000
# 3 7.0143 16.8166 42.8940 0.0000 4.1728 0.0000
# 4 0.0000 0.0000 0.0000 40.9039 0.0000 4.0081
# 5 12.7096 -9.6072 4.1728 0.0000 34.4559 0.0000
# 6 0.0000 0.0000 0.0000 4.0081 0.0000 43.1928
#
#
#
# Elastic Compliance Matrix: (Units=1/GPa)
#
#
# Indices 1 2 3 4 5 6 
#
# 1 0.026549 0.000407 -0.003602 0.000000 -0.009243 0.000000
# 2 0.000407 0.010590 -0.004544 0.000000 0.003353 0.000000
# 3 -0.003602 -0.004544 0.025984 0.000000 -0.003085 0.000000
# 4 0.000000 0.000000 0.000000 0.024672 0.000000 -0.002289
# 5 -0.009243 0.003353 -0.003085 0.000000 0.033741 0.000000
# 6 0.000000 0.000000 0.000000 -0.002289 0.000000 0.023364
#
#
# Mechanical properties :
#
#
# Convention : Reuss Voigt Hill
#
# Bulk Modulus (GPa) = 20.98882 25.89899 23.44391
# Shear Modulus (GPa) = 28.36733 35.01791 31.69262
#
# Velocity S-wave (km/s) = 3.43304 3.81430 3.62868
# Velocity P-wave (km/s) = 4.94313 5.49170 5.22462
#
# Compressibility (1/GPa) = 0.04764441
#
# Stress axis : x y z
#
# Youngs Moduli (GPa) = 37.66648 94.43186 38.48513
#
# Poissons Ratio (x) = -0.03846 0.13862
# Poissons Ratio (y) = -0.01534 0.17489
# Poissons Ratio (z) = 0.13567 0.42914
#
# Static dielectric constant tensor:
#      x y z
#    x 4.372130 0.000000 0.133610 
#    y 0.000000 4.546490 0.000000 
#    z 0.133610 0.000000 4.721200 
# 
# 
# High freq. dielectric constant tensor:
#      x y z
#    x 1.927920 0.000000 0.023150 
#    y 0.000000 1.955490 0.000000 
#    z 0.023150 0.000000 1.989220 
# 
# From -- ./inp_files/47067.got.cif
#   From: 2010.03.12/outbox.cif.g09.slc.cpg/sg14_24_cif.got.tgz:47067.got - 2010.03.31 13:35:05.
