data_PCOD8123017
_publ_section_title
;
Structure prediction by ZEFSAII (Michael W. Deem and Ramdas Pophale) SiO2 
 PCOD8123017
Probable space group: P 2/C
;
_chemical_formula_sum "Si O2"
_cell_formula_units_Z 28
_cell_length_a 8.786971
_cell_length_b 13.512305
_cell_length_c 11.572442
_cell_angle_alpha 90.000000
_cell_angle_beta 64.073421
_cell_angle_gamma 90.000000
_cell_volume 1235.733513
_symmetry_space_group_name_H-M "P 2/C"
_symmetry_group_IT_number 13
_symmetry_cell_setting 'monoclinic'
loop_
_space_group_symop_operation_xyz
x,y,z
-x,y,1/2-z
-x,-y,-z
x,-y,1/2+z
loop_
_atom_site_type_symbol
_atom_site_label
_atom_site_fract_x
_atom_site_fract_y
_atom_site_fract_z
Si Si1 0.672337 0.238832 0.248402
Si Si2 0.166257 0.140143 0.766813
Si Si3 0.592336 0.027175 0.344865
Si Si4 0.023268 0.261919 0.495876
Si Si5 0.845229 0.570010 0.374439
Si Si6 0.759456 0.643247 0.922603
Si Si7 0.572914 0.302819 0.850098
O O1 0.500000 0.279833 0.250000
O O2 0.806230 0.207769 0.103996
O O3 0.762534 0.329814 0.285652
O O4 0.632159 0.143268 0.340452
O O5 0.225374 0.027265 0.731441
O O6 0.334604 0.197465 0.669909
O O7 0.000000 0.165284 0.750000
O O8 0.107480 0.179285 0.911497
O O9 0.500000 0.005276 0.250000
O O10 0.500000 0.000000 0.500000
O O11 0.083217 0.348926 0.561530
O O12 0.922199 0.309084 0.425100
O O13 0.757111 0.472831 0.458097
O O14 0.710782 0.614708 0.331267
O O15 0.000000 0.526633 0.250000
O O16 0.582904 0.695447 0.012204
O O17 0.500000 0.326351 0.750000
#
# Coordination Sequence:
#
# PCOD8123017 Si02
#       7
#     4   4   4   4   4   4   4
#     4  11  27  48  70 105 156 192 245 314 388 450
#     4  12  25  45  78 104 143 195 246 313 373 451
#     4  11  28  51  79 115 153 198 256 317 386 466
#     4  12  24  45  71 104 147 192 248 311 376 449
#     4  12  23  44  66 104 143 189 252 304 378 445
#     4  12  26  42  71 100 146 197 244 309 373 457
#     4  12  22  42  66 101 135 186 247 298 365 447
#
# _framework density 22.658605999999999
#
# number of rings (size 3 to 8) (size 9 to 14) (size 15 to 20)
#    0.000    0.286    4.286    4.286    6.000    3.429 
#    0.000    0.000    0.000    0.000    0.000    0.000 
#    0.000    0.000    0.000    0.000    0.000    0.000 
#
# Total GULP energy -346933.113528 kJ/mol
# GULP energy per Si atom -12390.468340 kJ/mol
# Density = 2.260703 g / cm^3
# Si number density = 22.658606 Si / 1000 Ang^3
#
#
#
# Elastic Constant Matrix: (Units=GPa)
#
#
# Indices 1 2 3 4 5 6 
#
# 1 157.0365 39.1099 41.3853 0.0000 2.5323 0.0000
# 2 39.1099 73.8227 41.6913 0.0000 3.8563 0.0000
# 3 41.3853 41.6913 93.1357 0.0000 -5.5635 0.0000
# 4 0.0000 0.0000 0.0000 11.6307 0.0000 -0.3925
# 5 2.5323 3.8563 -5.5635 0.0000 44.9024 0.0000
# 6 0.0000 0.0000 0.0000 -0.3925 0.0000 26.9520
#
#
#
# Elastic Compliance Matrix: (Units=1/GPa)
#
#
# Indices 1 2 3 4 5 6 
#
# 1 0.007645 -0.002800 -0.002171 0.000000 -0.000460 0.000000
# 2 -0.002800 0.019457 -0.007612 0.000000 -0.002456 0.000000
# 3 -0.002171 -0.007612 0.015269 0.000000 0.002668 0.000000
# 4 0.000000 0.000000 0.000000 0.086022 0.000000 0.001253
# 5 -0.000460 -0.002456 0.002668 0.000000 0.022838 0.000000
# 6 0.000000 0.000000 0.000000 0.001253 0.000000 0.037121
#
#
# Mechanical properties :
#
#
# Convention : Reuss Voigt Hill
#
# Bulk Modulus (GPa) = 58.12700 63.15200 60.63950
# Shear Modulus (GPa) = 22.80483 30.15090 26.47786
#
# Velocity S-wave (km/s) = 3.17591 3.65178 3.42212
# Velocity P-wave (km/s) = 6.25760 6.76108 6.51421
#
# Compressibility (1/GPa) = 0.01720371
#
# Stress axis : x y z
#
# Youngs Moduli (GPa) = 130.80676 51.39651 65.49379
#
# Poissons Ratio (x) = 0.14391 0.14219
# Poissons Ratio (y) = 0.36625 0.49855
# Poissons Ratio (z) = 0.28400 0.39124
#
# Static dielectric constant tensor:
#      x y z
#    x 4.330180 0.000000 -0.088910 
#    y 0.000000 3.961340 0.000000 
#    z -0.088910 0.000000 2.994760 
# 
# 
# High freq. dielectric constant tensor:
#      x y z
#    x 1.914740 0.000000 -0.008200 
#    y 0.000000 1.885440 0.000000 
#    z -0.008200 0.000000 1.900250 
# 
# From -- ./inp_files/30255.got.cif
#   From: 2010.06.25/outbox.cif.g09.slc.cpg/sg13_16_cif.got.tgz:30255.got - 2010.06.28 04:50:58.
