data_PCOD8123604
_publ_section_title
;
Structure prediction by ZEFSAII (Michael W. Deem and Ramdas Pophale) SiO2 
 PCOD8123604
Probable space group: P 21/C
;
_chemical_formula_sum "Si O2"
_cell_formula_units_Z 28
_cell_length_a 11.520047
_cell_length_b 9.052393
_cell_length_c 18.008714
_cell_angle_alpha 90.000000
_cell_angle_beta 138.170379
_cell_angle_gamma 90.000000
_cell_volume 1252.485331
_symmetry_space_group_name_H-M "P 21/C"
_symmetry_group_IT_number 14
_symmetry_cell_setting 'monoclinic'
loop_
_space_group_symop_operation_xyz
x,y,z
-x,1/2+y,1/2-z
-x,-y,-z
x,1/2-y,1/2+z
loop_
_atom_site_type_symbol
_atom_site_label
_atom_site_fract_x
_atom_site_fract_y
_atom_site_fract_z
Si Si1 0.774106 0.078555 0.822374
Si Si2 0.689154 0.315788 0.002143
Si Si3 0.118166 0.313940 0.533680
Si Si4 0.385595 0.079557 0.624170
Si Si5 0.236961 0.488210 0.446566
Si Si6 0.382132 0.211331 0.463098
Si Si7 0.876297 0.015580 0.709198
O O1 0.840386 0.913473 0.874985
O O2 0.788230 0.089323 0.740065
O O3 0.573526 0.096832 0.755285
O O4 0.905743 0.199362 0.924303
O O5 0.692455 0.141875 0.987470
O O6 0.854162 0.374194 0.128082
O O7 0.667250 0.407231 0.914480
O O8 0.525366 0.349326 0.975881
O O9 0.225672 0.159601 0.591991
O O10 0.181226 0.393250 0.489858
O O11 0.422316 0.150915 0.562949
O O12 0.375676 0.390694 0.465518
O O13 0.078500 0.517062 0.315726
O O14 0.200606 0.145161 0.347344
#
# Coordination Sequence:
#
# PCOD8123604 Si02
#       7
#     4   4   4   4   4   4   4
#     4  10  18  38  59  78 112 147 190 234 281 332
#     4  11  19  33  56  83 112 144 182 232 284 338
#     4   9  22  36  58  83 105 152 194 226 275 343
#     4  10  19  36  60  80 109 147 188 228 283 338
#     4  10  21  32  52  82 117 140 186 236 272 332
#     4  10  18  34  52  82 109 146 186 221 285 336
#     4  10  18  34  55  76 106 155 183 225 286 334
#
# _framework density 22.355550999999998
#
# number of rings (size 3 to 8) (size 9 to 14) (size 15 to 20)
#    0.000    2.000    2.857    2.143    0.000    2.286 
#    0.000    0.000    0.000    8.571    0.000    0.000 
#    0.000    0.000    0.000    0.000    0.000    0.000 
#
# Total GULP energy -346949.852306 kJ/mol
# GULP energy per Si atom -12391.066154 kJ/mol
# Density = 2.230467 g / cm^3
# Si number density = 22.355551 Si / 1000 Ang^3
#
#
#
# Elastic Constant Matrix: (Units=GPa)
#
#
# Indices 1 2 3 4 5 6 
#
# 1 13.5905 -3.2458 0.3531 0.0000 5.7999 0.0000
# 2 -3.2458 106.8515 17.3282 0.0000 18.0736 0.0000
# 3 0.3531 17.3282 99.6849 0.0000 13.4314 0.0000
# 4 0.0000 0.0000 0.0000 20.5166 0.0000 7.3328
# 5 5.7999 18.0736 13.4314 0.0000 16.4503 0.0000
# 6 0.0000 0.0000 0.0000 7.3328 0.0000 32.2526
#
#
#
# Elastic Compliance Matrix: (Units=1/GPa)
#
#
# Indices 1 2 3 4 5 6 
#
# 1 0.097155 0.010609 0.004492 0.000000 -0.049577 0.000000
# 2 0.010609 0.012663 0.000157 0.000000 -0.017781 0.000000
# 3 0.004492 0.000157 0.011489 0.000000 -0.011137 0.000000
# 4 0.000000 0.000000 0.000000 0.053052 0.000000 -0.012062
# 5 -0.049577 -0.017781 -0.011137 0.000000 0.106897 0.000000
# 6 0.000000 0.000000 0.000000 -0.012062 0.000000 0.033748
#
#
# Mechanical properties :
#
#
# Convention : Reuss Voigt Hill
#
# Bulk Modulus (GPa) = 6.58668 27.66644 17.12656
# Shear Modulus (GPa) = 14.92107 27.55666 21.23887
#
# Velocity S-wave (km/s) = 2.58630 3.51473 3.08563
# Velocity P-wave (km/s) = 3.44547 5.37341 4.51358
#
# Compressibility (1/GPa) = 0.15182146
#
# Stress axis : x y z
#
# Youngs Moduli (GPa) = 10.29285 78.96878 87.04019
#
# Poissons Ratio (x) = -0.83775 -0.39095
# Poissons Ratio (y) = -0.10919 -0.01366
# Poissons Ratio (z) = -0.04623 -0.01240
#
# Static dielectric constant tensor:
#      x y z
#    x 3.787830 0.000000 0.170390 
#    y 0.000000 4.178740 0.000000 
#    z 0.170390 0.000000 4.254760 
# 
# 
# High freq. dielectric constant tensor:
#      x y z
#    x 1.848440 0.000000 0.005790 
#    y 0.000000 1.866740 0.000000 
#    z 0.005790 0.000000 1.888990 
# 
# From -- ./inp_files/73660.got.cif
#   From: 2010.03.12/outbox.cif.g09.slc.cpg/sg14_37_cif.got.tgz:73660.got - 2010.03.31 13:35:05.
