data_PCOD8123170
_publ_section_title
;
Structure prediction by ZEFSAII (Michael W. Deem and Ramdas Pophale) SiO2 
 PCOD8123170
Probable space group: P 2/C
;
_chemical_formula_sum "Si O2"
_cell_formula_units_Z 16
_cell_length_a 11.022707
_cell_length_b 10.247814
_cell_length_c 14.711582
_cell_angle_alpha 90.000000
_cell_angle_beta 153.424669
_cell_angle_gamma 90.000000
_cell_volume 743.446424
_symmetry_space_group_name_H-M "P 2/C"
_symmetry_group_IT_number 13
_symmetry_cell_setting 'monoclinic'
loop_
_space_group_symop_operation_xyz
x,y,z
-x,y,1/2-z
-x,-y,-z
x,-y,1/2+z
loop_
_atom_site_type_symbol
_atom_site_label
_atom_site_fract_x
_atom_site_fract_y
_atom_site_fract_z
Si Si1 0.178375 0.506345 0.525880
Si Si2 0.961863 0.775550 0.621586
Si Si3 0.000000 0.699504 0.250000
Si Si4 0.498113 0.117268 0.069428
Si Si5 0.500000 0.958928 0.250000
O O1 0.154325 0.369482 0.458318
O O2 0.000000 0.500000 0.500000
O O3 0.057671 0.615341 0.378510
O O4 0.500000 0.536270 0.750000
O O5 0.764097 0.869786 0.433897
O O6 0.000000 0.824949 0.750000
O O7 0.253724 0.782343 0.771280
O O8 0.239506 0.793931 0.380765
O O9 0.522248 0.055941 0.182833
O O10 0.500000 0.000000 0.000000
#
# Coordination Sequence:
#
# PCOD8123170 Si02
#       5
#     4   4   2   4   2
#     4  12  29  49  78 110 150 202 252 316 379 448
#     4  12  25  47  75 107 146 196 250 304 375 441
#     4  12  30  50  74 114 152 190 260 314 374 452
#     4  12  27  47  75 108 154 198 247 307 372 453
#     4  12  26  48  74 108 150 198 246 304 376 446
#
# _framework density 21.52139
#
# number of rings (size 3 to 8) (size 9 to 14) (size 15 to 20)
#    0.000    0.000    5.000    3.750   12.250    2.000 
#    0.000    0.000    0.000    0.000    0.000    0.000 
#    0.000    0.000    0.000    0.000    0.000    0.000 
#
# Total GULP energy -198428.061960 kJ/mol
# GULP energy per Si atom -12401.753873 kJ/mol
# Density = 2.147241 g / cm^3
# Si number density = 21.521390 Si / 1000 Ang^3
#
#
#
# Elastic Constant Matrix: (Units=GPa)
#
#
# Indices 1 2 3 4 5 6 
#
# 1 142.8550 59.9781 79.9862 0.0000 3.0247 0.0000
# 2 59.9781 141.2942 79.7807 0.0000 -6.4099 0.0000
# 3 79.9862 79.7807 178.6962 0.0000 13.3607 0.0000
# 4 0.0000 0.0000 0.0000 63.9336 0.0000 -7.1421
# 5 3.0247 -6.4099 13.3607 0.0000 47.8805 0.0000
# 6 0.0000 0.0000 0.0000 -7.1421 0.0000 50.5729
#
#
#
# Elastic Compliance Matrix: (Units=1/GPa)
#
#
# Indices 1 2 3 4 5 6 
#
# 1 0.009854 -0.002260 -0.003404 0.000000 0.000025 0.000000
# 2 -0.002260 0.010283 -0.003772 0.000000 0.002572 0.000000
# 3 -0.003404 -0.003772 0.009013 0.000000 -0.002805 0.000000
# 4 0.000000 0.000000 0.000000 0.015892 0.000000 0.002244
# 5 0.000025 0.002572 -0.002805 0.000000 0.022011 0.000000
# 6 0.000000 0.000000 0.000000 0.002244 0.000000 0.020090
#
#
# Mechanical properties :
#
#
# Convention : Reuss Voigt Hill
#
# Bulk Modulus (GPa) = 97.27828 100.25947 98.76888
# Shear Modulus (GPa) = 45.68668 48.68409 47.18538
#
# Velocity S-wave (km/s) = 4.61244 4.76134 4.68748
# Velocity P-wave (km/s) = 8.58283 8.77008 8.67696
#
# Compressibility (1/GPa) = 0.01027979
#
# Stress axis : x y z
#
# Youngs Moduli (GPa) = 101.47930 97.24672 110.94796
#
# Poissons Ratio (x) = 0.21978 0.37763
# Poissons Ratio (y) = 0.22935 0.41846
# Poissons Ratio (z) = 0.34540 0.36678
#
# Static dielectric constant tensor:
#      x y z
#    x 3.870760 0.000000 0.059170 
#    y 0.000000 4.063690 0.000000 
#    z 0.059170 0.000000 4.243370 
# 
# 
# High freq. dielectric constant tensor:
#      x y z
#    x 1.855160 0.000000 -0.000190 
#    y 0.000000 1.865610 0.000000 
#    z -0.000190 0.000000 1.868740 
# 
# From -- ./inp_files/25676.got.cif
#   From: 2010.06.25/outbox.cif.g09.slc.cpg/sg13_13_cif.got.tgz:25676.got - 2010.06.28 04:50:58.
