data_PCOD8123113
_publ_section_title
;
Structure prediction by ZEFSAII (Michael W. Deem and Ramdas Pophale) SiO2 
 PCOD8123113
Probable space group: P 2/C
;
_chemical_formula_sum "Si O2"
_cell_formula_units_Z 16
_cell_length_a 26.822558
_cell_length_b 4.823124
_cell_length_c 8.460135
_cell_angle_alpha 90.000000
_cell_angle_beta 37.338991
_cell_angle_gamma 90.000000
_cell_volume 663.831584
_symmetry_space_group_name_H-M "P 2/C"
_symmetry_group_IT_number 13
_symmetry_cell_setting 'monoclinic'
loop_
_space_group_symop_operation_xyz
x,y,z
-x,y,1/2-z
-x,-y,-z
x,-y,1/2+z
loop_
_atom_site_type_symbol
_atom_site_label
_atom_site_fract_x
_atom_site_fract_y
_atom_site_fract_z
Si Si1 0.840643 0.872879 0.859632
Si Si2 0.095135 0.361901 0.978833
Si Si3 0.347202 0.134831 0.717628
Si Si4 0.590904 0.381395 0.260557
O O1 0.863959 0.652972 0.666386
O O2 0.893580 0.150831 0.696147
O O3 0.858807 0.761459 0.986984
O O4 0.745263 0.951449 0.090149
O O5 0.000000 0.412934 0.250000
O O6 0.397260 0.863016 0.642058
O O7 0.392707 0.268318 0.454297
O O8 0.347104 0.364816 0.857329
O O9 0.500000 0.500000 0.500000
#
# Coordination Sequence:
#
# PCOD8123113 Si02
#       4
#     4   4   4   4
#     4  12  24  43  70 100 137 183 231 285 341 405
#     4  12  25  44  68 102 141 184 231 284 342 406
#     4  12  25  46  70 102 137 180 231 285 343 408
#     4  12  27  47  72 102 138 179 227 286 346 411
#
# _framework density 24.102497
#
# number of rings (size 3 to 8) (size 9 to 14) (size 15 to 20)
#    0.000    0.000    0.000   11.250    0.000    2.000 
#    0.000    0.000    0.000    0.000    0.000    0.000 
#    0.000    0.000    0.000    0.000    0.000    0.000 
#
# Total GULP energy -198561.772272 kJ/mol
# GULP energy per Si atom -12410.110767 kJ/mol
# Density = 2.404764 g / cm^3
# Si number density = 24.102497 Si / 1000 Ang^3
#
#
#
# Elastic Constant Matrix: (Units=GPa)
#
#
# Indices 1 2 3 4 5 6 
#
# 1 94.8537 19.4160 24.4668 0.0000 -16.2583 0.0000
# 2 19.4160 111.6439 46.0731 0.0000 -20.7030 0.0000
# 3 24.4668 46.0731 124.0297 0.0000 -13.5259 0.0000
# 4 0.0000 0.0000 0.0000 33.0512 0.0000 -0.1957
# 5 -16.2583 -20.7030 -13.5259 0.0000 25.4640 0.0000
# 6 0.0000 0.0000 0.0000 -0.1957 0.0000 50.7544
#
#
#
# Elastic Compliance Matrix: (Units=1/GPa)
#
#
# Indices 1 2 3 4 5 6 
#
# 1 0.012150 -0.000208 -0.001584 0.000000 0.006747 0.000000
# 2 -0.000208 0.011868 -0.003535 0.000000 0.007639 0.000000
# 3 -0.001584 -0.003535 0.009834 0.000000 0.001339 0.000000
# 4 0.000000 0.000000 0.000000 0.030257 0.000000 0.000117
# 5 0.006747 0.007639 0.001339 0.000000 0.050501 0.000000
# 6 0.000000 0.000000 0.000000 0.000117 0.000000 0.019703
#
#
# Mechanical properties :
#
#
# Convention : Reuss Voigt Hill
#
# Bulk Modulus (GPa) = 43.10451 56.71546 49.90999
# Shear Modulus (GPa) = 32.74405 37.89201 35.31803
#
# Velocity S-wave (km/s) = 3.68983 3.96930 3.83211
# Velocity P-wave (km/s) = 6.00631 6.67751 6.35078
#
# Compressibility (1/GPa) = 0.02319943
#
# Stress axis : x y z
#
# Youngs Moduli (GPa) = 82.30349 84.25679 101.68835
#
# Poissons Ratio (x) = 0.01756 0.16104
# Poissons Ratio (y) = 0.01715 0.35943
# Poissons Ratio (z) = 0.13034 0.29782
#
# Static dielectric constant tensor:
#      x y z
#    x 4.728170 0.000000 0.122490 
#    y 0.000000 4.817090 0.000000 
#    z 0.122490 0.000000 4.405980 
# 
# 
# High freq. dielectric constant tensor:
#      x y z
#    x 1.971430 0.000000 0.001750 
#    y 0.000000 1.979320 0.000000 
#    z 0.001750 0.000000 1.961840 
# 
# From -- ./inp_files/23677.got.cif
#   From: 2010.06.25/outbox.cif.g09.slc.cpg/sg13_12_cif.got.tgz:23677.got - 2010.06.28 04:50:58.
