data_PCOD8123574
_publ_section_title
;
Structure prediction by ZEFSAII (Michael W. Deem and Ramdas Pophale) SiO2 
 PCOD8123574
Probable space group: P 21/C
;
_chemical_formula_sum "Si O2"
_cell_formula_units_Z 28
_cell_length_a 8.346059
_cell_length_b 10.022428
_cell_length_c 23.958781
_cell_angle_alpha 90.000000
_cell_angle_beta 138.231269
_cell_angle_gamma 90.000000
_cell_volume 1334.981330
_symmetry_space_group_name_H-M "P 21/C"
_symmetry_group_IT_number 14
_symmetry_cell_setting 'monoclinic'
loop_
_space_group_symop_operation_xyz
x,y,z
-x,1/2+y,1/2-z
-x,-y,-z
x,1/2-y,1/2+z
loop_
_atom_site_type_symbol
_atom_site_label
_atom_site_fract_x
_atom_site_fract_y
_atom_site_fract_z
Si Si1 0.315152 0.904223 0.092216
Si Si2 0.838278 0.601213 0.532362
Si Si3 0.028991 0.510313 0.318329
Si Si4 0.384972 0.745877 0.390928
Si Si5 0.372322 0.207785 0.272843
Si Si6 0.012774 0.074571 0.694009
Si Si7 0.374708 0.630630 0.271630
O O1 0.471618 0.767788 0.134877
O O2 0.048989 0.867512 0.043645
O O3 0.438189 0.012670 0.165123
O O4 0.300579 0.966967 0.026056
O O5 0.945450 0.583749 0.621421
O O6 0.655160 0.726913 0.483942
O O7 0.223307 0.626890 0.372941
O O8 0.082074 0.421203 0.277950
O O9 0.756163 0.569340 0.243915
O O10 0.377678 0.742015 0.321134
O O11 0.271594 0.886869 0.383831
O O12 0.163376 0.311474 0.201493
O O13 0.551650 0.196124 0.267184
O O14 0.100934 0.930374 0.693909
#
# Coordination Sequence:
#
# PCOD8123574 Si02
#       7
#     4   4   4   4   4   4   4
#     4   9  19  32  51  86 110 135 181 230 267 322
#     4  10  18  33  55  83 115 136 177 233 274 318
#     4  10  19  34  56  84 108 141 180 230 273 320
#     4   9  19  31  50  80 111 138 176 224 283 322
#     4  10  19  33  55  82 106 146 184 224 276 318
#     4   9  20  33  50  84 109 138 184 230 272 324
#     4   9  17  32  51  75 107 140 185 226 262 325
#
# _framework density 20.974076
#
# number of rings (size 3 to 8) (size 9 to 14) (size 15 to 20)
#    0.000    2.571    1.429    1.286    2.000    0.000 
#    0.000    0.000    0.000    1.714    0.000    0.000 
#    0.000    0.000    0.000    0.000    0.000    0.000 
#
# Total GULP energy -346921.473960 kJ/mol
# GULP energy per Si atom -12390.052641 kJ/mol
# Density = 2.092634 g / cm^3
# Si number density = 20.974076 Si / 1000 Ang^3
#
#
#
# Elastic Constant Matrix: (Units=GPa)
#
#
# Indices 1 2 3 4 5 6 
#
# 1 96.1675 25.3675 20.3774 0.0000 3.3186 0.0000
# 2 25.3675 40.2914 25.9778 0.0000 2.6825 0.0000
# 3 20.3774 25.9778 66.5760 0.0000 13.4803 0.0000
# 4 0.0000 0.0000 0.0000 29.2663 0.0000 9.0844
# 5 3.3186 2.6825 13.4803 0.0000 31.0867 0.0000
# 6 0.0000 0.0000 0.0000 9.0844 0.0000 31.2203
#
#
#
# Elastic Compliance Matrix: (Units=1/GPa)
#
#
# Indices 1 2 3 4 5 6 
#
# 1 0.012523 -0.007259 -0.000939 0.000000 -0.000303 0.000000
# 2 -0.007259 0.037629 -0.013112 0.000000 0.003214 0.000000
# 3 -0.000939 -0.013112 0.022117 0.000000 -0.008359 0.000000
# 4 0.000000 0.000000 0.000000 0.037562 0.000000 -0.010930
# 5 -0.000303 0.003214 -0.008359 0.000000 0.035548 0.000000
# 6 0.000000 0.000000 0.000000 -0.010930 0.000000 0.035211
#
#
# Mechanical properties :
#
#
# Convention : Reuss Voigt Hill
#
# Bulk Modulus (GPa) = 33.72774 38.49780 36.11277
# Shear Modulus (GPa) = 21.45088 27.06881 24.25984
#
# Velocity S-wave (km/s) = 3.20149 3.59637 3.40466
# Velocity P-wave (km/s) = 5.45726 5.96992 5.71933
#
# Compressibility (1/GPa) = 0.02964919
#
# Stress axis : x y z
#
# Youngs Moduli (GPa) = 79.85501 26.57524 45.21491
#
# Poissons Ratio (x) = 0.19290 0.04247
# Poissons Ratio (y) = 0.57963 0.59285
# Poissons Ratio (z) = 0.07500 0.34845
#
# Static dielectric constant tensor:
#      x y z
#    x 3.952820 0.000000 0.339670 
#    y 0.000000 3.601630 0.000000 
#    z 0.339670 0.000000 3.654430 
# 
# 
# High freq. dielectric constant tensor:
#      x y z
#    x 1.836220 0.000000 0.024110 
#    y 0.000000 1.784520 0.000000 
#    z 0.024110 0.000000 1.787780 
# 
# From -- ./inp_files/55188.got.cif
#   From: 2010.03.12/outbox.cif.g09.slc.cpg/sg14_28_cif.got.tgz:55188.got - 2010.03.31 13:35:05.
