data_PCOD8123548
_publ_section_title
;
Structure prediction by ZEFSAII (Michael W. Deem and Ramdas Pophale) SiO2 
 PCOD8123548
Probable space group: P 21/C
;
_chemical_formula_sum "Si O2"
_cell_formula_units_Z 24
_cell_length_a 22.282323
_cell_length_b 8.021840
_cell_length_c 15.642343
_cell_angle_alpha 90.000000
_cell_angle_beta 158.675535
_cell_angle_gamma 90.000000
_cell_volume 1016.760562
_symmetry_space_group_name_H-M "P 21/C"
_symmetry_group_IT_number 14
_symmetry_cell_setting 'monoclinic'
loop_
_space_group_symop_operation_xyz
x,y,z
-x,1/2+y,1/2-z
-x,-y,-z
x,1/2-y,1/2+z
loop_
_atom_site_type_symbol
_atom_site_label
_atom_site_fract_x
_atom_site_fract_y
_atom_site_fract_z
Si Si1 0.930820 0.447443 0.774602
Si Si2 0.729957 0.655223 0.812727
Si Si3 0.582194 0.363372 0.294460
Si Si4 0.254983 0.041550 0.280514
Si Si5 0.983013 0.260684 0.512823
Si Si6 0.517903 0.002088 0.889244
O O1 0.760466 0.424425 0.496325
O O2 0.925792 0.330883 0.851356
O O3 0.083432 0.396754 0.916208
O O4 0.950877 0.639186 0.826472
O O5 0.730671 0.849948 0.787292
O O6 0.612890 0.621337 0.737197
O O7 0.672583 0.542234 0.655368
O O8 0.566034 0.168913 0.252241
O O9 0.584953 0.391490 0.399826
O O10 0.439695 0.475487 0.062729
O O11 0.173187 0.861600 0.154281
O O12 0.140418 0.124259 0.201231
#
# Coordination Sequence:
#
# PCOD8123548 Si02
#       6
#     4   4   4   4   4   4
#     4  10  18  32  56  85 118 157 200 252 310 358
#     4   9  20  39  59  83 121 165 202 245 309 373
#     4  11  20  34  59  90 120 156 207 261 305 354
#     4   9  18  33  56  87 119 158 208 252 295 361
#     4   9  17  31  54  83 117 160 205 243 298 377
#     4  10  21  38  60  86 121 162 206 255 307 366
#
# _framework density 23.604376999999999
#
# number of rings (size 3 to 8) (size 9 to 14) (size 15 to 20)
#    0.000    2.333    0.000    5.000    0.000    0.000 
#    0.000    5.000    0.000   11.000    0.000    0.000 
#    0.000    0.000    0.000    0.000    0.000    3.000 
#
# Total GULP energy -297623.950987 kJ/mol
# GULP energy per Si atom -12400.997958 kJ/mol
# Density = 2.355065 g / cm^3
# Si number density = 23.604377 Si / 1000 Ang^3
#
#
#
# Elastic Constant Matrix: (Units=GPa)
#
#
# Indices 1 2 3 4 5 6 
#
# 1 46.1687 18.9803 20.3513 0.0000 15.0086 0.0000
# 2 18.9803 101.7785 40.2600 0.0000 8.7138 0.0000
# 3 20.3513 40.2600 187.3908 0.0000 26.0236 0.0000
# 4 0.0000 0.0000 0.0000 36.9102 0.0000 11.6913
# 5 15.0086 8.7138 26.0236 0.0000 23.8586 0.0000
# 6 0.0000 0.0000 0.0000 11.6913 0.0000 33.1944
#
#
#
# Elastic Compliance Matrix: (Units=1/GPa)
#
#
# Indices 1 2 3 4 5 6 
#
# 1 0.028671 -0.003939 0.000044 0.000000 -0.016645 0.000000
# 2 -0.003939 0.011335 -0.002094 0.000000 0.000622 0.000000
# 3 0.000044 -0.002094 0.006693 0.000000 -0.006563 0.000000
# 4 0.000000 0.000000 0.000000 0.030495 0.000000 -0.010741
# 5 -0.016645 0.000622 -0.006563 0.000000 0.059316 0.000000
# 6 0.000000 0.000000 0.000000 -0.010741 0.000000 0.033908
#
#
# Mechanical properties :
#
#
# Convention : Reuss Voigt Hill
#
# Bulk Modulus (GPa) = 28.80100 54.94680 41.87390
# Shear Modulus (GPa) = 25.77728 35.84239 30.80984
#
# Velocity S-wave (km/s) = 3.30821 3.90097 3.61676
# Velocity P-wave (km/s) = 5.17884 6.60446 5.93461
#
# Compressibility (1/GPa) = 0.03472101
#
# Stress axis : x y z
#
# Youngs Moduli (GPa) = 34.87885 88.22367 149.41048
#
# Poissons Ratio (x) = 0.34752 -0.00659
# Poissons Ratio (y) = 0.13739 0.31284
# Poissons Ratio (z) = -0.00154 0.18472
#
# Static dielectric constant tensor:
#      x y z
#    x 3.781890 0.000000 0.209220 
#    y 0.000000 4.253240 0.000000 
#    z 0.209220 0.000000 4.478370 
# 
# 
# High freq. dielectric constant tensor:
#      x y z
#    x 1.897310 0.000000 0.019710 
#    y 0.000000 1.935840 0.000000 
#    z 0.019710 0.000000 1.949300 
# 
# From -- ./inp_files/61805.got.cif
#   From: 2010.03.12/outbox.cif.g09.slc.cpg/sg14_31_cif.got.tgz:61805.got - 2010.03.31 13:35:05.
