data_PCOD8123114
_publ_section_title
;
Structure prediction by ZEFSAII (Michael W. Deem and Ramdas Pophale) SiO2 
 PCOD8123114
Probable space group: P 2/C
;
_chemical_formula_sum "Si O2"
_cell_formula_units_Z 14
_cell_length_a 5.607724
_cell_length_b 25.503483
_cell_length_c 4.841390
_cell_angle_alpha 90.000000
_cell_angle_beta 125.540568
_cell_angle_gamma 90.000000
_cell_volume 563.407633
_symmetry_space_group_name_H-M "P 2/C"
_symmetry_group_IT_number 13
_symmetry_cell_setting 'monoclinic'
loop_
_space_group_symop_operation_xyz
x,y,z
-x,y,1/2-z
-x,-y,-z
x,-y,1/2+z
loop_
_atom_site_type_symbol
_atom_site_label
_atom_site_fract_x
_atom_site_fract_y
_atom_site_fract_z
Si Si1 0.000000 0.961171 0.250000
Si Si2 0.500000 0.886538 0.750000
Si Si3 0.500000 0.687134 0.750000
Si Si4 0.000000 0.755336 0.250000
Si Si5 0.000000 0.538889 0.750000
Si Si6 0.500000 0.817616 0.250000
Si Si7 0.500000 0.614654 0.250000
O O1 0.273945 0.922996 0.438813
O O2 0.000000 0.000000 0.500000
O O3 0.638892 0.851213 0.597615
O O4 0.392429 0.652399 0.419678
O O5 0.208833 0.722343 0.602622
O O6 0.774000 0.786399 0.297881
O O7 0.000000 0.500000 0.500000
O O8 0.729163 0.577331 0.552567
#
# Coordination Sequence:
#
# PCOD8123114 Si02
#       7
#     2   2   2   2   2   2   2
#     4  12  25  46  74 108 148 194 246 304 371 446
#     4  12  27  47  76 110 150 196 248 309 373 444
#     4  12  27  47  74 106 148 196 248 307 371 442
#     4  12  29  51  78 112 152 202 254 313 377 448
#     4  12  24  43  70 102 142 188 240 301 368 440
#     4  12  29  51  78 114 154 200 254 313 377 448
#     4  12  25  45  70 104 144 190 244 303 367 442
#
# _framework density 24.848792
#
# number of rings (size 3 to 8) (size 9 to 14) (size 15 to 20)
#    0.000    0.000    0.000    9.429    0.000   13.714 
#    0.000    0.000    0.000    0.000    0.000    0.000 
#    0.000    0.000    0.000    0.000    0.000    0.000 
#
# Total GULP energy -173462.884162 kJ/mol
# GULP energy per Si atom -12390.206012 kJ/mol
# Density = 2.479223 g / cm^3
# Si number density = 24.848792 Si / 1000 Ang^3
#
#
#
# Elastic Constant Matrix: (Units=GPa)
#
#
# Indices 1 2 3 4 5 6 
#
# 1 163.6057 89.7096 71.7045 0.0000 -7.5645 0.0000
# 2 89.7096 167.4141 82.8093 0.0000 -2.3493 0.0000
# 3 71.7045 82.8093 161.8096 0.0000 -0.6088 0.0000
# 4 0.0000 0.0000 0.0000 -43.9684 0.0000 -29.9668
# 5 -7.5645 -2.3493 -0.6088 0.0000 66.5657 0.0000
# 6 0.0000 0.0000 0.0000 -29.9668 0.0000 25.4292
#
#
#
# Elastic Compliance Matrix: (Units=1/GPa)
#
#
# Indices 1 2 3 4 5 6 
#
# 1 0.009197 -0.003885 -0.002084 0.000000 0.000889 0.000000
# 2 -0.003885 0.009643 -0.003214 0.000000 -0.000131 0.000000
# 3 -0.002084 -0.003214 0.008747 0.000000 -0.000270 0.000000
# 4 0.000000 0.000000 0.000000 -0.012613 0.000000 -0.014864
# 5 0.000889 -0.000131 -0.000270 0.000000 0.015117 0.000000
# 6 0.000000 0.000000 0.000000 -0.014864 0.000000 0.021809
#
#
# Mechanical properties :
#
#
# Convention : Reuss Voigt Hill
#
# Bulk Modulus (GPa) = 108.44133 109.03068 108.73600
# Shear Modulus (GPa) = 68.17675 26.17903 47.17789
#
# Velocity S-wave (km/s) = 5.24368 3.24934 4.36202
# Velocity P-wave (km/s) = 8.96643 7.61909 8.32008
#
# Compressibility (1/GPa) = 0.00922158
#
# Stress axis : x y z
#
# Youngs Moduli (GPa) = 108.73174 103.70425 114.32049
#
# Poissons Ratio (x) = 0.40288 0.23825
# Poissons Ratio (y) = 0.42241 0.36741
# Poissons Ratio (z) = 0.22660 0.33329
#
# Static dielectric constant tensor:
#      x y z
#    x 4.333750 0.000000 0.175910 
#    y 0.000000 6.808980 0.000000 
#    z 0.175910 0.000000 4.344760 
# 
# 
# High freq. dielectric constant tensor:
#      x y z
#    x 1.978250 0.000000 -0.006360 
#    y 0.000000 2.022620 0.000000 
#    z -0.006360 0.000000 2.019470 
# 
# From -- ./inp_files/319.got.cif
#   From: 2010.06.25/outbox.cif.g09.slc.cpg/sg13_1_cif.got.tgz:319.got - 2010.06.28 04:50:58.
