data_PCOD8123149
_publ_section_title
;
Structure prediction by ZEFSAII (Michael W. Deem and Ramdas Pophale) SiO2 
 PCOD8123149
Probable space group: P 2/C
;
_chemical_formula_sum "Si O2"
_cell_formula_units_Z 14
_cell_length_a 10.875669
_cell_length_b 9.081167
_cell_length_c 8.596195
_cell_angle_alpha 90.000000
_cell_angle_beta 36.479091
_cell_angle_gamma 90.000000
_cell_volume 504.751054
_symmetry_space_group_name_H-M "P 2/C"
_symmetry_group_IT_number 13
_symmetry_cell_setting 'monoclinic'
loop_
_space_group_symop_operation_xyz
x,y,z
-x,y,1/2-z
-x,-y,-z
x,-y,1/2+z
loop_
_atom_site_type_symbol
_atom_site_label
_atom_site_fract_x
_atom_site_fract_y
_atom_site_fract_z
Si Si1 0.826843 0.854294 0.230682
Si Si2 0.268057 0.152293 0.021502
Si Si3 0.500000 0.316059 0.250000
Si Si4 0.153060 0.367914 0.384849
O O1 0.610652 0.787071 0.510171
O O2 0.839145 0.025608 0.262771
O O3 0.850985 0.831230 0.019888
O O4 0.022237 0.763369 0.099565
O O5 0.262563 0.308060 0.117058
O O6 0.500000 0.102180 0.750000
O O7 0.331867 0.415264 0.327022
O O8 0.000000 0.500000 0.500000
#
# Coordination Sequence:
#
# PCOD8123149 Si02
#       4
#     4   4   2   4
#     4  12  26  49  84 122 162 215 272 344 410 487
#     4  12  24  52  85 121 167 214 272 347 415 478
#     4  12  26  52  84 118 164 214 278 342 412 486
#     4  12  30  54  80 120 165 221 275 338 414 497
#
# _framework density 27.736443999999999
#
# number of rings (size 3 to 8) (size 9 to 14) (size 15 to 20)
#    0.000    0.000    4.286    5.143    0.000    8.000 
#    5.143    0.000    0.000    1.714    0.000    0.000 
#    0.000    0.000    0.000    0.000    0.000    0.000 
#
# Total GULP energy -173665.415337 kJ/mol
# GULP energy per Si atom -12404.672524 kJ/mol
# Density = 2.767331 g / cm^3
# Si number density = 27.736444 Si / 1000 Ang^3
#
#
#
# Elastic Constant Matrix: (Units=GPa)
#
#
# Indices 1 2 3 4 5 6 
#
# 1 236.9363 72.9858 63.5246 0.0000 -10.4449 0.0000
# 2 72.9858 125.5083 52.8639 0.0000 -8.1712 0.0000
# 3 63.5246 52.8639 127.8827 0.0000 24.4193 0.0000
# 4 0.0000 0.0000 0.0000 49.1249 0.0000 -12.4797
# 5 -10.4449 -8.1712 24.4193 0.0000 64.6322 0.0000
# 6 0.0000 0.0000 0.0000 -12.4797 0.0000 30.6471
#
#
#
# Elastic Compliance Matrix: (Units=1/GPa)
#
#
# Indices 1 2 3 4 5 6 
#
# 1 0.005534 -0.002248 -0.002087 0.000000 0.001399 0.000000
# 2 -0.002248 0.011108 -0.003959 0.000000 0.002537 0.000000
# 3 -0.002087 -0.003959 0.011481 0.000000 -0.005176 0.000000
# 4 0.000000 0.000000 0.000000 0.022705 0.000000 0.009246
# 5 0.001399 0.002537 -0.005176 0.000000 0.017974 0.000000
# 6 0.000000 0.000000 0.000000 0.009246 0.000000 0.036394
#
#
# Mechanical properties :
#
#
# Convention : Reuss Voigt Hill
#
# Bulk Modulus (GPa) = 86.69590 96.56397 91.62993
# Shear Modulus (GPa) = 39.79917 48.94437 44.37177
#
# Velocity S-wave (km/s) = 3.79212 4.20530 4.00404
# Velocity P-wave (km/s) = 7.10623 7.64655 7.38134
#
# Compressibility (1/GPa) = 0.01153457
#
# Stress axis : x y z
#
# Youngs Moduli (GPa) = 180.69365 90.02627 87.09864
#
# Poissons Ratio (x) = 0.20241 0.18175
# Poissons Ratio (y) = 0.40625 0.34485
# Poissons Ratio (z) = 0.37706 0.35645
#
# Static dielectric constant tensor:
#      x y z
#    x 5.142700 0.000000 -0.043400 
#    y 0.000000 4.561420 0.000000 
#    z -0.043400 0.000000 5.462410 
# 
# 
# High freq. dielectric constant tensor:
#      x y z
#    x 2.135240 0.000000 -0.005000 
#    y 0.000000 2.089720 0.000000 
#    z -0.005000 0.000000 2.166860 
# 
# From -- ./inp_files/14670.got.cif
#   From: 2010.06.25/outbox.cif.g09.slc.cpg/sg13_8_cif.got.tgz:14670.got - 2010.06.28 04:50:58.
