data_PCOD8123427
_publ_section_title
;
Structure prediction by ZEFSAII (Michael W. Deem and Ramdas Pophale) SiO2 
 PCOD8123427
Probable space group: P 21/C
;
_chemical_formula_sum "Si O2"
_cell_formula_units_Z 28
_cell_length_a 8.532051
_cell_length_b 15.229438
_cell_length_c 11.238869
_cell_angle_alpha 90.000000
_cell_angle_beta 104.719303
_cell_angle_gamma 90.000000
_cell_volume 1412.434208
_symmetry_space_group_name_H-M "P 21/C"
_symmetry_group_IT_number 14
_symmetry_cell_setting 'monoclinic'
loop_
_space_group_symop_operation_xyz
x,y,z
-x,1/2+y,1/2-z
-x,-y,-z
x,1/2-y,1/2+z
loop_
_atom_site_type_symbol
_atom_site_label
_atom_site_fract_x
_atom_site_fract_y
_atom_site_fract_z
Si Si1 0.102427 0.348942 0.104714
Si Si2 0.017574 0.665588 0.390599
Si Si3 0.352852 0.196231 0.848802
Si Si4 0.807534 0.939049 0.023426
Si Si5 0.302439 0.886314 0.082972
Si Si6 0.819642 0.628483 0.142543
Si Si7 0.905811 0.450193 0.252034
O O1 0.040955 0.253462 0.057061
O O2 0.261305 0.341274 0.216670
O O3 0.957302 0.401288 0.140689
O O4 0.149436 0.392886 0.988960
O O5 0.920037 0.584664 0.432555
O O6 0.978714 0.668601 0.241296
O O7 0.207379 0.658381 0.454674
O O8 0.289322 0.146999 0.954108
O O9 0.538652 0.170633 0.864769
O O10 0.327136 0.301602 0.862839
O O11 0.924270 0.977333 0.150384
O O12 0.676743 0.011769 0.953877
O O13 0.196254 0.883869 0.184075
O O14 0.790877 0.533157 0.196708
#
# Coordination Sequence:
#
# PCOD8123427 Si02
#       7
#     4   4   4   4   4   4   4
#     4  10  22  38  60  86 121 160 198 242 299 365
#     4  10  19  36  64  87 111 156 205 249 284 343
#     4  10  23  36  60  87 125 155 191 252 303 350
#     4  10  17  38  62  90 113 153 206 249 288 341
#     4  11  20  38  61  93 117 148 209 254 292 341
#     4  11  19  39  62  86 118 164 195 234 306 361
#     4  10  20  36  66  88 116 157 202 251 289 359
#
# _framework density 19.823931000000002
#
# number of rings (size 3 to 8) (size 9 to 14) (size 15 to 20)
#    0.000    1.714    4.286    1.714    2.000    0.000 
#    2.571    0.714    6.286    0.000    0.000    0.000 
#    0.000    0.000    0.000    0.000    0.000    0.000 
#
# Total GULP energy -346976.481619 kJ/mol
# GULP energy per Si atom -12392.017201 kJ/mol
# Density = 1.977881 g / cm^3
# Si number density = 19.823931 Si / 1000 Ang^3
#
#
#
# Elastic Constant Matrix: (Units=GPa)
#
#
# Indices 1 2 3 4 5 6 
#
# 1 98.8757 40.1842 45.8612 0.0000 9.5028 0.0000
# 2 40.1842 88.8064 31.1785 0.0000 14.8591 0.0000
# 3 45.8612 31.1785 93.8081 0.0000 -10.4064 0.0000
# 4 0.0000 0.0000 0.0000 32.7381 0.0000 1.4172
# 5 9.5028 14.8591 -10.4064 0.0000 31.3317 0.0000
# 6 0.0000 0.0000 0.0000 1.4172 0.0000 31.2036
#
#
#
# Elastic Compliance Matrix: (Units=1/GPa)
#
#
# Indices 1 2 3 4 5 6 
#
# 1 0.015254 -0.003644 -0.006819 0.000000 -0.005163 0.000000
# 2 -0.003644 0.015724 -0.004308 0.000000 -0.007783 0.000000
# 3 -0.006819 -0.004308 0.016489 0.000000 0.009588 0.000000
# 4 0.000000 0.000000 0.000000 0.030606 0.000000 -0.001390
# 5 -0.005163 -0.007783 0.009588 0.000000 0.040358 0.000000
# 6 0.000000 0.000000 0.000000 -0.001390 0.000000 0.032111
#
#
# Mechanical properties :
#
#
# Convention : Reuss Voigt Hill
#
# Bulk Modulus (GPa) = 55.78825 57.32644 56.55734
# Shear Modulus (GPa) = 26.87336 30.00577 28.43957
#
# Velocity S-wave (km/s) = 3.68584 3.89474 3.79173
# Velocity P-wave (km/s) = 6.80565 7.01469 6.91096
#
# Compressibility (1/GPa) = 0.01792492
#
# Stress axis : x y z
#
# Youngs Moduli (GPa) = 65.55767 63.59666 60.64649
#
# Poissons Ratio (x) = 0.23177 0.41353
# Poissons Ratio (y) = 0.23892 0.26125
# Poissons Ratio (z) = 0.44702 0.27396
#
# Static dielectric constant tensor:
#      x y z
#    x 3.196610 0.000000 -0.069720 
#    y 0.000000 3.690660 0.000000 
#    z -0.069720 0.000000 3.654600 
# 
# 
# High freq. dielectric constant tensor:
#      x y z
#    x 1.728840 0.000000 -0.014520 
#    y 0.000000 1.780700 0.000000 
#    z -0.014520 0.000000 1.776500 
# 
# From -- ./inp_files/25308.got.cif
#   From: 2010.03.12/outbox.cif.g09.slc.cpg/sg14_13_cif.got.tgz:25308.got - 2010.03.31 13:35:05.
