data_PCOD8123195
_publ_section_title
;
Structure prediction by ZEFSAII (Michael W. Deem and Ramdas Pophale) SiO2 
 PCOD8123195
Probable space group: P 2/C
;
_chemical_formula_sum "Si O2"
_cell_formula_units_Z 16
_cell_length_a 8.084973
_cell_length_b 5.567307
_cell_length_c 14.108912
_cell_angle_alpha 90.000000
_cell_angle_beta 107.509985
_cell_angle_gamma 90.000000
_cell_volume 605.637698
_symmetry_space_group_name_H-M "P 2/C"
_symmetry_group_IT_number 13
_symmetry_cell_setting 'monoclinic'
loop_
_space_group_symop_operation_xyz
x,y,z
-x,y,1/2-z
-x,-y,-z
x,-y,1/2+z
loop_
_atom_site_type_symbol
_atom_site_label
_atom_site_fract_x
_atom_site_fract_y
_atom_site_fract_z
Si Si1 0.604300 0.840224 0.443522
Si Si2 0.000000 0.800190 0.250000
Si Si3 0.902721 0.435823 0.077667
Si Si4 0.207848 0.863799 0.675239
Si Si5 0.500000 0.527726 0.250000
O O1 0.705653 0.639417 0.521818
O O2 0.500308 0.699042 0.342752
O O3 0.500000 0.000000 0.500000
O O4 0.731292 0.029863 0.414320
O O5 0.087929 0.654593 0.349607
O O6 0.180752 0.930371 0.248829
O O7 0.007007 0.213169 0.138040
O O8 0.000000 0.500000 0.000000
O O9 0.331143 0.644581 0.729328
#
# Coordination Sequence:
#
# PCOD8123195 Si02
#       5
#     4   2   4   4   2
#     4  12  30  55  86 127 172 222 278 356 438 509
#     4  12  28  50  90 122 162 228 288 352 410 512
#     4  12  26  56  85 122 169 222 291 343 426 523
#     4  12  27  52  82 123 169 220 281 353 426 503
#     4  12  28  56  78 124 176 212 282 356 426 516
#
# _framework density 26.418434000000001
#
# number of rings (size 3 to 8) (size 9 to 14) (size 15 to 20)
#    0.000    0.000    5.000    2.250    0.000   13.000 
#    4.500    1.250    0.000    0.000    0.000    0.000 
#    0.000    0.000    0.000    0.000    0.000    0.000 
#
# Total GULP energy -198323.183934 kJ/mol
# GULP energy per Si atom -12395.198996 kJ/mol
# Density = 2.635830 g / cm^3
# Si number density = 26.418434 Si / 1000 Ang^3
#
#
#
# Elastic Constant Matrix: (Units=GPa)
#
#
# Indices 1 2 3 4 5 6 
#
# 1 136.8584 70.6907 83.3454 0.0000 -21.1626 0.0000
# 2 70.6907 159.2882 98.5172 0.0000 -14.9584 0.0000
# 3 83.3454 98.5172 192.9525 0.0000 -11.1980 0.0000
# 4 0.0000 0.0000 0.0000 24.6750 0.0000 -19.5229
# 5 -21.1626 -14.9584 -11.1980 0.0000 57.7422 0.0000
# 6 0.0000 0.0000 0.0000 -19.5229 0.0000 66.1896
#
#
#
# Elastic Compliance Matrix: (Units=1/GPa)
#
#
# Indices 1 2 3 4 5 6 
#
# 1 0.011094 -0.002631 -0.003289 0.000000 0.002746 0.000000
# 2 -0.002631 0.009927 -0.003882 0.000000 0.000854 0.000000
# 3 -0.003289 -0.003882 0.008554 0.000000 -0.000552 0.000000
# 4 0.000000 0.000000 0.000000 0.052864 0.000000 0.015592
# 5 0.002746 0.000854 -0.000552 0.000000 0.018439 0.000000
# 6 0.000000 0.000000 0.000000 0.015592 0.000000 0.019707
#
#
# Mechanical properties :
#
#
# Convention : Reuss Voigt Hill
#
# Bulk Modulus (GPa) = 100.31154 110.46728 105.38941
# Shear Modulus (GPa) = 34.84024 45.49107 40.16566
#
# Velocity S-wave (km/s) = 3.63545 4.15413 3.90342
# Velocity P-wave (km/s) = 7.46155 8.05694 7.76495
#
# Compressibility (1/GPa) = 0.00996894
#
# Stress axis : x y z
#
# Youngs Moduli (GPa) = 90.14279 100.73490 116.91039
#
# Poissons Ratio (x) = 0.26504 0.38453
# Poissons Ratio (y) = 0.23717 0.45390
# Poissons Ratio (z) = 0.29649 0.39110
#
# Static dielectric constant tensor:
#      x y z
#    x 4.686280 0.000000 -0.197160 
#    y 0.000000 3.112790 0.000000 
#    z -0.197160 0.000000 4.989310 
# 
# 
# High freq. dielectric constant tensor:
#      x y z
#    x 2.065960 0.000000 -0.011680 
#    y 0.000000 2.082800 0.000000 
#    z -0.011680 0.000000 2.075380 
# 
# From -- ./inp_files/45185.got.cif
#   From: 2010.06.25/outbox.cif.g09.slc.cpg/sg13_23_cif.got.tgz:45185.got - 2010.06.28 04:50:58.
