data_PCOD8123838
_publ_section_title
;
Structure prediction by ZEFSAII (Michael W. Deem and Ramdas Pophale) SiO2 
 PCOD8123838
Probable space group: P 21/C
;
_chemical_formula_sum "Si O2"
_cell_formula_units_Z 24
_cell_length_a 22.352309
_cell_length_b 8.682361
_cell_length_c 17.695193
_cell_angle_alpha 90.000000
_cell_angle_beta 161.204420
_cell_angle_gamma 90.000000
_cell_volume 1106.448455
_symmetry_space_group_name_H-M "P 21/C"
_symmetry_group_IT_number 14
_symmetry_cell_setting 'monoclinic'
loop_
_space_group_symop_operation_xyz
x,y,z
-x,1/2+y,1/2-z
-x,-y,-z
x,1/2-y,1/2+z
loop_
_atom_site_type_symbol
_atom_site_label
_atom_site_fract_x
_atom_site_fract_y
_atom_site_fract_z
Si Si1 0.901538 0.978766 0.566668
Si Si2 0.379337 0.104050 0.557002
Si Si3 0.208775 0.299691 0.483488
Si Si4 0.435025 0.596868 0.994915
Si Si5 0.471695 0.912352 0.800555
Si Si6 0.676113 0.066503 0.166804
O O1 0.724631 0.049524 0.397904
O O2 0.864954 0.007781 0.433359
O O3 0.093590 0.051778 0.822362
O O4 0.912002 0.798902 0.600534
O O5 0.236031 0.194461 0.440258
O O6 0.519752 0.228504 0.689819
O O7 0.303405 0.010298 0.392180
O O8 0.490087 0.977037 0.737858
O O9 0.393450 0.348060 0.748284
O O10 0.500000 0.500000 0.000000
O O11 0.322539 0.747341 0.833686
O O12 0.652467 0.990501 0.056285
O O13 0.500000 0.000000 0.000000
#
# Coordination Sequence:
#
# PCOD8123838 Si02
#       6
#     4   4   4   4   4   4
#     4  10  23  38  62  90 131 162 210 269 328 385
#     4  11  21  39  64  94 126 167 222 267 313 389
#     4  11  24  42  62  99 128 172 214 267 333 380
#     4  12  23  38  69  95 125 174 229 265 315 393
#     4  10  19  37  64  87 125 168 217 262 316 387
#     4  10  18  39  59  92 122 165 217 264 307 386
#
# _framework density 21.691025
#
# number of rings (size 3 to 8) (size 9 to 14) (size 15 to 20)
#    0.000    1.333    6.667    2.000    4.667    0.000 
#    0.000    1.667    3.667    0.000    0.000    0.000 
#    0.000    0.000    0.000    0.000    0.000    0.000 
#
# Total GULP energy -297327.263785 kJ/mol
# GULP energy per Si atom -12388.635991 kJ/mol
# Density = 2.164165 g / cm^3
# Si number density = 21.691025 Si / 1000 Ang^3
#
#
#
# Elastic Constant Matrix: (Units=GPa)
#
#
# Indices 1 2 3 4 5 6 
#
# 1 85.7405 26.1598 5.1821 0.0000 -28.8560 0.0000
# 2 26.1598 85.8510 -5.0738 0.0000 -5.1028 0.0000
# 3 5.1821 -5.0738 55.9104 0.0000 -9.6685 0.0000
# 4 0.0000 0.0000 0.0000 30.8913 0.0000 -4.4211
# 5 -28.8560 -5.1028 -9.6685 0.0000 20.1739 0.0000
# 6 0.0000 0.0000 0.0000 -4.4211 0.0000 43.3333
#
#
#
# Elastic Compliance Matrix: (Units=1/GPa)
#
#
# Indices 1 2 3 4 5 6 
#
# 1 0.025446 -0.005364 0.003505 0.000000 0.036720 0.000000
# 2 -0.005364 0.013113 0.001018 0.000000 -0.003868 0.000000
# 3 0.003505 0.001018 0.020242 0.000000 0.014972 0.000000
# 4 0.000000 0.000000 0.000000 0.032851 0.000000 0.003352
# 5 0.036720 -0.003868 0.014972 0.000000 0.108288 0.000000
# 6 0.000000 0.000000 0.000000 0.003352 0.000000 0.023419
#
#
# Mechanical properties :
#
#
# Convention : Reuss Voigt Hill
#
# Bulk Modulus (GPa) = 17.50732 31.11535 24.31134
# Shear Modulus (GPa) = 20.48497 32.29529 26.39013
#
# Velocity S-wave (km/s) = 3.07644 3.86278 3.49182
# Velocity P-wave (km/s) = 4.55061 5.85412 5.24303
#
# Compressibility (1/GPa) = 0.05711897
#
# Stress axis : x y z
#
# Youngs Moduli (GPa) = 39.29907 76.26097 49.40133
#
# Poissons Ratio (x) = 0.40906 -0.17313
# Poissons Ratio (y) = 0.21080 -0.05031
# Poissons Ratio (z) = -0.13773 -0.07766
#
# Static dielectric constant tensor:
#      x y z
#    x 4.458110 0.000000 -0.845040 
#    y 0.000000 4.349950 0.000000 
#    z -0.845040 0.000000 3.897600 
# 
# 
# High freq. dielectric constant tensor:
#      x y z
#    x 1.855030 0.000000 -0.036200 
#    y 0.000000 1.872550 0.000000 
#    z -0.036200 0.000000 1.811530 
# 
# From -- ./inp_files/61762.got.cif
#   From: 2010.03.12/outbox.cif.g09.slc.cpg/sg14_31_cif.got.tgz:61762.got - 2010.03.31 13:35:05.
