data_PCOD8123542
_publ_section_title
;
Structure prediction by ZEFSAII (Michael W. Deem and Ramdas Pophale) SiO2 
 PCOD8123542
Probable space group: P 21/C
;
_chemical_formula_sum "Si O2"
_cell_formula_units_Z 28
_cell_length_a 12.261564
_cell_length_b 17.977771
_cell_length_c 9.604033
_cell_angle_alpha 90.000000
_cell_angle_beta 131.296645
_cell_angle_gamma 90.000000
_cell_volume 1590.561084
_symmetry_space_group_name_H-M "P 21/C"
_symmetry_group_IT_number 14
_symmetry_cell_setting 'monoclinic'
loop_
_space_group_symop_operation_xyz
x,y,z
-x,1/2+y,1/2-z
-x,-y,-z
x,1/2-y,1/2+z
loop_
_atom_site_type_symbol
_atom_site_label
_atom_site_fract_x
_atom_site_fract_y
_atom_site_fract_z
Si Si1 0.339196 0.866868 0.986204
Si Si2 0.469960 0.835350 0.819653
Si Si3 0.314628 0.102689 0.223394
Si Si4 0.154772 0.529800 0.494343
Si Si5 0.250288 0.701583 0.906825
Si Si6 0.003524 0.111674 0.906535
Si Si7 0.486447 0.670629 0.888437
O O1 0.431492 0.883288 0.924550
O O2 0.224905 0.933317 0.916171
O O3 0.248974 0.790562 0.892322
O O4 0.453790 0.862813 0.209629
O O5 0.538915 0.756124 0.922152
O O6 0.583978 0.878794 0.822122
O O7 0.319790 0.821058 0.611998
O O8 0.386342 0.123594 0.430805
O O9 0.280268 0.013977 0.189240
O O10 0.160915 0.147145 0.077477
O O11 0.084629 0.595148 0.526361
O O12 0.032590 0.467600 0.350384
O O13 0.341059 0.665339 0.857669
O O14 0.086828 0.669254 0.763919
#
# Coordination Sequence:
#
# PCOD8123542 Si02
#       7
#     4   4   4   4   4   4   4
#     4  10  18  32  56  80 107 137 183 219 260 318
#     4   9  19  33  52  80 108 137 173 222 269 312
#     4   9  19  35  54  78 109 139 165 229 272 300
#     4   9  19  34  56  78 110 134 182 226 253 311
#     4   9  17  34  58  75 101 146 184 214 253 320
#     4   9  18  37  53  77 105 142 180 220 251 312
#     4   9  17  33  56  79 102 138 188 219 250 312
#
# _framework density 17.603850999999999
#
# number of rings (size 3 to 8) (size 9 to 14) (size 15 to 20)
#    0.857    2.000    1.429    0.857    0.000    1.143 
#    2.571    0.714    3.143    0.000    0.000    0.000 
#    0.000    0.000    0.000    0.000    0.000    0.000 
#
# Total GULP energy -346951.396389 kJ/mol
# GULP energy per Si atom -12391.121300 kJ/mol
# Density = 1.756378 g / cm^3
# Si number density = 17.603851 Si / 1000 Ang^3
#
#
#
# Elastic Constant Matrix: (Units=GPa)
#
#
# Indices 1 2 3 4 5 6 
#
# 1 84.4718 24.7857 44.1822 0.0000 -4.3701 0.0000
# 2 24.7857 44.7927 28.8087 0.0000 10.2245 0.0000
# 3 44.1822 28.8087 90.5496 0.0000 4.7855 0.0000
# 4 0.0000 0.0000 0.0000 26.4377 0.0000 7.3616
# 5 -4.3701 10.2245 4.7855 0.0000 31.7488 0.0000
# 6 0.0000 0.0000 0.0000 7.3616 0.0000 17.0514
#
#
#
# Elastic Compliance Matrix: (Units=1/GPa)
#
#
# Indices 1 2 3 4 5 6 
#
# 1 0.017630 -0.006676 -0.006774 0.000000 0.005598 0.000000
# 2 -0.006676 0.032628 -0.006572 0.000000 -0.010436 0.000000
# 3 -0.006774 -0.006572 0.016509 0.000000 -0.001304 0.000000
# 4 0.000000 0.000000 0.000000 0.042993 0.000000 -0.018561
# 5 0.005598 -0.010436 -0.001304 0.000000 0.035825 0.000000
# 6 0.000000 0.000000 0.000000 -0.018561 0.000000 0.066659
#
#
# Mechanical properties :
#
#
# Convention : Reuss Voigt Hill
#
# Bulk Modulus (GPa) = 37.42127 46.15192 41.78659
# Shear Modulus (GPa) = 19.14272 23.18343 21.16308
#
# Velocity S-wave (km/s) = 3.30118 3.63292 3.47101
# Velocity P-wave (km/s) = 5.98615 6.62354 6.31289
#
# Compressibility (1/GPa) = 0.02672277
#
# Stress axis : x y z
#
# Youngs Moduli (GPa) = 56.72183 30.64840 60.57458
#
# Poissons Ratio (x) = 0.20462 0.41033
# Poissons Ratio (y) = 0.37870 0.39807
# Poissons Ratio (z) = 0.38423 0.20141
#
# Static dielectric constant tensor:
#      x y z
#    x 3.208200 0.000000 -0.016620 
#    y 0.000000 3.120840 0.000000 
#    z -0.016620 0.000000 3.100250 
# 
# 
# High freq. dielectric constant tensor:
#      x y z
#    x 1.674210 0.000000 -0.000840 
#    y 0.000000 1.668160 0.000000 
#    z -0.000840 0.000000 1.658030 
# 
# From -- ./inp_files/14192.got.cif
#   From: 2010.03.12/outbox.cif.g09.slc.cpg/sg14_8_cif.got.tgz:14192.got - 2010.03.31 13:35:05.
