data_PCOD8123876
_publ_section_title
;
Structure prediction by ZEFSAII (Michael W. Deem and Ramdas Pophale) SiO2 
 PCOD8123876
Probable space group: P 21/C
;
_chemical_formula_sum "Si O2"
_cell_formula_units_Z 32
_cell_length_a 22.368790
_cell_length_b 14.289955
_cell_length_c 16.931059
_cell_angle_alpha 90.000000
_cell_angle_beta 20.879959
_cell_angle_gamma 90.000000
_cell_volume 1928.896087
_symmetry_space_group_name_H-M "P 21/C"
_symmetry_group_IT_number 14
_symmetry_cell_setting 'monoclinic'
loop_
_space_group_symop_operation_xyz
x,y,z
-x,1/2+y,1/2-z
-x,-y,-z
x,1/2-y,1/2+z
loop_
_atom_site_type_symbol
_atom_site_label
_atom_site_fract_x
_atom_site_fract_y
_atom_site_fract_z
Si Si1 0.176250 0.250000 0.383185
Si Si2 0.565884 0.607104 0.002149
Si Si3 0.650854 0.750000 0.179478
Si Si4 0.392597 0.896089 0.057163
Si Si5 0.434116 0.107104 0.997850
Si Si6 0.494987 0.750000 0.220155
Si Si7 0.800799 0.250000 0.788357
Si Si8 0.392597 0.896089 0.557163
O O1 0.269634 0.341110 0.234108
O O2 0.181417 0.250000 0.473740
O O3 0.269634 0.158891 0.234107
O O4 0.985771 0.250000 0.593294
O O5 0.617386 0.502054 0.961337
O O6 0.495412 0.657184 0.166795
O O7 0.414403 0.606988 0.125221
O O8 0.551161 0.655836 0.323978
O O9 0.664195 0.750000 0.067389
O O10 0.551161 0.844164 0.323978
O O11 0.414403 0.893012 0.125222
O O12 0.225777 0.841596 0.234226
O O13 0.382614 0.002054 0.038663
O O14 0.504588 0.157184 0.833205
O O15 0.329010 0.750000 0.478543
O O16 0.774223 0.341596 0.765774
#
# Coordination Sequence:
#
# PCOD8123876 Si02
#       8
#     4   4   4   4   4   4   4   4
#     4   9  18  31  44  64  96 123 146 181 230 268
#     4   9  16  31  52  68  84 118 160 186 210 265
#     4   8  16  29  44  65  92 121 148 184 226 262
#     4   8  16  30  50  68  88 117 153 187 219 262
#     4   9  16  31  52  68  84 118 160 186 210 265
#     4   9  17  29  48  68  86 115 155 185 216 266
#     4  10  19  29  44  69  98 119 139 186 238 266
#     4   8  16  30  50  68  88 117 153 187 219 262
#
# _framework density 16.5898
#
# number of rings (size 3 to 8) (size 9 to 14) (size 15 to 20)
#    0.000    3.500    0.000    2.250    0.000    5.000 
#    0.000    5.000    0.000   15.000    0.000    0.000 
#    0.000    0.000    0.000    0.000    0.000    0.000 
#
# Total GULP energy -396443.852135 kJ/mol
# GULP energy per Si atom -12388.870379 kJ/mol
# Density = 1.655204 g / cm^3
# Si number density = 16.589800 Si / 1000 Ang^3
#
#
#
# Elastic Constant Matrix: (Units=GPa)
#
#
# Indices 1 2 3 4 5 6 
#
# 1 122.0239 57.3929 45.0520 0.0000 -11.9977 0.0000
# 2 57.3929 161.0980 29.6586 0.0000 -3.8240 0.0000
# 3 45.0520 29.6586 56.9823 0.0000 -17.0118 0.0000
# 4 0.0000 0.0000 0.0000 3.7406 0.0000 -0.8299
# 5 -11.9977 -3.8240 -17.0118 0.0000 34.1218 0.0000
# 6 0.0000 0.0000 0.0000 -0.8299 0.0000 17.9024
#
#
#
# Elastic Compliance Matrix: (Units=1/GPa)
#
#
# Indices 1 2 3 4 5 6 
#
# 1 0.012740 -0.002965 -0.008567 0.000000 -0.000124 0.000000
# 2 -0.002965 0.007596 -0.001958 0.000000 -0.001168 0.000000
# 3 -0.008567 -0.001958 0.028640 0.000000 0.011047 0.000000
# 4 0.000000 0.000000 0.000000 0.270113 0.000000 0.012521
# 5 -0.000124 -0.001168 0.011047 0.000000 0.034640 0.000000
# 6 0.000000 0.000000 0.000000 0.012521 0.000000 0.056439
#
#
# Mechanical properties :
#
#
# Convention : Reuss Voigt Hill
#
# Bulk Modulus (GPa) = 45.46097 67.14567 56.30332
# Shear Modulus (GPa) = 11.24910 25.01967 18.13438
#
# Velocity S-wave (km/s) = 2.60681 3.88769 3.30980
# Velocity P-wave (km/s) = 6.04343 7.79192 6.97270
#
# Compressibility (1/GPa) = 0.02199689
#
# Stress axis : x y z
#
# Youngs Moduli (GPa) = 78.49165 131.64083 34.91649
#
# Poissons Ratio (x) = 0.39027 0.29912
# Poissons Ratio (y) = 0.23270 0.06838
# Poissons Ratio (z) = 0.67241 0.25782
#
# Static dielectric constant tensor:
#      x y z
#    x 3.599370 0.000000 -0.035660 
#    y 0.000000 3.279410 0.000000 
#    z -0.035660 0.000000 2.542470 
# 
# 
# High freq. dielectric constant tensor:
#      x y z
#    x 1.660910 0.000000 -0.000930 
#    y 0.000000 1.651320 0.000000 
#    z -0.000930 0.000000 1.575340 
# 
# From -- ./inp_files/55743.got.cif
#   From: 2010.03.12/outbox.cif.g09.slc.cpg/sg14_28_cif.got.tgz:55743.got - 2010.03.31 13:35:05.
