data_PCOD8123345
_publ_section_title
;
Structure prediction by ZEFSAII (Michael W. Deem and Ramdas Pophale) SiO2 
 PCOD8123345
Probable space group: P 21/C
;
_chemical_formula_sum "Si O2"
_cell_formula_units_Z 32
_cell_length_a 15.363050
_cell_length_b 17.273384
_cell_length_c 9.429846
_cell_angle_alpha 90.000000
_cell_angle_beta 144.224516
_cell_angle_gamma 90.000000
_cell_volume 1462.938746
_symmetry_space_group_name_H-M "P 21/C"
_symmetry_group_IT_number 14
_symmetry_cell_setting 'monoclinic'
loop_
_space_group_symop_operation_xyz
x,y,z
-x,1/2+y,1/2-z
-x,-y,-z
x,1/2-y,1/2+z
loop_
_atom_site_type_symbol
_atom_site_label
_atom_site_fract_x
_atom_site_fract_y
_atom_site_fract_z
Si Si1 0.703701 0.601516 0.244279
Si Si2 0.209120 0.292164 0.872878
Si Si3 0.086276 0.137885 0.729757
Si Si4 0.402149 0.821995 0.402649
Si Si5 0.828496 0.442089 0.374379
Si Si6 0.105462 0.972747 0.351351
Si Si7 0.490120 0.305764 0.645493
Si Si8 0.738941 0.898444 0.300926
O O1 0.813626 0.637502 0.267872
O O2 0.767872 0.626568 0.479977
O O3 0.706938 0.509809 0.228699
O O4 0.534339 0.628048 0.007581
O O5 0.068852 0.231913 0.691624
O O6 0.350660 0.246037 0.003118
O O7 0.239094 0.324671 0.068120
O O8 0.124548 0.099997 0.629524
O O9 0.941602 0.095389 0.601876
O O10 0.245104 0.863923 0.160356
O O11 0.412120 0.821202 0.586565
O O12 0.406477 0.737354 0.335619
O O13 0.863615 0.430383 0.255059
O O14 0.974900 0.463006 0.658808
O O15 0.249891 0.019172 0.601861
O O16 0.422956 0.385360 0.487410
#
# Coordination Sequence:
#
# PCOD8123345 Si02
#       8
#     4   4   4   4   4   4   4   4
#     4  10  18  34  60  92 112 153 211 245 309 364
#     4  10  17  32  59  89 113 150 207 250 296 359
#     4  10  19  32  58  90 118 153 200 262 295 344
#     4  11  20  38  65  89 121 152 200 260 307 366
#     4  10  22  39  60  83 124 165 199 249 302 370
#     4  10  22  39  58  84 125 166 206 240 298 371
#     4  10  20  35  63  93 118 149 198 258 309 360
#     4  11  18  35  61  91 115 155 205 255 295 357
#
# _framework density 21.873778999999999
#
# number of rings (size 3 to 8) (size 9 to 14) (size 15 to 20)
#    0.000    1.750    5.000    2.250    0.000    0.000 
#    0.000    1.875    8.250    0.000    0.000    0.000 
#    0.000    0.000    0.000    0.000    0.000    0.000 
#
# Total GULP energy -396639.904647 kJ/mol
# GULP energy per Si atom -12394.997020 kJ/mol
# Density = 2.182399 g / cm^3
# Si number density = 21.873779 Si / 1000 Ang^3
#
#
#
# Elastic Constant Matrix: (Units=GPa)
#
#
# Indices 1 2 3 4 5 6 
#
# 1 82.8901 38.6460 31.8654 0.0000 -13.3038 0.0000
# 2 38.6460 75.1352 20.6074 0.0000 4.9477 0.0000
# 3 31.8654 20.6074 44.4328 0.0000 -9.4266 0.0000
# 4 0.0000 0.0000 0.0000 27.6679 0.0000 5.1714
# 5 -13.3038 4.9477 -9.4266 0.0000 30.4833 0.0000
# 6 0.0000 0.0000 0.0000 5.1714 0.0000 43.3597
#
#
#
# Elastic Compliance Matrix: (Units=1/GPa)
#
#
# Indices 1 2 3 4 5 6 
#
# 1 0.020957 -0.008717 -0.009360 0.000000 0.007667 0.000000
# 2 -0.008717 0.019619 -0.004634 0.000000 -0.008422 0.000000
# 3 -0.009360 -0.004634 0.032814 0.000000 0.006814 0.000000
# 4 0.000000 0.000000 0.000000 0.036967 0.000000 -0.004409
# 5 0.007667 -0.008422 0.006814 0.000000 0.039625 0.000000
# 6 0.000000 0.000000 0.000000 -0.004409 0.000000 0.023589
#
#
# Mechanical properties :
#
#
# Convention : Reuss Voigt Hill
#
# Bulk Modulus (GPa) = 35.75688 42.74399 39.25043
# Shear Modulus (GPa) = 21.89957 27.72480 24.81218
#
# Velocity S-wave (km/s) = 3.16757 3.56405 3.37164
# Velocity P-wave (km/s) = 5.45531 6.04319 5.75676
#
# Compressibility (1/GPa) = 0.02796665
#
# Stress axis : x y z
#
# Youngs Moduli (GPa) = 47.71638 50.97228 30.47507
#
# Poissons Ratio (x) = 0.44432 0.28526
# Poissons Ratio (y) = 0.41594 0.14122
# Poissons Ratio (z) = 0.44664 0.23621
#
# Static dielectric constant tensor:
#      x y z
#    x 4.028370 0.000000 -0.306410 
#    y 0.000000 4.059730 0.000000 
#    z -0.306410 0.000000 3.624330 
# 
# 
# High freq. dielectric constant tensor:
#      x y z
#    x 1.862170 0.000000 -0.026610 
#    y 0.000000 1.853330 0.000000 
#    z -0.026610 0.000000 1.823840 
# 
# From -- ./inp_files/16811.got.cif
#   From: 2010.03.12/outbox.cif.g09.slc.cpg/sg14_9_cif.got.tgz:16811.got - 2010.03.31 13:35:05.
