data_PCOD8123592
_publ_section_title
;
Structure prediction by ZEFSAII (Michael W. Deem and Ramdas Pophale) SiO2 
 PCOD8123592
Probable space group: P 21/C
;
_chemical_formula_sum "Si O2"
_cell_formula_units_Z 32
_cell_length_a 17.444431
_cell_length_b 11.274770
_cell_length_c 22.158775
_cell_angle_alpha 90.000000
_cell_angle_beta 23.097296
_cell_angle_gamma 90.000000
_cell_volume 1709.706599
_symmetry_space_group_name_H-M "P 21/C"
_symmetry_group_IT_number 14
_symmetry_cell_setting 'monoclinic'
loop_
_space_group_symop_operation_xyz
x,y,z
-x,1/2+y,1/2-z
-x,-y,-z
x,1/2-y,1/2+z
loop_
_atom_site_type_symbol
_atom_site_label
_atom_site_fract_x
_atom_site_fract_y
_atom_site_fract_z
Si Si1 0.802841 0.071572 0.013862
Si Si2 0.640618 0.650035 0.575394
Si Si3 0.631838 0.976005 0.258643
Si Si4 0.452430 0.239035 0.238409
Si Si5 0.533684 0.691391 0.056939
Si Si6 0.221713 0.152509 0.732748
Si Si7 0.175655 0.368235 0.842910
Si Si8 0.245866 0.630006 0.805744
O O1 0.657340 0.177617 0.103259
O O2 0.775367 0.965180 0.985547
O O3 0.773012 0.024372 0.103646
O O4 0.018878 0.121205 0.847789
O O5 0.664359 0.736682 0.615256
O O6 0.691549 0.721596 0.476425
O O7 0.410578 0.610753 0.738336
O O8 0.507173 0.864080 0.324839
O O9 0.754846 0.936550 0.228164
O O10 0.488936 0.080558 0.381835
O O11 0.313852 0.154387 0.299917
O O12 0.328386 0.767137 0.200230
O O13 0.604091 0.642110 0.941957
O O14 0.235052 0.288994 0.743215
O O15 0.199033 0.505320 0.806084
O O16 0.954977 0.328002 0.018473
#
# Coordination Sequence:
#
# PCOD8123592 Si02
#       8
#     4   4   4   4   4   4   4   4
#     4  11  19  38  59  83 113 146 197 239 288 331
#     4   9  19  34  58  79 112 152 178 240 288 328
#     4  10  21  36  60  82 108 149 198 236 287 337
#     4  10  18  33  59  85 109 142 190 245 276 337
#     4  10  20  39  55  82 121 151 185 233 296 341
#     4  11  23  35  58  84 118 153 187 237 283 358
#     4  10  19  35  60  91 106 149 202 230 287 327
#     4   9  19  36  60  80 115 147 192 244 270 340
#
# _framework density 18.716661999999999
#
# number of rings (size 3 to 8) (size 9 to 14) (size 15 to 20)
#    0.750    1.250    2.500    2.250    0.000    2.500 
#    2.250    0.000    2.750    0.000    0.000    0.000 
#    0.000    0.000    0.000    0.000    0.000    0.000 
#
# Total GULP energy -396541.605575 kJ/mol
# GULP energy per Si atom -12391.925174 kJ/mol
# Density = 1.867406 g / cm^3
# Si number density = 18.716662 Si / 1000 Ang^3
#
#
#
# Elastic Constant Matrix: (Units=GPa)
#
#
# Indices 1 2 3 4 5 6 
#
# 1 65.3743 25.2359 29.1205 0.0000 -3.7992 0.0000
# 2 25.2359 92.5775 22.6845 0.0000 3.6311 0.0000
# 3 29.1205 22.6845 65.3858 0.0000 1.2868 0.0000
# 4 0.0000 0.0000 0.0000 14.5953 0.0000 1.6660
# 5 -3.7992 3.6311 1.2868 0.0000 25.6644 0.0000
# 6 0.0000 0.0000 0.0000 1.6660 0.0000 16.3782
#
#
#
# Elastic Compliance Matrix: (Units=1/GPa)
#
#
# Indices 1 2 3 4 5 6 
#
# 1 0.020515 -0.003814 -0.007891 0.000000 0.003972 0.000000
# 2 -0.003814 0.012570 -0.002619 0.000000 -0.002212 0.000000
# 3 -0.007891 -0.002619 0.019752 0.000000 -0.001788 0.000000
# 4 0.000000 0.000000 0.000000 0.069320 0.000000 -0.007051
# 5 0.003972 -0.002212 -0.001788 0.000000 0.039955 0.000000
# 6 0.000000 0.000000 0.000000 -0.007051 0.000000 0.061774
#
#
# Mechanical properties :
#
#
# Convention : Reuss Voigt Hill
#
# Bulk Modulus (GPa) = 41.34266 41.93549 41.63908
# Shear Modulus (GPa) = 19.18665 21.08070 20.13367
#
# Velocity S-wave (km/s) = 3.20521 3.35969 3.28336
# Velocity P-wave (km/s) = 5.98619 6.12406 6.05552
#
# Compressibility (1/GPa) = 0.02418809
#
# Stress axis : x y z
#
# Youngs Moduli (GPa) = 48.74484 79.55502 50.62755
#
# Poissons Ratio (x) = 0.30345 0.39953
# Poissons Ratio (y) = 0.18593 0.13257
# Poissons Ratio (z) = 0.38467 0.20832
#
# Static dielectric constant tensor:
#      x y z
#    x 3.344420 0.000000 -0.112270 
#    y 0.000000 3.622380 0.000000 
#    z -0.112270 0.000000 3.014920 
# 
# 
# High freq. dielectric constant tensor:
#      x y z
#    x 1.716110 0.000000 -0.011280 
#    y 0.000000 1.747930 0.000000 
#    z -0.011280 0.000000 1.688200 
# 
# From -- ./inp_files/60544.got.cif
#   From: 2010.03.12/outbox.cif.g09.slc.cpg/sg14_31_cif.got.tgz:60544.got - 2010.03.31 13:35:05.
