data_PCOD8123618
_publ_section_title
;
Structure prediction by ZEFSAII (Michael W. Deem and Ramdas Pophale) SiO2 
 PCOD8123618
Probable space group: P 21/C
;
_chemical_formula_sum "Si O2"
_cell_formula_units_Z 32
_cell_length_a 11.268662
_cell_length_b 15.376882
_cell_length_c 21.393124
_cell_angle_alpha 90.000000
_cell_angle_beta 26.658671
_cell_angle_gamma 90.000000
_cell_volume 1663.206601
_symmetry_space_group_name_H-M "P 21/C"
_symmetry_group_IT_number 14
_symmetry_cell_setting 'monoclinic'
loop_
_space_group_symop_operation_xyz
x,y,z
-x,1/2+y,1/2-z
-x,-y,-z
x,1/2-y,1/2+z
loop_
_atom_site_type_symbol
_atom_site_label
_atom_site_fract_x
_atom_site_fract_y
_atom_site_fract_z
Si Si1 0.429193 0.298918 0.802042
Si Si2 0.128576 0.052691 0.030255
Si Si3 0.560721 0.653553 0.806175
Si Si4 0.929665 0.711690 0.804767
Si Si5 0.414038 0.990345 0.781634
Si Si6 0.079140 0.605278 0.629131
Si Si7 0.983800 0.259196 0.601634
Si Si8 0.623683 0.262064 0.987192
O O1 0.451209 0.240057 0.730131
O O2 0.417382 0.401837 0.791633
O O3 0.679005 0.274596 0.727733
O O4 0.149081 0.282942 0.967669
O O5 0.133405 0.151763 0.049946
O O6 0.861827 0.036147 0.118414
O O7 0.151295 0.994464 0.082080
O O8 0.373629 0.031211 0.869411
O O9 0.447634 0.566835 0.824863
O O10 0.867968 0.638346 0.677123
O O11 0.396880 0.667228 0.947496
O O12 0.964972 0.617497 0.753574
O O13 0.003843 0.699751 0.842270
O O14 0.630455 0.742591 0.937575
O O15 0.123828 0.780563 0.677098
O O16 0.336754 0.666840 0.499550
#
# Coordination Sequence:
#
# PCOD8123618 Si02
#       8
#     4   4   4   4   4   4   4   4
#     4  11  23  34  60  83 113 149 176 230 286 330
#     4   9  16  33  56  81 105 148 193 222 258 339
#     4  10  18  34  56  84 111 136 186 230 279 321
#     4   9  19  35  54  79 107 146 188 223 270 324
#     4   9  18  32  53  84 112 142 186 222 271 348
#     4   8  18  32  58  80 101 144 191 232 252 321
#     4  11  22  37  57  81 115 149 185 222 283 331
#     4   9  18  33  59  78 104 146 181 233 269 317
#
# _framework density 19.239943
#
# number of rings (size 3 to 8) (size 9 to 14) (size 15 to 20)
#    0.750    1.750    1.250    1.500    3.500    0.000 
#    0.000    2.500    2.750    6.000    0.000    0.000 
#    0.000    0.000    0.000    0.000    0.000    0.000 
#
# Total GULP energy -396446.246178 kJ/mol
# GULP energy per Si atom -12388.945193 kJ/mol
# Density = 1.919615 g / cm^3
# Si number density = 19.239943 Si / 1000 Ang^3
#
#
#
# Elastic Constant Matrix: (Units=GPa)
#
#
# Indices 1 2 3 4 5 6 
#
# 1 51.6447 -2.6325 2.3512 0.0000 11.3588 0.0000
# 2 -2.6325 42.7858 3.7618 0.0000 6.1439 0.0000
# 3 2.3512 3.7618 50.0556 0.0000 2.8479 0.0000
# 4 0.0000 0.0000 0.0000 24.0585 0.0000 5.5281
# 5 11.3588 6.1439 2.8479 0.0000 23.6096 0.0000
# 6 0.0000 0.0000 0.0000 5.5281 0.0000 19.0468
#
#
#
# Elastic Compliance Matrix: (Units=1/GPa)
#
#
# Indices 1 2 3 4 5 6 
#
# 1 0.022035 0.003035 -0.000619 0.000000 -0.011316 0.000000
# 2 0.003035 0.024806 -0.001567 0.000000 -0.007727 0.000000
# 3 -0.000619 -0.001567 0.020223 0.000000 -0.001734 0.000000
# 4 0.000000 0.000000 0.000000 0.044535 0.000000 -0.012926
# 5 -0.011316 -0.007727 -0.001734 0.000000 0.050020 0.000000
# 6 0.000000 0.000000 0.000000 -0.012926 0.000000 0.056254
#
#
# Mechanical properties :
#
#
# Convention : Reuss Voigt Hill
#
# Bulk Modulus (GPa) = 14.54296 16.82747 15.68521
# Shear Modulus (GPa) = 20.91203 22.74335 21.82769
#
# Velocity S-wave (km/s) = 3.30040 3.44188 3.37189
# Velocity P-wave (km/s) = 4.70093 4.95586 4.83007
#
# Compressibility (1/GPa) = 0.06876178
#
# Stress axis : x y z
#
# Youngs Moduli (GPa) = 45.38255 40.31240 49.44799
#
# Poissons Ratio (x) = -0.12235 0.03062
# Poissons Ratio (y) = -0.13774 0.07750
# Poissons Ratio (z) = 0.02810 0.06318
#
# Static dielectric constant tensor:
#      x y z
#    x 3.309840 0.000000 0.055270 
#    y 0.000000 3.574860 0.000000 
#    z 0.055270 0.000000 3.398480 
# 
# 
# High freq. dielectric constant tensor:
#      x y z
#    x 1.735820 0.000000 0.009750 
#    y 0.000000 1.730980 0.000000 
#    z 0.009750 0.000000 1.737570 
# 
# From -- ./inp_files/67487.got.cif
#   From: 2010.03.12/outbox.cif.g09.slc.cpg/sg14_34_cif.got.tgz:67487.got - 2010.03.31 13:35:05.
