data_PCOD8123484
_publ_section_title
;
Structure prediction by ZEFSAII (Michael W. Deem and Ramdas Pophale) SiO2 
 PCOD8123484
Probable space group: P 21/C
;
_chemical_formula_sum "Si O2"
_cell_formula_units_Z 24
_cell_length_a 9.129066
_cell_length_b 8.347766
_cell_length_c 18.664168
_cell_angle_alpha 90.000000
_cell_angle_beta 59.757031
_cell_angle_gamma 90.000000
_cell_volume 1228.760875
_symmetry_space_group_name_H-M "P 21/C"
_symmetry_group_IT_number 14
_symmetry_cell_setting 'monoclinic'
loop_
_space_group_symop_operation_xyz
x,y,z
-x,1/2+y,1/2-z
-x,-y,-z
x,1/2-y,1/2+z
loop_
_atom_site_type_symbol
_atom_site_label
_atom_site_fract_x
_atom_site_fract_y
_atom_site_fract_z
Si Si1 0.157457 0.704016 0.928902
Si Si2 0.159086 0.668952 0.272382
Si Si3 0.150192 0.168211 0.398241
Si Si4 0.494991 0.320701 0.313294
Si Si5 0.493837 0.306095 0.656674
Si Si6 0.856152 0.701211 0.757552
O O1 0.145539 0.814260 0.861344
O O2 0.155317 0.520949 0.905870
O O3 0.334348 0.750085 0.926290
O O4 0.004416 0.745647 0.019617
O O5 0.337066 0.735387 0.197212
O O6 0.146198 0.484957 0.257172
O O7 0.008867 0.767122 0.273283
O O8 0.323639 0.242847 0.387492
O O9 0.122383 0.200826 0.321319
O O10 0.501329 0.506622 0.329402
O O11 0.489961 0.300374 0.229528
O O12 0.318886 0.258556 0.659751
#
# Coordination Sequence:
#
# PCOD8123484 Si02
#       6
#     4   4   4   4   4   4
#     4  10  20  35  55  79 107 138 173 213 258 307
#     4  11  21  35  55  78 106 137 174 216 259 308
#     4  10  20  35  55  79 107 138 173 213 258 307
#     4  10  18  31  52  76 103 136 175 212 252 306
#     4  10  18  31  52  76 103 136 175 212 252 306
#     4  11  21  35  55  78 106 137 174 216 259 308
#
# _framework density 19.531873999999998
#
# number of rings (size 3 to 8) (size 9 to 14) (size 15 to 20)
#    0.000    1.667    0.000   11.000    0.000    2.667 
#    0.000    1.667    0.000   10.000    0.000    0.000 
#    0.000    0.000    0.000    0.000    0.000    0.000 
#
# Total GULP energy -297545.021291 kJ/mol
# GULP energy per Si atom -12397.709220 kJ/mol
# Density = 1.948742 g / cm^3
# Si number density = 19.531874 Si / 1000 Ang^3
#
#
#
# Elastic Constant Matrix: (Units=GPa)
#
#
# Indices 1 2 3 4 5 6 
#
# 1 104.9222 7.5958 53.0361 0.0000 -41.4169 0.0000
# 2 7.5958 57.0629 6.2893 0.0000 -11.4894 0.0000
# 3 53.0361 6.2893 97.5097 0.0000 -42.5008 0.0000
# 4 0.0000 0.0000 0.0000 18.7331 0.0000 -10.1248
# 5 -41.4169 -11.4894 -42.5008 0.0000 38.5310 0.0000
# 6 0.0000 0.0000 0.0000 -10.1248 0.0000 33.2411
#
#
#
# Elastic Compliance Matrix: (Units=1/GPa)
#
#
# Indices 1 2 3 4 5 6 
#
# 1 0.016932 0.001227 -0.002304 0.000000 0.016025 0.000000
# 2 0.001227 0.019017 0.002220 0.000000 0.009437 0.000000
# 3 -0.002304 0.002220 0.020366 0.000000 0.020649 0.000000
# 4 0.000000 0.000000 0.000000 0.063901 0.000000 0.019463
# 5 0.016025 0.009437 0.020649 0.000000 0.068769 0.000000
# 6 0.000000 0.000000 0.000000 0.019463 0.000000 0.036011
#
#
# Mechanical properties :
#
#
# Convention : Reuss Voigt Hill
#
# Bulk Modulus (GPa) = 17.06511 43.70411 30.38461
# Shear Modulus (GPa) = 20.64027 30.93927 25.78977
#
# Velocity S-wave (km/s) = 3.25429 3.98432 3.63766
# Velocity P-wave (km/s) = 4.78295 6.60233 5.76487
#
# Compressibility (1/GPa) = 0.05859909
#
# Stress axis : x y z
#
# Youngs Moduli (GPa) = 59.05835 52.58514 49.10240
#
# Poissons Ratio (x) = -0.06450 0.11314
# Poissons Ratio (y) = -0.07244 -0.10899
# Poissons Ratio (z) = 0.13608 -0.11672
#
# Static dielectric constant tensor:
#      x y z
#    x 4.074400 0.000000 -0.657050 
#    y 0.000000 3.599010 0.000000 
#    z -0.657050 0.000000 3.812960 
# 
# 
# High freq. dielectric constant tensor:
#      x y z
#    x 1.754310 0.000000 -0.047770 
#    y 0.000000 1.782610 0.000000 
#    z -0.047770 0.000000 1.738380 
# 
# From -- ./inp_files/71881.got.cif
#   From: 2010.03.12/outbox.cif.g09.slc.cpg/sg14_36_cif.got.tgz:71881.got - 2010.03.31 13:35:05.
