data_PCOD8123571
_publ_section_title
;
Structure prediction by ZEFSAII (Michael W. Deem and Ramdas Pophale) SiO2 
 PCOD8123571
Probable space group: P 21/C
;
_chemical_formula_sum "Si O2"
_cell_formula_units_Z 32
_cell_length_a 19.145908
_cell_length_b 14.734469
_cell_length_c 14.969063
_cell_angle_alpha 90.000000
_cell_angle_beta 154.640990
_cell_angle_gamma 90.000000
_cell_volume 1808.596802
_symmetry_space_group_name_H-M "P 21/C"
_symmetry_group_IT_number 14
_symmetry_cell_setting 'monoclinic'
loop_
_space_group_symop_operation_xyz
x,y,z
-x,1/2+y,1/2-z
-x,-y,-z
x,1/2-y,1/2+z
loop_
_atom_site_type_symbol
_atom_site_label
_atom_site_fract_x
_atom_site_fract_y
_atom_site_fract_z
Si Si1 0.912524 0.411371 0.365830
Si Si2 0.882326 0.822491 0.037346
Si Si3 0.999105 0.483338 0.102757
Si Si4 0.170776 0.854531 0.040675
Si Si5 0.292144 0.020990 0.070578
Si Si6 0.149455 0.127593 0.438653
Si Si7 0.812074 0.341827 0.982182
Si Si8 0.655832 0.024714 0.422656
O O1 0.821397 0.365795 0.343868
O O2 0.000000 0.500000 0.500000
O O3 0.050849 0.342699 0.485640
O O4 0.779924 0.443025 0.141428
O O5 0.801329 0.723269 0.958363
O O6 0.042899 0.834278 0.280396
O O7 0.746381 0.895794 0.907717
O O8 0.180248 0.472628 0.352859
O O9 0.918194 0.567092 0.059785
O O10 0.889511 0.393208 0.986790
O O11 0.000000 0.500000 0.000000
O O12 0.255127 0.757218 0.120146
O O13 0.984010 0.855835 0.792449
O O14 0.271067 0.929440 0.102814
O O15 0.476427 0.024045 0.253092
O O16 0.299407 0.075639 0.563985
O O17 0.665375 0.401430 0.853822
#
# Coordination Sequence:
#
# PCOD8123571 Si02
#       8
#     4   4   4   4   4   4   4   4
#     4  11  18  33  56  79 103 133 178 217 252 300
#     4   9  18  33  52  75 101 135 175 210 250 309
#     4   9  18  34  55  77  95 132 183 215 244 301
#     4  10  18  33  55  78 103 135 175 214 253 303
#     4  10  20  34  53  75 108 138 163 210 267 309
#     4   9  18  34  54  75 102 137 174 211 255 303
#     4   8  18  34  52  73 102 136 173 211 253 302
#     4  10  20  35  53  75 109 142 165 209 265 312
#
# _framework density 17.693275
#
# number of rings (size 3 to 8) (size 9 to 14) (size 15 to 20)
#    0.000    2.500    2.500    1.500    1.750    1.500 
#    0.000    2.500    2.750    0.000    0.000    0.000 
#    0.000    0.000    0.000    0.000    0.000    0.000 
#
# Total GULP energy -396604.064524 kJ/mol
# GULP energy per Si atom -12393.877016 kJ/mol
# Density = 1.765300 g / cm^3
# Si number density = 17.693275 Si / 1000 Ang^3
#
#
#
# Elastic Constant Matrix: (Units=GPa)
#
#
# Indices 1 2 3 4 5 6 
#
# 1 124.0281 56.0991 46.3777 0.0000 6.4696 0.0000
# 2 56.0991 150.5674 34.4657 0.0000 14.8521 0.0000
# 3 46.3777 34.4657 51.4406 0.0000 15.6215 0.0000
# 4 0.0000 0.0000 0.0000 10.3045 0.0000 -1.1513
# 5 6.4696 14.8521 15.6215 0.0000 33.7962 0.0000
# 6 0.0000 0.0000 0.0000 -1.1513 0.0000 20.1744
#
#
#
# Elastic Compliance Matrix: (Units=1/GPa)
#
#
# Indices 1 2 3 4 5 6 
#
# 1 0.013366 -0.002759 -0.011392 0.000000 0.003920 0.000000
# 2 -0.002759 0.008455 -0.002570 0.000000 -0.001999 0.000000
# 3 -0.011392 -0.002570 0.035396 0.000000 -0.013051 0.000000
# 4 0.000000 0.000000 0.000000 0.097668 0.000000 0.005574
# 5 0.003920 -0.001999 -0.013051 0.000000 0.035750 0.000000
# 6 0.000000 0.000000 0.000000 0.005574 0.000000 0.049886
#
#
# Mechanical properties :
#
#
# Convention : Reuss Voigt Hill
#
# Bulk Modulus (GPa) = 42.06237 66.65789 54.36013
# Shear Modulus (GPa) = 17.73745 25.46126 21.59935
#
# Velocity S-wave (km/s) = 3.16966 3.79758 3.49774
# Velocity P-wave (km/s) = 6.10085 7.54882 6.86313
#
# Compressibility (1/GPa) = 0.02377422
#
# Stress axis : x y z
#
# Youngs Moduli (GPa) = 74.81664 118.27226 28.25138
#
# Poissons Ratio (x) = 0.32629 0.32185
# Poissons Ratio (y) = 0.20641 0.07262
# Poissons Ratio (z) = 0.85234 0.30402
#
# Static dielectric constant tensor:
#      x y z
#    x 1.920490 0.000000 1.383200 
#    y 0.000000 3.906080 0.000000 
#    z 1.383200 0.000000 1.672340 
# 
# 
# High freq. dielectric constant tensor:
#      x y z
#    x 1.692430 0.000000 -0.001990 
#    y 0.000000 1.698150 0.000000 
#    z -0.001990 0.000000 1.639880 
# 
# From -- ./inp_files/40949.got.cif
#   From: 2010.03.12/outbox.cif.g09.slc.cpg/sg14_21_cif.got.tgz:40949.got - 2010.03.31 13:35:05.
