data_PCOD8123951
_publ_section_title
;
Structure prediction by ZEFSAII (Michael W. Deem and Ramdas Pophale) SiO2 
 PCOD8123951
Probable space group: P 21/C
;
_chemical_formula_sum "Si O2"
_cell_formula_units_Z 28
_cell_length_a 18.595531
_cell_length_b 9.319221
_cell_length_c 23.086962
_cell_angle_alpha 90.000000
_cell_angle_beta 156.420444
_cell_angle_gamma 90.000000
_cell_volume 1600.438161
_symmetry_space_group_name_H-M "P 21/C"
_symmetry_group_IT_number 14
_symmetry_cell_setting 'monoclinic'
loop_
_space_group_symop_operation_xyz
x,y,z
-x,1/2+y,1/2-z
-x,-y,-z
x,1/2-y,1/2+z
loop_
_atom_site_type_symbol
_atom_site_label
_atom_site_fract_x
_atom_site_fract_y
_atom_site_fract_z
Si Si1 0.741630 0.365774 0.178389
Si Si2 0.583147 0.898577 0.477969
Si Si3 0.492014 0.472912 0.787177
Si Si4 0.141925 0.332084 0.355214
Si Si5 0.650581 0.180960 0.902830
Si Si6 0.806238 0.147610 0.132091
Si Si7 0.866695 0.942494 0.025100
O O1 0.598916 0.356173 0.123856
O O2 0.750796 0.211309 0.153487
O O3 0.933257 0.407061 0.349014
O O4 0.696129 0.485148 0.097014
O O5 0.533575 0.961861 0.379684
O O6 0.696600 0.754565 0.554889
O O7 0.635161 0.348966 0.877603
O O8 0.506804 0.592701 0.747306
O O9 0.287752 0.404857 0.636610
O O10 0.124426 0.484523 0.308900
O O11 0.180091 0.353473 0.451400
O O12 0.957599 0.245285 0.213031
O O13 0.637098 0.153864 0.962499
O O14 0.842118 0.113633 0.022070
#
# Coordination Sequence:
#
# PCOD8123951 Si02
#       7
#     4   4   4   4   4   4   4
#     4  10  21  38  51  81 109 152 181 220 266 336
#     4  11  21  33  58  78 113 143 188 214 276 328
#     4  10  19  32  54  82 104 144 173 231 270 318
#     4  10  19  34  55  85 101 144 178 236 265 323
#     4   9  18  32  53  81 105 135 177 230 269 312
#     4  10  19  34  57  79 114 133 186 226 277 310
#     4   8  19  33  54  77 109 129 187 223 264 319
#
# _framework density 17.495208000000002
#
# number of rings (size 3 to 8) (size 9 to 14) (size 15 to 20)
#    0.857    1.429    1.429    3.429    0.000    1.143 
#    0.000    0.000    0.000    0.000    0.000    6.000 
#    0.000    0.000    0.000    0.000    0.000    0.000 
#
# Total GULP energy -346882.437826 kJ/mol
# GULP energy per Si atom -12388.658494 kJ/mol
# Density = 1.745539 g / cm^3
# Si number density = 17.495208 Si / 1000 Ang^3
#
#
#
# Elastic Constant Matrix: (Units=GPa)
#
#
# Indices 1 2 3 4 5 6 
#
# 1 53.5321 52.1036 24.2633 0.0000 8.9594 0.0000
# 2 52.1036 125.1358 34.2768 0.0000 4.9414 0.0000
# 3 24.2633 34.2768 55.1970 0.0000 1.1765 0.0000
# 4 0.0000 0.0000 0.0000 31.5134 0.0000 -2.3633
# 5 8.9594 4.9414 1.1765 0.0000 26.8234 0.0000
# 6 0.0000 0.0000 0.0000 -2.3633 0.0000 20.7382
#
#
#
# Elastic Compliance Matrix: (Units=1/GPa)
#
#
# Indices 1 2 3 4 5 6 
#
# 1 0.035908 -0.012426 -0.007868 0.000000 -0.009359 0.000000
# 2 -0.012426 0.013991 -0.003263 0.000000 0.001716 0.000000
# 3 -0.007868 -0.003263 0.023555 0.000000 0.002196 0.000000
# 4 0.000000 0.000000 0.000000 0.032006 0.000000 0.003647
# 5 -0.009359 0.001716 0.002196 0.000000 0.039995 0.000000
# 6 0.000000 0.000000 0.000000 0.003647 0.000000 0.048636
#
#
# Mechanical properties :
#
#
# Convention : Reuss Voigt Hill
#
# Bulk Modulus (GPa) = 37.96557 50.57248 44.26903
# Shear Modulus (GPa) = 20.00123 24.02973 22.01548
#
# Velocity S-wave (km/s) = 3.38485 3.71010 3.55120
# Velocity P-wave (km/s) = 6.08473 6.87913 6.49409
#
# Compressibility (1/GPa) = 0.02633965
#
# Stress axis : x y z
#
# Youngs Moduli (GPa) = 27.84916 71.47304 42.45407
#
# Poissons Ratio (x) = 0.88815 0.33403
# Poissons Ratio (y) = 0.34606 0.13852
# Poissons Ratio (z) = 0.21912 0.23320
#
# Static dielectric constant tensor:
#      x y z
#    x 2.967520 0.000000 -0.148730 
#    y 0.000000 3.365690 0.000000 
#    z -0.148730 0.000000 3.357430 
# 
# 
# High freq. dielectric constant tensor:
#      x y z
#    x 1.639310 0.000000 -0.018690 
#    y 0.000000 1.680390 0.000000 
#    z -0.018690 0.000000 1.678120 
# 
# From -- ./inp_files/77929.got.cif
#   From: 2010.03.12/outbox.cif.g09.slc.cpg/sg14_39_cif.got.tgz:77929.got - 2010.03.31 13:35:05.
