data_PCOD8123901
_publ_section_title
;
Structure prediction by ZEFSAII (Michael W. Deem and Ramdas Pophale) SiO2 
 PCOD8123901
Probable space group: P 21/C
;
_chemical_formula_sum "Si O2"
_cell_formula_units_Z 28
_cell_length_a 28.580109
_cell_length_b 12.417889
_cell_length_c 23.031907
_cell_angle_alpha 90.000000
_cell_angle_beta 168.814779
_cell_angle_gamma 90.000000
_cell_volume 1585.628531
_symmetry_space_group_name_H-M "P 21/C"
_symmetry_group_IT_number 14
_symmetry_cell_setting 'monoclinic'
loop_
_space_group_symop_operation_xyz
x,y,z
-x,1/2+y,1/2-z
-x,-y,-z
x,1/2-y,1/2+z
loop_
_atom_site_type_symbol
_atom_site_label
_atom_site_fract_x
_atom_site_fract_y
_atom_site_fract_z
Si Si1 0.789599 0.612760 0.793030
Si Si2 0.713138 0.281700 0.808108
Si Si3 0.852818 0.588558 0.613836
Si Si4 0.940555 0.392919 0.651525
Si Si5 0.153640 0.624157 0.336806
Si Si6 0.225857 0.867803 0.741789
Si Si7 0.441485 0.297608 0.249511
O O1 0.558345 0.688135 0.506159
O O2 0.703844 0.489017 0.690673
O O3 0.926359 0.643770 0.018470
O O4 0.957886 0.634793 0.942261
O O5 0.767566 0.291745 0.806199
O O6 0.758010 0.157818 0.882002
O O7 0.894610 0.354277 0.066290
O O8 0.881628 0.519646 0.588875
O O9 0.794830 0.505124 0.595963
O O10 0.636449 0.672873 0.344156
O O11 0.909730 0.330518 0.676311
O O12 0.214918 0.376624 0.965033
O O13 0.387693 0.684727 0.597825
O O14 0.422828 0.825091 0.026208
#
# Coordination Sequence:
#
# PCOD8123901 Si02
#       7
#     4   4   4   4   4   4   4
#     4  10  19  31  54  80 105 136 172 228 266 301
#     4  11  19  32  56  76 110 136 167 229 262 308
#     4   9  20  37  50  80 107 135 182 215 259 319
#     4   9  20  35  50  79 105 139 178 210 265 320
#     4   9  19  37  52  77 108 134 184 217 263 314
#     4  10  19  31  51  82 103 135 179 211 274 314
#     4  10  19  35  56  74 110 141 167 228 263 310
#
# _framework density 17.658614
#
# number of rings (size 3 to 8) (size 9 to 14) (size 15 to 20)
#    0.857    1.429    1.429    2.143    0.000    2.286 
#    5.143    0.714    0.000    3.429    0.000    0.000 
#    0.000    0.000    0.000    0.000    0.000    0.000 
#
# Total GULP energy -347109.215236 kJ/mol
# GULP energy per Si atom -12396.757687 kJ/mol
# Density = 1.761842 g / cm^3
# Si number density = 17.658614 Si / 1000 Ang^3
#
#
#
# Elastic Constant Matrix: (Units=GPa)
#
#
# Indices 1 2 3 4 5 6 
#
# 1 43.9007 -9.3050 21.3907 0.0000 2.2172 0.0000
# 2 -9.3050 52.9939 31.7345 0.0000 2.6572 0.0000
# 3 21.3907 31.7345 108.1275 0.0000 5.6902 0.0000
# 4 0.0000 0.0000 0.0000 29.0529 0.0000 -4.2140
# 5 2.2172 2.6572 5.6902 0.0000 15.4990 0.0000
# 6 0.0000 0.0000 0.0000 -4.2140 0.0000 31.3841
#
#
#
# Elastic Compliance Matrix: (Units=1/GPa)
#
#
# Indices 1 2 3 4 5 6 
#
# 1 0.029436 0.010565 -0.008776 0.000000 -0.002800 0.000000
# 2 0.010565 0.026719 -0.009801 0.000000 -0.002494 0.000000
# 3 -0.008776 -0.009801 0.013976 0.000000 -0.002195 0.000000
# 4 0.000000 0.000000 0.000000 0.035104 0.000000 0.004713
# 5 -0.002800 -0.002494 -0.002195 0.000000 0.066154 0.000000
# 6 0.000000 0.000000 0.000000 0.004713 0.000000 0.032496
#
#
# Mechanical properties :
#
#
# Convention : Reuss Voigt Hill
#
# Bulk Modulus (GPa) = 18.48212 32.51804 25.50008
# Shear Modulus (GPa) = 21.01319 25.93399 23.47359
#
# Velocity S-wave (km/s) = 3.45333 3.83643 3.64991
# Velocity P-wave (km/s) = 5.13710 6.17082 5.67754
#
# Compressibility (1/GPa) = 0.05410635
#
# Stress axis : x y z
#
# Youngs Moduli (GPa) = 33.97235 37.42647 71.54871
#
# Poissons Ratio (x) = -0.39539 0.62795
# Poissons Ratio (y) = -0.35890 0.70122
# Poissons Ratio (z) = 0.29816 0.36680
#
# Static dielectric constant tensor:
#      x y z
#    x 3.252870 0.000000 0.018840 
#    y 0.000000 3.147680 0.000000 
#    z 0.018840 0.000000 3.227600 
# 
# 
# High freq. dielectric constant tensor:
#      x y z
#    x 1.681290 0.000000 0.005810 
#    y 0.000000 1.659530 0.000000 
#    z 0.005810 0.000000 1.684680 
# 
# From -- ./inp_files/75335.got.cif
#   From: 2010.03.12/outbox.cif.g09.slc.cpg/sg14_38_cif.got.tgz:75335.got - 2010.03.31 13:35:05.
