data_PCOD8123545
_publ_section_title
;
Structure prediction by ZEFSAII (Michael W. Deem and Ramdas Pophale) SiO2 
 PCOD8123545
Probable space group: P 21/C
;
_chemical_formula_sum "Si O2"
_cell_formula_units_Z 28
_cell_length_a 19.013979
_cell_length_b 13.722227
_cell_length_c 8.754067
_cell_angle_alpha 90.000000
_cell_angle_beta 42.063128
_cell_angle_gamma 90.000000
_cell_volume 1530.203576
_symmetry_space_group_name_H-M "P 21/C"
_symmetry_group_IT_number 14
_symmetry_cell_setting 'monoclinic'
loop_
_space_group_symop_operation_xyz
x,y,z
-x,1/2+y,1/2-z
-x,-y,-z
x,1/2-y,1/2+z
loop_
_atom_site_type_symbol
_atom_site_label
_atom_site_fract_x
_atom_site_fract_y
_atom_site_fract_z
Si Si1 0.162141 0.982851 0.831469
Si Si2 0.115068 0.311406 0.907025
Si Si3 0.372158 0.480492 0.859375
Si Si4 0.669580 0.788675 0.388476
Si Si5 0.419183 0.079928 0.948777
Si Si6 0.748645 0.576012 0.517677
Si Si7 0.970619 0.854759 0.122768
O O1 0.260100 0.966478 0.561264
O O2 0.213325 0.001736 0.914639
O O3 0.091323 0.072165 0.888089
O O4 0.090581 0.887045 0.954740
O O5 0.216970 0.242917 0.734813
O O6 0.145811 0.402423 0.750523
O O7 0.023054 0.249335 0.973756
O O8 0.086283 0.346909 0.121936
O O9 0.462243 0.549962 0.785687
O O10 0.386872 0.471348 0.656708
O O11 0.376020 0.374760 0.932980
O O12 0.590327 0.697203 0.517950
O O13 0.691258 0.828435 0.182602
O O14 0.340937 0.033376 0.949025
#
# Coordination Sequence:
#
# PCOD8123545 Si02
#       7
#     4   4   4   4   4   4   4
#     4  10  21  35  52  81 112 145 174 233 278 326
#     4  11  18  33  56  81 104 141 185 228 263 330
#     4  10  20  37  55  82 114 146 182 230 281 329
#     4  10  18  32  56  84 107 141 183 237 267 330
#     4  10  20  32  59  85 109 144 189 225 278 333
#     4  10  19  32  56  85 105 137 184 231 273 321
#     4  11  20  34  57  78 109 143 185 225 277 318
#
# _framework density 18.298219
#
# number of rings (size 3 to 8) (size 9 to 14) (size 15 to 20)
#    0.000    1.714    4.286    3.429    0.000    2.857 
#    0.000    1.429   12.571    0.000    0.000    0.000 
#    0.000    0.000    0.000    0.000    0.000    0.000 
#
# Total GULP energy -347043.323966 kJ/mol
# GULP energy per Si atom -12394.404427 kJ/mol
# Density = 1.825657 g / cm^3
# Si number density = 18.298219 Si / 1000 Ang^3
#
#
#
# Elastic Constant Matrix: (Units=GPa)
#
#
# Indices 1 2 3 4 5 6 
#
# 1 102.4157 29.5830 38.3006 0.0000 -6.9335 0.0000
# 2 29.5830 49.5630 27.3254 0.0000 -19.8464 0.0000
# 3 38.3006 27.3254 78.9832 0.0000 -11.3733 0.0000
# 4 0.0000 0.0000 0.0000 23.2723 0.0000 -10.0651
# 5 -6.9335 -19.8464 -11.3733 0.0000 35.6060 0.0000
# 6 0.0000 0.0000 0.0000 -10.0651 0.0000 26.9766
#
#
#
# Elastic Compliance Matrix: (Units=1/GPa)
#
#
# Indices 1 2 3 4 5 6 
#
# 1 0.013112 -0.006291 -0.004527 0.000000 -0.002399 0.000000
# 2 -0.006291 0.033641 -0.006357 0.000000 0.015495 0.000000
# 3 -0.004527 -0.006357 0.017210 0.000000 0.001073 0.000000
# 4 0.000000 0.000000 0.000000 0.051238 0.000000 0.019117
# 5 -0.002399 0.015495 0.001073 0.000000 0.036598 0.000000
# 6 0.000000 0.000000 0.000000 0.019117 0.000000 0.044202
#
#
# Mechanical properties :
#
#
# Convention : Reuss Voigt Hill
#
# Bulk Modulus (GPa) = 33.76918 46.81997 40.29458
# Shear Modulus (GPa) = 20.81426 26.22117 23.51772
#
# Velocity S-wave (km/s) = 3.37635 3.78959 3.58892
# Velocity P-wave (km/s) = 5.80470 6.69259 6.26440
#
# Compressibility (1/GPa) = 0.02961280
#
# Stress axis : x y z
#
# Youngs Moduli (GPa) = 76.26639 29.72599 58.10607
#
# Poissons Ratio (x) = 0.18700 0.26306
# Poissons Ratio (y) = 0.47979 0.36936
# Poissons Ratio (z) = 0.34528 0.18896
#
# Static dielectric constant tensor:
#      x y z
#    x 3.486240 0.000000 0.035860 
#    y 0.000000 3.300610 0.000000 
#    z 0.035860 0.000000 3.590330 
# 
# 
# High freq. dielectric constant tensor:
#      x y z
#    x 1.717240 0.000000 0.016330 
#    y 0.000000 1.675810 0.000000 
#    z 0.016330 0.000000 1.709760 
# 
# From -- ./inp_files/13131.got.cif
#   From: 2010.03.12/outbox.cif.g09.slc.cpg/sg14_7_cif.got.tgz:13131.got - 2010.03.31 13:35:05.
