data_PCOD8123568
_publ_section_title
;
Structure prediction by ZEFSAII (Michael W. Deem and Ramdas Pophale) SiO2 
 PCOD8123568
Probable space group: P 21/C
;
_chemical_formula_sum "Si O2"
_cell_formula_units_Z 28
_cell_length_a 11.771954
_cell_length_b 27.323186
_cell_length_c 9.951003
_cell_angle_alpha 90.000000
_cell_angle_beta 26.123482
_cell_angle_gamma 90.000000
_cell_volume 1409.296971
_symmetry_space_group_name_H-M "P 21/C"
_symmetry_group_IT_number 14
_symmetry_cell_setting 'monoclinic'
loop_
_space_group_symop_operation_xyz
x,y,z
-x,1/2+y,1/2-z
-x,-y,-z
x,1/2-y,1/2+z
loop_
_atom_site_type_symbol
_atom_site_label
_atom_site_fract_x
_atom_site_fract_y
_atom_site_fract_z
Si Si1 0.916759 0.324682 0.544032
Si Si2 0.825817 0.769583 0.791170
Si Si3 0.454986 0.466650 0.746418
Si Si4 0.056565 0.912308 0.190679
Si Si5 0.011223 0.124799 0.436751
Si Si6 0.476776 0.929511 0.126444
Si Si7 0.376724 0.206338 0.710925
O O1 0.914647 0.370492 0.449130
O O2 0.972192 0.275098 0.398851
O O3 0.141365 0.330039 0.418489
O O4 0.644734 0.321713 0.908531
O O5 0.989481 0.817055 0.577786
O O6 0.635162 0.754934 0.870608
O O7 0.649096 0.777358 0.108484
O O8 0.690544 0.446200 0.584320
O O9 0.488839 0.450587 0.557881
O O10 0.452088 0.525638 0.757355
O O11 0.187679 0.445743 0.087670
O O12 0.024373 0.887843 0.369781
O O13 0.779457 0.103263 0.593706
O O14 0.277597 0.103223 0.095198
#
# Coordination Sequence:
#
# PCOD8123568 Si02
#       7
#     4   4   4   4   4   4   4
#     4  10  23  37  55  83 111 146 189 231 265 342
#     4  10  24  39  57  84 114 155 183 236 271 338
#     4   9  17  30  53  74 117 137 184 230 285 318
#     4  10  18  33  53  82 106 151 178 232 274 333
#     4  10  20  30  54  77 116 143 184 220 287 328
#     4   9  18  31  46  84 107 147 177 231 279 339
#     4  10  24  36  60  76 117 145 192 227 281 313
#
# _framework density 19.868061999999998
#
# number of rings (size 3 to 8) (size 9 to 14) (size 15 to 20)
#    0.857    1.429    0.000    2.571    4.000    3.429 
#    0.000    0.000    0.000    0.000    0.000   20.000 
#    0.000    0.000    0.000    0.000    0.000    0.000 
#
# Total GULP energy -347132.073160 kJ/mol
# GULP energy per Si atom -12397.574041 kJ/mol
# Density = 1.982284 g / cm^3
# Si number density = 19.868062 Si / 1000 Ang^3
#
#
#
# Elastic Constant Matrix: (Units=GPa)
#
#
# Indices 1 2 3 4 5 6 
#
# 1 36.1960 -2.0940 32.5061 0.0000 -6.8207 0.0000
# 2 -2.0940 31.3970 -6.1108 0.0000 -7.9147 0.0000
# 3 32.5061 -6.1108 101.5700 0.0000 -31.4740 0.0000
# 4 0.0000 0.0000 0.0000 27.0891 0.0000 0.6042
# 5 -6.8207 -7.9147 -31.4740 0.0000 38.1883 0.0000
# 6 0.0000 0.0000 0.0000 0.6042 0.0000 20.6644
#
#
#
# Elastic Compliance Matrix: (Units=1/GPa)
#
#
# Indices 1 2 3 4 5 6 
#
# 1 0.039392 -0.001401 -0.014237 0.000000 -0.004989 0.000000
# 2 -0.001401 0.036221 0.006549 0.000000 0.012654 0.000000
# 3 -0.014237 0.006549 0.019377 0.000000 0.014785 0.000000
# 4 0.000000 0.000000 0.000000 0.036939 0.000000 -0.001080
# 5 -0.004989 0.012654 0.014785 0.000000 0.040103 0.000000
# 6 0.000000 0.000000 0.000000 -0.001080 0.000000 0.048424
#
#
# Mechanical properties :
#
#
# Convention : Reuss Voigt Hill
#
# Bulk Modulus (GPa) = 13.01886 24.19617 18.60751
# Shear Modulus (GPa) = 18.92225 26.84580 22.88403
#
# Velocity S-wave (km/s) = 3.08944 3.67986 3.39750
# Velocity P-wave (km/s) = 4.39239 5.50091 4.97760
#
# Compressibility (1/GPa) = 0.07681165
#
# Stress axis : x y z
#
# Youngs Moduli (GPa) = 25.38592 27.60808 51.60710
#
# Poissons Ratio (x) = 0.03869 0.73473
# Poissons Ratio (y) = 0.03557 -0.33797
# Poissons Ratio (z) = 0.36142 -0.18080
#
# Static dielectric constant tensor:
#      x y z
#    x 3.335790 0.000000 -0.260860 
#    y 0.000000 3.606840 0.000000 
#    z -0.260860 0.000000 3.565690 
# 
# 
# High freq. dielectric constant tensor:
#      x y z
#    x 1.748090 0.000000 -0.020650 
#    y 0.000000 1.773130 0.000000 
#    z -0.020650 0.000000 1.775040 
# 
# From -- ./inp_files/33171.got.cif
#   From: 2010.03.12/outbox.cif.g09.slc.cpg/sg14_17_cif.got.tgz:33171.got - 2010.03.31 13:35:05.
