data_PCOD8123478
_publ_section_title
;
Structure prediction by ZEFSAII (Michael W. Deem and Ramdas Pophale) SiO2 
 PCOD8123478
Probable space group: P 21/C
;
_chemical_formula_sum "Si O2"
_cell_formula_units_Z 32
_cell_length_a 14.229057
_cell_length_b 20.782583
_cell_length_c 8.438558
_cell_angle_alpha 90.000000
_cell_angle_beta 134.740285
_cell_angle_gamma 90.000000
_cell_volume 1772.509590
_symmetry_space_group_name_H-M "P 21/C"
_symmetry_group_IT_number 14
_symmetry_cell_setting 'monoclinic'
loop_
_space_group_symop_operation_xyz
x,y,z
-x,1/2+y,1/2-z
-x,-y,-z
x,1/2-y,1/2+z
loop_
_atom_site_type_symbol
_atom_site_label
_atom_site_fract_x
_atom_site_fract_y
_atom_site_fract_z
Si Si1 0.922702 0.909666 0.809909
Si Si2 0.670909 0.547150 0.395668
Si Si3 0.195182 0.961683 0.181780
Si Si4 0.403569 0.254108 0.163004
Si Si5 0.727433 0.832050 0.759745
Si Si6 0.741665 0.926407 0.311944
Si Si7 0.378774 0.947739 0.677934
Si Si8 0.497394 0.162347 0.019827
O O1 0.872651 0.850159 0.861805
O O2 0.870286 0.905220 0.565939
O O3 0.869327 0.974972 0.821921
O O4 0.082010 0.910508 0.997803
O O5 0.720102 0.481439 0.372199
O O6 0.663039 0.603733 0.256778
O O7 0.772585 0.565121 0.660389
O O8 0.527136 0.535031 0.299681
O O9 0.290683 0.927822 0.422559
O O10 0.278314 0.226222 0.118648
O O11 0.468598 0.193060 0.156378
O O12 0.521056 0.282611 0.415996
O O13 0.359336 0.309905 0.992321
O O14 0.683251 0.992749 0.306411
O O15 0.634522 0.870807 0.205098
O O16 0.384085 0.888224 0.809960
#
# Coordination Sequence:
#
# PCOD8123478 Si02
#       8
#     4   4   4   4   4   4   4   4
#     4   9  18  33  50  72 102 135 168 213 247 310
#     4  10  18  31  48  79 104 134 170 212 257 315
#     4   9  19  32  50  72 101 141 169 199 262 302
#     4  10  19  30  51  77 100 130 168 217 266 300
#     4  10  18  31  51  75 101 126 171 217 259 300
#     4  10  18  32  51  76 109 138 170 214 263 306
#     4  10  19  33  51  74 111 140 170 212 260 318
#     4  10  18  32  48  79  99 130 168 214 267 301
#
# _framework density 18.053498999999999
#
# number of rings (size 3 to 8) (size 9 to 14) (size 15 to 20)
#    0.000    2.250    3.750    1.875    0.000    0.500 
#    2.250    0.000    0.000    1.500    0.000    0.000 
#    0.000    0.000    0.000    0.000    0.000    0.000 
#
# Total GULP energy -396460.874831 kJ/mol
# GULP energy per Si atom -12389.402338 kJ/mol
# Density = 1.801241 g / cm^3
# Si number density = 18.053499 Si / 1000 Ang^3
#
#
#
# Elastic Constant Matrix: (Units=GPa)
#
#
# Indices 1 2 3 4 5 6 
#
# 1 45.5040 27.2863 36.3453 0.0000 -13.4505 0.0000
# 2 27.2863 60.6919 26.8596 0.0000 -11.9980 0.0000
# 3 36.3453 26.8596 104.8838 0.0000 -17.0835 0.0000
# 4 0.0000 0.0000 0.0000 11.6986 0.0000 -4.1349
# 5 -13.4505 -11.9980 -17.0835 0.0000 24.6027 0.0000
# 6 0.0000 0.0000 0.0000 -4.1349 0.0000 24.7781
#
#
#
# Elastic Compliance Matrix: (Units=1/GPa)
#
#
# Indices 1 2 3 4 5 6 
#
# 1 0.038903 -0.011673 -0.008969 0.000000 0.009348 0.000000
# 2 -0.011673 0.023053 -0.001203 0.000000 0.004025 0.000000
# 3 -0.008969 -0.001203 0.013594 0.000000 0.003949 0.000000
# 4 0.000000 0.000000 0.000000 0.090838 0.000000 0.015159
# 5 0.009348 0.004025 0.003949 0.000000 0.050462 0.000000
# 6 0.000000 0.000000 0.000000 0.015159 0.000000 0.042888
#
#
# Mechanical properties :
#
#
# Convention : Reuss Voigt Hill
#
# Bulk Modulus (GPa) = 31.38786 43.56247 37.47516
# Shear Modulus (GPa) = 15.92120 20.25510 18.08815
#
# Velocity S-wave (km/s) = 2.97289 3.35318 3.16874
# Velocity P-wave (km/s) = 5.40443 6.25890 5.84729
#
# Compressibility (1/GPa) = 0.03185946
#
# Stress axis : x y z
#
# Youngs Moduli (GPa) = 25.70516 43.37880 73.56372
#
# Poissons Ratio (x) = 0.50635 0.65979
# Poissons Ratio (y) = 0.30005 0.08849
# Poissons Ratio (z) = 0.23055 0.05218
#
# Static dielectric constant tensor:
#      x y z
#    x 3.286650 0.000000 -0.308300 
#    y 0.000000 3.372130 0.000000 
#    z -0.308300 0.000000 3.552430 
# 
# 
# High freq. dielectric constant tensor:
#      x y z
#    x 1.673690 0.000000 -0.040550 
#    y 0.000000 1.691130 0.000000 
#    z -0.040550 0.000000 1.691910 
# 
# From -- ./inp_files/14034.got.cif
#   From: 2010.03.12/outbox.cif.g09.slc.cpg/sg14_8_cif.got.tgz:14034.got - 2010.03.31 13:35:05.
