data_PCOD8123984
_publ_section_title
;
Structure prediction by ZEFSAII (Michael W. Deem and Ramdas Pophale) SiO2 
 PCOD8123984
Probable space group: P 21/C
;
_chemical_formula_sum "Si O2"
_cell_formula_units_Z 32
_cell_length_a 11.971803
_cell_length_b 12.280187
_cell_length_c 13.765796
_cell_angle_alpha 90.000000
_cell_angle_beta 41.258448
_cell_angle_gamma 90.000000
_cell_volume 1334.603109
_symmetry_space_group_name_H-M "P 21/C"
_symmetry_group_IT_number 14
_symmetry_cell_setting 'monoclinic'
loop_
_space_group_symop_operation_xyz
x,y,z
-x,1/2+y,1/2-z
-x,-y,-z
x,1/2-y,1/2+z
loop_
_atom_site_type_symbol
_atom_site_label
_atom_site_fract_x
_atom_site_fract_y
_atom_site_fract_z
Si Si1 0.066406 0.240438 0.043737
Si Si2 0.275398 0.915507 0.923681
Si Si3 0.504578 0.413351 0.200594
Si Si4 0.309803 0.777785 0.261667
Si Si5 0.398526 0.760899 0.992430
Si Si6 0.954001 0.140243 0.303790
Si Si7 0.775285 0.569028 0.946067
Si Si8 0.907543 0.832995 0.176207
O O1 0.887110 0.298368 0.135485
O O2 0.042460 0.147811 0.141029
O O3 0.193229 0.332731 0.999860
O O4 0.150663 0.177906 0.897372
O O5 0.326381 0.839626 0.799672
O O6 0.331738 0.038410 0.859623
O O7 0.380015 0.877358 0.951183
O O8 0.075358 0.908309 0.073883
O O9 0.625554 0.370695 0.208052
O O10 0.459224 0.315746 0.153294
O O11 0.597458 0.513890 0.086352
O O12 0.428188 0.778713 0.087524
O O13 0.230468 0.692224 0.082302
O O14 0.059627 0.208284 0.313089
O O15 0.933292 0.015714 0.351121
O O16 0.769433 0.612371 0.837845
#
# Coordination Sequence:
#
# PCOD8123984 Si02
#       8
#     4   4   4   4   4   4   4   4
#     4   9  17  32  53  76 102 136 178 210 250 315
#     4   9  18  34  52  76 107 137 172 212 258 311
#     4  10  20  33  53  81 107 133 171 219 262 300
#     4   9  18  34  57  76 100 142 180 209 248 311
#     4   8  16  33  52  72 103 138 172 206 251 312
#     4   8  16  30  49  74 102 134 169 210 254 303
#     4  10  19  33  53  77 105 135 174 219 259 302
#     4   9  18  33  53  74 102 140 174 210 258 311
#
# _framework density 23.977163999999998
#
# number of rings (size 3 to 8) (size 9 to 14) (size 15 to 20)
#    0.000    3.000    0.000    3.000    0.000    3.500 
#    0.000    6.250    0.000    0.000    0.000    0.000 
#    0.000    0.000    0.000    0.000    0.000    0.000 
#
# Total GULP energy -396623.710731 kJ/mol
# GULP energy per Si atom -12394.490960 kJ/mol
# Density = 2.392259 g / cm^3
# Si number density = 23.977164 Si / 1000 Ang^3
#
#
#
# Elastic Constant Matrix: (Units=GPa)
#
#
# Indices 1 2 3 4 5 6 
#
# 1 39.6703 4.3279 34.8250 0.0000 24.8361 0.0000
# 2 4.3279 30.2241 10.4182 0.0000 -5.4557 0.0000
# 3 34.8250 10.4182 100.2096 0.0000 24.0704 0.0000
# 4 0.0000 0.0000 0.0000 43.0676 0.0000 -0.2004
# 5 24.8361 -5.4557 24.0704 0.0000 30.1775 0.0000
# 6 0.0000 0.0000 0.0000 -0.2004 0.0000 20.8812
#
#
#
# Elastic Compliance Matrix: (Units=1/GPa)
#
#
# Indices 1 2 3 4 5 6 
#
# 1 0.066426 -0.015215 -0.009538 0.000000 -0.049812 0.000000
# 2 -0.015215 0.041157 -0.004684 0.000000 0.023699 0.000000
# 3 -0.009538 -0.004684 0.014966 0.000000 -0.004934 0.000000
# 4 0.000000 0.000000 0.000000 0.023220 0.000000 0.000223
# 5 -0.049812 0.023699 -0.004934 0.000000 0.082352 0.000000
# 6 0.000000 0.000000 0.000000 0.000223 0.000000 0.047892
#
#
# Mechanical properties :
#
#
# Convention : Reuss Voigt Hill
#
# Bulk Modulus (GPa) = 15.70470 29.91625 22.81047
# Shear Modulus (GPa) = 14.04053 26.86079 20.45066
#
# Velocity S-wave (km/s) = 2.42250 3.35067 2.92365
# Velocity P-wave (km/s) = 3.79325 5.24150 4.57505
#
# Compressibility (1/GPa) = 0.06367522
#
# Stress axis : x y z
#
# Youngs Moduli (GPa) = 15.05440 24.29712 66.81887
#
# Poissons Ratio (x) = 0.36969 0.63731
# Poissons Ratio (y) = 0.22906 0.31296
# Poissons Ratio (z) = 0.14359 0.11380
#
# Static dielectric constant tensor:
#      x y z
#    x 3.937100 0.000000 0.347140 
#    y 0.000000 4.189090 0.000000 
#    z 0.347140 0.000000 4.709440 
# 
# 
# High freq. dielectric constant tensor:
#      x y z
#    x 1.920730 0.000000 0.018870 
#    y 0.000000 1.937510 0.000000 
#    z 0.018870 0.000000 1.967080 
# 
# From -- ./inp_files/47119.got.cif
#   From: 2010.03.12/outbox.cif.g09.slc.cpg/sg14_24_cif.got.tgz:47119.got - 2010.03.31 13:35:05.
