data_PCOD8123252
_publ_section_title
;
Structure prediction by ZEFSAII (Michael W. Deem and Ramdas Pophale) SiO2 
 PCOD8123252
Probable space group: P 21/C
;
_chemical_formula_sum "Si O2"
_cell_formula_units_Z 24
_cell_length_a 19.007006
_cell_length_b 14.138950
_cell_length_c 15.406810
_cell_angle_alpha 90.000000
_cell_angle_beta 158.704577
_cell_angle_gamma 90.000000
_cell_volume 1503.701724
_symmetry_space_group_name_H-M "P 21/C"
_symmetry_group_IT_number 14
_symmetry_cell_setting 'monoclinic'
loop_
_space_group_symop_operation_xyz
x,y,z
-x,1/2+y,1/2-z
-x,-y,-z
x,1/2-y,1/2+z
loop_
_atom_site_type_symbol
_atom_site_label
_atom_site_fract_x
_atom_site_fract_y
_atom_site_fract_z
Si Si1 0.171733 0.207330 0.999906
Si Si2 0.465731 0.586563 0.082259
Si Si3 0.062945 0.946012 0.198395
Si Si4 0.005845 0.836359 0.844552
Si Si5 0.166322 0.321058 0.680874
Si Si6 0.417519 0.888288 0.327871
O O1 0.020117 0.119279 0.818068
O O2 0.117414 0.292264 0.874666
O O3 0.388255 0.171538 0.225481
O O4 0.164313 0.245726 0.092465
O O5 0.283653 0.586933 0.937128
O O6 0.385859 0.597365 0.893485
O O7 0.584622 0.488465 0.224306
O O8 0.058138 0.055169 0.217939
O O9 0.923598 0.923053 0.954236
O O10 0.956774 0.781802 0.879004
O O11 0.233064 0.827829 0.082929
O O12 0.384491 0.334319 0.965972
#
# Coordination Sequence:
#
# PCOD8123252 Si02
#       6
#     4   4   4   4   4   4
#     4   9  22  30  45  78 106 122 162 208 240 294
#     4  10  16  30  48  73 101 122 153 213 247 289
#     4  10  18  32  49  72 102 124 161 203 248 285
#     4  12  18  31  53  74  99 134 158 199 256 288
#     4   9  19  32  48  78  98 125 164 208 245 291
#     4  10  16  26  53  73  93 125 159 195 261 287
#
# _framework density 15.960611999999999
#
# number of rings (size 3 to 8) (size 9 to 14) (size 15 to 20)
#    1.000    1.000    5.000    1.500    0.000    1.333 
#    0.000    0.000    0.000    1.000    0.000    5.833 
#    0.000    0.000    0.000    0.000    0.000    0.000 
#
# Total GULP energy -297314.004260 kJ/mol
# GULP energy per Si atom -12388.083511 kJ/mol
# Density = 1.592429 g / cm^3
# Si number density = 15.960612 Si / 1000 Ang^3
#
#
#
# Elastic Constant Matrix: (Units=GPa)
#
#
# Indices 1 2 3 4 5 6 
#
# 1 31.9679 8.5118 14.8906 0.0000 12.5916 0.0000
# 2 8.5118 22.3384 20.2721 0.0000 2.5580 0.0000
# 3 14.8906 20.2721 93.9693 0.0000 24.1919 0.0000
# 4 0.0000 0.0000 0.0000 25.9785 0.0000 -8.2712
# 5 12.5916 2.5580 24.1919 0.0000 24.0341 0.0000
# 6 0.0000 0.0000 0.0000 -8.2712 0.0000 17.2379
#
#
#
# Elastic Compliance Matrix: (Units=1/GPa)
#
#
# Indices 1 2 3 4 5 6 
#
# 1 0.043831 -0.016488 0.002796 0.000000 -0.024023 0.000000
# 2 -0.016488 0.063126 -0.015522 0.000000 0.017543 0.000000
# 3 0.002796 -0.015522 0.018221 0.000000 -0.018153 0.000000
# 4 0.000000 0.000000 0.000000 0.045434 0.000000 0.021801
# 5 -0.024023 0.017543 -0.018153 0.000000 0.070599 0.000000
# 6 0.000000 0.000000 0.000000 0.021801 0.000000 0.068472
#
#
# Mechanical properties :
#
#
# Convention : Reuss Voigt Hill
#
# Bulk Modulus (GPa) = 14.98126 26.18052 20.58089
# Shear Modulus (GPa) = 12.80867 20.42350 16.61608
#
# Velocity S-wave (km/s) = 2.83595 3.58106 3.23006
# Velocity P-wave (km/s) = 4.48667 5.79115 5.18014
#
# Compressibility (1/GPa) = 0.06675008
#
# Stress axis : x y z
#
# Youngs Moduli (GPa) = 22.81476 15.84139 54.88247
#
# Poissons Ratio (x) = 0.26119 -0.15345
# Poissons Ratio (y) = 0.37616 0.85189
# Poissons Ratio (z) = -0.06379 0.24589
#
# Static dielectric constant tensor:
#      x y z
#    x 2.952130 0.000000 0.296520 
#    y 0.000000 2.565030 0.000000 
#    z 0.296520 0.000000 3.051180 
# 
# 
# High freq. dielectric constant tensor:
#      x y z
#    x 1.595920 0.000000 0.032720 
#    y 0.000000 1.560470 0.000000 
#    z 0.032720 0.000000 1.619910 
# 
# From -- ./inp_files/40523.got.cif
#   From: 2010.03.12/outbox.cif.g09.slc.cpg/sg14_21_cif.got.tgz:40523.got - 2010.03.31 13:35:05.
