data_PCOD8123805
_publ_section_title
;
Structure prediction by ZEFSAII (Michael W. Deem and Ramdas Pophale) SiO2 
 PCOD8123805
Probable space group: P 21/C
;
_chemical_formula_sum "Si O2"
_cell_formula_units_Z 28
_cell_length_a 19.349175
_cell_length_b 5.587932
_cell_length_c 27.801131
_cell_angle_alpha 90.000000
_cell_angle_beta 154.190071
_cell_angle_gamma 90.000000
_cell_volume 1308.734644
_symmetry_space_group_name_H-M "P 21/C"
_symmetry_group_IT_number 14
_symmetry_cell_setting 'monoclinic'
loop_
_space_group_symop_operation_xyz
x,y,z
-x,1/2+y,1/2-z
-x,-y,-z
x,1/2-y,1/2+z
loop_
_atom_site_type_symbol
_atom_site_label
_atom_site_fract_x
_atom_site_fract_y
_atom_site_fract_z
Si Si1 0.862524 0.933925 0.487385
Si Si2 0.684513 0.758564 0.789657
Si Si3 0.052176 0.067581 0.106277
Si Si4 0.455253 0.589967 0.367780
Si Si5 0.615976 0.965256 0.414162
Si Si6 0.388083 0.794406 0.486601
Si Si7 0.707147 0.034247 0.668350
O O1 0.733983 0.913919 0.364158
O O2 0.776016 0.952658 0.484328
O O3 0.957624 0.682991 0.545032
O O4 0.955851 0.183153 0.538522
O O5 0.822616 0.945209 0.859956
O O6 0.657836 0.616873 0.723179
O O7 0.517895 0.884457 0.698479
O O8 0.133373 0.083489 0.210209
O O9 0.543489 0.703115 0.376961
O O10 0.595748 0.486744 0.490517
O O11 0.339412 0.763642 0.322839
O O12 0.655854 0.063827 0.492502
O O13 0.260773 0.852208 0.364777
O O14 0.563121 0.849141 0.574775
#
# Coordination Sequence:
#
# PCOD8123805 Si02
#       7
#     4   4   4   4   4   4   4
#     4  12  30  42  68  99 146 181 219 283 356 402
#     4  11  24  43  70  92 135 182 238 275 333 406
#     4  12  25  46  64 102 139 178 230 277 344 418
#     4  10  18  37  67  98 130 161 236 287 326 394
#     4  10  24  42  65 100 131 175 234 283 333 414
#     4   9  19  37  68  95 129 164 237 279 338 384
#     4  10  19  37  65 100 124 176 219 289 332 401
#
# _framework density 21.394712999999999
#
# number of rings (size 3 to 8) (size 9 to 14) (size 15 to 20)
#    0.000    1.429    4.286    2.143    8.000    0.000 
#    0.000    1.429    0.000    0.000    0.000    0.000 
#    0.000    0.000    0.000    0.000    0.000    0.000 
#
# Total GULP energy -346931.393852 kJ/mol
# GULP energy per Si atom -12390.406923 kJ/mol
# Density = 2.134602 g / cm^3
# Si number density = 21.394713 Si / 1000 Ang^3
#
#
#
# Elastic Constant Matrix: (Units=GPa)
#
#
# Indices 1 2 3 4 5 6 
#
# 1 81.5510 7.6493 17.1184 0.0000 -2.3807 0.0000
# 2 7.6493 106.0140 20.6529 0.0000 1.9982 0.0000
# 3 17.1184 20.6529 58.7227 0.0000 -22.0326 0.0000
# 4 0.0000 0.0000 0.0000 38.6990 0.0000 -1.2237
# 5 -2.3807 1.9982 -22.0326 0.0000 34.5581 0.0000
# 6 0.0000 0.0000 0.0000 -1.2237 0.0000 12.0878
#
#
#
# Elastic Compliance Matrix: (Units=1/GPa)
#
#
# Indices 1 2 3 4 5 6 
#
# 1 0.013168 -0.000018 -0.004589 0.000000 -0.002018 0.000000
# 2 -0.000018 0.010511 -0.005153 0.000000 -0.003894 0.000000
# 3 -0.004589 -0.005153 0.026515 0.000000 0.016886 0.000000
# 4 0.000000 0.000000 0.000000 0.025923 0.000000 0.002624
# 5 -0.002018 -0.003894 0.016886 0.000000 0.039789 0.000000
# 6 0.000000 0.000000 0.000000 0.002624 0.000000 0.082994
#
#
# Mechanical properties :
#
#
# Convention : Reuss Voigt Hill
#
# Bulk Modulus (GPa) = 32.60045 37.45875 35.02960
# Shear Modulus (GPa) = 21.86788 30.46011 26.16400
#
# Velocity S-wave (km/s) = 3.20052 3.77732 3.50082
# Velocity P-wave (km/s) = 5.37852 6.04736 5.72272
#
# Compressibility (1/GPa) = 0.03067442
#
# Stress axis : x y z
#
# Youngs Moduli (GPa) = 75.93917 95.13663 37.71448
#
# Poissons Ratio (x) = 0.00171 0.17309
# Poissons Ratio (y) = 0.00137 0.19433
# Poissons Ratio (z) = 0.34852 0.49020
#
# Static dielectric constant tensor:
#      x y z
#    x 3.745980 0.000000 -0.302920 
#    y 0.000000 4.099810 0.000000 
#    z -0.302920 0.000000 3.946800 
# 
# 
# High freq. dielectric constant tensor:
#      x y z
#    x 1.823100 0.000000 -0.026500 
#    y 0.000000 1.850690 0.000000 
#    z -0.026500 0.000000 1.825530 
# 
# From -- ./inp_files/77718.got.cif
#   From: 2010.03.12/outbox.cif.g09.slc.cpg/sg14_39_cif.got.tgz:77718.got - 2010.03.31 13:35:05.
