data_PCOD8123062
_publ_section_title
;
Structure prediction by ZEFSAII (Michael W. Deem and Ramdas Pophale) SiO2 
 PCOD8123062
Probable space group: P 2/C
;
_chemical_formula_sum "Si O2"
_cell_formula_units_Z 18
_cell_length_a 12.556891
_cell_length_b 5.363584
_cell_length_c 21.249727
_cell_angle_alpha 90.000000
_cell_angle_beta 145.780844
_cell_angle_gamma 90.000000
_cell_volume 804.831354
_symmetry_space_group_name_H-M "P 2/C"
_symmetry_group_IT_number 13
_symmetry_cell_setting 'monoclinic'
loop_
_space_group_symop_operation_xyz
x,y,z
-x,y,1/2-z
-x,-y,-z
x,-y,1/2+z
loop_
_atom_site_type_symbol
_atom_site_label
_atom_site_fract_x
_atom_site_fract_y
_atom_site_fract_z
Si Si1 0.520981 0.781425 0.686809
Si Si2 0.000000 0.117275 0.250000
Si Si3 0.733447 0.276872 0.749704
Si Si4 0.135945 0.770073 0.425808
Si Si5 0.280369 0.486716 0.883369
O O1 0.500000 0.739310 0.750000
O O2 0.619982 0.531801 0.708598
O O3 0.314276 0.828699 0.556895
O O4 0.637559 0.033021 0.731238
O O5 0.175029 0.272451 0.303984
O O6 0.095613 0.985967 0.356231
O O7 0.752716 0.258180 0.682339
O O8 0.952616 0.286570 0.880626
O O9 0.183952 0.537442 0.404574
O O10 0.500000 0.500000 0.000000
#
# Coordination Sequence:
#
# PCOD8123062 Si02
#       5
#     4   2   4   4   4
#     4  12  30  50  72 104 143 199 255 291 351 429
#     4  12  22  42  66 114 150 176 238 284 374 440
#     4  12  25  47  74 104 147 188 239 306 360 421
#     4  12  26  41  75 109 147 188 232 303 368 438
#     4  12  23  40  69 108 145 183 230 296 370 437
#
# _framework density 22.364934000000002
#
# number of rings (size 3 to 8) (size 9 to 14) (size 15 to 20)
#    0.000    0.000    6.667    3.333    0.000    3.556 
#    0.000    0.000    0.000    0.000    0.000    0.000 
#    0.000    0.000    0.000    0.000    0.000    0.000 
#
# Total GULP energy -223011.403655 kJ/mol
# GULP energy per Si atom -12389.522425 kJ/mol
# Density = 2.231403 g / cm^3
# Si number density = 22.364934 Si / 1000 Ang^3
#
#
#
# Elastic Constant Matrix: (Units=GPa)
#
#
# Indices 1 2 3 4 5 6 
#
# 1 87.1866 34.2068 89.0847 0.0000 17.0702 0.0000
# 2 34.2068 111.2797 56.4625 0.0000 22.4849 0.0000
# 3 89.0847 56.4625 162.6756 0.0000 34.3527 0.0000
# 4 0.0000 0.0000 0.0000 8.7845 0.0000 -10.9956
# 5 17.0702 22.4849 34.3527 0.0000 57.1192 0.0000
# 6 0.0000 0.0000 0.0000 -10.9956 0.0000 11.5010
#
#
#
# Elastic Compliance Matrix: (Units=1/GPa)
#
#
# Indices 1 2 3 4 5 6 
#
# 1 0.026184 -0.001070 -0.014208 0.000000 0.001141 0.000000
# 2 -0.001070 0.011224 -0.002800 0.000000 -0.002415 0.000000
# 3 -0.014208 -0.002800 0.015774 0.000000 -0.004138 0.000000
# 4 0.000000 0.000000 0.000000 -0.578709 0.000000 -0.553282
# 5 0.001141 -0.002415 -0.004138 0.000000 0.020606 0.000000
# 6 0.000000 0.000000 0.000000 -0.553282 0.000000 -0.442023
#
#
# Mechanical properties :
#
#
# Convention : Reuss Voigt Hill
#
# Bulk Modulus (GPa) = 58.73810 80.07222 69.40516
# Shear Modulus (GPa) = -5.52417 27.57346 11.02465
#
# Velocity S-wave (km/s) = -1.57333 3.51506 2.22264
# Velocity P-wave (km/s) = 4.79792 7.23564 6.13899
#
# Compressibility (1/GPa) = 0.01702473
#
# Stress axis : x y z
#
# Youngs Moduli (GPa) = 38.19162 89.09679 63.39678
#
# Poissons Ratio (x) = 0.09535 0.90077
# Poissons Ratio (y) = 0.04087 0.17749
# Poissons Ratio (z) = 0.54264 0.24944
#
# Static dielectric constant tensor:
#      x y z
#    x 5.575050 0.000000 0.080820 
#    y 0.000000 4.124070 0.000000 
#    z 0.080820 0.000000 4.316230 
# 
# 
# High freq. dielectric constant tensor:
#      x y z
#    x 1.883260 0.000000 0.028910 
#    y 0.000000 1.885210 0.000000 
#    z 0.028910 0.000000 1.893000 
# 
# From -- ./inp_files/56319.got.cif
#   From: 2010.06.25/outbox.cif.g09.slc.cpg/sg13_29_cif.got.tgz:56319.got - 2010.06.28 04:50:58.
