data_PCOD8123756
_publ_section_title
;
Structure prediction by ZEFSAII (Michael W. Deem and Ramdas Pophale) SiO2 
 PCOD8123756
Probable space group: P 21/C
;
_chemical_formula_sum "Si O2"
_cell_formula_units_Z 24
_cell_length_a 7.796085
_cell_length_b 12.932616
_cell_length_c 14.972770
_cell_angle_alpha 90.000000
_cell_angle_beta 123.494918
_cell_angle_gamma 90.000000
_cell_volume 1258.917253
_symmetry_space_group_name_H-M "P 21/C"
_symmetry_group_IT_number 14
_symmetry_cell_setting 'monoclinic'
loop_
_space_group_symop_operation_xyz
x,y,z
-x,1/2+y,1/2-z
-x,-y,-z
x,1/2-y,1/2+z
loop_
_atom_site_type_symbol
_atom_site_label
_atom_site_fract_x
_atom_site_fract_y
_atom_site_fract_z
Si Si1 0.946574 0.452318 0.849916
Si Si2 0.879821 0.233574 0.205047
Si Si3 0.302918 0.946630 0.549588
Si Si4 0.272206 0.350661 0.267256
Si Si5 0.480406 0.746653 0.511294
Si Si6 0.495312 0.652081 0.843184
O O1 0.974686 0.354935 0.793937
O O2 0.854885 0.414114 0.917818
O O3 0.783277 0.529171 0.756862
O O4 0.167543 0.506808 0.928921
O O5 0.748570 0.318455 0.225553
O O6 0.065155 0.285560 0.206131
O O7 0.728562 0.190238 0.083558
O O8 0.427504 0.847184 0.554787
O O9 0.469704 0.030063 0.631841
O O10 0.390734 0.334730 0.394564
O O11 0.408360 0.311972 0.222825
O O12 0.603674 0.785798 0.457528
#
# Coordination Sequence:
#
# PCOD8123756 Si02
#       6
#     4   4   4   4   4   4
#     4  10  20  35  61  88 116 154 195 241 289 343
#     4  10  22  37  55  89 116 149 195 238 289 344
#     4  10  18  36  64  87 111 153 203 241 280 340
#     4  11  21  39  58  84 121 152 189 246 291 338
#     4  10  21  36  59  87 115 154 192 236 291 345
#     4   9  21  36  57  89 114 148 197 239 286 338
#
# _framework density 19.064001000000001
#
# number of rings (size 3 to 8) (size 9 to 14) (size 15 to 20)
#    1.000    1.000    1.667    2.500    0.000    2.000 
#    3.000    0.000    0.000    1.000    0.000    0.000 
#    0.000    0.000    0.000    0.000    0.000    0.000 
#
# Total GULP energy -297419.136783 kJ/mol
# GULP energy per Si atom -12392.464033 kJ/mol
# Density = 1.902061 g / cm^3
# Si number density = 19.064001 Si / 1000 Ang^3
#
#
#
# Elastic Constant Matrix: (Units=GPa)
#
#
# Indices 1 2 3 4 5 6 
#
# 1 59.3016 5.0180 3.6662 0.0000 -5.6851 0.0000
# 2 5.0180 49.3479 16.1278 0.0000 -3.3505 0.0000
# 3 3.6662 16.1278 64.6680 0.0000 -1.3962 0.0000
# 4 0.0000 0.0000 0.0000 32.1153 0.0000 0.8813
# 5 -5.6851 -3.3505 -1.3962 0.0000 32.7634 0.0000
# 6 0.0000 0.0000 0.0000 0.8813 0.0000 20.4094
#
#
#
# Elastic Compliance Matrix: (Units=1/GPa)
#
#
# Indices 1 2 3 4 5 6 
#
# 1 0.017287 -0.001377 -0.000575 0.000000 0.002834 0.000000
# 2 -0.001377 0.022307 -0.005446 0.000000 0.001810 0.000000
# 3 -0.000575 -0.005446 0.016856 0.000000 0.000062 0.000000
# 4 0.000000 0.000000 0.000000 0.031175 0.000000 -0.001346
# 5 0.002834 0.001810 0.000062 0.000000 0.031201 0.000000
# 6 0.000000 0.000000 0.000000 -0.001346 0.000000 0.049055
#
#
# Mechanical properties :
#
#
# Convention : Reuss Voigt Hill
#
# Bulk Modulus (GPa) = 24.00840 24.77128 24.38984
# Shear Modulus (GPa) = 25.43720 26.95799 26.19760
#
# Velocity S-wave (km/s) = 3.65678 3.76450 3.71103
# Velocity P-wave (km/s) = 5.51818 5.64954 5.58424
#
# Compressibility (1/GPa) = 0.04165209
#
# Stress axis : x y z
#
# Youngs Moduli (GPa) = 57.84770 44.82874 59.32686
#
# Poissons Ratio (x) = 0.06175 0.03413
# Poissons Ratio (y) = 0.07968 0.32310
# Poissons Ratio (z) = 0.03328 0.24414
#
# Static dielectric constant tensor:
#      x y z
#    x 3.484650 0.000000 -0.070050 
#    y 0.000000 3.231150 0.000000 
#    z -0.070050 0.000000 3.501160 
# 
# 
# High freq. dielectric constant tensor:
#      x y z
#    x 1.743700 0.000000 -0.005650 
#    y 0.000000 1.716110 0.000000 
#    z -0.005650 0.000000 1.735940 
# 
# From -- ./inp_files/40524.got.cif
#   From: 2010.03.12/outbox.cif.g09.slc.cpg/sg14_21_cif.got.tgz:40524.got - 2010.03.31 13:35:05.
