data_PCOD8123801
_publ_section_title
;
Structure prediction by ZEFSAII (Michael W. Deem and Ramdas Pophale) SiO2 
 PCOD8123801
Probable space group: P 21/C
;
_chemical_formula_sum "Si O2"
_cell_formula_units_Z 24
_cell_length_a 15.612434
_cell_length_b 14.357613
_cell_length_c 8.920903
_cell_angle_alpha 90.000000
_cell_angle_beta 146.784008
_cell_angle_gamma 90.000000
_cell_volume 1095.421171
_symmetry_space_group_name_H-M "P 21/C"
_symmetry_group_IT_number 14
_symmetry_cell_setting 'monoclinic'
loop_
_space_group_symop_operation_xyz
x,y,z
-x,1/2+y,1/2-z
-x,-y,-z
x,1/2-y,1/2+z
loop_
_atom_site_type_symbol
_atom_site_label
_atom_site_fract_x
_atom_site_fract_y
_atom_site_fract_z
Si Si1 0.223866 0.620418 0.200743
Si Si2 0.095504 0.811597 0.017281
Si Si3 0.393657 0.175529 0.978473
Si Si4 0.556028 0.863802 0.290540
Si Si5 0.046517 0.161609 0.503666
Si Si6 0.689749 0.441679 0.987118
O O1 0.215788 0.730069 0.139519
O O2 0.373763 0.606501 0.526811
O O3 0.237249 0.557014 0.073222
O O4 0.067184 0.593536 0.065235
O O5 0.189264 0.899424 0.218065
O O6 0.983001 0.768247 0.981964
O O7 0.992284 0.846642 0.728263
O O8 0.399905 0.170484 0.809727
O O9 0.227402 0.135129 0.793006
O O10 0.410955 0.283878 0.041877
O O11 0.528829 0.115987 0.254005
O O12 0.658744 0.952535 0.489432
#
# Coordination Sequence:
#
# PCOD8123801 Si02
#       6
#     4   4   4   4   4   4
#     4   9  18  38  64  87 120 168 202 241 314 362
#     4  10  18  37  65  88 122 167 207 238 312 367
#     4  11  22  42  63  95 126 158 209 264 306 366
#     4  11  24  40  68  92 121 167 208 259 309 364
#     4  10  20  35  65  90 124 174 196 252 322 355
#     4  11  22  42  67  90 123 166 214 251 304 374
#
# _framework density 21.909381
#
# number of rings (size 3 to 8) (size 9 to 14) (size 15 to 20)
#    1.000    0.667    3.333    3.000    2.333    0.000 
#    0.000   11.667    0.000    0.000    0.000    0.000 
#    0.000    0.000    0.000    0.000    0.000    0.000 
#
# Total GULP energy -297556.066872 kJ/mol
# GULP energy per Si atom -12398.169453 kJ/mol
# Density = 2.185951 g / cm^3
# Si number density = 21.909381 Si / 1000 Ang^3
#
#
#
# Elastic Constant Matrix: (Units=GPa)
#
#
# Indices 1 2 3 4 5 6 
#
# 1 96.6525 24.5015 58.8713 0.0000 21.2156 0.0000
# 2 24.5015 77.9697 16.6196 0.0000 -3.4419 0.0000
# 3 58.8713 16.6196 98.7447 0.0000 5.7595 0.0000
# 4 0.0000 0.0000 0.0000 18.2337 0.0000 -4.1702
# 5 21.2156 -3.4419 5.7595 0.0000 25.2997 0.0000
# 6 0.0000 0.0000 0.0000 -4.1702 0.0000 22.1619
#
#
#
# Elastic Compliance Matrix: (Units=1/GPa)
#
#
# Indices 1 2 3 4 5 6 
#
# 1 0.022392 -0.005338 -0.011466 0.000000 -0.016893 0.000000
# 2 -0.005338 0.014715 0.000332 0.000000 0.006403 0.000000
# 3 -0.011466 0.000332 0.016564 0.000000 0.005890 0.000000
# 4 0.000000 0.000000 0.000000 0.057310 0.000000 0.010784
# 5 -0.016893 0.006403 0.005890 0.000000 0.053222 0.000000
# 6 0.000000 0.000000 0.000000 0.010784 0.000000 0.047152
#
#
# Mechanical properties :
#
#
# Convention : Reuss Voigt Hill
#
# Bulk Modulus (GPa) = 48.24695 52.59463 50.42079
# Shear Modulus (GPa) = 19.90399 24.69737 22.30068
#
# Velocity S-wave (km/s) = 3.01735 3.36110 3.19385
# Velocity P-wave (km/s) = 5.84877 6.25462 6.05510
#
# Compressibility (1/GPa) = 0.02072670
#
# Stress axis : x y z
#
# Youngs Moduli (GPa) = 44.65962 67.95910 60.37322
#
# Poissons Ratio (x) = 0.36277 0.69224
# Poissons Ratio (y) = 0.23840 -0.02007
# Poissons Ratio (z) = 0.51207 -0.02260
#
# Static dielectric constant tensor:
#      x y z
#    x 3.917240 0.000000 0.245210 
#    y 0.000000 3.650270 0.000000 
#    z 0.245210 0.000000 3.808000 
# 
# 
# High freq. dielectric constant tensor:
#      x y z
#    x 1.855550 0.000000 0.013940 
#    y 0.000000 1.843070 0.000000 
#    z 0.013940 0.000000 1.858560 
# 
# From -- ./inp_files/16338.got.cif
#   From: 2010.03.12/outbox.cif.g09.slc.cpg/sg14_9_cif.got.tgz:16338.got - 2010.03.31 13:35:05.
