data_PCOD8123030
_publ_section_title
;
Structure prediction by ZEFSAII (Michael W. Deem and Ramdas Pophale) SiO2 
 PCOD8123030
Probable space group: P 2/C
;
_chemical_formula_sum "Si O2"
_cell_formula_units_Z 22
_cell_length_a 26.944678
_cell_length_b 6.617195
_cell_length_c 15.783848
_cell_angle_alpha 90.000000
_cell_angle_beta 158.546108
_cell_angle_gamma 90.000000
_cell_volume 1029.311835
_symmetry_space_group_name_H-M "P 2/C"
_symmetry_group_IT_number 13
_symmetry_cell_setting 'monoclinic'
loop_
_space_group_symop_operation_xyz
x,y,z
-x,y,1/2-z
-x,-y,-z
x,-y,1/2+z
loop_
_atom_site_type_symbol
_atom_site_label
_atom_site_fract_x
_atom_site_fract_y
_atom_site_fract_z
Si Si1 0.473690 0.812602 0.596237
Si Si2 0.270101 0.937665 0.037787
Si Si3 0.154692 0.208211 0.995554
Si Si4 0.347680 0.580158 0.261340
Si Si5 0.288305 0.883308 0.881960
Si Si6 0.500000 0.455522 0.750000
O O1 0.350842 0.756645 0.337258
O O2 0.538822 0.603092 0.733550
O O3 0.587706 0.942526 0.729914
O O4 0.400841 0.940971 0.553855
O O5 0.298429 0.699999 0.099818
O O6 0.210590 0.936808 0.846727
O O7 0.168674 0.038037 0.944432
O O8 0.000000 0.280299 0.750000
O O9 0.245862 0.400637 0.119742
O O10 0.189785 0.122230 0.144656
O O11 0.500000 0.500000 0.500000
O O12 0.368215 0.672055 0.015675
#
# Coordination Sequence:
#
# PCOD8123030 Si02
#       6
#     4   4   4   4   4   2
#     4  12  21  38  69 107 140 171 221 293 353 397
#     4  12  24  41  71 102 137 179 233 285 351 409
#     4  12  29  48  66  98 144 191 234 281 348 419
#     4  12  23  41  73 102 135 181 236 288 345 407
#     4  12  24  42  68 105 140 176 229 289 343 404
#     4  12  20  36  70 110 140 170 224 296 350 398
#
# _framework density 21.373502999999999
#
# number of rings (size 3 to 8) (size 9 to 14) (size 15 to 20)
#    0.000    0.000    9.091    2.727    0.000    1.455 
#    0.000    0.909    0.000    0.000    0.000    0.000 
#    0.000    0.000    0.000    0.000    0.000    0.000 
#
# Total GULP energy -272718.550713 kJ/mol
# GULP energy per Si atom -12396.297760 kJ/mol
# Density = 2.132486 g / cm^3
# Si number density = 21.373503 Si / 1000 Ang^3
#
#
#
# Elastic Constant Matrix: (Units=GPa)
#
#
# Indices 1 2 3 4 5 6 
#
# 1 133.9562 50.3080 58.0985 0.0000 -17.9091 0.0000
# 2 50.3080 111.2919 37.9848 0.0000 -0.2833 0.0000
# 3 58.0985 37.9848 105.8115 0.0000 3.7394 0.0000
# 4 0.0000 0.0000 0.0000 22.6134 0.0000 -6.8941
# 5 -17.9091 -0.2833 3.7394 0.0000 31.9681 0.0000
# 6 0.0000 0.0000 0.0000 -6.8941 0.0000 45.5538
#
#
#
# Elastic Compliance Matrix: (Units=1/GPa)
#
#
# Indices 1 2 3 4 5 6 
#
# 1 0.012307 -0.003586 -0.005736 0.000000 0.007534 0.000000
# 2 -0.003586 0.011294 -0.002026 0.000000 -0.001672 0.000000
# 3 -0.005736 -0.002026 0.013498 0.000000 -0.004810 0.000000
# 4 0.000000 0.000000 0.000000 0.046361 0.000000 0.007016
# 5 0.007534 -0.001672 -0.004810 0.000000 0.036050 0.000000
# 6 0.000000 0.000000 0.000000 0.007016 0.000000 0.023014
#
#
# Mechanical properties :
#
#
# Convention : Reuss Voigt Hill
#
# Bulk Modulus (GPa) = 69.43827 71.53803 70.48815
# Shear Modulus (GPa) = 29.40820 33.67162 31.53991
#
# Velocity S-wave (km/s) = 3.71336 3.97343 3.84559
# Velocity P-wave (km/s) = 7.13750 7.38877 7.26422
#
# Compressibility (1/GPa) = 0.01440128
#
# Stress axis : x y z
#
# Youngs Moduli (GPa) = 81.25382 88.54452 74.08607
#
# Poissons Ratio (x) = 0.31754 0.42499
# Poissons Ratio (y) = 0.29139 0.15011
# Poissons Ratio (z) = 0.46610 0.17940
#
# Static dielectric constant tensor:
#      x y z
#    x 4.375130 0.000000 -0.567690 
#    y 0.000000 4.082130 0.000000 
#    z -0.567690 0.000000 3.676250 
# 
# 
# High freq. dielectric constant tensor:
#      x y z
#    x 1.857250 0.000000 -0.033680 
#    y 0.000000 1.858790 0.000000 
#    z -0.033680 0.000000 1.791510 
# 
# From -- ./inp_files/72151.got.cif
#   From: 2010.06.25/outbox.cif.g09.slc.cpg/sg13_37_cif.got.tgz:72151.got - 2010.06.28 04:50:58.
