data_PCOD8123355
_publ_section_title
;
Structure prediction by ZEFSAII (Michael W. Deem and Ramdas Pophale) SiO2 
 PCOD8123355
Probable space group: P 21/C
;
_chemical_formula_sum "Si O2"
_cell_formula_units_Z 32
_cell_length_a 9.323570
_cell_length_b 19.851324
_cell_length_c 8.185253
_cell_angle_alpha 90.000000
_cell_angle_beta 88.398596
_cell_angle_gamma 90.000000
_cell_volume 1514.377561
_symmetry_space_group_name_H-M "P 21/C"
_symmetry_group_IT_number 14
_symmetry_cell_setting 'monoclinic'
loop_
_space_group_symop_operation_xyz
x,y,z
-x,1/2+y,1/2-z
-x,-y,-z
x,1/2-y,1/2+z
loop_
_atom_site_type_symbol
_atom_site_label
_atom_site_fract_x
_atom_site_fract_y
_atom_site_fract_z
Si Si1 0.985511 0.941719 0.632264
Si Si2 0.797523 0.188235 0.909151
Si Si3 0.264239 0.573665 0.336075
Si Si4 0.496120 0.340104 0.814411
Si Si5 0.107964 0.313739 0.476945
Si Si6 0.376806 0.785106 0.383093
Si Si7 0.147696 0.462214 0.531550
Si Si8 0.176143 0.319507 0.833439
O O1 0.859675 0.957286 0.771132
O O2 0.924272 0.871229 0.556696
O O3 0.143819 0.932838 0.700782
O O4 0.000000 0.000000 0.500000
O O5 0.786855 0.129861 0.038952
O O6 0.738138 0.257487 0.983948
O O7 0.965595 0.198864 0.873897
O O8 0.710567 0.170350 0.746375
O O9 0.415664 0.594304 0.250443
O O10 0.276730 0.505683 0.446104
O O11 0.536876 0.274234 0.708434
O O12 0.329163 0.354001 0.788007
O O13 0.518346 0.330980 0.009702
O O14 0.164950 0.389425 0.442235
O O15 0.085052 0.307077 0.671384
O O16 0.211338 0.252100 0.419520
O O17 0.000000 0.500000 0.500000
#
# Coordination Sequence:
#
# PCOD8123355 Si02
#       8
#     4   4   4   4   4   4   4   4
#     4  10  22  40  62  92 124 158 204 260 313 362
#     4  10  17  33  56  89 121 155 204 258 296 367
#     4  10  20  39  61  87 119 164 207 249 302 373
#     4  10  21  39  58  89 126 163 203 248 310 373
#     4  11  21  35  61  92 126 152 203 253 320 354
#     4   9  20  32  57  86 126 158 203 248 308 354
#     4   9  18  38  58  86 125 154 203 254 306 367
#     4  11  23  39  61  94 128 158 198 260 310 371
#
# _framework density 21.130794000000002
#
# number of rings (size 3 to 8) (size 9 to 14) (size 15 to 20)
#    0.000    2.000    3.750    1.500    3.500    3.000 
#    0.000    3.125    0.000    0.000    0.000    0.000 
#    0.000    0.000    0.000    0.000    0.000    0.000 
#
# Total GULP energy -396447.906756 kJ/mol
# GULP energy per Si atom -12388.997086 kJ/mol
# Density = 2.108270 g / cm^3
# Si number density = 21.130794 Si / 1000 Ang^3
#
#
#
# Elastic Constant Matrix: (Units=GPa)
#
#
# Indices 1 2 3 4 5 6 
#
# 1 76.8786 32.5193 26.3197 0.0000 -4.3686 0.0000
# 2 32.5193 126.5920 35.7761 0.0000 -7.4564 0.0000
# 3 26.3197 35.7761 76.2921 0.0000 11.0075 0.0000
# 4 0.0000 0.0000 0.0000 40.6364 0.0000 -4.8820
# 5 -4.3686 -7.4564 11.0075 0.0000 25.7082 0.0000
# 6 0.0000 0.0000 0.0000 -4.8820 0.0000 23.3150
#
#
#
# Elastic Compliance Matrix: (Units=1/GPa)
#
#
# Indices 1 2 3 4 5 6 
#
# 1 0.015979 -0.002462 -0.004952 0.000000 0.004122 0.000000
# 2 -0.002462 0.010068 -0.004511 0.000000 0.004433 0.000000
# 3 -0.004952 -0.004511 0.018377 0.000000 -0.010019 0.000000
# 4 0.000000 0.000000 0.000000 0.025243 0.000000 0.005286
# 5 0.004122 0.004433 -0.010019 0.000000 0.045174 0.000000
# 6 0.000000 0.000000 0.000000 0.005286 0.000000 0.043998
#
#
# Mechanical properties :
#
#
# Convention : Reuss Voigt Hill
#
# Bulk Modulus (GPa) = 48.61092 52.11031 50.36062
# Shear Modulus (GPa) = 26.37845 30.27510 28.32677
#
# Velocity S-wave (km/s) = 3.53702 3.78927 3.66532
# Velocity P-wave (km/s) = 6.30360 6.62262 6.46508
#
# Compressibility (1/GPa) = 0.02057151
#
# Stress axis : x y z
#
# Youngs Moduli (GPa) = 62.58308 99.32431 54.41548
#
# Poissons Ratio (x) = 0.24457 0.26949
# Poissons Ratio (y) = 0.15410 0.24549
# Poissons Ratio (z) = 0.30994 0.44810
#
# Static dielectric constant tensor:
#      x y z
#    x 3.790240 0.000000 0.137660 
#    y 0.000000 4.207900 0.000000 
#    z 0.137660 0.000000 3.964100 
# 
# 
# High freq. dielectric constant tensor:
#      x y z
#    x 1.809520 0.000000 0.011420 
#    y 0.000000 1.823660 0.000000 
#    z 0.011420 0.000000 1.819280 
# 
# From -- ./inp_files/10217.got.cif
#   From: 2010.03.12/outbox.cif.g09.slc.cpg/sg14_6_cif.got.tgz:10217.got - 2010.03.31 13:35:05.
