data_PCOD8123078
_publ_section_title
;
Structure prediction by ZEFSAII (Michael W. Deem and Ramdas Pophale) SiO2 
 PCOD8123078
Probable space group: P 2/C
;
_chemical_formula_sum "Si O2"
_cell_formula_units_Z 20
_cell_length_a 8.390644
_cell_length_b 11.301417
_cell_length_c 11.550159
_cell_angle_alpha 90.000000
_cell_angle_beta 56.056811
_cell_angle_gamma 90.000000
_cell_volume 908.616288
_symmetry_space_group_name_H-M "P 2/C"
_symmetry_group_IT_number 13
_symmetry_cell_setting 'monoclinic'
loop_
_space_group_symop_operation_xyz
x,y,z
-x,y,1/2-z
-x,-y,-z
x,-y,1/2+z
loop_
_atom_site_type_symbol
_atom_site_label
_atom_site_fract_x
_atom_site_fract_y
_atom_site_fract_z
Si Si1 0.000000 0.167870 0.750000
Si Si2 0.673294 0.301621 0.982262
Si Si3 0.196740 0.040939 0.864242
Si Si4 0.500000 0.155684 0.250000
Si Si5 0.110811 0.470737 0.077811
Si Si6 0.381552 0.267368 0.902697
O O1 0.111150 0.248748 0.612264
O O2 0.156617 0.091131 0.753467
O O3 0.706743 0.441728 0.983860
O O4 0.550626 0.259902 0.924745
O O5 0.554040 0.248670 0.132751
O O6 0.307746 0.135659 0.899617
O O7 0.321336 0.925400 0.789333
O O8 0.000000 0.000000 0.000000
O O9 0.000000 0.473024 0.250000
O O10 0.199417 0.341048 0.022504
O O11 0.000000 0.500000 0.000000
O O12 0.500000 0.327927 0.750000
#
# Coordination Sequence:
#
# PCOD8123078 Si02
#       6
#     2   4   4   2   4   4
#     4  12  22  46  72  96 148 194 232 304 372 428
#     4  12  26  46  73 105 147 188 245 303 369 444
#     4  12  26  45  71 108 147 194 245 303 366 439
#     4  12  28  44  72 108 146 194 248 294 370 444
#     4  12  28  49  77 109 148 194 248 308 380 449
#     4  12  26  47  73 107 146 191 243 307 374 440
#
# _framework density 22.011489999999998
#
# number of rings (size 3 to 8) (size 9 to 14) (size 15 to 20)
#    0.000    0.000    6.000    3.000    7.000    1.600 
#    0.000    0.000    0.000    0.000    0.000    0.000 
#    0.000    0.000    0.000    0.000    0.000    0.000 
#
# Total GULP energy -247796.523789 kJ/mol
# GULP energy per Si atom -12389.826189 kJ/mol
# Density = 2.196139 g / cm^3
# Si number density = 22.011490 Si / 1000 Ang^3
#
#
#
# Elastic Constant Matrix: (Units=GPa)
#
#
# Indices 1 2 3 4 5 6 
#
# 1 110.0694 27.1441 47.4812 0.0000 10.2706 0.0000
# 2 27.1441 104.6566 59.0974 0.0000 -2.5963 0.0000
# 3 47.4812 59.0974 171.8888 0.0000 2.1778 0.0000
# 4 0.0000 0.0000 0.0000 47.5745 0.0000 -6.8668
# 5 10.2706 -2.5963 2.1778 0.0000 41.4917 0.0000
# 6 0.0000 0.0000 0.0000 -6.8668 0.0000 -117.2580
#
#
#
# Elastic Compliance Matrix: (Units=1/GPa)
#
#
# Indices 1 2 3 4 5 6 
#
# 1 0.010741 -0.001482 -0.002424 0.000000 -0.002624 0.000000
# 2 -0.001482 0.012100 -0.003767 0.000000 0.001322 0.000000
# 3 -0.002424 -0.003767 0.007783 0.000000 -0.000044 0.000000
# 4 0.000000 0.000000 0.000000 0.020843 0.000000 -0.001221
# 5 -0.002624 0.001322 -0.000044 0.000000 0.024836 0.000000
# 6 0.000000 0.000000 0.000000 -0.001221 0.000000 -0.008457
#
#
# Mechanical properties :
#
#
# Convention : Reuss Voigt Hill
#
# Bulk Modulus (GPa) = 65.45911 72.67336 69.06623
# Shear Modulus (GPa) = 56.63393 11.22112 33.92752
#
# Velocity S-wave (km/s) = 5.07790 2.26029 3.93027
# Velocity P-wave (km/s) = 8.01145 6.31662 7.21398
#
# Compressibility (1/GPa) = 0.01527671
#
# Stress axis : x y z
#
# Youngs Moduli (GPa) = 93.09838 82.64754 128.48201
#
# Poissons Ratio (x) = 0.12249 0.31148
# Poissons Ratio (y) = 0.13798 0.48403
# Poissons Ratio (z) = 0.22570 0.31136
#
# Static dielectric constant tensor:
#      x y z
#    x 4.106570 0.000000 0.065910 
#    y 0.000000 4.129440 0.000000 
#    z 0.065910 0.000000 4.036210 
# 
# 
# High freq. dielectric constant tensor:
#      x y z
#    x 1.879750 0.000000 -0.004120 
#    y 0.000000 1.871070 0.000000 
#    z -0.004120 0.000000 1.882030 
# 
# From -- ./inp_files/29297.got.cif
#   From: 2010.06.25/outbox.cif.g09.slc.cpg/sg13_15_cif.got.tgz:29297.got - 2010.06.28 04:50:58.
