data_PCOD8123708
_publ_section_title
;
Structure prediction by ZEFSAII (Michael W. Deem and Ramdas Pophale) SiO2 
 PCOD8123708
Probable space group: P 21/C
;
_chemical_formula_sum "Si O2"
_cell_formula_units_Z 32
_cell_length_a 8.093228
_cell_length_b 13.372623
_cell_length_c 15.325424
_cell_angle_alpha 90.000000
_cell_angle_beta 71.652940
_cell_angle_gamma 90.000000
_cell_volume 1574.322217
_symmetry_space_group_name_H-M "P 21/C"
_symmetry_group_IT_number 14
_symmetry_cell_setting 'monoclinic'
loop_
_space_group_symop_operation_xyz
x,y,z
-x,1/2+y,1/2-z
-x,-y,-z
x,1/2-y,1/2+z
loop_
_atom_site_type_symbol
_atom_site_label
_atom_site_fract_x
_atom_site_fract_y
_atom_site_fract_z
Si Si1 0.269148 0.150643 0.267626
Si Si2 0.920706 0.627893 0.364849
Si Si3 0.592003 0.239299 0.755355
Si Si4 0.238942 0.931372 0.706630
Si Si5 0.169921 0.729846 0.446411
Si Si6 0.477375 0.473447 0.297049
Si Si7 0.201387 0.984455 0.988650
Si Si8 0.042056 0.919134 0.566705
O O1 0.159201 0.189625 0.202695
O O2 0.385055 0.240131 0.285044
O O3 0.391834 0.063853 0.210889
O O4 0.142870 0.113158 0.364496
O O5 0.775515 0.550185 0.427179
O O6 0.084305 0.563249 0.303053
O O7 0.989240 0.706641 0.425332
O O8 0.684547 0.316997 0.806507
O O9 0.675776 0.248646 0.646371
O O10 0.598980 0.124546 0.783888
O O11 0.384496 0.009762 0.717184
O O12 0.168842 0.961693 0.622265
O O13 0.229732 0.634793 0.495446
O O14 0.142730 0.824982 0.511026
O O15 0.331900 0.471276 0.395670
O O16 0.000000 0.000000 0.000000
O O17 0.000000 0.000000 0.500000
#
# Coordination Sequence:
#
# PCOD8123708 Si02
#       8
#     4   4   4   4   4   4   4   4
#     4  10  22  39  56  90 120 150 204 247 296 365
#     4   9  19  36  62  85 118 152 194 253 303 354
#     4  10  21  39  59  86 119 164 188 247 316 345
#     4   9  20  42  58  85 124 155 198 247 298 362
#     4  10  20  40  59  83 122 152 200 254 294 357
#     4  11  20  38  64  85 125 159 194 250 305 363
#     4  10  18  35  62  89 116 154 201 251 309 350
#     4  11  24  40  63  85 116 166 208 239 289 371
#
# _framework density 20.326205999999999
#
# number of rings (size 3 to 8) (size 9 to 14) (size 15 to 20)
#    0.000    2.000    5.000    0.750    3.500    2.500 
#    2.250   10.625    0.000    0.000    0.000    0.000 
#    0.000    0.000    0.000    0.000    0.000    0.000 
#
# Total GULP energy -396569.547340 kJ/mol
# GULP energy per Si atom -12392.798354 kJ/mol
# Density = 2.027994 g / cm^3
# Si number density = 20.326206 Si / 1000 Ang^3
#
#
#
# Elastic Constant Matrix: (Units=GPa)
#
#
# Indices 1 2 3 4 5 6 
#
# 1 61.3363 2.6948 26.6006 0.0000 0.1127 0.0000
# 2 2.6948 80.0630 23.6863 0.0000 -0.0516 0.0000
# 3 26.6006 23.6863 86.2008 0.0000 1.0553 0.0000
# 4 0.0000 0.0000 0.0000 30.0781 0.0000 -5.6223
# 5 0.1127 -0.0516 1.0553 0.0000 31.7072 0.0000
# 6 0.0000 0.0000 0.0000 -5.6223 0.0000 24.0904
#
#
#
# Elastic Compliance Matrix: (Units=1/GPa)
#
#
# Indices 1 2 3 4 5 6 
#
# 1 0.018926 0.001188 -0.006169 0.000000 0.000140 0.000000
# 2 0.001188 0.013671 -0.004125 0.000000 0.000155 0.000000
# 3 -0.006169 -0.004125 0.014644 0.000000 -0.000472 0.000000
# 4 0.000000 0.000000 0.000000 0.034763 0.000000 0.008113
# 5 0.000140 0.000155 -0.000472 0.000000 0.031554 0.000000
# 6 0.000000 0.000000 0.000000 0.008113 0.000000 0.043404
#
#
# Mechanical properties :
#
#
# Convention : Reuss Voigt Hill
#
# Bulk Modulus (GPa) = 34.44771 37.06264 35.75517
# Shear Modulus (GPa) = 27.04906 28.81637 27.93272
#
# Velocity S-wave (km/s) = 3.65190 3.76931 3.71107
# Velocity P-wave (km/s) = 5.89627 6.10059 5.99930
#
# Compressibility (1/GPa) = 0.02902951
#
# Stress axis : x y z
#
# Youngs Moduli (GPa) = 52.83641 73.14958 68.28914
#
# Poissons Ratio (x) = -0.08690 0.42125
# Poissons Ratio (y) = -0.06277 0.28169
# Poissons Ratio (z) = 0.32593 0.30174
#
# Static dielectric constant tensor:
#      x y z
#    x 3.840090 0.000000 -0.081450 
#    y 0.000000 3.708940 0.000000 
#    z -0.081450 0.000000 3.906130 
# 
# 
# High freq. dielectric constant tensor:
#      x y z
#    x 1.794730 0.000000 -0.009580 
#    y 0.000000 1.777420 0.000000 
#    z -0.009580 0.000000 1.790900 
# 
# From -- ./inp_files/40901.got.cif
#   From: 2010.03.12/outbox.cif.g09.slc.cpg/sg14_21_cif.got.tgz:40901.got - 2010.03.31 13:35:05.
