data_PCOD8123432
_publ_section_title
;
Structure prediction by ZEFSAII (Michael W. Deem and Ramdas Pophale) SiO2 
 PCOD8123432
Probable space group: P 21/C
;
_chemical_formula_sum "Si O2"
_cell_formula_units_Z 32
_cell_length_a 18.044097
_cell_length_b 21.848001
_cell_length_c 4.937709
_cell_angle_alpha 90.000000
_cell_angle_beta 100.746719
_cell_angle_gamma 90.000000
_cell_volume 1912.439501
_symmetry_space_group_name_H-M "P 21/C"
_symmetry_group_IT_number 14
_symmetry_cell_setting 'monoclinic'
loop_
_space_group_symop_operation_xyz
x,y,z
-x,1/2+y,1/2-z
-x,-y,-z
x,1/2-y,1/2+z
loop_
_atom_site_type_symbol
_atom_site_label
_atom_site_fract_x
_atom_site_fract_y
_atom_site_fract_z
Si Si1 0.301046 0.212541 0.303530
Si Si2 0.476967 0.289126 0.906502
Si Si3 0.594232 0.022424 0.807594
Si Si4 0.213978 0.093062 0.360217
Si Si5 0.059797 0.444651 0.865530
Si Si6 0.089306 0.522203 0.383545
Si Si7 0.755618 0.986860 0.116443
Si Si8 0.475516 0.579068 0.237222
O O1 0.280200 0.270117 0.482449
O O2 0.388836 0.196139 0.361625
O O3 0.257098 0.156335 0.402583
O O4 0.500399 0.265650 0.218837
O O5 0.518652 0.350443 0.841136
O O6 0.587602 0.048612 0.499982
O O7 0.556391 0.955075 0.774090
O O8 0.551178 0.070403 0.972647
O O9 0.679440 0.018755 0.968345
O O10 0.125145 0.106145 0.365471
O O11 0.250535 0.042557 0.588678
O O12 0.222210 0.068849 0.062533
O O13 0.084676 0.502666 0.693373
O O14 0.973752 0.424386 0.721974
O O15 0.061452 0.464915 0.178938
O O16 0.175987 0.537439 0.356816
#
# Coordination Sequence:
#
# PCOD8123432 Si02
#       8
#     4   4   4   4   4   4   4   4
#     4  10  20  31  43  61  84 110 144 185 218 246
#     4  10  20  33  49  65  84 114 150 188 223 258
#     4  10  20  31  46  66  91 121 144 178 225 272
#     4  10  18  28  44  62  87 118 147 175 209 261
#     4   8  14  24  38  58  82 112 138 162 198 236
#     4   8  14  24  38  58  85 109 136 168 194 238
#     4  10  18  28  44  65  87 117 147 172 213 264
#     4  10  20  33  46  64  90 116 148 183 222 271
#
# _framework density 16.732555999999999
#
# number of rings (size 3 to 8) (size 9 to 14) (size 15 to 20)
#    0.000    2.500    0.000    3.000    0.000    4.000 
#    0.000    0.000    0.000    0.000    0.000    0.000 
#    0.000    6.000    0.000    0.000    0.000    0.000 
#
# Total GULP energy -396422.164085 kJ/mol
# GULP energy per Si atom -12388.192628 kJ/mol
# Density = 1.669447 g / cm^3
# Si number density = 16.732556 Si / 1000 Ang^3
#
#
#
# Elastic Constant Matrix: (Units=GPa)
#
#
# Indices 1 2 3 4 5 6 
#
# 1 79.3376 29.0222 10.7170 0.0000 17.5681 0.0000
# 2 29.0222 47.2857 2.0377 0.0000 0.0038 0.0000
# 3 10.7170 2.0377 64.6334 0.0000 1.1075 0.0000
# 4 0.0000 0.0000 0.0000 12.7141 0.0000 -7.5326
# 5 17.5681 0.0038 1.1075 0.0000 27.6769 0.0000
# 6 0.0000 0.0000 0.0000 -7.5326 0.0000 16.7900
#
#
#
# Elastic Compliance Matrix: (Units=1/GPa)
#
#
# Indices 1 2 3 4 5 6 
#
# 1 0.020331 -0.012358 -0.002762 0.000000 -0.012793 0.000000
# 2 -0.012358 0.028689 0.001011 0.000000 0.007800 0.000000
# 3 -0.002762 0.001011 0.015879 0.000000 0.001118 0.000000
# 4 0.000000 0.000000 0.000000 0.107127 0.000000 0.048061
# 5 -0.012793 0.007800 0.001118 0.000000 0.044206 0.000000
# 6 0.000000 0.000000 0.000000 0.048061 0.000000 0.081121
#
#
# Mechanical properties :
#
#
# Convention : Reuss Voigt Hill
#
# Bulk Modulus (GPa) = 27.26313 30.53451 28.89882
# Shear Modulus (GPa) = 14.80173 21.40152 18.10162
#
# Velocity S-wave (km/s) = 2.97746 3.58024 3.29267
# Velocity P-wave (km/s) = 5.30558 5.94802 5.63596
#
# Compressibility (1/GPa) = 0.03667958
#
# Stress axis : x y z
#
# Youngs Moduli (GPa) = 49.18569 34.85654 62.97674
#
# Poissons Ratio (x) = 0.43077 0.17396
# Poissons Ratio (y) = 0.60786 -0.06367
# Poissons Ratio (z) = 0.13587 -0.03524
#
# Static dielectric constant tensor:
#      x y z
#    x 3.364720 0.000000 -0.017130 
#    y 0.000000 2.644260 0.000000 
#    z -0.017130 0.000000 3.384680 
# 
# 
# High freq. dielectric constant tensor:
#      x y z
#    x 1.643300 0.000000 -0.007420 
#    y 0.000000 1.576600 0.000000 
#    z -0.007420 0.000000 1.674340 
# 
# From -- ./inp_files/4236.got.cif
#   From: 2010.03.12/outbox.cif.g09.slc.cpg/sg14_3_cif.got.tgz:4236.got - 2010.03.31 13:35:05.
