data_PCOD8123714
_publ_section_title
;
Structure prediction by ZEFSAII (Michael W. Deem and Ramdas Pophale) SiO2 
 PCOD8123714
Probable space group: P 21/C
;
_chemical_formula_sum "Si O2"
_cell_formula_units_Z 32
_cell_length_a 29.823934
_cell_length_b 6.548786
_cell_length_c 17.980831
_cell_angle_alpha 90.000000
_cell_angle_beta 26.793284
_cell_angle_gamma 90.000000
_cell_volume 1583.045137
_symmetry_space_group_name_H-M "P 21/C"
_symmetry_group_IT_number 14
_symmetry_cell_setting 'monoclinic'
loop_
_space_group_symop_operation_xyz
x,y,z
-x,1/2+y,1/2-z
-x,-y,-z
x,1/2-y,1/2+z
loop_
_atom_site_type_symbol
_atom_site_label
_atom_site_fract_x
_atom_site_fract_y
_atom_site_fract_z
Si Si1 0.534856 0.261870 0.807264
Si Si2 0.072108 0.266812 0.565455
Si Si3 0.676000 0.591680 0.122240
Si Si4 0.770638 0.974411 0.739458
Si Si5 0.361689 0.302551 0.171293
Si Si6 0.786801 0.355402 0.626283
Si Si7 0.126304 0.541341 0.113218
Si Si8 0.619495 0.885084 0.083685
O O1 0.466644 0.144282 0.848863
O O2 0.584246 0.456773 0.697160
O O3 0.623610 0.125519 0.706837
O O4 0.470553 0.321741 0.974601
O O5 0.120726 0.137373 0.425219
O O6 0.126705 0.480494 0.495576
O O7 0.076536 0.127994 0.633258
O O8 0.958208 0.331306 0.717243
O O9 0.634034 0.737703 0.249262
O O10 0.646284 0.677082 0.085736
O O11 0.796264 0.570916 0.946440
O O12 0.705444 0.863921 0.772115
O O13 0.780076 0.216378 0.710446
O O14 0.721026 0.956488 0.893379
O O15 0.317061 0.529602 0.231885
O O16 0.806774 0.202718 0.529615
#
# Coordination Sequence:
#
# PCOD8123714 Si02
#       8
#     4   4   4   4   4   4   4   4
#     4  11  25  42  63  88 128 179 211 260 316 377
#     4  10  19  36  64  95 129 158 201 257 331 385
#     4  12  24  41  62  96 129 161 218 270 306 372
#     4   9  21  39  62  93 126 169 210 257 315 386
#     4  10  22  38  63  96 125 159 216 266 316 366
#     4  10  18  35  63  89 129 159 199 254 319 373
#     4  11  21  36  63 101 125 160 203 264 321 379
#     4  11  25  43  62  86 129 176 219 252 319 378
#
# _framework density 20.214205
#
# number of rings (size 3 to 8) (size 9 to 14) (size 15 to 20)
#    0.000    1.500    6.250    0.375    3.500    1.500 
#    0.000    0.625    0.000    1.500    0.000    0.000 
#    0.000    0.000    0.000    0.000    0.000    0.000 
#
# Total GULP energy -396754.000974 kJ/mol
# GULP energy per Si atom -12398.562530 kJ/mol
# Density = 2.016820 g / cm^3
# Si number density = 20.214205 Si / 1000 Ang^3
#
#
#
# Elastic Constant Matrix: (Units=GPa)
#
#
# Indices 1 2 3 4 5 6 
#
# 1 53.8040 11.1746 26.9978 0.0000 -7.2238 0.0000
# 2 11.1746 87.9054 2.0248 0.0000 -27.0144 0.0000
# 3 26.9978 2.0248 43.2530 0.0000 -75.6775 0.0000
# 4 0.0000 0.0000 0.0000 35.4335 0.0000 -6.0635
# 5 -7.2238 -27.0144 -75.6775 0.0000 -36.2226 0.0000
# 6 0.0000 0.0000 0.0000 -6.0635 0.0000 17.7026
#
#
#
# Elastic Compliance Matrix: (Units=1/GPa)
#
#
# Indices 1 2 3 4 5 6 
#
# 1 0.021626 -0.001031 -0.004221 0.000000 0.005275 0.000000
# 2 -0.001031 0.011029 -0.002987 0.000000 -0.001780 0.000000
# 3 -0.004221 -0.002987 0.006716 0.000000 -0.010961 0.000000
# 4 0.000000 0.000000 0.000000 0.029979 0.000000 0.010268
# 5 0.005275 -0.001780 -0.010961 0.000000 -0.004431 0.000000
# 6 0.000000 0.000000 0.000000 0.010268 0.000000 0.060006
#
#
# Mechanical properties :
#
#
# Convention : Reuss Voigt Hill
#
# Bulk Modulus (GPa) = 43.68067 29.48408 36.58238
# Shear Modulus (GPa) = 33.54941 13.03371 23.29156
#
# Velocity S-wave (km/s) = 4.07835 2.54201 3.39814
# Velocity P-wave (km/s) = 6.62066 4.82008 5.79078
#
# Compressibility (1/GPa) = 0.02289342
#
# Stress axis : x y z
#
# Youngs Moduli (GPa) = 46.23975 90.67180 148.90432
#
# Poissons Ratio (x) = 0.09347 0.62856
# Poissons Ratio (y) = 0.04767 0.44473
# Poissons Ratio (z) = 0.19519 0.27081
#
# Static dielectric constant tensor:
#      x y z
#    x 3.318060 0.000000 -0.050200 
#    y 0.000000 3.795980 0.000000 
#    z -0.050200 0.000000 3.970570 
# 
# 
# High freq. dielectric constant tensor:
#      x y z
#    x 1.748690 0.000000 -0.003590 
#    y 0.000000 1.804430 0.000000 
#    z -0.003590 0.000000 1.801430 
# 
# From -- ./inp_files/62482.got.cif
#   From: 2010.03.12/outbox.cif.g09.slc.cpg/sg14_32_cif.got.tgz:62482.got - 2010.03.31 13:35:05.
