data_PCOD8123153
_publ_section_title
;
Structure prediction by ZEFSAII (Michael W. Deem and Ramdas Pophale) SiO2 
 PCOD8123153
Probable space group: P 2/C
;
_chemical_formula_sum "Si O2"
_cell_formula_units_Z 20
_cell_length_a 23.059089
_cell_length_b 4.959746
_cell_length_c 16.069312
_cell_angle_alpha 90.000000
_cell_angle_beta 150.746953
_cell_angle_gamma 90.000000
_cell_volume 898.074666
_symmetry_space_group_name_H-M "P 2/C"
_symmetry_group_IT_number 13
_symmetry_cell_setting 'monoclinic'
loop_
_space_group_symop_operation_xyz
x,y,z
-x,y,1/2-z
-x,-y,-z
x,-y,1/2+z
loop_
_atom_site_type_symbol
_atom_site_label
_atom_site_fract_x
_atom_site_fract_y
_atom_site_fract_z
Si Si1 0.867305 0.466741 0.363620
Si Si2 0.264844 0.882173 0.551070
Si Si3 0.868758 0.608041 0.557586
Si Si4 0.728684 0.059311 0.628621
Si Si5 0.499090 0.757442 0.938845
O O1 0.859941 0.509659 0.452423
O O2 0.819789 0.702683 0.247676
O O3 0.000000 0.500000 0.500000
O O4 0.790061 0.198380 0.248960
O O5 0.170049 0.638187 0.431202
O O6 0.293425 0.001600 0.495955
O O7 0.382572 0.751988 0.736820
O O8 0.216378 0.132685 0.543703
O O9 0.000000 0.697502 0.750000
O O10 0.611250 0.189856 0.521024
O O11 0.500000 0.500000 0.000000
O O12 0.500000 0.000000 0.000000
#
# Coordination Sequence:
#
# PCOD8123153 Si02
#       5
#     4   4   4   4   4
#     4  12  25  44  68  98 135 179 228 283 344 412
#     4  12  25  44  68  99 135 177 227 284 346 414
#     4  12  25  44  68  98 135 179 228 284 345 413
#     4  12  25  44  68  99 135 177 226 283 344 411
#     4  12  25  44  69  98 133 176 223 276 339 410
#
# _framework density 22.269863999999998
#
# number of rings (size 3 to 8) (size 9 to 14) (size 15 to 20)
#    0.000    0.000    0.000   12.600    0.000    0.000 
#    0.000    6.000    0.000    0.000    0.000    0.000 
#    0.000    0.000    0.000    0.000    0.000    0.000 
#
# Total GULP energy -247869.839933 kJ/mol
# GULP energy per Si atom -12393.491997 kJ/mol
# Density = 2.221918 g / cm^3
# Si number density = 22.269864 Si / 1000 Ang^3
#
#
#
# Elastic Constant Matrix: (Units=GPa)
#
#
# Indices 1 2 3 4 5 6 
#
# 1 155.5764 55.5136 75.9203 0.0000 12.6740 0.0000
# 2 55.5136 166.8965 60.6663 0.0000 6.5993 0.0000
# 3 75.9203 60.6663 150.7681 0.0000 -3.7952 0.0000
# 4 0.0000 0.0000 0.0000 37.9897 0.0000 0.9354
# 5 12.6740 6.5993 -3.7952 0.0000 55.4260 0.0000
# 6 0.0000 0.0000 0.0000 0.9354 0.0000 39.0085
#
#
#
# Elastic Compliance Matrix: (Units=1/GPa)
#
#
# Indices 1 2 3 4 5 6 
#
# 1 0.009106 -0.001471 -0.004049 0.000000 -0.002184 0.000000
# 2 -0.001471 0.007315 -0.002220 0.000000 -0.000687 0.000000
# 3 -0.004049 -0.002220 0.009611 0.000000 0.001848 0.000000
# 4 0.000000 0.000000 0.000000 0.026338 0.000000 -0.000632
# 5 -0.002184 -0.000687 0.001848 0.000000 0.018750 0.000000
# 6 0.000000 0.000000 0.000000 -0.000632 0.000000 0.025651
#
#
# Mechanical properties :
#
#
# Convention : Reuss Voigt Hill
#
# Bulk Modulus (GPa) = 94.75613 95.27127 95.01370
# Shear Modulus (GPa) = 43.18962 45.22755 44.20859
#
# Velocity S-wave (km/s) = 4.40861 4.51142 4.46031
# Velocity P-wave (km/s) = 8.27985 8.36723 8.32365
#
# Compressibility (1/GPa) = 0.01055341
#
# Stress axis : x y z
#
# Youngs Moduli (GPa) = 109.81513 136.70282 104.04461
#
# Poissons Ratio (x) = 0.20108 0.42124
# Poissons Ratio (y) = 0.16153 0.23099
# Poissons Ratio (z) = 0.44460 0.30349
#
# Static dielectric constant tensor:
#      x y z
#    x 4.509430 0.000000 0.289400 
#    y 0.000000 4.202350 0.000000 
#    z 0.289400 0.000000 4.266440 
# 
# 
# High freq. dielectric constant tensor:
#      x y z
#    x 1.896460 0.000000 0.002510 
#    y 0.000000 1.894020 0.000000 
#    z 0.002510 0.000000 1.895830 
# 
# From -- ./inp_files/56702.got.cif
#   From: 2010.06.25/outbox.cif.g09.slc.cpg/sg13_29_cif.got.tgz:56702.got - 2010.06.28 04:50:58.
