data_PCOD8123581
_publ_section_title
;
Structure prediction by ZEFSAII (Michael W. Deem and Ramdas Pophale) SiO2 
 PCOD8123581
Probable space group: P 21/C
;
_chemical_formula_sum "Si O2"
_cell_formula_units_Z 32
_cell_length_a 8.520200
_cell_length_b 14.872118
_cell_length_c 17.024547
_cell_angle_alpha 90.000000
_cell_angle_beta 46.718417
_cell_angle_gamma 90.000000
_cell_volume 1570.454940
_symmetry_space_group_name_H-M "P 21/C"
_symmetry_group_IT_number 14
_symmetry_cell_setting 'monoclinic'
loop_
_space_group_symop_operation_xyz
x,y,z
-x,1/2+y,1/2-z
-x,-y,-z
x,1/2-y,1/2+z
loop_
_atom_site_type_symbol
_atom_site_label
_atom_site_fract_x
_atom_site_fract_y
_atom_site_fract_z
Si Si1 0.285306 0.092734 0.945001
Si Si2 0.524837 0.929997 0.827373
Si Si3 0.865935 0.377835 0.095639
Si Si4 0.681649 0.556544 0.108829
Si Si5 0.238189 0.631620 0.219657
Si Si6 0.726976 0.331484 0.318338
Si Si7 0.145425 0.680886 0.430620
Si Si8 0.152556 0.489070 0.652791
O O1 0.199441 0.033933 0.047107
O O2 0.090234 0.141583 0.966165
O O3 0.465366 0.164117 0.911697
O O4 0.397299 0.022083 0.847241
O O5 0.666821 0.902397 0.702735
O O6 0.342962 0.857606 0.913545
O O7 0.664676 0.944607 0.856293
O O8 0.707718 0.448754 0.107708
O O9 0.805387 0.364046 0.206480
O O10 0.847310 0.285898 0.054195
O O11 0.113947 0.407246 0.007967
O O12 0.472815 0.586111 0.130650
O O13 0.215248 0.727514 0.181317
O O14 0.188658 0.655665 0.325968
O O15 0.071748 0.557376 0.243772
O O16 0.842224 0.402055 0.338661
#
# Coordination Sequence:
#
# PCOD8123581 Si02
#       8
#     4   4   4   4   4   4   4   4
#     4  10  18  33  57  78 105 138 173 218 267 317
#     4  10  18  34  54  78 107 134 171 221 270 305
#     4  10  19  34  56  77 105 143 177 215 268 314
#     4  10  19  35  56  75 106 139 178 221 259 312
#     4   9  20  35  54  79 106 140 184 218 256 322
#     4  10  18  35  58  76 104 148 178 211 272 319
#     4   9  19  32  54  83 104 133 179 220 263 319
#     4  10  20  36  54  78 109 141 173 221 266 313
#
# _framework density 20.376261
#
# number of rings (size 3 to 8) (size 9 to 14) (size 15 to 20)
#    0.000    2.250    2.500    2.625    0.000    0.000 
#    2.250    3.125    0.000    0.000    0.000    0.000 
#    0.000    0.000    0.000    0.000    0.000    0.000 
#
# Total GULP energy -396572.319388 kJ/mol
# GULP energy per Si atom -12392.884981 kJ/mol
# Density = 2.032988 g / cm^3
# Si number density = 20.376261 Si / 1000 Ang^3
#
#
#
# Elastic Constant Matrix: (Units=GPa)
#
#
# Indices 1 2 3 4 5 6 
#
# 1 52.8002 50.9822 19.1114 0.0000 -23.0498 0.0000
# 2 50.9822 129.9270 40.4924 0.0000 -32.0516 0.0000
# 3 19.1114 40.4924 78.4378 0.0000 -22.3510 0.0000
# 4 0.0000 0.0000 0.0000 22.8171 0.0000 -6.3403
# 5 -23.0498 -32.0516 -22.3510 0.0000 31.5067 0.0000
# 6 0.0000 0.0000 0.0000 -6.3403 0.0000 22.5118
#
#
#
# Elastic Compliance Matrix: (Units=1/GPa)
#
#
# Indices 1 2 3 4 5 6 
#
# 1 0.035636 -0.010330 0.001359 0.000000 0.016527 0.000000
# 2 -0.010330 0.013831 -0.003468 0.000000 0.004052 0.000000
# 3 0.001359 -0.003468 0.016903 0.000000 0.009457 0.000000
# 4 0.000000 0.000000 0.000000 0.047548 0.000000 0.013392
# 5 0.016527 0.004052 0.009457 0.000000 0.054661 0.000000
# 6 0.000000 0.000000 0.000000 0.013392 0.000000 0.048193
#
#
# Mechanical properties :
#
#
# Convention : Reuss Voigt Hill
#
# Bulk Modulus (GPa) = 24.10121 53.59300 38.84710
# Shear Modulus (GPa) = 19.57096 25.40571 22.48834
#
# Velocity S-wave (km/s) = 3.10252 3.53488 3.32573
# Velocity P-wave (km/s) = 4.96870 6.55891 5.81838
#
# Compressibility (1/GPa) = 0.04149169
#
# Stress axis : x y z
#
# Youngs Moduli (GPa) = 28.06120 72.30373 59.16077
#
# Poissons Ratio (x) = 0.74690 -0.08041
# Poissons Ratio (y) = 0.28987 0.20519
# Poissons Ratio (z) = -0.03814 0.25077
#
# Static dielectric constant tensor:
#      x y z
#    x 3.371440 0.000000 -0.362350 
#    y 0.000000 4.050810 0.000000 
#    z -0.362350 0.000000 3.906420 
# 
# 
# High freq. dielectric constant tensor:
#      x y z
#    x 1.756790 0.000000 -0.022700 
#    y 0.000000 1.799450 0.000000 
#    z -0.022700 0.000000 1.803210 
# 
# From -- ./inp_files/65821.got.cif
#   From: 2010.03.12/outbox.cif.g09.slc.cpg/sg14_33_cif.got.tgz:65821.got - 2010.03.31 13:35:05.
