data_PCOD8123388
_publ_section_title
;
Structure prediction by ZEFSAII (Michael W. Deem and Ramdas Pophale) SiO2 
 PCOD8123388
Probable space group: P 21/C
;
_chemical_formula_sum "Si O2"
_cell_formula_units_Z 32
_cell_length_a 9.121237
_cell_length_b 13.663730
_cell_length_c 25.710151
_cell_angle_alpha 90.000000
_cell_angle_beta 152.192647
_cell_angle_gamma 90.000000
_cell_volume 1494.787422
_symmetry_space_group_name_H-M "P 21/C"
_symmetry_group_IT_number 14
_symmetry_cell_setting 'monoclinic'
loop_
_space_group_symop_operation_xyz
x,y,z
-x,1/2+y,1/2-z
-x,-y,-z
x,1/2-y,1/2+z
loop_
_atom_site_type_symbol
_atom_site_label
_atom_site_fract_x
_atom_site_fract_y
_atom_site_fract_z
Si Si1 0.503599 0.038917 0.889042
Si Si2 0.699326 0.004509 0.755967
Si Si3 0.696521 0.877958 0.018214
Si Si4 0.137420 0.850833 0.920580
Si Si5 0.767836 0.494624 0.801363
Si Si6 0.050861 0.301050 0.856044
Si Si7 0.286701 0.857920 0.443700
Si Si8 0.140551 0.868026 0.280372
O O1 0.195147 0.081369 0.819489
O O2 0.463642 0.042578 0.814333
O O3 0.798505 0.105603 0.000908
O O4 0.551835 0.924016 0.920125
O O5 0.635065 0.052883 0.679303
O O6 0.997229 0.060112 0.872712
O O7 0.382660 0.014755 0.689991
O O8 0.811929 0.890911 0.792953
O O9 0.812492 0.764975 0.053043
O O10 0.434558 0.887597 0.980586
O O11 0.106685 0.734006 0.913032
O O12 0.804960 0.379133 0.801528
O O13 0.112611 0.544235 0.907806
O O14 0.889339 0.233131 0.761564
O O15 0.348757 0.359015 0.923804
O O16 0.288655 0.843814 0.382086
#
# Coordination Sequence:
#
# PCOD8123388 Si02
#       8
#     4   4   4   4   4   4   4   4
#     4  10  17  36  61  91 104 149 213 247 281 341
#     4  10  19  36  57  84 127 152 182 248 301 354
#     4   9  17  33  63  82 110 145 201 255 286 324
#     4  10  17  34  63  87 111 149 206 262 284 323
#     4  11  25  34  54  90 127 157 190 231 309 365
#     4  10  21  37  56  86 121 149 198 247 287 349
#     4  10  22  37  62  85 115 156 203 250 283 347
#     4  10  19  36  66  88 110 151 205 243 295 341
#
# _framework density 21.407727000000001
#
# number of rings (size 3 to 8) (size 9 to 14) (size 15 to 20)
#    0.000    2.000    5.000    1.125    3.500    4.000 
#    0.000    0.625    8.250    0.000    0.000    0.000 
#    0.000    0.000    0.000    0.000    0.000    0.000 
#
# Total GULP energy -396494.970084 kJ/mol
# GULP energy per Si atom -12390.467815 kJ/mol
# Density = 2.135900 g / cm^3
# Si number density = 21.407727 Si / 1000 Ang^3
#
#
#
# Elastic Constant Matrix: (Units=GPa)
#
#
# Indices 1 2 3 4 5 6 
#
# 1 73.5574 25.3716 12.6834 0.0000 4.9756 0.0000
# 2 25.3716 90.2398 3.5451 0.0000 -0.0078 0.0000
# 3 12.6834 3.5451 18.6159 0.0000 -2.7650 0.0000
# 4 0.0000 0.0000 0.0000 25.8347 0.0000 -3.6355
# 5 4.9756 -0.0078 -2.7650 0.0000 20.4259 0.0000
# 6 0.0000 0.0000 0.0000 -3.6355 0.0000 13.8375
#
#
#
# Elastic Compliance Matrix: (Units=1/GPa)
#
#
# Indices 1 2 3 4 5 6 
#
# 1 0.017615 -0.004480 -0.012027 0.000000 -0.005921 0.000000
# 2 -0.004480 0.012306 0.000890 0.000000 0.001217 0.000000
# 3 -0.012027 0.000890 0.063453 0.000000 0.011519 0.000000
# 4 0.000000 0.000000 0.000000 0.040194 0.000000 0.010560
# 5 -0.005921 0.001217 0.011519 0.000000 0.051959 0.000000
# 6 0.000000 0.000000 0.000000 0.010560 0.000000 0.075042
#
#
# Mechanical properties :
#
#
# Convention : Reuss Voigt Hill
#
# Bulk Modulus (GPa) = 16.09311 29.51260 22.80286
# Shear Modulus (GPa) = 15.99907 21.40715 18.70311
#
# Velocity S-wave (km/s) = 2.73674 3.16567 2.95898
# Velocity P-wave (km/s) = 4.18570 5.21323 4.72747
#
# Compressibility (1/GPa) = 0.06213838
#
# Stress axis : x y z
#
# Youngs Moduli (GPa) = 56.77112 81.25811 15.75960
#
# Poissons Ratio (x) = 0.36408 0.18955
# Poissons Ratio (y) = 0.25436 -0.01402
# Poissons Ratio (z) = 0.68280 -0.07230
#
# Static dielectric constant tensor:
#      x y z
#    x 3.551200 0.000000 -0.130340 
#    y 0.000000 4.178080 0.000000 
#    z -0.130340 0.000000 3.722760 
# 
# 
# High freq. dielectric constant tensor:
#      x y z
#    x 1.797960 0.000000 -0.002750 
#    y 0.000000 1.848530 0.000000 
#    z -0.002750 0.000000 1.824550 
# 
# From -- ./inp_files/76736.got.cif
#   From: 2010.03.12/outbox.cif.g09.slc.cpg/sg14_39_cif.got.tgz:76736.got - 2010.03.31 13:35:05.
