data_PCOD8123856
_publ_section_title
;
Structure prediction by ZEFSAII (Michael W. Deem and Ramdas Pophale) SiO2 
 PCOD8123856
Probable space group: P 21/C
;
_chemical_formula_sum "Si O2"
_cell_formula_units_Z 24
_cell_length_a 10.485297
_cell_length_b 11.571183
_cell_length_c 8.243111
_cell_angle_alpha 90.000000
_cell_angle_beta 99.829401
_cell_angle_gamma 90.000000
_cell_volume 985.433071
_symmetry_space_group_name_H-M "P 21/C"
_symmetry_group_IT_number 14
_symmetry_cell_setting 'monoclinic'
loop_
_space_group_symop_operation_xyz
x,y,z
-x,1/2+y,1/2-z
-x,-y,-z
x,1/2-y,1/2+z
loop_
_atom_site_type_symbol
_atom_site_label
_atom_site_fract_x
_atom_site_fract_y
_atom_site_fract_z
Si Si1 0.239541 0.192145 0.878620
Si Si2 0.208733 0.441866 0.946389
Si Si3 0.177282 0.805368 0.984900
Si Si4 0.621929 0.630738 0.286646
Si Si5 0.033624 0.619370 0.754915
Si Si6 0.682473 0.111274 0.283735
O O1 0.176661 0.305450 0.956965
O O2 0.340048 0.238610 0.764100
O O3 0.121942 0.116368 0.781521
O O4 0.319228 0.113259 0.021446
O O5 0.314066 0.461495 0.823948
O O6 0.077027 0.507806 0.867751
O O7 0.270156 0.491794 0.124947
O O8 0.076614 0.735996 0.852726
O O9 0.263055 0.885760 0.886838
O O10 0.094916 0.885780 0.088137
O O11 0.273077 0.720309 0.101017
O O12 0.470820 0.612015 0.258380
#
# Coordination Sequence:
#
# PCOD8123856 Si02
#       6
#     4   4   4   4   4   4
#     4  10  22  39  62  89 123 164 200 255 310 352
#     4   9  23  39  64  92 119 170 198 258 308 359
#     4   9  20  34  65  88 120 172 193 257 301 355
#     4  10  21  39  61  92 123 164 194 260 305 360
#     4  10  19  42  59  89 127 156 216 246 304 368
#     4  10  18  40  62  93 125 158 212 240 309 371
#
# _framework density 24.354775
#
# number of rings (size 3 to 8) (size 9 to 14) (size 15 to 20)
#    1.000    1.333    0.000    2.500    0.000    0.667 
#    3.000   12.500    0.000    0.000    0.000    0.000 
#    0.000    0.000    0.000    0.000    0.000    0.000 
#
# Total GULP energy -297587.495835 kJ/mol
# GULP energy per Si atom -12399.478993 kJ/mol
# Density = 2.429934 g / cm^3
# Si number density = 24.354775 Si / 1000 Ang^3
#
#
#
# Elastic Constant Matrix: (Units=GPa)
#
#
# Indices 1 2 3 4 5 6 
#
# 1 138.3423 29.9703 63.9378 0.0000 19.7306 0.0000
# 2 29.9703 52.8626 2.3842 0.0000 14.8385 0.0000
# 3 63.9378 2.3842 88.8412 0.0000 21.4599 0.0000
# 4 0.0000 0.0000 0.0000 12.5588 0.0000 -5.9505
# 5 19.7306 14.8385 21.4599 0.0000 46.8079 0.0000
# 6 0.0000 0.0000 0.0000 -5.9505 0.0000 26.5214
#
#
#
# Elastic Compliance Matrix: (Units=1/GPa)
#
#
# Indices 1 2 3 4 5 6 
#
# 1 0.013002 -0.007269 -0.009441 0.000000 0.001152 0.000000
# 2 -0.007269 0.024936 0.006445 0.000000 -0.007796 0.000000
# 3 -0.009441 0.006445 0.019578 0.000000 -0.007040 0.000000
# 4 0.000000 0.000000 0.000000 0.089097 0.000000 0.019990
# 5 0.001152 -0.007796 -0.007040 0.000000 0.026577 0.000000
# 6 0.000000 0.000000 0.000000 0.019990 0.000000 0.042191
#
#
# Mechanical properties :
#
#
# Convention : Reuss Voigt Hill
#
# Bulk Modulus (GPa) = 27.03657 52.51453 39.77555
# Shear Modulus (GPa) = 20.14197 29.42787 24.78492
#
# Velocity S-wave (km/s) = 2.87892 3.47983 3.19354
# Velocity P-wave (km/s) = 4.70916 6.14449 5.47407
#
# Compressibility (1/GPa) = 0.03698695
#
# Stress axis : x y z
#
# Youngs Moduli (GPa) = 76.91067 40.10312 51.07834
#
# Poissons Ratio (x) = 0.29151 0.48221
# Poissons Ratio (y) = 0.55907 -0.32922
# Poissons Ratio (z) = 0.72608 -0.25848
#
# Static dielectric constant tensor:
#      x y z
#    x 4.050750 0.000000 -0.141180 
#    y 0.000000 4.048000 0.000000 
#    z -0.141180 0.000000 4.521440 
# 
# 
# High freq. dielectric constant tensor:
#      x y z
#    x 1.960010 0.000000 -0.005630 
#    y 0.000000 1.949650 0.000000 
#    z -0.005630 0.000000 1.985680 
# 
# From -- ./inp_files/12667.got.cif
#   From: 2010.03.12/outbox.cif.g09.slc.cpg/sg14_7_cif.got.tgz:12667.got - 2010.03.31 13:35:05.
