data_PCOD8123172
_publ_section_title
;
Structure prediction by ZEFSAII (Michael W. Deem and Ramdas Pophale) SiO2 
 PCOD8123172
Probable space group: P 2/C
;
_chemical_formula_sum "Si O2"
_cell_formula_units_Z 18
_cell_length_a 5.141172
_cell_length_b 8.171143
_cell_length_c 17.307336
_cell_angle_alpha 90.000000
_cell_angle_beta 81.683320
_cell_angle_gamma 90.000000
_cell_volume 719.422181
_symmetry_space_group_name_H-M "P 2/C"
_symmetry_group_IT_number 13
_symmetry_cell_setting 'monoclinic'
loop_
_space_group_symop_operation_xyz
x,y,z
-x,y,1/2-z
-x,-y,-z
x,-y,1/2+z
loop_
_atom_site_type_symbol
_atom_site_label
_atom_site_fract_x
_atom_site_fract_y
_atom_site_fract_z
Si Si1 0.770024 0.951363 0.453177
Si Si2 0.671765 0.348176 0.868052
Si Si3 0.084186 0.141488 0.329025
Si Si4 0.121776 0.531703 0.910506
Si Si5 0.500000 0.894269 0.250000
O O1 0.750527 0.757260 0.440512
O O2 0.500000 0.000000 0.500000
O O3 0.000000 0.000000 0.500000
O O4 0.824138 0.049323 0.371325
O O5 0.390692 0.432558 0.890972
O O6 0.908164 0.479020 0.854038
O O7 0.673372 0.227291 0.795221
O O8 0.179699 0.278853 0.386338
O O9 0.313598 0.005999 0.311400
O O10 0.000000 0.216774 0.250000
O O11 0.000000 0.500000 0.000000
#
# Coordination Sequence:
#
# PCOD8123172 Si02
#       5
#     4   4   4   4   2
#     4  12  25  48  79 112 153 208 261 324 391 476
#     4  12  27  48  77 112 155 203 263 322 395 476
#     4  12  28  49  78 116 161 208 273 331 404 475
#     4  12  29  50  78 115 162 209 263 331 412 482
#     4  12  28  50  78 118 158 212 272 332 398 474
#
# _framework density 25.020076
#
# number of rings (size 3 to 8) (size 9 to 14) (size 15 to 20)
#    0.000    0.000    2.222    7.333    6.222    0.000 
#    0.000    0.000    0.000    0.000    0.000    0.000 
#    0.000    0.000    0.000    0.000    0.000    0.000 
#
# Total GULP energy -223198.690254 kJ/mol
# GULP energy per Si atom -12399.927236 kJ/mol
# Density = 2.496313 g / cm^3
# Si number density = 25.020076 Si / 1000 Ang^3
#
#
#
# Elastic Constant Matrix: (Units=GPa)
#
#
# Indices 1 2 3 4 5 6 
#
# 1 191.7369 67.8460 51.0092 0.0000 -13.0903 0.0000
# 2 67.8460 140.7351 46.8392 0.0000 -16.0281 0.0000
# 3 51.0092 46.8392 102.0677 0.0000 -17.2645 0.0000
# 4 0.0000 0.0000 0.0000 39.4438 0.0000 5.2345
# 5 -13.0903 -16.0281 -17.2645 0.0000 44.8614 0.0000
# 6 0.0000 0.0000 0.0000 5.2345 0.0000 56.1249
#
#
#
# Elastic Compliance Matrix: (Units=1/GPa)
#
#
# Indices 1 2 3 4 5 6 
#
# 1 0.006683 -0.002475 -0.002165 0.000000 0.000233 0.000000
# 2 -0.002475 0.009414 -0.002820 0.000000 0.001556 0.000000
# 3 -0.002165 -0.002820 0.012725 0.000000 0.003258 0.000000
# 4 0.000000 0.000000 0.000000 0.025670 0.000000 -0.002394
# 5 0.000233 0.001556 0.003258 0.000000 0.024168 0.000000
# 6 0.000000 0.000000 0.000000 -0.002394 0.000000 0.018041
#
#
# Mechanical properties :
#
#
# Convention : Reuss Voigt Hill
#
# Bulk Modulus (GPa) = 71.93108 85.10317 78.51712
# Shear Modulus (GPa) = 43.00878 46.00903 44.50891
#
# Velocity S-wave (km/s) = 4.15055 4.29287 4.22231
# Velocity P-wave (km/s) = 7.19591 7.65895 7.43104
#
# Compressibility (1/GPa) = 0.01390220
#
# Stress axis : x y z
#
# Youngs Moduli (GPa) = 149.63360 106.21951 78.58791
#
# Poissons Ratio (x) = 0.26287 0.17013
# Poissons Ratio (y) = 0.37031 0.22164
# Poissons Ratio (z) = 0.32393 0.29958
#
# Static dielectric constant tensor:
#      x y z
#    x 4.389660 0.000000 0.019470 
#    y 0.000000 3.509190 0.000000 
#    z 0.019470 0.000000 4.830530 
# 
# 
# High freq. dielectric constant tensor:
#      x y z
#    x 2.008400 0.000000 0.006980 
#    y 0.000000 2.011660 0.000000 
#    z 0.006980 0.000000 2.007950 
# 
# From -- ./inp_files/60216.got.cif
#   From: 2010.06.25/outbox.cif.g09.slc.cpg/sg13_31_cif.got.tgz:60216.got - 2010.06.28 04:50:58.
