data_PCOD8123633
_publ_section_title
;
Structure prediction by ZEFSAII (Michael W. Deem and Ramdas Pophale) SiO2 
 PCOD8123633
Probable space group: P 21/C
;
_chemical_formula_sum "Si O2"
_cell_formula_units_Z 32
_cell_length_a 11.178001
_cell_length_b 9.182502
_cell_length_c 19.461628
_cell_angle_alpha 90.000000
_cell_angle_beta 139.137292
_cell_angle_gamma 90.000000
_cell_volume 1306.914632
_symmetry_space_group_name_H-M "P 21/C"
_symmetry_group_IT_number 14
_symmetry_cell_setting 'monoclinic'
loop_
_space_group_symop_operation_xyz
x,y,z
-x,1/2+y,1/2-z
-x,-y,-z
x,1/2-y,1/2+z
loop_
_atom_site_type_symbol
_atom_site_label
_atom_site_fract_x
_atom_site_fract_y
_atom_site_fract_z
Si Si1 0.895157 0.848752 0.691430
Si Si2 0.780044 0.727219 0.476822
Si Si3 0.880605 0.142085 0.628580
Si Si4 0.473306 0.566177 0.821734
Si Si5 0.519452 0.712245 0.087805
Si Si6 0.981336 0.179755 0.046097
Si Si7 0.919771 0.423112 0.321637
Si Si8 0.596474 0.067662 0.862537
O O1 0.686577 0.792898 0.606921
O O2 0.042085 0.713276 0.764154
O O3 0.910923 0.966608 0.635963
O O4 0.948132 0.957508 0.776508
O O5 0.648780 0.863060 0.434808
O O6 0.900835 0.754228 0.462027
O O7 0.645417 0.593074 0.407457
O O8 0.915774 0.702425 0.602913
O O9 0.666596 0.182799 0.534997
O O10 0.997992 0.212889 0.618817
O O11 0.454779 0.402193 0.839455
O O12 0.283113 0.646147 0.761168
O O13 0.508330 0.567386 0.755333
O O14 0.526833 0.867805 0.129307
O O15 0.050110 0.014607 0.093050
O O16 0.771107 0.174188 0.931822
#
# Coordination Sequence:
#
# PCOD8123633 Si02
#       8
#     4   4   4   4   4   4   4   4
#     4  10  22  42  70  85 117 166 207 266 304 361
#     4  11  19  33  59  87 123 158 196 252 299 374
#     4  10  22  41  65  91 117 163 217 253 312 359
#     4  11  20  31  58  88 123 159 197 241 306 371
#     4  10  23  41  61  90 127 162 197 258 315 360
#     4   9  17  35  61  82 118 158 200 251 303 362
#     4   9  18  36  55  85 114 159 197 241 310 367
#     4  10  18  34  58  85 120 159 203 236 303 382
#
# _framework density 24.485147999999999
#
# number of rings (size 3 to 8) (size 9 to 14) (size 15 to 20)
#    0.000    2.000    2.500    2.625    3.500    1.000 
#    0.000    6.875    5.500    0.000    0.000    0.000 
#    0.000    0.000    0.000    0.000    0.000    0.000 
#
# Total GULP energy -396804.821397 kJ/mol
# GULP energy per Si atom -12400.150669 kJ/mol
# Density = 2.442942 g / cm^3
# Si number density = 24.485148 Si / 1000 Ang^3
#
#
#
# Elastic Constant Matrix: (Units=GPa)
#
#
# Indices 1 2 3 4 5 6 
#
# 1 53.1042 19.1660 23.1834 0.0000 14.1938 0.0000
# 2 19.1660 59.5546 11.7271 0.0000 11.7472 0.0000
# 3 23.1834 11.7271 124.0582 0.0000 4.8393 0.0000
# 4 0.0000 0.0000 0.0000 39.1797 0.0000 8.1477
# 5 14.1938 11.7472 4.8393 0.0000 33.5113 0.0000
# 6 0.0000 0.0000 0.0000 8.1477 0.0000 33.1100
#
#
#
# Elastic Compliance Matrix: (Units=1/GPa)
#
#
# Indices 1 2 3 4 5 6 
#
# 1 0.024616 -0.005621 -0.003760 0.000000 -0.007913 0.000000
# 2 -0.005621 0.019591 -0.000630 0.000000 -0.004396 0.000000
# 3 -0.003760 -0.000630 0.008802 0.000000 0.000542 0.000000
# 4 0.000000 0.000000 0.000000 0.026900 0.000000 -0.006620
# 5 -0.007913 -0.004396 0.000542 0.000000 0.034655 0.000000
# 6 0.000000 0.000000 0.000000 -0.006620 0.000000 0.031831
#
#
# Mechanical properties :
#
#
# Convention : Reuss Voigt Hill
#
# Bulk Modulus (GPa) = 30.31475 38.31889 34.31682
# Shear Modulus (GPa) = 28.18282 33.33622 30.75952
#
# Velocity S-wave (km/s) = 3.39634 3.69384 3.54821
# Velocity P-wave (km/s) = 5.27143 5.82034 5.55267
#
# Compressibility (1/GPa) = 0.03298724
#
# Stress axis : x y z
#
# Youngs Moduli (GPa) = 40.62403 51.04284 113.61301
#
# Poissons Ratio (x) = 0.28690 0.42720
# Poissons Ratio (y) = 0.22834 0.07159
# Poissons Ratio (z) = 0.15275 0.03216
#
# Static dielectric constant tensor:
#      x y z
#    x 4.337750 0.000000 -0.199940 
#    y 0.000000 4.727110 0.000000 
#    z -0.199940 0.000000 4.813430 
# 
# 
# High freq. dielectric constant tensor:
#      x y z
#    x 1.965210 0.000000 -0.020430 
#    y 0.000000 1.968100 0.000000 
#    z -0.020430 0.000000 1.997490 
# 
# From -- ./inp_files/77528.got.cif
#   From: 2010.03.12/outbox.cif.g09.slc.cpg/sg14_39_cif.got.tgz:77528.got - 2010.03.31 13:35:05.
