data_PCOD8123742
_publ_section_title
;
Structure prediction by ZEFSAII (Michael W. Deem and Ramdas Pophale) SiO2 
 PCOD8123742
Probable space group: P 21/C
;
_chemical_formula_sum "Si O2"
_cell_formula_units_Z 28
_cell_length_a 11.430940
_cell_length_b 14.724392
_cell_length_c 9.616297
_cell_angle_alpha 90.000000
_cell_angle_beta 117.778123
_cell_angle_gamma 90.000000
_cell_volume 1432.030171
_symmetry_space_group_name_H-M "P 21/C"
_symmetry_group_IT_number 14
_symmetry_cell_setting 'monoclinic'
loop_
_space_group_symop_operation_xyz
x,y,z
-x,1/2+y,1/2-z
-x,-y,-z
x,1/2-y,1/2+z
loop_
_atom_site_type_symbol
_atom_site_label
_atom_site_fract_x
_atom_site_fract_y
_atom_site_fract_z
Si Si1 0.667960 0.180416 0.688447
Si Si2 0.360365 0.175794 0.508062
Si Si3 0.189368 0.731925 0.472159
Si Si4 0.987966 0.109569 0.684261
Si Si5 0.802022 0.510793 0.200823
Si Si6 0.770953 0.798330 0.282213
Si Si7 0.041051 0.137388 0.033543
O O1 0.514981 0.176756 0.565970
O O2 0.689479 0.215886 0.855710
O O3 0.742025 0.257505 0.638762
O O4 0.723274 0.079673 0.695248
O O5 0.298962 0.084875 0.410493
O O6 0.299684 0.263871 0.397615
O O7 0.334876 0.175077 0.659308
O O8 0.105088 0.823182 0.456132
O O9 0.083684 0.649618 0.429424
O O10 0.137270 0.114034 0.707173
O O11 0.987560 0.138404 0.847417
O O12 0.914835 0.011247 0.644314
O O13 0.880083 0.545854 0.381321
O O14 0.860733 0.721048 0.397087
#
# Coordination Sequence:
#
# PCOD8123742 Si02
#       7
#     4   4   4   4   4   4   4
#     4  11  22  39  58  85 116 156 197 230 280 353
#     4  11  22  39  58  82 118 157 195 234 278 349
#     4  10  20  34  59  85 111 144 189 239 282 334
#     4  10  19  35  59  86 116 138 193 242 289 339
#     4  10  22  35  62  85 115 155 190 236 298 342
#     4  10  21  36  60  86 112 149 195 239 290 332
#     4  10  18  36  60  86 114 144 184 241 294 342
#
# _framework density 19.552662000000002
#
# number of rings (size 3 to 8) (size 9 to 14) (size 15 to 20)
#    0.000    1.714    4.286    1.714    0.000    0.571 
#    0.000    1.429    0.000    0.857    0.000    0.000 
#    0.000    0.000    0.000    0.000    0.000    0.000 
#
# Total GULP energy -346935.903984 kJ/mol
# GULP energy per Si atom -12390.567999 kJ/mol
# Density = 1.950816 g / cm^3
# Si number density = 19.552662 Si / 1000 Ang^3
#
#
#
# Elastic Constant Matrix: (Units=GPa)
#
#
# Indices 1 2 3 4 5 6 
#
# 1 114.9019 27.6990 27.1422 0.0000 8.9899 0.0000
# 2 27.6990 40.0451 30.5411 0.0000 7.0733 0.0000
# 3 27.1422 30.5411 71.9203 0.0000 12.6727 0.0000
# 4 0.0000 0.0000 0.0000 20.4028 0.0000 3.7792
# 5 8.9899 7.0733 12.6727 0.0000 31.8976 0.0000
# 6 0.0000 0.0000 0.0000 3.7792 0.0000 30.8549
#
#
#
# Elastic Compliance Matrix: (Units=1/GPa)
#
#
# Indices 1 2 3 4 5 6 
#
# 1 0.010565 -0.006239 -0.001136 0.000000 -0.001143 0.000000
# 2 -0.006239 0.040750 -0.014696 0.000000 -0.001439 0.000000
# 3 -0.001136 -0.014696 0.021445 0.000000 -0.004941 0.000000
# 4 0.000000 0.000000 0.000000 0.050151 0.000000 -0.006143
# 5 -0.001143 -0.001439 -0.004941 0.000000 0.033954 0.000000
# 6 0.000000 0.000000 0.000000 -0.006143 0.000000 0.033162
#
#
# Mechanical properties :
#
#
# Convention : Reuss Voigt Hill
#
# Bulk Modulus (GPa) = 34.94586 44.18133 39.56359
# Shear Modulus (GPa) = 20.51623 26.06339 23.28981
#
# Velocity S-wave (km/s) = 3.24277 3.65497 3.45502
# Velocity P-wave (km/s) = 5.65086 6.36057 6.01619
#
# Compressibility (1/GPa) = 0.02861570
#
# Stress axis : x y z
#
# Youngs Moduli (GPa) = 94.65238 24.53974 46.63194
#
# Poissons Ratio (x) = 0.15311 0.05299
# Poissons Ratio (y) = 0.59057 0.68532
# Poissons Ratio (z) = 0.10755 0.36065
#
# Static dielectric constant tensor:
#      x y z
#    x 3.657030 0.000000 0.126170 
#    y 0.000000 3.519690 0.000000 
#    z 0.126170 0.000000 3.543740 
# 
# 
# High freq. dielectric constant tensor:
#      x y z
#    x 1.761940 0.000000 0.012920 
#    y 0.000000 1.743810 0.000000 
#    z 0.012920 0.000000 1.762360 
# 
# From -- ./inp_files/13015.got.cif
#   From: 2010.03.12/outbox.cif.g09.slc.cpg/sg14_7_cif.got.tgz:13015.got - 2010.03.31 13:35:05.
