data_PCOD8123083
_publ_section_title
;
Structure prediction by ZEFSAII (Michael W. Deem and Ramdas Pophale) SiO2 
 PCOD8123083
Probable space group: P 2/C
;
_chemical_formula_sum "Si O2"
_cell_formula_units_Z 20
_cell_length_a 11.553178
_cell_length_b 12.634269
_cell_length_c 10.254611
_cell_angle_alpha 90.000000
_cell_angle_beta 47.158872
_cell_angle_gamma 90.000000
_cell_volume 1097.534255
_symmetry_space_group_name_H-M "P 2/C"
_symmetry_group_IT_number 13
_symmetry_cell_setting 'monoclinic'
loop_
_space_group_symop_operation_xyz
x,y,z
-x,y,1/2-z
-x,-y,-z
x,-y,1/2+z
loop_
_atom_site_type_symbol
_atom_site_label
_atom_site_fract_x
_atom_site_fract_y
_atom_site_fract_z
Si Si1 0.893521 0.506303 0.707753
Si Si2 0.686214 0.081706 0.255015
Si Si3 0.311325 0.680253 0.041293
Si Si4 0.689613 0.918783 0.463349
Si Si5 0.674168 0.679909 0.773377
O O1 0.801246 0.395784 0.790596
O O2 0.769516 0.601491 0.792743
O O3 0.000000 0.530355 0.750000
O O4 0.000000 0.500000 0.500000
O O5 0.498248 0.076038 0.395446
O O6 0.734275 0.201070 0.256028
O O7 0.760242 0.000766 0.303666
O O8 0.750675 0.051117 0.061660
O O9 0.254264 0.800054 0.113459
O O10 0.490942 0.666251 0.950423
O O11 0.296840 0.652378 0.899963
#
# Coordination Sequence:
#
# PCOD8123083 Si02
#       5
#     4   4   4   4   4
#     4  12  23  38  55  76 106 143 179 221 268 314
#     4   8  14  27  49  76 104 131 165 211 258 306
#     4   9  18  35  57  79 106 141 177 215 263 316
#     4   8  14  27  49  76 104 132 164 209 261 306
#     4   9  18  35  57  79 106 140 178 217 260 313
#
# _framework density 18.222666
#
# number of rings (size 3 to 8) (size 9 to 14) (size 15 to 20)
#    0.000    2.800    2.000    3.000    0.000    0.000 
#    3.600    0.000    0.000    2.400    0.000    0.000 
#    0.000    0.000    0.000    0.000    0.000    0.000 
#
# Total GULP energy -247950.560215 kJ/mol
# GULP energy per Si atom -12397.528011 kJ/mol
# Density = 1.818119 g / cm^3
# Si number density = 18.222666 Si / 1000 Ang^3
#
#
#
# Elastic Constant Matrix: (Units=GPa)
#
#
# Indices 1 2 3 4 5 6 
#
# 1 101.4291 75.4463 42.6819 0.0000 15.8223 0.0000
# 2 75.4463 152.2354 63.3847 0.0000 20.6152 0.0000
# 3 42.6819 63.3847 85.4527 0.0000 18.0210 0.0000
# 4 0.0000 0.0000 0.0000 18.0383 0.0000 17.7406
# 5 15.8223 20.6152 18.0210 0.0000 21.1314 0.0000
# 6 0.0000 0.0000 0.0000 17.7406 0.0000 20.0164
#
#
#
# Elastic Compliance Matrix: (Units=1/GPa)
#
#
# Indices 1 2 3 4 5 6 
#
# 1 0.016386 -0.006564 -0.002535 0.000000 -0.003704 0.000000
# 2 -0.006564 0.012415 -0.005380 0.000000 -0.002609 0.000000
# 3 -0.002535 -0.005380 0.018840 0.000000 -0.008921 0.000000
# 4 0.000000 0.000000 0.000000 0.432034 0.000000 -0.382914
# 5 -0.003704 -0.002609 -0.008921 0.000000 0.060249 0.000000
# 6 0.000000 0.000000 0.000000 -0.382914 0.000000 0.389338
#
#
# Mechanical properties :
#
#
# Convention : Reuss Voigt Hill
#
# Bulk Modulus (GPa) = 53.52125 78.01588 65.76857
# Shear Modulus (GPa) = 5.18432 22.34416 13.76424
#
# Velocity S-wave (km/s) = 1.68854 3.50548 2.75132
# Velocity P-wave (km/s) = 5.76507 7.70000 6.80169
#
# Compressibility (1/GPa) = 0.01868417
#
# Stress axis : x y z
#
# Youngs Moduli (GPa) = 61.02833 80.54695 53.07730
#
# Poissons Ratio (x) = 0.52869 0.13453
# Poissons Ratio (y) = 0.40058 0.28557
# Poissons Ratio (z) = 0.15468 0.43337
#
# Static dielectric constant tensor:
#      x y z
#    x 3.306960 0.000000 0.179220 
#    y 0.000000 3.523490 0.000000 
#    z 0.179220 0.000000 3.175620 
# 
# 
# High freq. dielectric constant tensor:
#      x y z
#    x 1.689050 0.000000 0.010990 
#    y 0.000000 1.713120 0.000000 
#    z 0.010990 0.000000 1.684170 
# 
# From -- ./inp_files/28734.got.cif
#   From: 2010.06.25/outbox.cif.g09.slc.cpg/sg13_15_cif.got.tgz:28734.got - 2010.06.28 04:50:58.
