data_PCOD8123031
_publ_section_title
;
Structure prediction by ZEFSAII (Michael W. Deem and Ramdas Pophale) SiO2 
 PCOD8123031
Probable space group: P 2/C
;
_chemical_formula_sum "Si O2"
_cell_formula_units_Z 18
_cell_length_a 9.940438
_cell_length_b 9.112636
_cell_length_c 10.840790
_cell_angle_alpha 90.000000
_cell_angle_beta 113.703469
_cell_angle_gamma 90.000000
_cell_volume 899.154671
_symmetry_space_group_name_H-M "P 2/C"
_symmetry_group_IT_number 13
_symmetry_cell_setting 'monoclinic'
loop_
_space_group_symop_operation_xyz
x,y,z
-x,y,1/2-z
-x,-y,-z
x,-y,1/2+z
loop_
_atom_site_type_symbol
_atom_site_label
_atom_site_fract_x
_atom_site_fract_y
_atom_site_fract_z
Si Si1 0.865466 0.571846 0.522157
Si Si2 0.327996 0.217346 0.700891
Si Si3 0.846773 0.937449 0.905836
Si Si4 0.839724 0.724033 0.127195
Si Si5 0.000000 0.198549 0.250000
O O1 0.743915 0.636815 0.385366
O O2 0.804228 0.447742 0.591393
O O3 0.000000 0.500000 0.500000
O O4 0.919936 0.709683 0.617286
O O5 0.500000 0.231817 0.750000
O O6 0.284621 0.215030 0.828372
O O7 0.277337 0.061900 0.624188
O O8 0.869491 0.892556 0.770034
O O9 0.816579 0.802469 0.986780
O O10 0.000000 0.000000 0.000000
O O11 0.000000 0.748092 0.250000
#
# Coordination Sequence:
#
# PCOD8123031 Si02
#       5
#     4   4   4   4   2
#     4  12  21  42  72 102 125 174 225 272 324 394
#     4  12  28  45  64 100 142 172 215 282 337 383
#     4  12  22  39  67  98 127 178 223 265 320 394
#     4  12  22  41  71  99 128 170 228 271 318 401
#     4  12  20  36  72 102 124 164 236 272 310 388
#
# _framework density 20.018802000000001
#
# number of rings (size 3 to 8) (size 9 to 14) (size 15 to 20)
#    0.000    0.000   10.000    1.333    0.000    1.778 
#    0.000    1.111    0.000    0.000    0.000    0.000 
#    0.000    0.000    0.000    0.000    0.000    0.000 
#
# Total GULP energy -223151.899357 kJ/mol
# GULP energy per Si atom -12397.327742 kJ/mol
# Density = 1.997324 g / cm^3
# Si number density = 20.018802 Si / 1000 Ang^3
#
#
#
# Elastic Constant Matrix: (Units=GPa)
#
#
# Indices 1 2 3 4 5 6 
#
# 1 140.6915 48.4410 60.2392 0.0000 5.1589 0.0000
# 2 48.4410 107.1743 39.7367 0.0000 8.0716 0.0000
# 3 60.2392 39.7367 86.0332 0.0000 -4.3654 0.0000
# 4 0.0000 0.0000 0.0000 43.4794 0.0000 -8.9375
# 5 5.1589 8.0716 -4.3654 0.0000 36.0653 0.0000
# 6 0.0000 0.0000 0.0000 -8.9375 0.0000 34.0347
#
#
#
# Elastic Compliance Matrix: (Units=1/GPa)
#
#
# Indices 1 2 3 4 5 6 
#
# 1 0.010784 -0.002296 -0.006583 0.000000 -0.001826 0.000000
# 2 -0.002296 0.012119 -0.004136 0.000000 -0.002885 0.000000
# 3 -0.006583 -0.004136 0.018351 0.000000 0.004089 0.000000
# 4 0.000000 0.000000 0.000000 0.024312 0.000000 0.006384
# 5 -0.001826 -0.002885 0.004089 0.000000 0.029129 0.000000
# 6 0.000000 0.000000 0.000000 0.006384 0.000000 0.031058
#
#
# Mechanical properties :
#
#
# Convention : Reuss Voigt Hill
#
# Bulk Modulus (GPa) = 65.68880 70.08142 67.88511
# Shear Modulus (GPa) = 31.87616 35.08136 33.47876
#
# Velocity S-wave (km/s) = 3.99471 4.19073 4.09389
# Velocity P-wave (km/s) = 7.35946 7.64854 7.50539
#
# Compressibility (1/GPa) = 0.01522329
#
# Stress axis : x y z
#
# Youngs Moduli (GPa) = 92.73251 82.51381 54.49425
#
# Poissons Ratio (x) = 0.18944 0.35873
# Poissons Ratio (y) = 0.21290 0.22541
# Poissons Ratio (z) = 0.61044 0.34131
#
# Static dielectric constant tensor:
#      x y z
#    x 3.341160 0.000000 -0.280160 
#    y 0.000000 5.896030 0.000000 
#    z -0.280160 0.000000 3.887900 
# 
# 
# High freq. dielectric constant tensor:
#      x y z
#    x 1.756310 0.000000 -0.034440 
#    y 0.000000 1.805820 0.000000 
#    z -0.034440 0.000000 1.776940 
# 
# From -- ./inp_files/27676.got.cif
#   From: 2010.06.25/outbox.cif.g09.slc.cpg/sg13_14_cif.got.tgz:27676.got - 2010.06.28 04:50:58.
