data_PCOD8123431
_publ_section_title
;
Structure prediction by ZEFSAII (Michael W. Deem and Ramdas Pophale) SiO2 
 PCOD8123431
Probable space group: P 21/C
;
_chemical_formula_sum "Si O2"
_cell_formula_units_Z 32
_cell_length_a 24.291796
_cell_length_b 9.728226
_cell_length_c 18.735359
_cell_angle_alpha 90.000000
_cell_angle_beta 159.574225
_cell_angle_gamma 90.000000
_cell_volume 1545.157765
_symmetry_space_group_name_H-M "P 21/C"
_symmetry_group_IT_number 14
_symmetry_cell_setting 'monoclinic'
loop_
_space_group_symop_operation_xyz
x,y,z
-x,1/2+y,1/2-z
-x,-y,-z
x,1/2-y,1/2+z
loop_
_atom_site_type_symbol
_atom_site_label
_atom_site_fract_x
_atom_site_fract_y
_atom_site_fract_z
Si Si1 0.676043 0.119440 0.989654
Si Si2 0.289353 0.749081 0.229384
Si Si3 0.340817 0.271220 0.332287
Si Si4 0.617801 0.487387 0.076351
Si Si5 0.823351 0.796664 0.015375
Si Si6 0.534409 0.872468 0.748873
Si Si7 0.883396 0.391947 0.605799
Si Si8 0.825161 0.032032 0.311924
O O1 0.586765 0.262359 0.867544
O O2 0.561216 0.988084 0.841545
O O3 0.819524 0.109637 0.108671
O O4 0.740006 0.120591 0.147472
O O5 0.472198 0.702790 0.449757
O O6 0.260662 0.867144 0.254764
O O7 0.181442 0.620536 0.122853
O O8 0.237200 0.805471 0.089470
O O9 0.267055 0.392010 0.288227
O O10 0.301368 0.136206 0.332231
O O11 0.259871 0.255554 0.157311
O O12 0.500000 0.500000 0.000000
O O13 0.524198 0.453723 0.891647
O O14 0.949325 0.683007 0.192172
O O15 0.898247 0.949947 0.096478
O O16 0.696994 0.797426 0.925784
O O17 0.000000 0.000000 0.500000
#
# Coordination Sequence:
#
# PCOD8123431 Si02
#       8
#     4   4   4   4   4   4   4   4
#     4  11  25  44  60  97 131 170 207 271 330 380
#     4  11  22  44  70  96 120 174 225 268 307 387
#     4  11  21  41  73  93 120 170 228 260 314 391
#     4  10  17  40  69  93 113 157 222 273 301 367
#     4  11  22  43  64  96 125 170 212 269 320 389
#     4  11  23  41  67  92 129 164 218 270 321 381
#     4  11  26  41  67  94 136 169 216 264 330 384
#     4  12  27  42  63  95 142 167 207 273 334 378
#
# _framework density 20.709859000000002
#
# number of rings (size 3 to 8) (size 9 to 14) (size 15 to 20)
#    0.000    1.000    5.000    3.375    8.750    1.000 
#    0.000    1.875    0.000    0.000    0.000    0.000 
#    0.000    0.000    0.000    0.000    0.000    0.000 
#
# Total GULP energy -396799.810637 kJ/mol
# GULP energy per Si atom -12399.994082 kJ/mol
# Density = 2.066272 g / cm^3
# Si number density = 20.709859 Si / 1000 Ang^3
#
#
#
# Elastic Constant Matrix: (Units=GPa)
#
#
# Indices 1 2 3 4 5 6 
#
# 1 56.2620 22.2634 13.8586 0.0000 -2.8169 0.0000
# 2 22.2634 94.5733 21.0741 0.0000 14.1020 0.0000
# 3 13.8586 21.0741 82.2851 0.0000 -3.0314 0.0000
# 4 0.0000 0.0000 0.0000 36.4541 0.0000 -6.7667
# 5 -2.8169 14.1020 -3.0314 0.0000 27.5798 0.0000
# 6 0.0000 0.0000 0.0000 -6.7667 0.0000 34.3332
#
#
#
# Elastic Compliance Matrix: (Units=1/GPa)
#
#
# Indices 1 2 3 4 5 6 
#
# 1 0.020483 -0.005041 -0.001995 0.000000 0.004450 0.000000
# 2 -0.005041 0.013568 -0.002912 0.000000 -0.007773 0.000000
# 3 -0.001995 -0.002912 0.013336 0.000000 0.002751 0.000000
# 4 0.000000 0.000000 0.000000 0.028473 0.000000 0.005612
# 5 0.004450 -0.007773 0.002751 0.000000 0.040990 0.000000
# 6 0.000000 0.000000 0.000000 0.005612 0.000000 0.030232
#
#
# Mechanical properties :
#
#
# Convention : Reuss Voigt Hill
#
# Bulk Modulus (GPa) = 36.37522 38.61254 37.49388
# Shear Modulus (GPa) = 28.38604 31.40171 29.89388
#
# Velocity S-wave (km/s) = 3.70625 3.89815 3.80341
# Velocity P-wave (km/s) = 5.99311 6.24066 6.11814
#
# Compressibility (1/GPa) = 0.02749124
#
# Stress axis : x y z
#
# Youngs Moduli (GPa) = 48.82124 73.70023 74.98452
#
# Poissons Ratio (x) = 0.37152 0.14958
# Poissons Ratio (y) = 0.24611 0.21838
# Poissons Ratio (z) = 0.09739 0.21464
#
# Static dielectric constant tensor:
#      x y z
#    x 3.716010 0.000000 -0.202470 
#    y 0.000000 4.411620 0.000000 
#    z -0.202470 0.000000 3.766140 
# 
# 
# High freq. dielectric constant tensor:
#      x y z
#    x 1.794660 0.000000 -0.018330 
#    y 0.000000 1.830550 0.000000 
#    z -0.018330 0.000000 1.805210 
# 
# From -- ./inp_files/70511.got.cif
#   From: 2010.03.12/outbox.cif.g09.slc.cpg/sg14_36_cif.got.tgz:70511.got - 2010.03.31 13:35:05.
