data_PCOD8123628
_publ_section_title
;
Structure prediction by ZEFSAII (Michael W. Deem and Ramdas Pophale) SiO2 
 PCOD8123628
Probable space group: P 21/C
;
_chemical_formula_sum "Si O2"
_cell_formula_units_Z 20
_cell_length_a 10.795175
_cell_length_b 10.428949
_cell_length_c 10.683032
_cell_angle_alpha 90.000000
_cell_angle_beta 51.658792
_cell_angle_gamma 90.000000
_cell_volume 943.330368
_symmetry_space_group_name_H-M "P 21/C"
_symmetry_group_IT_number 14
_symmetry_cell_setting 'monoclinic'
loop_
_space_group_symop_operation_xyz
x,y,z
-x,1/2+y,1/2-z
-x,-y,-z
x,1/2-y,1/2+z
loop_
_atom_site_type_symbol
_atom_site_label
_atom_site_fract_x
_atom_site_fract_y
_atom_site_fract_z
Si Si1 0.249686 0.920063 0.753059
Si Si2 0.416024 0.824514 0.100216
Si Si3 0.895148 0.172947 0.582568
Si Si4 0.023107 0.512043 0.193243
Si Si5 0.687943 0.980952 0.026674
O O1 0.389876 0.829787 0.607497
O O2 0.111349 0.827152 0.897900
O O3 0.170767 0.006164 0.694588
O O4 0.317258 0.010193 0.819556
O O5 0.280110 0.884012 0.276983
O O6 0.587481 0.856540 0.048527
O O7 0.393091 0.889988 0.978386
O O8 0.946516 0.138934 0.409987
O O9 0.016921 0.112158 0.607184
O O10 0.865260 0.536326 0.369497
#
# Coordination Sequence:
#
# PCOD8123628 Si02
#       5
#     4   4   4   4   4
#     4  10  19  34  62  77 112 147 180 220 277 321
#     4   8  19  35  56  77 110 149 172 225 274 318
#     4   8  19  34  56  78 114 146 172 226 282 308
#     4  10  18  34  57  85 106 142 186 226 265 325
#     4  10  18  35  58  82 106 145 186 221 267 328
#
# _framework density 21.201481000000001
#
# number of rings (size 3 to 8) (size 9 to 14) (size 15 to 20)
#    1.200    1.600    0.000    1.800    0.000    0.000 
#    0.000    9.000    0.000    0.000    0.000    0.000 
#    0.000    0.000    0.000    0.000    0.000    0.000 
#
# Total GULP energy -247853.501374 kJ/mol
# GULP energy per Si atom -12392.675069 kJ/mol
# Density = 2.115323 g / cm^3
# Si number density = 21.201481 Si / 1000 Ang^3
#
#
#
# Elastic Constant Matrix: (Units=GPa)
#
#
# Indices 1 2 3 4 5 6 
#
# 1 163.1509 20.5055 33.2516 0.0000 12.6054 0.0000
# 2 20.5055 13.9094 -1.9655 0.0000 -6.3729 0.0000
# 3 33.2516 -1.9655 38.3805 0.0000 6.8748 0.0000
# 4 0.0000 0.0000 0.0000 24.0946 0.0000 1.0775
# 5 12.6054 -6.3729 6.8748 0.0000 24.6649 0.0000
# 6 0.0000 0.0000 0.0000 1.0775 0.0000 24.1798
#
#
#
# Elastic Compliance Matrix: (Units=1/GPa)
#
#
# Indices 1 2 3 4 5 6 
#
# 1 0.011654 -0.022731 -0.009622 0.000000 -0.009147 0.000000
# 2 -0.022731 0.125892 0.019191 0.000000 0.038796 0.000000
# 3 -0.009622 0.019191 0.035371 0.000000 0.000017 0.000000
# 4 0.000000 0.000000 0.000000 0.041586 0.000000 -0.001853
# 5 -0.009147 0.038796 0.000017 0.000000 0.055238 0.000000
# 6 0.000000 0.000000 0.000000 -0.001853 0.000000 0.041439
#
#
# Mechanical properties :
#
#
# Convention : Reuss Voigt Hill
#
# Bulk Modulus (GPa) = 6.82163 35.44710 21.13436
# Shear Modulus (GPa) = 12.94099 25.49781 19.21940
#
# Velocity S-wave (km/s) = 2.47327 3.47168 3.01410
# Velocity P-wave (km/s) = 3.37351 5.72936 4.70139
#
# Compressibility (1/GPa) = 0.14659256
#
# Stress axis : x y z
#
# Youngs Moduli (GPa) = 85.80642 7.94330 28.27177
#
# Poissons Ratio (x) = 0.18056 0.27204
# Poissons Ratio (y) = 1.95051 -0.54258
# Poissons Ratio (z) = 0.82566 -0.15244
#
# Static dielectric constant tensor:
#      x y z
#    x 3.754370 0.000000 0.049070 
#    y 0.000000 3.358980 0.000000 
#    z 0.049070 0.000000 3.543790 
# 
# 
# High freq. dielectric constant tensor:
#      x y z
#    x 1.834360 0.000000 0.010120 
#    y 0.000000 1.792500 0.000000 
#    z 0.010120 0.000000 1.808530 
# 
# From -- ./inp_files/24760.got.cif
#   From: 2010.03.12/outbox.cif.g09.slc.cpg/sg14_13_cif.got.tgz:24760.got - 2010.03.31 13:35:05.
