data_PCOD8123443
_publ_section_title
;
Structure prediction by ZEFSAII (Michael W. Deem and Ramdas Pophale) SiO2 
 PCOD8123443
Probable space group: P 21/C
;
_chemical_formula_sum "Si O2"
_cell_formula_units_Z 32
_cell_length_a 22.187329
_cell_length_b 14.332819
_cell_length_c 24.815425
_cell_angle_alpha 90.000000
_cell_angle_beta 11.086887
_cell_angle_gamma 90.000000
_cell_volume 1517.510552
_symmetry_space_group_name_H-M "P 21/C"
_symmetry_group_IT_number 14
_symmetry_cell_setting 'monoclinic'
loop_
_space_group_symop_operation_xyz
x,y,z
-x,1/2+y,1/2-z
-x,-y,-z
x,1/2-y,1/2+z
loop_
_atom_site_type_symbol
_atom_site_label
_atom_site_fract_x
_atom_site_fract_y
_atom_site_fract_z
Si Si1 0.824358 0.570286 0.393703
Si Si2 0.346352 0.049065 0.757334
Si Si3 0.804865 0.209259 0.367286
Si Si4 0.199566 0.633521 0.973410
Si Si5 0.122651 0.200452 0.798011
Si Si6 0.246167 0.559768 0.449494
Si Si7 0.230084 0.626109 0.291030
Si Si8 0.588640 0.780150 0.700393
O O1 0.916021 0.490492 0.356899
O O2 0.956774 0.670423 0.296705
O O3 0.990366 0.557085 0.189875
O O4 0.445052 0.575820 0.720829
O O5 0.611600 0.124614 0.509844
O O6 0.379752 0.017397 0.790510
O O7 0.390995 0.964337 0.676890
O O8 0.000555 0.093670 0.054195
O O9 0.562516 0.283001 0.606940
O O10 0.036033 0.262271 0.122630
O O11 0.966696 0.695881 0.141982
O O12 0.416880 0.694685 0.821811
O O13 0.498866 0.191009 0.471973
O O14 0.012530 0.124456 0.851006
O O15 0.967599 0.183014 0.991620
O O16 0.535766 0.623078 0.215406
#
# Coordination Sequence:
#
# PCOD8123443 Si02
#       8
#     4   4   4   4   4   4   4   4
#     4  10  18  29  48  72  95 128 171 202 247 307
#     4  10  21  35  52  74 105 138 172 212 251 290
#     4  10  19  33  48  68  99 136 171 207 248 299
#     4   9  18  31  47  68  96 130 166 207 248 295
#     4  10  20  35  50  69 104 139 169 207 251 296
#     4  10  20  33  51  75 107 140 168 208 256 305
#     4  10  22  34  51  76 100 136 180 209 244 302
#     4   9  20  32  47  69  98 136 173 199 247 313
#
# _framework density 21.087168999999999
#
# number of rings (size 3 to 8) (size 9 to 14) (size 15 to 20)
#    0.000    2.250    0.000    3.750    0.000   16.500 
#    0.000    0.000    0.000    0.000    0.000    0.000 
#    0.000   20.000    0.000    0.000    0.000    0.000 
#
# Total GULP energy -396650.194080 kJ/mol
# GULP energy per Si atom -12395.318565 kJ/mol
# Density = 2.103917 g / cm^3
# Si number density = 21.087169 Si / 1000 Ang^3
#
#
#
# Elastic Constant Matrix: (Units=GPa)
#
#
# Indices 1 2 3 4 5 6 
#
# 1 44.3419 37.0860 42.4783 0.0000 12.8280 0.0000
# 2 37.0860 44.5912 29.5940 0.0000 6.9941 0.0000
# 3 42.4783 29.5940 150.7342 0.0000 29.2600 0.0000
# 4 0.0000 0.0000 0.0000 25.8153 0.0000 -2.4973
# 5 12.8280 6.9941 29.2600 0.0000 23.7799 0.0000
# 6 0.0000 0.0000 0.0000 -2.4973 0.0000 18.6926
#
#
#
# Elastic Compliance Matrix: (Units=1/GPa)
#
#
# Indices 1 2 3 4 5 6 
#
# 1 0.096871 -0.071173 -0.009519 0.000000 -0.019611 0.000000
# 2 -0.071173 0.078136 0.002266 0.000000 0.012625 0.000000
# 3 -0.009519 0.002266 0.010516 0.000000 -0.008471 0.000000
# 4 0.000000 0.000000 0.000000 0.039244 0.000000 0.005243
# 5 -0.019611 0.012625 -0.008471 0.000000 0.059342 0.000000
# 6 0.000000 0.000000 0.000000 0.005243 0.000000 0.054197
#
#
# Mechanical properties :
#
#
# Convention : Reuss Voigt Hill
#
# Bulk Modulus (GPa) = 34.87829 50.88711 42.88270
# Shear Modulus (GPa) = 9.90657 22.35817 16.13237
#
# Velocity S-wave (km/s) = 2.16982 3.25972 2.76892
# Velocity P-wave (km/s) = 4.78053 6.19289 5.53197
#
# Compressibility (1/GPa) = 0.02867113
#
# Stress axis : x y z
#
# Youngs Moduli (GPa) = 10.32300 12.79818 95.09151
#
# Poissons Ratio (x) = 0.91089 0.90515
# Poissons Ratio (y) = 0.73472 -0.21548
# Poissons Ratio (z) = 0.09826 -0.02900
#
# Static dielectric constant tensor:
#      x y z
#    x 3.471570 0.000000 0.212240 
#    y 0.000000 3.506500 0.000000 
#    z 0.212240 0.000000 4.126580 
# 
# 
# High freq. dielectric constant tensor:
#      x y z
#    x 1.777650 0.000000 0.022430 
#    y 0.000000 1.787660 0.000000 
#    z 0.022430 0.000000 1.844920 
# 
# From -- ./inp_files/78182.got.cif
#   From: 2010.03.12/outbox.cif.g09.slc.cpg/sg14_40_cif.got.tgz:78182.got - 2010.03.31 13:35:05.
