data_PCOD8123978
_publ_section_title
;
Structure prediction by ZEFSAII (Michael W. Deem and Ramdas Pophale) SiO2 
 PCOD8123978
Probable space group: P 21/C
;
_chemical_formula_sum "Si O2"
_cell_formula_units_Z 28
_cell_length_a 16.244391
_cell_length_b 13.539147
_cell_length_c 23.162727
_cell_angle_alpha 90.000000
_cell_angle_beta 160.540271
_cell_angle_gamma 90.000000
_cell_volume 1697.136300
_symmetry_space_group_name_H-M "P 21/C"
_symmetry_group_IT_number 14
_symmetry_cell_setting 'monoclinic'
loop_
_space_group_symop_operation_xyz
x,y,z
-x,1/2+y,1/2-z
-x,-y,-z
x,1/2-y,1/2+z
loop_
_atom_site_type_symbol
_atom_site_label
_atom_site_fract_x
_atom_site_fract_y
_atom_site_fract_z
Si Si1 0.037668 0.129592 0.287330
Si Si2 0.409038 0.657333 0.837628
Si Si3 0.913913 0.732137 0.295394
Si Si4 0.350693 0.468632 0.738996
Si Si5 0.888449 0.353065 0.462667
Si Si6 0.653403 0.281333 0.075547
Si Si7 0.851272 0.413470 0.107777
O O1 0.299512 0.176741 0.480783
O O2 0.029406 0.144669 0.212656
O O3 0.808032 0.182875 0.165563
O O4 0.010538 0.015263 0.286466
O O5 0.359484 0.538477 0.802695
O O6 0.253074 0.708204 0.681843
O O7 0.314364 0.697160 0.835642
O O8 0.098315 0.711912 0.470923
O O9 0.960412 0.838572 0.297734
O O10 0.632024 0.733023 0.130159
O O11 0.259541 0.541657 0.626442
O O12 0.165824 0.377719 0.624956
O O13 0.627015 0.427300 0.913482
O O14 0.754425 0.371397 0.104500
#
# Coordination Sequence:
#
# PCOD8123978 Si02
#       7
#     4   4   4   4   4   4   4
#     4   9  20  33  50  76 101 131 174 207 251 301
#     4   8  17  31  50  71  99 128 162 211 249 295
#     4  10  20  32  55  76 102 135 170 209 254 303
#     4   8  16  29  50  74  97 123 164 210 251 295
#     4   9  16  31  49  78  96 125 170 206 257 294
#     4  10  19  33  51  76 100 134 172 209 253 299
#     4  10  19  33  52  76 103 136 169 210 254 295
#
# _framework density 16.498380999999998
#
# number of rings (size 3 to 8) (size 9 to 14) (size 15 to 20)
#    0.857    2.000    1.429    0.000    2.000    2.286 
#    2.571    0.000    3.143    0.857    0.000    0.000 
#    0.000    0.000    0.000    0.000    0.000    0.000 
#
# Total GULP energy -346882.265826 kJ/mol
# GULP energy per Si atom -12388.652351 kJ/mol
# Density = 1.646083 g / cm^3
# Si number density = 16.498381 Si / 1000 Ang^3
#
#
#
# Elastic Constant Matrix: (Units=GPa)
#
#
# Indices 1 2 3 4 5 6 
#
# 1 80.3514 36.2580 43.9927 0.0000 -11.0551 0.0000
# 2 36.2580 80.3885 28.1375 0.0000 -1.9597 0.0000
# 3 43.9927 28.1375 76.4061 0.0000 -21.2018 0.0000
# 4 0.0000 0.0000 0.0000 26.7844 0.0000 -2.2406
# 5 -11.0551 -1.9597 -21.2018 0.0000 25.5905 0.0000
# 6 0.0000 0.0000 0.0000 -2.2406 0.0000 17.0642
#
#
#
# Elastic Compliance Matrix: (Units=1/GPa)
#
#
# Indices 1 2 3 4 5 6 
#
# 1 0.020299 -0.005860 -0.009377 0.000000 0.000552 0.000000
# 2 -0.005860 0.016335 -0.003891 0.000000 -0.004505 0.000000
# 3 -0.009377 -0.003891 0.024299 0.000000 0.015784 0.000000
# 4 0.000000 0.000000 0.000000 0.037750 0.000000 0.004957
# 5 0.000552 -0.004505 0.015784 0.000000 0.052047 0.000000
# 6 0.000000 0.000000 0.000000 0.004957 0.000000 0.059253
#
#
# Mechanical properties :
#
#
# Convention : Reuss Voigt Hill
#
# Bulk Modulus (GPa) = 44.09655 50.43581 47.26618
# Shear Modulus (GPa) = 19.54655 22.47168 21.00911
#
# Velocity S-wave (km/s) = 3.44576 3.69460 3.57235
# Velocity P-wave (km/s) = 6.52816 6.98832 6.76216
#
# Compressibility (1/GPa) = 0.02267751
#
# Stress axis : x y z
#
# Youngs Moduli (GPa) = 49.26252 61.21812 41.15311
#
# Poissons Ratio (x) = 0.35876 0.38587
# Poissons Ratio (y) = 0.28869 0.16014
# Poissons Ratio (z) = 0.46191 0.23822
#
# Static dielectric constant tensor:
#      x y z
#    x 2.828960 0.000000 -0.118910 
#    y 0.000000 2.885660 0.000000 
#    z -0.118910 0.000000 3.315790 
# 
# 
# High freq. dielectric constant tensor:
#      x y z
#    x 1.605390 0.000000 -0.005020 
#    y 0.000000 1.613440 0.000000 
#    z -0.005020 0.000000 1.648660 
# 
# From -- ./inp_files/68616.got.cif
#   From: 2010.03.12/outbox.cif.g09.slc.cpg/sg14_35_cif.got.tgz:68616.got - 2010.03.31 13:35:05.
