data_PCOD8123698
_publ_section_title
;
Structure prediction by ZEFSAII (Michael W. Deem and Ramdas Pophale) SiO2 
 PCOD8123698
Probable space group: P 21/C
;
_chemical_formula_sum "Si O2"
_cell_formula_units_Z 28
_cell_length_a 11.121202
_cell_length_b 15.605875
_cell_length_c 8.685099
_cell_angle_alpha 90.000000
_cell_angle_beta 59.501347
_cell_angle_gamma 90.000000
_cell_volume 1298.796259
_symmetry_space_group_name_H-M "P 21/C"
_symmetry_group_IT_number 14
_symmetry_cell_setting 'monoclinic'
loop_
_space_group_symop_operation_xyz
x,y,z
-x,1/2+y,1/2-z
-x,-y,-z
x,1/2-y,1/2+z
loop_
_atom_site_type_symbol
_atom_site_label
_atom_site_fract_x
_atom_site_fract_y
_atom_site_fract_z
Si Si1 0.756503 0.219507 0.808511
Si Si2 0.362496 0.639932 0.327551
Si Si3 0.681157 0.849921 0.615817
Si Si4 0.117620 0.456219 0.824086
Si Si5 0.950106 0.201855 0.423246
Si Si6 0.155997 0.007783 0.965070
Si Si7 0.795406 0.686269 0.705364
O O1 0.661448 0.274538 0.755705
O O2 0.870536 0.169134 0.630052
O O3 0.837368 0.283564 0.866938
O O4 0.664186 0.156122 0.972531
O O5 0.523536 0.617612 0.201031
O O6 0.260829 0.564815 0.330272
O O7 0.752838 0.931066 0.652465
O O8 0.696739 0.761407 0.701539
O O9 0.751287 0.834915 0.406595
O O10 0.159267 0.510152 0.646805
O O11 0.055214 0.368944 0.793345
O O12 0.000000 0.500000 0.000000
O O13 0.040979 0.286872 0.402299
O O14 0.220916 0.100445 0.884647
O O15 0.000000 0.000000 0.000000
#
# Coordination Sequence:
#
# PCOD8123698 Si02
#       7
#     4   4   4   4   4   4   4
#     4  10  20  36  60  86 119 158 204 252 308 377
#     4  11  24  41  62  90 126 168 210 261 322 391
#     4  11  24  42  63  89 126 174 216 255 324 399
#     4  11  22  38  61  89 122 160 208 267 320 375
#     4  10  18  35  60  87 114 155 205 256 310 370
#     4  12  24  40  64  96 129 163 213 275 327 378
#     4  11  22  40  65  91 125 166 215 267 321 387
#
# _framework density 21.558423000000001
#
# number of rings (size 3 to 8) (size 9 to 14) (size 15 to 20)
#    0.000    1.143    0.000    9.429    0.000    1.143 
#    0.000    2.857    0.000    0.000    0.000    0.000 
#    0.000    0.000    0.000    0.000    0.000    0.000 
#
# Total GULP energy -347170.654428 kJ/mol
# GULP energy per Si atom -12398.951944 kJ/mol
# Density = 2.150935 g / cm^3
# Si number density = 21.558423 Si / 1000 Ang^3
#
#
#
# Elastic Constant Matrix: (Units=GPa)
#
#
# Indices 1 2 3 4 5 6 
#
# 1 119.8287 27.2662 31.6576 0.0000 -15.2979 0.0000
# 2 27.2662 66.2843 1.8597 0.0000 -6.8011 0.0000
# 3 31.6576 1.8597 91.1898 0.0000 9.6489 0.0000
# 4 0.0000 0.0000 0.0000 32.4127 0.0000 2.8387
# 5 -15.2979 -6.8011 9.6489 0.0000 35.4852 0.0000
# 6 0.0000 0.0000 0.0000 2.8387 0.0000 33.6363
#
#
#
# Elastic Compliance Matrix: (Units=1/GPa)
#
#
# Indices 1 2 3 4 5 6 
#
# 1 0.011025 -0.003883 -0.004296 0.000000 0.005177 0.000000
# 2 -0.003883 0.016794 0.000867 0.000000 0.001309 0.000000
# 3 -0.004296 0.000867 0.012992 0.000000 -0.005219 0.000000
# 4 0.000000 0.000000 0.000000 0.031082 0.000000 -0.002623
# 5 0.005177 0.001309 -0.005219 0.000000 0.032082 0.000000
# 6 0.000000 0.000000 0.000000 -0.002623 0.000000 0.029951
#
#
# Mechanical properties :
#
#
# Convention : Reuss Voigt Hill
#
# Bulk Modulus (GPa) = 38.18770 44.31887 41.25328
# Shear Modulus (GPa) = 31.79066 34.74144 33.26605
#
# Velocity S-wave (km/s) = 3.84425 4.01871 3.93245
# Velocity P-wave (km/s) = 6.12017 6.49119 6.30841
#
# Compressibility (1/GPa) = 0.02618644
#
# Stress axis : x y z
#
# Youngs Moduli (GPa) = 90.70549 59.54536 76.97044
#
# Poissons Ratio (x) = 0.23124 0.33066
# Poissons Ratio (y) = 0.35224 -0.06675
# Poissons Ratio (z) = 0.38966 -0.05164
#
# Static dielectric constant tensor:
#      x y z
#    x 3.728480 0.000000 0.057290 
#    y 0.000000 4.004960 0.000000 
#    z 0.057290 0.000000 4.166620 
# 
# 
# High freq. dielectric constant tensor:
#      x y z
#    x 1.838030 0.000000 0.007030 
#    y 0.000000 1.841540 0.000000 
#    z 0.007030 0.000000 1.859520 
# 
# From -- ./inp_files/9388.got.cif
#   From: 2010.03.12/outbox.cif.g09.slc.cpg/sg14_5_cif.got.tgz:9388.got - 2010.03.31 13:35:05.
