data_PCOD8123246
_publ_section_title
;
Structure prediction by ZEFSAII (Michael W. Deem and Ramdas Pophale) SiO2 
 PCOD8123246
Probable space group: P 21/C
;
_chemical_formula_sum "Si O2"
_cell_formula_units_Z 32
_cell_length_a 8.359241
_cell_length_b 11.690859
_cell_length_c 23.166645
_cell_angle_alpha 90.000000
_cell_angle_beta 46.476827
_cell_angle_gamma 90.000000
_cell_volume 1641.617103
_symmetry_space_group_name_H-M "P 21/C"
_symmetry_group_IT_number 14
_symmetry_cell_setting 'monoclinic'
loop_
_space_group_symop_operation_xyz
x,y,z
-x,1/2+y,1/2-z
-x,-y,-z
x,1/2-y,1/2+z
loop_
_atom_site_type_symbol
_atom_site_label
_atom_site_fract_x
_atom_site_fract_y
_atom_site_fract_z
Si Si1 0.413989 0.261944 0.339460
Si Si2 0.871992 0.350201 0.696428
Si Si3 0.092427 0.925645 0.690382
Si Si4 0.399799 0.514544 0.312948
Si Si5 0.403161 0.092672 0.439499
Si Si6 0.385347 0.913763 0.348634
Si Si7 0.697673 0.791056 0.755939
Si Si8 0.039246 0.128262 0.619143
O O1 0.667920 0.234489 0.262401
O O2 0.375039 0.398469 0.355097
O O3 0.333703 0.202124 0.417949
O O4 0.271964 0.219897 0.320464
O O5 0.914402 0.439785 0.738164
O O6 0.831291 0.424056 0.647876
O O7 0.066964 0.257284 0.637681
O O8 0.340055 0.901789 0.607475
O O9 0.945866 0.811572 0.716252
O O10 0.993738 0.036438 0.681772
O O11 0.516342 0.502619 0.221429
O O12 0.550682 0.600151 0.312274
O O13 0.266692 0.093429 0.532189
O O14 0.345460 0.976919 0.419020
O O15 0.572365 0.817943 0.313646
O O16 0.156536 0.866545 0.379713
#
# Coordination Sequence:
#
# PCOD8123246 Si02
#       8
#     4   4   4   4   4   4   4   4
#     4   9  17  34  58  79 112 149 191 242 274 341
#     4  10  20  34  57  84 116 149 206 233 287 346
#     4  11  22  35  54  85 119 156 187 236 300 347
#     4  10  15  35  59  83 107 143 200 243 266 327
#     4  11  23  37  53  92 126 150 187 233 320 351
#     4  11  19  36  59  86 114 150 197 246 281 341
#     4  10  18  32  59  83 109 145 203 238 276 331
#     4  12  22  37  59  85 123 154 185 254 291 355
#
# _framework density 19.492974
#
# number of rings (size 3 to 8) (size 9 to 14) (size 15 to 20)
#    0.000    1.500    8.750    0.750    1.750    0.000 
#    0.000    0.625    0.000    0.000    0.000    6.125 
#    0.000    0.000    0.000    0.000    0.000    0.000 
#
# Total GULP energy -396586.017577 kJ/mol
# GULP energy per Si atom -12393.313049 kJ/mol
# Density = 1.944861 g / cm^3
# Si number density = 19.492974 Si / 1000 Ang^3
#
#
#
# Elastic Constant Matrix: (Units=GPa)
#
#
# Indices 1 2 3 4 5 6 
#
# 1 83.6404 26.8572 20.4024 0.0000 -5.3631 0.0000
# 2 26.8572 124.2729 30.7925 0.0000 4.5175 0.0000
# 3 20.4024 30.7925 49.6989 0.0000 4.4290 0.0000
# 4 0.0000 0.0000 0.0000 22.1064 0.0000 1.9748
# 5 -5.3631 4.5175 4.4290 0.0000 17.1838 0.0000
# 6 0.0000 0.0000 0.0000 1.9748 0.0000 30.2281
#
#
#
# Elastic Compliance Matrix: (Units=1/GPa)
#
#
# Indices 1 2 3 4 5 6 
#
# 1 0.014274 -0.002036 -0.005162 0.000000 0.006320 0.000000
# 2 -0.002036 0.009813 -0.005075 0.000000 -0.001907 0.000000
# 3 -0.005162 -0.005075 0.026006 0.000000 -0.006980 0.000000
# 4 0.000000 0.000000 0.000000 0.045501 0.000000 -0.002973
# 5 0.006320 -0.001907 -0.006980 0.000000 0.062467 0.000000
# 6 0.000000 0.000000 0.000000 -0.002973 0.000000 0.033276
#
#
# Mechanical properties :
#
#
# Convention : Reuss Voigt Hill
#
# Bulk Modulus (GPa) = 39.13929 45.96850 42.55389
# Shear Modulus (GPa) = 22.28176 25.87435 24.07805
#
# Velocity S-wave (km/s) = 3.38459 3.64726 3.51838
# Velocity P-wave (km/s) = 5.94947 6.43195 6.19541
#
# Compressibility (1/GPa) = 0.02554977
#
# Stress axis : x y z
#
# Youngs Moduli (GPa) = 70.05765 101.90090 38.45214
#
# Poissons Ratio (x) = 0.20743 0.19848
# Poissons Ratio (y) = 0.14261 0.19513
# Poissons Ratio (z) = 0.36162 0.51711
#
# Static dielectric constant tensor:
#      x y z
#    x 3.633150 0.000000 0.066980 
#    y 0.000000 3.639920 0.000000 
#    z 0.066980 0.000000 3.121560 
# 
# 
# High freq. dielectric constant tensor:
#      x y z
#    x 1.760350 0.000000 0.005040 
#    y 0.000000 1.767100 0.000000 
#    z 0.005040 0.000000 1.703690 
# 
# From -- ./inp_files/65574.got.cif
#   From: 2010.03.12/outbox.cif.g09.slc.cpg/sg14_33_cif.got.tgz:65574.got - 2010.03.31 13:35:05.
