data_PCOD8123847
_publ_section_title
;
Structure prediction by ZEFSAII (Michael W. Deem and Ramdas Pophale) SiO2 
 PCOD8123847
Probable space group: P 21/C
;
_chemical_formula_sum "Si O2"
_cell_formula_units_Z 28
_cell_length_a 8.914872
_cell_length_b 11.799103
_cell_length_c 13.883639
_cell_angle_alpha 90.000000
_cell_angle_beta 110.840661
_cell_angle_gamma 90.000000
_cell_volume 1364.837191
_symmetry_space_group_name_H-M "P 21/C"
_symmetry_group_IT_number 14
_symmetry_cell_setting 'monoclinic'
loop_
_space_group_symop_operation_xyz
x,y,z
-x,1/2+y,1/2-z
-x,-y,-z
x,1/2-y,1/2+z
loop_
_atom_site_type_symbol
_atom_site_label
_atom_site_fract_x
_atom_site_fract_y
_atom_site_fract_z
Si Si1 0.664657 0.319294 0.897102
Si Si2 0.081759 0.243971 0.795458
Si Si3 0.116755 0.478900 0.384811
Si Si4 0.160606 0.893430 0.379043
Si Si5 0.087862 0.567054 0.168701
Si Si6 0.677008 0.917859 0.713857
Si Si7 0.767383 0.433311 0.394124
O O1 0.746170 0.415390 0.848609
O O2 0.479745 0.352519 0.857867
O O3 0.694923 0.192460 0.864694
O O4 0.735395 0.326574 0.020043
O O5 0.188596 0.141445 0.864014
O O6 0.188171 0.319629 0.746941
O O7 0.918626 0.198532 0.708775
O O8 0.022694 0.321476 0.871497
O O9 0.110225 0.559691 0.290324
O O10 0.226951 0.534692 0.491675
O O11 0.940126 0.448010 0.383927
O O12 0.272489 0.983646 0.349317
O O13 0.008707 0.958451 0.393968
O O14 0.651986 0.976855 0.812585
#
# Coordination Sequence:
#
# PCOD8123847 Si02
#       7
#     4   4   4   4   4   4   4
#     4  12  24  38  63  95 131 167 203 263 333 363
#     4  10  18  39  65  88 123 166 209 258 306 367
#     4  10  20  38  66  91 118 156 221 263 293 367
#     4  10  21  39  63  91 125 171 218 252 303 383
#     4  10  19  37  60  92 123 162 217 255 304 376
#     4  11  24  42  62  95 135 164 205 268 320 374
#     4  11  22  39  65  93 119 163 211 261 310 369
#
# _framework density 20.515267000000001
#
# number of rings (size 3 to 8) (size 9 to 14) (size 15 to 20)
#    0.000    1.429    5.714    1.714    2.000    2.286 
#    0.000    8.571    0.000    0.000    0.000    0.000 
#    0.000    0.000    0.000    0.000    0.000    0.000 
#
# Total GULP energy -346994.246787 kJ/mol
# GULP energy per Si atom -12392.651671 kJ/mol
# Density = 2.046857 g / cm^3
# Si number density = 20.515267 Si / 1000 Ang^3
#
#
#
# Elastic Constant Matrix: (Units=GPa)
#
#
# Indices 1 2 3 4 5 6 
#
# 1 64.1476 24.3654 19.5117 0.0000 10.4172 0.0000
# 2 24.3654 103.3486 22.1080 0.0000 8.7267 0.0000
# 3 19.5117 22.1080 86.2816 0.0000 6.9703 0.0000
# 4 0.0000 0.0000 0.0000 31.2117 0.0000 -2.4700
# 5 10.4172 8.7267 6.9703 0.0000 19.7731 0.0000
# 6 0.0000 0.0000 0.0000 -2.4700 0.0000 29.3189
#
#
#
# Elastic Compliance Matrix: (Units=1/GPa)
#
#
# Indices 1 2 3 4 5 6 
#
# 1 0.018897 -0.003211 -0.002842 0.000000 -0.007537 0.000000
# 2 -0.003211 0.011052 -0.001903 0.000000 -0.002516 0.000000
# 3 -0.002842 -0.001903 0.012899 0.000000 -0.002210 0.000000
# 4 0.000000 0.000000 0.000000 0.032254 0.000000 0.002717
# 5 -0.007537 -0.002516 -0.002210 0.000000 0.056434 0.000000
# 6 0.000000 0.000000 0.000000 0.002717 0.000000 0.034337
#
#
# Mechanical properties :
#
#
# Convention : Reuss Voigt Hill
#
# Bulk Modulus (GPa) = 37.12301 42.86090 39.99195
# Shear Modulus (GPa) = 26.21062 28.58025 27.39543
#
# Velocity S-wave (km/s) = 3.57825 3.73650 3.65823
# Velocity P-wave (km/s) = 5.93350 6.28910 6.11389
#
# Compressibility (1/GPa) = 0.02693747
#
# Stress axis : x y z
#
# Youngs Moduli (GPa) = 52.91869 90.47813 77.52745
#
# Poissons Ratio (x) = 0.29051 0.22032
# Poissons Ratio (y) = 0.16991 0.14751
# Poissons Ratio (z) = 0.15038 0.17215
#
# Static dielectric constant tensor:
#      x y z
#    x 3.458850 0.000000 -0.104170 
#    y 0.000000 4.019870 0.000000 
#    z -0.104170 0.000000 3.649120 
# 
# 
# High freq. dielectric constant tensor:
#      x y z
#    x 1.771510 0.000000 -0.010170 
#    y 0.000000 1.825160 0.000000 
#    z -0.010170 0.000000 1.787640 
# 
# From -- ./inp_files/40099.got.cif
#   From: 2010.03.12/outbox.cif.g09.slc.cpg/sg14_21_cif.got.tgz:40099.got - 2010.03.31 13:35:05.
