data_PCOD8123217
_publ_section_title
;
Structure prediction by ZEFSAII (Michael W. Deem and Ramdas Pophale) SiO2 
 PCOD8123217
Probable space group: P 2/C
;
_chemical_formula_sum "Si O2"
_cell_formula_units_Z 32
_cell_length_a 26.444049
_cell_length_b 9.932874
_cell_length_c 19.686627
_cell_angle_alpha 90.000000
_cell_angle_beta 22.721308
_cell_angle_gamma 90.000000
_cell_volume 1997.292522
_symmetry_space_group_name_H-M "P 2/C"
_symmetry_group_IT_number 13
_symmetry_cell_setting 'monoclinic'
loop_
_space_group_symop_operation_xyz
x,y,z
-x,y,1/2-z
-x,-y,-z
x,-y,1/2+z
loop_
_atom_site_type_symbol
_atom_site_label
_atom_site_fract_x
_atom_site_fract_y
_atom_site_fract_z
Si Si1 0.610722 0.898108 0.942408
Si Si2 0.604468 0.400064 0.288691
Si Si3 0.892601 0.910118 0.434647
Si Si4 0.892601 0.410118 0.934647
Si Si5 0.389278 0.398107 0.057591
Si Si6 0.092927 0.591894 0.929353
Si Si7 0.907074 0.908106 0.570647
Si Si8 0.395532 0.900064 0.711309
O O1 0.577146 0.750000 0.012997
O O2 0.758776 0.937192 0.778607
O O3 0.597038 0.894707 0.878720
O O4 0.508756 0.004001 0.101266
O O5 0.597038 0.394706 0.378720
O O6 0.491244 0.496000 0.398734
O O7 0.582723 0.250000 0.285827
O O8 0.747659 0.458542 0.091053
O O9 0.891689 0.750000 0.434056
O O10 0.925929 0.956500 0.469585
O O11 0.747659 0.958542 0.591053
O O12 0.000000 0.971105 0.250000
O O13 0.000000 0.471106 0.750000
O O14 0.925929 0.456500 0.969585
O O15 0.241224 0.437192 0.221392
O O16 0.058633 0.750000 0.963479
O O17 0.000000 0.500000 0.000000
O O18 0.000000 0.000000 0.500000
#
# Coordination Sequence:
#
# PCOD8123217 Si02
#       8
#     4   4   4   4   4   4   4   4
#     4   8  14  24  37  56  82 106 129 163 205 241
#     4   8  13  22  39  61  79  99 132 169 202 237
#     4   8  14  26  44  64  85 108 135 170 209 244
#     4   8  14  26  44  64  85 108 135 170 209 244
#     4   8  14  24  37  56  82 106 129 163 205 241
#     4   9  17  28  43  63  85 110 138 168 205 246
#     4   9  17  28  43  63  85 110 138 168 205 246
#     4   8  13  22  39  61  79  99 132 169 202 237
#
# _framework density 16.021688999999999
#
# number of rings (size 3 to 8) (size 9 to 14) (size 15 to 20)
#    0.000    3.750    0.000    3.000    0.000    1.000 
#    0.000    3.750    0.000    4.500    0.000   10.500 
#    0.000    0.000    0.000    0.000    0.000    0.000 
#
# Total GULP energy -396507.276799 kJ/mol
# GULP energy per Si atom -12390.852400 kJ/mol
# Density = 1.598522 g / cm^3
# Si number density = 16.021689 Si / 1000 Ang^3
#
#
#
# Elastic Constant Matrix: (Units=GPa)
#
#
# Indices 1 2 3 4 5 6 
#
# 1 47.7878 36.8556 50.5302 0.0000 -12.8448 0.0000
# 2 36.8556 78.4376 72.4727 0.0000 -18.2316 0.0000
# 3 50.5302 72.4727 148.1364 0.0000 -13.9300 0.0000
# 4 0.0000 0.0000 0.0000 27.0049 0.0000 -10.6583
# 5 -12.8448 -18.2316 -13.9300 0.0000 24.0424 0.0000
# 6 0.0000 0.0000 0.0000 -10.6583 0.0000 19.0213
#
#
#
# Elastic Compliance Matrix: (Units=1/GPa)
#
#
# Indices 1 2 3 4 5 6 
#
# 1 0.038578 -0.008358 -0.008173 0.000000 0.009537 0.000000
# 2 -0.008358 0.028658 -0.010096 0.000000 0.011417 0.000000
# 3 -0.008173 -0.010096 0.014116 0.000000 -0.003843 0.000000
# 4 0.000000 0.000000 0.000000 0.047545 0.000000 0.026641
# 5 0.009537 0.011417 -0.003843 0.000000 0.053119 0.000000
# 6 0.000000 0.000000 0.000000 0.026641 0.000000 0.067500
#
#
# Mechanical properties :
#
#
# Convention : Reuss Voigt Hill
#
# Bulk Modulus (GPa) = 35.59037 66.00875 50.79956
# Shear Modulus (GPa) = 16.01866 21.64727 18.83297
#
# Velocity S-wave (km/s) = 3.16541 3.67975 3.43223
# Velocity P-wave (km/s) = 5.96840 7.70345 6.89075
#
# Compressibility (1/GPa) = 0.02809749
#
# Stress axis : x y z
#
# Youngs Moduli (GPa) = 25.92178 34.89440 70.84094
#
# Poissons Ratio (x) = 0.29166 0.57899
# Poissons Ratio (y) = 0.21666 0.71519
# Poissons Ratio (z) = 0.21186 0.35228
#
# Static dielectric constant tensor:
#      x y z
#    x 2.622410 0.000000 -0.012460 
#    y 0.000000 3.092340 0.000000 
#    z -0.012460 0.000000 3.478160 
# 
# 
# High freq. dielectric constant tensor:
#      x y z
#    x 1.563540 0.000000 -0.015870 
#    y 0.000000 1.595280 0.000000 
#    z -0.015870 0.000000 1.625310 
# 
# From -- ./inp_files/89642.got.cif
#   From: 2010.06.25/outbox.cif.g09.slc.cpg/sg13_45_cif.got.tgz:89642.got - 2010.06.28 04:50:58.
