data_PCOD8123880
_publ_section_title
;
Structure prediction by ZEFSAII (Michael W. Deem and Ramdas Pophale) SiO2 
 PCOD8123880
Probable space group: P 21/C
;
_chemical_formula_sum "Si O2"
_cell_formula_units_Z 28
_cell_length_a 15.825842
_cell_length_b 11.720663
_cell_length_c 10.222898
_cell_angle_alpha 90.000000
_cell_angle_beta 47.707432
_cell_angle_gamma 90.000000
_cell_volume 1402.682718
_symmetry_space_group_name_H-M "P 21/C"
_symmetry_group_IT_number 14
_symmetry_cell_setting 'monoclinic'
loop_
_space_group_symop_operation_xyz
x,y,z
-x,1/2+y,1/2-z
-x,-y,-z
x,1/2-y,1/2+z
loop_
_atom_site_type_symbol
_atom_site_label
_atom_site_fract_x
_atom_site_fract_y
_atom_site_fract_z
Si Si1 0.707860 0.186507 0.764515
Si Si2 0.548044 0.896519 0.367257
Si Si3 0.133577 0.016635 0.352594
Si Si4 0.453346 0.345025 0.549761
Si Si5 0.680381 0.365945 0.009168
Si Si6 0.274091 0.106542 0.439454
Si Si7 0.721615 0.858874 0.984161
O O1 0.719170 0.304181 0.833879
O O2 0.721025 0.206320 0.594002
O O3 0.808709 0.106942 0.709114
O O4 0.586819 0.118596 0.909924
O O5 0.552814 0.791558 0.462236
O O6 0.457602 0.867715 0.345963
O O7 0.500000 0.000000 0.500000
O O8 0.674555 0.909266 0.171569
O O9 0.177433 0.092621 0.428641
O O10 0.162919 0.079372 0.184281
O O11 0.000000 0.000000 0.500000
O O12 0.399990 0.384956 0.743689
O O13 0.377293 0.395813 0.513865
O O14 0.728708 0.496077 0.961695
O O15 0.250435 0.223671 0.541103
#
# Coordination Sequence:
#
# PCOD8123880 Si02
#       7
#     4   4   4   4   4   4   4
#     4  10  21  37  59  89 123 158 193 247 305 362
#     4  10  19  29  52  90 126 152 188 236 297 379
#     4  10  23  41  58  81 114 164 217 250 291 348
#     4   9  18  32  54  86 120 153 188 233 311 372
#     4  10  20  35  57  88 125 150 191 239 309 371
#     4   9  20  36  59  85 115 153 198 250 303 368
#     4  10  19  36  60  83 118 159 195 247 306 362
#
# _framework density 19.961749999999999
#
# number of rings (size 3 to 8) (size 9 to 14) (size 15 to 20)
#    0.000    2.286    1.429    0.857    2.000    4.000 
#    5.143    0.000    0.000    0.857    0.000    0.000 
#    0.000    0.000    0.000    0.000    0.000    0.000 
#
# Total GULP energy -346976.513755 kJ/mol
# GULP energy per Si atom -12392.018348 kJ/mol
# Density = 1.991632 g / cm^3
# Si number density = 19.961750 Si / 1000 Ang^3
#
#
#
# Elastic Constant Matrix: (Units=GPa)
#
#
# Indices 1 2 3 4 5 6 
#
# 1 57.1850 33.2116 40.5727 0.0000 -6.2503 0.0000
# 2 33.2116 108.0900 56.8290 0.0000 7.5865 0.0000
# 3 40.5727 56.8290 103.4851 0.0000 -12.2387 0.0000
# 4 0.0000 0.0000 0.0000 29.6250 0.0000 6.4626
# 5 -6.2503 7.5865 -12.2387 0.0000 36.5078 0.0000
# 6 0.0000 0.0000 0.0000 6.4626 0.0000 26.4336
#
#
#
# Elastic Compliance Matrix: (Units=1/GPa)
#
#
# Indices 1 2 3 4 5 6 
#
# 1 0.025414 -0.004122 -0.007377 0.000000 0.002735 0.000000
# 2 -0.004122 0.014744 -0.007213 0.000000 -0.006188 0.000000
# 3 -0.007377 -0.007213 0.017227 0.000000 0.006011 0.000000
# 4 0.000000 0.000000 0.000000 0.035657 0.000000 -0.008718
# 5 0.002735 -0.006188 0.006011 0.000000 0.031161 0.000000
# 6 0.000000 0.000000 0.000000 -0.008718 0.000000 0.039962
#
#
# Mechanical properties :
#
#
# Convention : Reuss Voigt Hill
#
# Bulk Modulus (GPa) = 50.09417 58.88742 54.49080
# Shear Modulus (GPa) = 24.01053 27.72306 25.86679
#
# Velocity S-wave (km/s) = 3.47194 3.73072 3.60365
# Velocity P-wave (km/s) = 6.42044 6.93699 6.68371
#
# Compressibility (1/GPa) = 0.01996240
#
# Stress axis : x y z
#
# Youngs Moduli (GPa) = 39.34863 67.82195 58.04827
#
# Poissons Ratio (x) = 0.27958 0.42820
# Poissons Ratio (y) = 0.16220 0.41868
# Poissons Ratio (z) = 0.29026 0.48917
#
# Static dielectric constant tensor:
#      x y z
#    x 3.488190 0.000000 0.173640 
#    y 0.000000 3.620310 0.000000 
#    z 0.173640 0.000000 3.437740 
# 
# 
# High freq. dielectric constant tensor:
#      x y z
#    x 1.757660 0.000000 0.023440 
#    y 0.000000 1.782330 0.000000 
#    z 0.023440 0.000000 1.750060 
# 
# From -- ./inp_files/33795.got.cif
#   From: 2010.03.12/outbox.cif.g09.slc.cpg/sg14_17_cif.got.tgz:33795.got - 2010.03.31 13:35:05.
