data_PCOD8123151
_publ_section_title
;
Structure prediction by ZEFSAII (Michael W. Deem and Ramdas Pophale) SiO2 
 PCOD8123151
Probable space group: P 2/C
;
_chemical_formula_sum "Si O2"
_cell_formula_units_Z 12
_cell_length_a 4.990878
_cell_length_b 13.992656
_cell_length_c 9.429168
_cell_angle_alpha 90.000000
_cell_angle_beta 53.742631
_cell_angle_gamma 90.000000
_cell_volume 530.987215
_symmetry_space_group_name_H-M "P 2/C"
_symmetry_group_IT_number 13
_symmetry_cell_setting 'monoclinic'
loop_
_space_group_symop_operation_xyz
x,y,z
-x,y,1/2-z
-x,-y,-z
x,-y,1/2+z
loop_
_atom_site_type_symbol
_atom_site_label
_atom_site_fract_x
_atom_site_fract_y
_atom_site_fract_z
Si Si1 0.613500 0.752473 0.359543
Si Si2 0.203039 0.063573 0.047688
Si Si3 0.388883 0.589602 0.626059
O O1 0.500000 0.697395 0.250000
O O2 0.357707 0.841105 0.433160
O O3 0.556390 0.684881 0.511831
O O4 0.000000 0.784858 0.250000
O O5 0.000000 0.093806 0.250000
O O6 0.500000 0.000000 0.000000
O O7 0.000000 0.000000 0.000000
O O8 0.500000 0.572927 0.750000
O O9 0.500000 0.500000 0.500000
O O10 0.000000 0.602608 0.750000
#
# Coordination Sequence:
#
# PCOD8123151 Si02
#       3
#     4   4   4
#     4  12  25  44  68  99 136 181 230 284 342 409
#     4  12  25  43  66  95 131 174 224 280 339 401
#     4  12  25  45  71 104 141 183 228 282 342 410
#
# _framework density 22.599415
#
# number of rings (size 3 to 8) (size 9 to 14) (size 15 to 20)
#    0.000    0.000    0.000   12.000    0.000    2.667 
#    0.000    0.000    0.000    0.000    0.000    0.000 
#    0.000    0.000    0.000    0.000    0.000    0.000 
#
# Total GULP energy -148794.985796 kJ/mol
# GULP energy per Si atom -12399.582150 kJ/mol
# Density = 2.254798 g / cm^3
# Si number density = 22.599415 Si / 1000 Ang^3
#
#
#
# Elastic Constant Matrix: (Units=GPa)
#
#
# Indices 1 2 3 4 5 6 
#
# 1 188.5318 49.7763 74.2818 0.0000 7.6532 0.0000
# 2 49.7763 138.7224 57.2652 0.0000 -1.2250 0.0000
# 3 74.2818 57.2652 159.0107 0.0000 3.0710 0.0000
# 4 0.0000 0.0000 0.0000 38.3047 0.0000 0.8892
# 5 7.6532 -1.2250 3.0710 0.0000 59.0296 0.0000
# 6 0.0000 0.0000 0.0000 0.8892 0.0000 36.6680
#
#
#
# Elastic Compliance Matrix: (Units=1/GPa)
#
#
# Indices 1 2 3 4 5 6 
#
# 1 0.006730 -0.001327 -0.002651 0.000000 -0.000762 0.000000
# 2 -0.001327 0.008736 -0.002535 0.000000 0.000485 0.000000
# 3 -0.002651 -0.002535 0.008443 0.000000 -0.000148 0.000000
# 4 0.000000 0.000000 0.000000 0.026121 0.000000 -0.000633
# 5 -0.000762 0.000485 -0.000148 0.000000 0.017057 0.000000
# 6 0.000000 0.000000 0.000000 -0.000633 0.000000 0.027287
#
#
# Mechanical properties :
#
#
# Convention : Reuss Voigt Hill
#
# Bulk Modulus (GPa) = 91.89919 94.32351 93.11135
# Shear Modulus (GPa) = 45.03300 47.12990 46.08145
#
# Velocity S-wave (km/s) = 4.46877 4.57162 4.52049
# Velocity P-wave (km/s) = 8.20848 8.34830 8.27869
#
# Compressibility (1/GPa) = 0.01088149
#
# Stress axis : x y z
#
# Youngs Moduli (GPa) = 148.58635 114.47178 118.43574
#
# Poissons Ratio (x) = 0.15192 0.31401
# Poissons Ratio (y) = 0.19720 0.30029
# Poissons Ratio (z) = 0.39395 0.29024
#
# Static dielectric constant tensor:
#      x y z
#    x 4.231070 0.000000 -0.153100 
#    y 0.000000 8.757660 0.000000 
#    z -0.153100 0.000000 5.078240 
# 
# 
# High freq. dielectric constant tensor:
#      x y z
#    x 1.915720 0.000000 0.000650 
#    y 0.000000 1.893590 0.000000 
#    z 0.000650 0.000000 1.919190 
# 
# From -- ./inp_files/8707.got.cif
#   From: 2010.06.25/outbox.cif.g09.slc.cpg/sg13_5_cif.got.tgz:8707.got - 2010.06.28 04:50:58.
