data_PCOD8123084
_publ_section_title
;
Structure prediction by ZEFSAII (Michael W. Deem and Ramdas Pophale) SiO2 
 PCOD8123084
Probable space group: P 2/C
;
_chemical_formula_sum "Si O2"
_cell_formula_units_Z 28
_cell_length_a 14.722347
_cell_length_b 17.896186
_cell_length_c 9.618719
_cell_angle_alpha 90.000000
_cell_angle_beta 36.072936
_cell_angle_gamma 90.000000
_cell_volume 1492.221752
_symmetry_space_group_name_H-M "P 2/C"
_symmetry_group_IT_number 13
_symmetry_cell_setting 'monoclinic'
loop_
_space_group_symop_operation_xyz
x,y,z
-x,y,1/2-z
-x,-y,-z
x,-y,1/2+z
loop_
_atom_site_type_symbol
_atom_site_label
_atom_site_fract_x
_atom_site_fract_y
_atom_site_fract_z
Si Si1 0.318253 0.369925 0.815911
Si Si2 0.685548 0.797391 0.172763
Si Si3 0.315334 0.930995 0.137539
Si Si4 0.113014 0.496731 0.486145
Si Si5 0.683198 0.069229 0.179997
Si Si6 0.669513 0.370356 0.373321
Si Si7 0.681460 0.796821 0.868742
O O1 0.258842 0.285985 0.856646
O O2 0.206192 0.425922 0.875417
O O3 0.492319 0.379871 0.545333
O O4 0.312405 0.387037 0.986384
O O5 0.748354 0.855931 0.209147
O O6 0.502026 0.799500 0.396714
O O7 0.745981 0.818003 0.942682
O O8 0.255046 0.000413 0.303854
O O9 0.251313 0.935700 0.058637
O O10 0.499247 0.931295 0.905010
O O11 0.231834 0.428381 0.336518
O O12 0.000000 0.500000 0.500000
O O13 0.000000 0.482650 0.750000
O O14 0.745000 0.145076 0.175925
O O15 0.730966 0.286839 0.264277
#
# Coordination Sequence:
#
# PCOD8123084 Si02
#       7
#     4   4   4   4   4   4   4
#     4   9  18  35  56  76 101 137 178 215 259 315
#     4   8  14  26  44  63  87 123 165 206 247 296
#     4   9  15  22  34  57  91 127 161 198 244 294
#     4  12  23  38  55  78 108 136 170 216 265 317
#     4   9  15  22  34  57  91 127 161 198 244 295
#     4   9  18  35  56  76 101 137 178 215 259 314
#     4   8  14  26  44  63  87 123 165 206 247 295
#
# _framework density 18.763967000000001
#
# number of rings (size 3 to 8) (size 9 to 14) (size 15 to 20)
#    0.000    2.857    1.429    3.000    0.000    3.429 
#    2.571    0.000    0.000    0.000    0.000    0.000 
#    0.000    2.286    0.000    0.143    0.000    0.571 
#
# Total GULP energy -347055.259875 kJ/mol
# GULP energy per Si atom -12394.830710 kJ/mol
# Density = 1.872126 g / cm^3
# Si number density = 18.763967 Si / 1000 Ang^3
#
#
#
# Elastic Constant Matrix: (Units=GPa)
#
#
# Indices 1 2 3 4 5 6 
#
# 1 86.4707 68.9369 45.0186 0.0000 27.4780 0.0000
# 2 68.9369 171.3505 63.5375 0.0000 26.7518 0.0000
# 3 45.0186 63.5375 73.5771 0.0000 23.3999 0.0000
# 4 0.0000 0.0000 0.0000 13.7633 0.0000 17.5456
# 5 27.4780 26.7518 23.3999 0.0000 28.7109 0.0000
# 6 0.0000 0.0000 0.0000 17.5456 0.0000 21.3391
#
#
#
# Elastic Compliance Matrix: (Units=1/GPa)
#
#
# Indices 1 2 3 4 5 6 
#
# 1 0.022286 -0.005064 -0.005373 0.000000 -0.012231 0.000000
# 2 -0.005064 0.009887 -0.005468 0.000000 0.000091 0.000000
# 3 -0.005373 -0.005468 0.024764 0.000000 -0.009946 0.000000
# 4 0.000000 0.000000 0.000000 -1.507753 0.000000 1.239720
# 5 -0.012231 0.000091 -0.009946 0.000000 0.054557 0.000000
# 6 0.000000 0.000000 0.000000 1.239720 0.000000 -0.972473
#
#
# Mechanical properties :
#
#
# Convention : Reuss Voigt Hill
#
# Bulk Modulus (GPa) = 39.79889 76.26492 58.03191
# Shear Modulus (GPa) = -2.14726 23.02301 10.43788
#
# Velocity S-wave (km/s) = -1.07091 3.50663 2.36110
# Velocity P-wave (km/s) = 4.44153 7.55830 6.19899
#
# Compressibility (1/GPa) = 0.02512633
#
# Stress axis : x y z
#
# Youngs Moduli (GPa) = 44.87166 101.14533 40.38187
#
# Poissons Ratio (x) = 0.51221 0.21695
# Poissons Ratio (y) = 0.22724 0.22082
# Poissons Ratio (z) = 0.24108 0.55308
#
# Static dielectric constant tensor:
#      x y z
#    x 3.238450 0.000000 0.293910 
#    y 0.000000 3.630680 0.000000 
#    z 0.293910 0.000000 3.198300 
# 
# 
# High freq. dielectric constant tensor:
#      x y z
#    x 1.700300 0.000000 0.027190 
#    y 0.000000 1.742780 0.000000 
#    z 0.027190 0.000000 1.692740 
# 
# From -- ./inp_files/20067.got.cif
#   From: 2010.06.25/outbox.cif.g09.slc.cpg/sg13_11_cif.got.tgz:20067.got - 2010.06.28 04:50:58.
