data_PCOD8123373
_publ_section_title
;
Structure prediction by ZEFSAII (Michael W. Deem and Ramdas Pophale) SiO2 
 PCOD8123373
Probable space group: P 21/C
;
_chemical_formula_sum "Si O2"
_cell_formula_units_Z 24
_cell_length_a 9.555213
_cell_length_b 9.252842
_cell_length_c 20.378363
_cell_angle_alpha 90.000000
_cell_angle_beta 41.949878
_cell_angle_gamma 90.000000
_cell_volume 1204.407344
_symmetry_space_group_name_H-M "P 21/C"
_symmetry_group_IT_number 14
_symmetry_cell_setting 'monoclinic'
loop_
_space_group_symop_operation_xyz
x,y,z
-x,1/2+y,1/2-z
-x,-y,-z
x,1/2-y,1/2+z
loop_
_atom_site_type_symbol
_atom_site_label
_atom_site_fract_x
_atom_site_fract_y
_atom_site_fract_z
Si Si1 0.555699 0.338241 0.503385
Si Si2 0.112901 0.603556 0.310578
Si Si3 0.022818 0.293253 0.379927
Si Si4 0.114171 0.355445 0.483245
Si Si5 0.182685 0.102790 0.210530
Si Si6 0.419767 0.689013 0.645945
O O1 0.500000 0.500000 0.500000
O O2 0.378322 0.296577 0.618468
O O3 0.550228 0.244138 0.438275
O O4 0.778943 0.333163 0.460069
O O5 0.155095 0.437803 0.316328
O O6 0.334286 0.684492 0.222987
O O7 0.983787 0.689664 0.412471
O O8 0.990766 0.607052 0.284941
O O9 0.070063 0.243466 0.438675
O O10 0.086458 0.163724 0.310717
O O11 0.363428 0.374527 0.402610
O O12 0.000000 0.500000 0.500000
O O13 0.248335 0.938471 0.202236
#
# Coordination Sequence:
#
# PCOD8123373 Si02
#       6
#     4   4   4   4   4   4
#     4  10  17  34  58  80 104 152 188 219 271 344
#     4  11  19  37  59  84 112 148 193 235 280 333
#     4  11  22  36  58  86 114 144 194 237 276 337
#     4  10  22  38  58  85 115 154 191 228 278 349
#     4  11  19  36  60  85 109 150 194 235 275 338
#     4  11  21  35  62  84 112 151 193 231 282 335
#
# _framework density 19.926812000000002
#
# number of rings (size 3 to 8) (size 9 to 14) (size 15 to 20)
#    0.000    1.333    6.667    3.000    0.000    4.000 
#    0.000    3.333    0.000    0.000    0.000    0.000 
#    0.000    0.000    0.000    0.000    0.000    0.000 
#
# Total GULP energy -297444.042736 kJ/mol
# GULP energy per Si atom -12393.501781 kJ/mol
# Density = 1.988146 g / cm^3
# Si number density = 19.926812 Si / 1000 Ang^3
#
#
#
# Elastic Constant Matrix: (Units=GPa)
#
#
# Indices 1 2 3 4 5 6 
#
# 1 110.9353 3.3135 16.5746 0.0000 5.2779 0.0000
# 2 3.3135 16.8319 -5.7641 0.0000 -5.0468 0.0000
# 3 16.5746 -5.7641 39.5822 0.0000 -2.5521 0.0000
# 4 0.0000 0.0000 0.0000 26.7426 0.0000 3.6885
# 5 5.2779 -5.0468 -2.5521 0.0000 44.1426 0.0000
# 6 0.0000 0.0000 0.0000 3.6885 0.0000 19.2062
#
#
#
# Elastic Compliance Matrix: (Units=1/GPa)
#
#
# Indices 1 2 3 4 5 6 
#
# 1 0.009969 -0.004234 -0.004917 0.000000 -0.001960 0.000000
# 2 -0.004234 0.067052 0.012109 0.000000 0.008872 0.000000
# 3 -0.004917 0.012109 0.029323 0.000000 0.003668 0.000000
# 4 0.000000 0.000000 0.000000 0.038411 0.000000 -0.007377
# 5 -0.001960 0.008872 0.003668 0.000000 0.024115 0.000000
# 6 0.000000 0.000000 0.000000 -0.007377 0.000000 0.053483
#
#
# Mechanical properties :
#
#
# Convention : Reuss Voigt Hill
#
# Bulk Modulus (GPa) = 8.90796 21.73305 15.32050
# Shear Modulus (GPa) = 19.69621 28.23330 23.96476
#
# Velocity S-wave (km/s) = 3.14734 3.76819 3.47167
# Velocity P-wave (km/s) = 4.20567 5.46466 4.87597
#
# Compressibility (1/GPa) = 0.11225918
#
# Stress axis : x y z
#
# Youngs Moduli (GPa) = 100.31432 14.91386 34.10317
#
# Poissons Ratio (x) = 0.06315 0.16769
# Poissons Ratio (y) = 0.42474 -0.41297
# Poissons Ratio (z) = 0.49327 -0.18060
#
# Static dielectric constant tensor:
#      x y z
#    x 3.961190 0.000000 0.417860 
#    y 0.000000 3.180870 0.000000 
#    z 0.417860 0.000000 4.534450 
# 
# 
# High freq. dielectric constant tensor:
#      x y z
#    x 1.788840 0.000000 0.009470 
#    y 0.000000 1.719110 0.000000 
#    z 0.009470 0.000000 1.791890 
# 
# From -- ./inp_files/64746.got.cif
#   From: 2010.03.12/outbox.cif.g09.slc.cpg/sg14_33_cif.got.tgz:64746.got - 2010.03.31 13:35:05.
