data_PCOD8123854
_publ_section_title
;
Structure prediction by ZEFSAII (Michael W. Deem and Ramdas Pophale) SiO2 
 PCOD8123854
Probable space group: P 21/C
;
_chemical_formula_sum "Si O2"
_cell_formula_units_Z 32
_cell_length_a 8.676146
_cell_length_b 12.121798
_cell_length_c 14.607140
_cell_angle_alpha 90.000000
_cell_angle_beta 95.576941
_cell_angle_gamma 90.000000
_cell_volume 1528.968409
_symmetry_space_group_name_H-M "P 21/C"
_symmetry_group_IT_number 14
_symmetry_cell_setting 'monoclinic'
loop_
_space_group_symop_operation_xyz
x,y,z
-x,1/2+y,1/2-z
-x,-y,-z
x,1/2-y,1/2+z
loop_
_atom_site_type_symbol
_atom_site_label
_atom_site_fract_x
_atom_site_fract_y
_atom_site_fract_z
Si Si1 0.043961 0.469323 0.260359
Si Si2 0.246386 0.677624 0.744446
Si Si3 0.876099 0.234450 0.435363
Si Si4 0.148633 0.371058 0.867006
Si Si5 0.096717 0.666440 0.380089
Si Si6 0.521960 0.615501 0.871260
Si Si7 0.695640 0.042880 0.492361
Si Si8 0.217379 0.235977 0.702553
O O1 0.109686 0.540057 0.349120
O O2 0.176991 0.387310 0.234372
O O3 0.892364 0.405405 0.284582
O O4 0.991135 0.552214 0.177471
O O5 0.255202 0.745655 0.650152
O O6 0.212096 0.758247 0.827114
O O7 0.401118 0.608555 0.778790
O O8 0.858221 0.329251 0.510771
O O9 0.845379 0.115277 0.479879
O O10 0.053668 0.229189 0.409460
O O11 0.250698 0.316931 0.790980
O O12 0.259661 0.438739 0.940548
O O13 0.922768 0.713376 0.362798
O O14 0.624827 0.504761 0.892976
O O15 0.632526 0.721082 0.854858
O O16 0.426684 0.622778 0.961691
#
# Coordination Sequence:
#
# PCOD8123854 Si02
#       8
#     4   4   4   4   4   4   4   4
#     4  10  18  40  61  85 125 158 210 251 309 368
#     4  11  22  41  58  91 128 160 209 254 312 373
#     4  12  21  39  68  95 120 164 210 266 313 365
#     4  11  20  38  67  94 121 160 209 271 310 357
#     4  10  21  39  63  91 120 161 212 261 306 373
#     4  11  23  38  59  91 132 160 198 262 309 379
#     4  11  23  38  64  97 124 165 216 258 316 371
#     4  10  21  39  60  92 128 163 205 261 316 371
#
# _framework density 20.929144999999998
#
# number of rings (size 3 to 8) (size 9 to 14) (size 15 to 20)
#    0.000    1.250    6.250    2.625    0.000    2.500 
#    0.000    0.000    0.000    0.750    0.000    0.000 
#    0.000    0.000    0.000    0.000    0.000    0.000 
#
# Total GULP energy -396565.103848 kJ/mol
# GULP energy per Si atom -12392.659495 kJ/mol
# Density = 2.088151 g / cm^3
# Si number density = 20.929145 Si / 1000 Ang^3
#
#
#
# Elastic Constant Matrix: (Units=GPa)
#
#
# Indices 1 2 3 4 5 6 
#
# 1 67.7636 14.3236 30.1414 0.0000 5.9815 0.0000
# 2 14.3236 66.7730 29.5973 0.0000 1.7321 0.0000
# 3 30.1414 29.5973 110.5680 0.0000 5.9424 0.0000
# 4 0.0000 0.0000 0.0000 37.9011 0.0000 2.5686
# 5 5.9815 1.7321 5.9424 0.0000 22.7484 0.0000
# 6 0.0000 0.0000 0.0000 2.5686 0.0000 24.0046
#
#
#
# Elastic Compliance Matrix: (Units=1/GPa)
#
#
# Indices 1 2 3 4 5 6 
#
# 1 0.017230 -0.001823 -0.004029 0.000000 -0.003339 0.000000
# 2 -0.001823 0.017185 -0.004116 0.000000 0.000246 0.000000
# 3 -0.004029 -0.004116 0.011330 0.000000 -0.001587 0.000000
# 4 0.000000 0.000000 0.000000 0.026577 0.000000 -0.002844
# 5 -0.003339 0.000246 -0.001587 0.000000 0.045233 0.000000
# 6 0.000000 0.000000 0.000000 -0.002844 0.000000 0.041963
#
#
# Mechanical properties :
#
#
# Convention : Reuss Voigt Hill
#
# Bulk Modulus (GPa) = 38.74975 43.69214 41.22095
# Shear Modulus (GPa) = 26.58747 28.33364 27.46055
#
# Velocity S-wave (km/s) = 3.56807 3.68338 3.62618
# Velocity P-wave (km/s) = 5.96069 6.24590 6.10496
#
# Compressibility (1/GPa) = 0.02580662
#
# Stress axis : x y z
#
# Youngs Moduli (GPa) = 58.03969 58.18865 88.26271
#
# Poissons Ratio (x) = 0.10610 0.35564
# Poissons Ratio (y) = 0.10583 0.36333
# Poissons Ratio (z) = 0.23386 0.23953
#
# Static dielectric constant tensor:
#      x y z
#    x 3.657890 0.000000 -0.015930 
#    y 0.000000 3.857320 0.000000 
#    z -0.015930 0.000000 3.843770 
# 
# 
# High freq. dielectric constant tensor:
#      x y z
#    x 1.801840 0.000000 -0.002580 
#    y 0.000000 1.803700 0.000000 
#    z -0.002580 0.000000 1.816730 
# 
# From -- ./inp_files/40339.got.cif
#   From: 2010.03.12/outbox.cif.g09.slc.cpg/sg14_21_cif.got.tgz:40339.got - 2010.03.31 13:35:05.
