data_PCOD8123395
_publ_section_title
;
Structure prediction by ZEFSAII (Michael W. Deem and Ramdas Pophale) SiO2 
 PCOD8123395
Probable space group: P 21/C
;
_chemical_formula_sum "Si O2"
_cell_formula_units_Z 28
_cell_length_a 12.429687
_cell_length_b 12.825602
_cell_length_c 16.325721
_cell_angle_alpha 90.000000
_cell_angle_beta 35.651684
_cell_angle_gamma 90.000000
_cell_volume 1516.951651
_symmetry_space_group_name_H-M "P 21/C"
_symmetry_group_IT_number 14
_symmetry_cell_setting 'monoclinic'
loop_
_space_group_symop_operation_xyz
x,y,z
-x,1/2+y,1/2-z
-x,-y,-z
x,1/2-y,1/2+z
loop_
_atom_site_type_symbol
_atom_site_label
_atom_site_fract_x
_atom_site_fract_y
_atom_site_fract_z
Si Si1 0.338986 0.488721 0.922318
Si Si2 0.905377 0.294531 0.178616
Si Si3 0.789158 0.657327 0.440007
Si Si4 0.464925 0.708253 0.144083
Si Si5 0.423871 0.177578 0.775420
Si Si6 0.187828 0.355585 0.870872
Si Si7 0.926635 0.981557 0.716432
O O1 0.462288 0.410130 0.900045
O O2 0.455710 0.594252 0.846900
O O3 0.293240 0.442014 0.860930
O O4 0.147664 0.512505 0.086508
O O5 0.731940 0.217301 0.277527
O O6 0.838957 0.404564 0.257326
O O7 0.044161 0.239577 0.155482
O O8 0.001628 0.320041 0.032323
O O9 0.618533 0.719700 0.503362
O O10 0.726239 0.621567 0.570757
O O11 0.846587 0.558199 0.351828
O O12 0.443302 0.749875 0.250933
O O13 0.316961 0.253779 0.778071
O O14 0.135143 0.403125 0.816761
#
# Coordination Sequence:
#
# PCOD8123395 Si02
#       7
#     4   4   4   4   4   4   4
#     4  10  17  35  59  80 105 150 186 221 269 336
#     4  10  18  38  58  76 110 150 178 229 280 321
#     4   9  21  37  50  84 118 135 179 237 277 314
#     4   9  18  35  59  76 113 143 182 223 282 314
#     4   8  17  35  52  80 116 136 179 229 265 326
#     4   9  18  32  58  83 107 140 194 221 266 326
#     4  11  19  34  60  81 106 146 190 223 271 328
#
# _framework density 18.458069999999999
#
# number of rings (size 3 to 8) (size 9 to 14) (size 15 to 20)
#    0.857    1.714    2.857    3.429    0.000    0.571 
#    2.571    7.857    0.000    0.000    0.000    0.000 
#    0.000    0.000    0.000    0.000    0.000    0.000 
#
# Total GULP energy -346958.321491 kJ/mol
# GULP energy per Si atom -12391.368625 kJ/mol
# Density = 1.841606 g / cm^3
# Si number density = 18.458070 Si / 1000 Ang^3
#
#
#
# Elastic Constant Matrix: (Units=GPa)
#
#
# Indices 1 2 3 4 5 6 
#
# 1 44.9374 10.1919 20.1732 0.0000 -18.6102 0.0000
# 2 10.1919 51.3410 15.4254 0.0000 -16.5155 0.0000
# 3 20.1732 15.4254 37.4447 0.0000 -24.4304 0.0000
# 4 0.0000 0.0000 0.0000 35.5943 0.0000 -7.0831
# 5 -18.6102 -16.5155 -24.4304 0.0000 26.8605 0.0000
# 6 0.0000 0.0000 0.0000 -7.0831 0.0000 27.9256
#
#
#
# Elastic Compliance Matrix: (Units=1/GPa)
#
#
# Indices 1 2 3 4 5 6 
#
# 1 0.031941 0.001037 -0.006839 0.000000 0.016548 0.000000
# 2 0.001037 0.024320 -0.000867 0.000000 0.014884 0.000000
# 3 -0.006839 -0.000867 0.067165 0.000000 0.055817 0.000000
# 4 0.000000 0.000000 0.000000 0.029588 0.000000 0.007505
# 5 0.016548 0.014884 0.055817 0.000000 0.108612 0.000000
# 6 0.000000 0.000000 0.000000 0.007505 0.000000 0.037713
#
#
# Mechanical properties :
#
#
# Convention : Reuss Voigt Hill
#
# Bulk Modulus (GPa) = 9.08362 25.03377 17.05869
# Shear Modulus (GPa) = 14.31139 23.93826 19.12482
#
# Velocity S-wave (km/s) = 2.78752 3.60516 3.22238
# Velocity P-wave (km/s) = 3.91054 5.56071 4.80696
#
# Compressibility (1/GPa) = 0.11008822
#
# Stress axis : x y z
#
# Youngs Moduli (GPa) = 31.30766 41.11855 14.88880
#
# Poissons Ratio (x) = -0.04264 0.10183
# Poissons Ratio (y) = -0.03247 0.01290
# Poissons Ratio (z) = 0.21412 0.03564
#
# Static dielectric constant tensor:
#      x y z
#    x 3.047870 0.000000 -0.188520 
#    y 0.000000 3.343160 0.000000 
#    z -0.188520 0.000000 3.244700 
# 
# 
# High freq. dielectric constant tensor:
#      x y z
#    x 1.685500 0.000000 -0.023490 
#    y 0.000000 1.713050 0.000000 
#    z -0.023490 0.000000 1.702460 
# 
# From -- ./inp_files/68433.got.cif
#   From: 2010.03.12/outbox.cif.g09.slc.cpg/sg14_35_cif.got.tgz:68433.got - 2010.03.31 13:35:05.
