data_PCOD8123489
_publ_section_title
;
Structure prediction by ZEFSAII (Michael W. Deem and Ramdas Pophale) SiO2 
 PCOD8123489
Probable space group: P 21/C
;
_chemical_formula_sum "Si O2"
_cell_formula_units_Z 28
_cell_length_a 9.522683
_cell_length_b 15.679620
_cell_length_c 9.079691
_cell_angle_alpha 90.000000
_cell_angle_beta 82.284563
_cell_angle_gamma 90.000000
_cell_volume 1343.434153
_symmetry_space_group_name_H-M "P 21/C"
_symmetry_group_IT_number 14
_symmetry_cell_setting 'monoclinic'
loop_
_space_group_symop_operation_xyz
x,y,z
-x,1/2+y,1/2-z
-x,-y,-z
x,1/2-y,1/2+z
loop_
_atom_site_type_symbol
_atom_site_label
_atom_site_fract_x
_atom_site_fract_y
_atom_site_fract_z
Si Si1 0.777722 0.053347 0.277653
Si Si2 0.794948 0.668286 0.022369
Si Si3 0.998820 0.099963 0.033507
Si Si4 0.006260 0.403786 0.216744
Si Si5 0.518949 0.535647 0.336504
Si Si6 0.261376 0.181186 0.151078
Si Si7 0.259709 0.522149 0.901947
O O1 0.632823 0.048935 0.211462
O O2 0.879128 0.119989 0.174590
O O3 0.743348 0.082423 0.452032
O O4 0.856180 0.962360 0.272654
O O5 0.813568 0.705973 0.183628
O O6 0.727746 0.574933 0.043213
O O7 0.695727 0.732160 0.940833
O O8 0.947770 0.664680 0.915234
O O9 0.151956 0.128464 0.066853
O O10 0.963715 0.142113 0.877630
O O11 0.000000 0.000000 0.000000
O O12 0.881204 0.463839 0.173952
O O13 0.500000 0.500000 0.500000
O O14 0.599113 0.626037 0.336873
O O15 0.605075 0.466288 0.224184
#
# Coordination Sequence:
#
# PCOD8123489 Si02
#       7
#     4   4   4   4   4   4   4
#     4  10  18  31  53  80 109 141 181 228 276 328
#     4  10  20  35  55  81 113 147 184 229 282 342
#     4  10  18  32  55  83 109 141 184 233 280 333
#     4  10  18  34  60  87 112 142 183 236 285 336
#     4  11  21  34  53  81 113 147 191 241 284 337
#     4  11  22  36  56  82 112 149 189 232 285 343
#     4  10  20  36  59  88 114 145 188 241 291 341
#
# _framework density 20.842106999999999
#
# number of rings (size 3 to 8) (size 9 to 14) (size 15 to 20)
#    0.000    1.714    0.000    9.857    0.000    1.143 
#    0.000    0.000    0.000   20.571    0.000    0.000 
#    0.000    0.000    0.000    0.000    0.000    0.000 
#
# Total GULP energy -346894.001548 kJ/mol
# GULP energy per Si atom -12389.071484 kJ/mol
# Density = 2.079467 g / cm^3
# Si number density = 20.842107 Si / 1000 Ang^3
#
#
#
# Elastic Constant Matrix: (Units=GPa)
#
#
# Indices 1 2 3 4 5 6 
#
# 1 135.9848 21.4181 41.4237 0.0000 14.4784 0.0000
# 2 21.4181 34.2279 22.0047 0.0000 5.8148 0.0000
# 3 41.4237 22.0047 192.2557 0.0000 -4.2568 0.0000
# 4 0.0000 0.0000 0.0000 30.6872 0.0000 5.5700
# 5 14.4784 5.8148 -4.2568 0.0000 37.5376 0.0000
# 6 0.0000 0.0000 0.0000 5.5700 0.0000 19.0218
#
#
#
# Elastic Compliance Matrix: (Units=1/GPa)
#
#
# Indices 1 2 3 4 5 6 
#
# 1 0.008752 -0.004022 -0.001490 0.000000 -0.002922 0.000000
# 2 -0.004022 0.034477 -0.003171 0.000000 -0.004149 0.000000
# 3 -0.001490 -0.003171 0.005924 0.000000 0.001738 0.000000
# 4 0.000000 0.000000 0.000000 0.034416 0.000000 -0.010078
# 5 -0.002922 -0.004149 0.001738 0.000000 0.028607 0.000000
# 6 0.000000 0.000000 0.000000 -0.010078 0.000000 0.055522
#
#
# Mechanical properties :
#
#
# Convention : Reuss Voigt Hill
#
# Bulk Modulus (GPa) = 31.46111 59.12905 45.29508
# Shear Modulus (GPa) = 25.55449 35.95745 30.75597
#
# Velocity S-wave (km/s) = 3.50537 4.15810 3.84561
# Velocity P-wave (km/s) = 5.61349 7.17528 6.44189
#
# Compressibility (1/GPa) = 0.03178528
#
# Stress axis : x y z
#
# Youngs Moduli (GPa) = 114.25585 29.00524 168.80778
#
# Poissons Ratio (x) = 0.11667 0.25154
# Poissons Ratio (y) = 0.45959 0.53532
# Poissons Ratio (z) = 0.17025 0.09198
#
# Static dielectric constant tensor:
#      x y z
#    x 4.211510 0.000000 -0.989050 
#    y 0.000000 3.419550 0.000000 
#    z -0.989050 0.000000 6.139710 
# 
# 
# High freq. dielectric constant tensor:
#      x y z
#    x 1.790570 0.000000 -0.002100 
#    y 0.000000 1.762680 0.000000 
#    z -0.002100 0.000000 1.866450 
# 
# From -- ./inp_files/9404.got.cif
#   From: 2010.03.12/outbox.cif.g09.slc.cpg/sg14_5_cif.got.tgz:9404.got - 2010.03.31 13:35:05.
