data_PCOD8123641
_publ_section_title
;
Structure prediction by ZEFSAII (Michael W. Deem and Ramdas Pophale) SiO2 
 PCOD8123641
Probable space group: P 21/C
;
_chemical_formula_sum "Si O2"
_cell_formula_units_Z 28
_cell_length_a 12.697586
_cell_length_b 15.185623
_cell_length_c 9.635605
_cell_angle_alpha 90.000000
_cell_angle_beta 128.903980
_cell_angle_gamma 90.000000
_cell_volume 1445.851623
_symmetry_space_group_name_H-M "P 21/C"
_symmetry_group_IT_number 14
_symmetry_cell_setting 'monoclinic'
loop_
_space_group_symop_operation_xyz
x,y,z
-x,1/2+y,1/2-z
-x,-y,-z
x,1/2-y,1/2+z
loop_
_atom_site_type_symbol
_atom_site_label
_atom_site_fract_x
_atom_site_fract_y
_atom_site_fract_z
Si Si1 0.793346 0.923857 0.138888
Si Si2 0.192293 0.408830 0.940256
Si Si3 0.401776 0.224446 0.725719
Si Si4 0.503059 0.848210 0.921087
Si Si5 0.026667 0.186046 0.515975
Si Si6 0.783238 0.432021 0.846149
Si Si7 0.164543 0.143895 0.112602
O O1 0.862020 0.842888 0.277376
O O2 0.829203 0.014567 0.246042
O O3 0.632502 0.910826 0.009304
O O4 0.848611 0.924331 0.026689
O O5 0.179831 0.413236 0.764046
O O6 0.330102 0.360128 0.098612
O O7 0.065512 0.355584 0.899172
O O8 0.193576 0.508290 0.998650
O O9 0.495839 0.269630 0.689036
O O10 0.293012 0.293125 0.695390
O O11 0.501161 0.192978 0.929282
O O12 0.372194 0.906866 0.789314
O O13 0.032406 0.292404 0.512476
O O14 0.877058 0.154413 0.435249
#
# Coordination Sequence:
#
# PCOD8123641 Si02
#       7
#     4   4   4   4   4   4   4
#     4  10  19  35  63  82 111 154 200 229 286 353
#     4  10  18  35  62  85 111 152 201 238 275 350
#     4  10  18  34  59  85 112 153 200 235 277 343
#     4  11  20  37  58  85 119 150 197 237 288 347
#     4  10  19  37  58  83 112 153 198 236 285 349
#     4  11  23  37  57  88 122 152 184 246 304 336
#     4  10  18  35  62  87 104 149 210 239 264 344
#
# _framework density 19.365749999999998
#
# number of rings (size 3 to 8) (size 9 to 14) (size 15 to 20)
#    0.000    1.714    5.714    3.857    0.000    0.000 
#    5.143    7.143    0.000    0.000    0.000    0.000 
#    0.000    0.000    0.000    0.000    0.000    0.000 
#
# Total GULP energy -347206.824447 kJ/mol
# GULP energy per Si atom -12400.243730 kJ/mol
# Density = 1.932167 g / cm^3
# Si number density = 19.365750 Si / 1000 Ang^3
#
#
#
# Elastic Constant Matrix: (Units=GPa)
#
#
# Indices 1 2 3 4 5 6 
#
# 1 69.4613 37.5463 62.6436 0.0000 -12.9376 0.0000
# 2 37.5463 70.9859 38.8630 0.0000 -6.5359 0.0000
# 3 62.6436 38.8630 99.4452 0.0000 -27.2045 0.0000
# 4 0.0000 0.0000 0.0000 19.0707 0.0000 3.3372
# 5 -12.9376 -6.5359 -27.2045 0.0000 42.9024 0.0000
# 6 0.0000 0.0000 0.0000 3.3372 0.0000 27.0131
#
#
#
# Elastic Compliance Matrix: (Units=1/GPa)
#
#
# Indices 1 2 3 4 5 6 
#
# 1 0.037534 -0.008535 -0.021255 0.000000 -0.003459 0.000000
# 2 -0.008535 0.020016 -0.002802 0.000000 -0.001301 0.000000
# 3 -0.021255 -0.002802 0.027427 0.000000 0.010555 0.000000
# 4 0.000000 0.000000 0.000000 0.053595 0.000000 -0.006621
# 5 -0.003459 -0.001301 0.010555 0.000000 0.028761 0.000000
# 6 0.000000 0.000000 0.000000 -0.006621 0.000000 0.037837
#
#
# Mechanical properties :
#
#
# Convention : Reuss Voigt Hill
#
# Bulk Modulus (GPa) = 50.51912 57.55537 54.03725
# Shear Modulus (GPa) = 18.05373 24.51987 21.28680
#
# Velocity S-wave (km/s) = 3.05659 3.56216 3.31901
# Velocity P-wave (km/s) = 6.21293 6.83398 6.53084
#
# Compressibility (1/GPa) = 0.01979448
#
# Stress axis : x y z
#
# Youngs Moduli (GPa) = 26.64223 49.96092 36.45991
#
# Poissons Ratio (x) = 0.42641 0.77496
# Poissons Ratio (y) = 0.22739 0.10215
# Poissons Ratio (z) = 0.56628 0.13997
#
# Static dielectric constant tensor:
#      x y z
#    x 3.428940 0.000000 -0.244170 
#    y 0.000000 3.339860 0.000000 
#    z -0.244170 0.000000 3.533260 
# 
# 
# High freq. dielectric constant tensor:
#      x y z
#    x 1.735870 0.000000 -0.014570 
#    y 0.000000 1.732310 0.000000 
#    z -0.014570 0.000000 1.752060 
# 
# From -- ./inp_files/12891.got.cif
#   From: 2010.03.12/outbox.cif.g09.slc.cpg/sg14_7_cif.got.tgz:12891.got - 2010.03.31 13:35:05.
