data_PCOD8123499
_publ_section_title
;
Structure prediction by ZEFSAII (Michael W. Deem and Ramdas Pophale) SiO2 
 PCOD8123499
Probable space group: P 21/C
;
_chemical_formula_sum "Si O2"
_cell_formula_units_Z 32
_cell_length_a 16.092810
_cell_length_b 21.066510
_cell_length_c 4.937909
_cell_angle_alpha 90.000000
_cell_angle_beta 106.681609
_cell_angle_gamma 90.000000
_cell_volume 1603.593880
_symmetry_space_group_name_H-M "P 21/C"
_symmetry_group_IT_number 14
_symmetry_cell_setting 'monoclinic'
loop_
_space_group_symop_operation_xyz
x,y,z
-x,1/2+y,1/2-z
-x,-y,-z
x,1/2-y,1/2+z
loop_
_atom_site_type_symbol
_atom_site_label
_atom_site_fract_x
_atom_site_fract_y
_atom_site_fract_z
Si Si1 0.248374 0.115223 0.415077
Si Si2 0.388724 0.916567 0.026002
Si Si3 0.391567 0.291003 0.852066
Si Si4 0.094639 0.790218 0.781469
Si Si5 0.718759 0.294571 0.436064
Si Si6 0.498382 0.094870 0.388261
Si Si7 0.314649 0.453814 0.507276
Si Si8 0.092527 0.294961 0.790771
O O1 0.304814 0.171219 0.338961
O O2 0.245329 0.059932 0.182876
O O3 0.154674 0.144593 0.390864
O O4 0.291087 0.087743 0.725002
O O5 0.348736 0.851144 0.094087
O O6 0.463111 0.939643 0.308692
O O7 0.315524 0.971491 0.937283
O O8 0.428104 0.905827 0.769242
O O9 0.392622 0.271036 0.539033
O O10 0.477276 0.333596 0.968895
O O11 0.094604 0.774539 0.462320
O O12 0.004491 0.825523 0.772182
O O13 0.184419 0.825884 0.940608
O O14 0.705424 0.236500 0.630996
O O15 0.410515 0.063990 0.199181
O O16 0.108072 0.261845 0.517517
#
# Coordination Sequence:
#
# PCOD8123499 Si02
#       8
#     4   4   4   4   4   4   4   4
#     4  11  21  35  54  78 108 142 178 216 254 309
#     4  12  23  38  59  76 101 140 183 224 264 315
#     4  11  21  34  50  74 108 137 163 208 271 316
#     4   8  16  31  52  79 109 137 166 208 259 313
#     4  10  21  37  57  83 110 133 167 219 275 321
#     4  11  23  37  54  76 100 139 185 227 260 306
#     4  11  23  39  54  74 105 142 185 224 261 301
#     4  10  18  31  55  84 110 140 176 210 256 316
#
# _framework density 19.955178
#
# number of rings (size 3 to 8) (size 9 to 14) (size 15 to 20)
#    0.000    1.500    0.000    7.500    0.000    3.000 
#    0.000    0.000    0.000    1.500    0.000    0.000 
#    0.000    0.000    0.000    0.000    0.000    0.000 
#
# Total GULP energy -396657.748655 kJ/mol
# GULP energy per Si atom -12395.554645 kJ/mol
# Density = 1.990976 g / cm^3
# Si number density = 19.955178 Si / 1000 Ang^3
#
#
#
# Elastic Constant Matrix: (Units=GPa)
#
#
# Indices 1 2 3 4 5 6 
#
# 1 51.8005 11.5618 8.4309 0.0000 -0.0353 0.0000
# 2 11.5618 49.7720 6.6631 0.0000 -0.4076 0.0000
# 3 8.4309 6.6631 78.3768 0.0000 -9.7831 0.0000
# 4 0.0000 0.0000 0.0000 27.1615 0.0000 -4.8136
# 5 -0.0353 -0.4076 -9.7831 0.0000 27.2073 0.0000
# 6 0.0000 0.0000 0.0000 -4.8136 0.0000 13.2762
#
#
#
# Elastic Compliance Matrix: (Units=1/GPa)
#
#
# Indices 1 2 3 4 5 6 
#
# 1 0.020631 -0.004541 -0.001925 0.000000 -0.000733 0.000000
# 2 -0.004541 0.021325 -0.001346 0.000000 -0.000170 0.000000
# 3 -0.001925 -0.001346 0.013692 0.000000 0.004901 0.000000
# 4 0.000000 0.000000 0.000000 0.039345 0.000000 0.014266
# 5 -0.000733 -0.000170 0.004901 0.000000 0.038514 0.000000
# 6 0.000000 0.000000 0.000000 0.014266 0.000000 0.080495
#
#
# Mechanical properties :
#
#
# Convention : Reuss Voigt Hill
#
# Bulk Modulus (GPa) = 24.98398 25.91787 25.45092
# Shear Modulus (GPa) = 20.57896 23.74857 22.16376
#
# Velocity S-wave (km/s) = 3.21481 3.45352 3.33630
# Velocity P-wave (km/s) = 5.13100 5.37760 5.25575
#
# Compressibility (1/GPa) = 0.04002565
#
# Stress axis : x y z
#
# Youngs Moduli (GPa) = 48.47045 46.89290 73.03515
#
# Poissons Ratio (x) = 0.21293 0.14058
# Poissons Ratio (y) = 0.22010 0.09829
# Poissons Ratio (z) = 0.09329 0.06311
#
# Static dielectric constant tensor:
#      x y z
#    x 3.822370 0.000000 -0.101760 
#    y 0.000000 3.536640 0.000000 
#    z -0.101760 0.000000 3.790960 
# 
# 
# High freq. dielectric constant tensor:
#      x y z
#    x 1.776930 0.000000 -0.015160 
#    y 0.000000 1.743890 0.000000 
#    z -0.015160 0.000000 1.796310 
# 
# From -- ./inp_files/3914.got.cif
#   From: 2010.03.12/outbox.cif.g09.slc.cpg/sg14_2_cif.got.tgz:3914.got - 2010.03.31 13:35:05.
