data_PCOD8123711
_publ_section_title
;
Structure prediction by ZEFSAII (Michael W. Deem and Ramdas Pophale) SiO2 
 PCOD8123711
Probable space group: P 21/C
;
_chemical_formula_sum "Si O2"
_cell_formula_units_Z 28
_cell_length_a 14.704558
_cell_length_b 9.153051
_cell_length_c 18.327091
_cell_angle_alpha 90.000000
_cell_angle_beta 144.039782
_cell_angle_gamma 90.000000
_cell_volume 1448.487454
_symmetry_space_group_name_H-M "P 21/C"
_symmetry_group_IT_number 14
_symmetry_cell_setting 'monoclinic'
loop_
_space_group_symop_operation_xyz
x,y,z
-x,1/2+y,1/2-z
-x,-y,-z
x,1/2-y,1/2+z
loop_
_atom_site_type_symbol
_atom_site_label
_atom_site_fract_x
_atom_site_fract_y
_atom_site_fract_z
Si Si1 0.607104 0.133084 0.545496
Si Si2 0.219025 0.543895 0.180151
Si Si3 0.388145 0.683099 0.792395
Si Si4 0.698356 0.764846 0.180057
Si Si5 0.899626 0.838120 0.518572
Si Si6 0.169223 0.065616 0.111522
Si Si7 0.729804 0.882741 0.549475
O O1 0.677914 0.192502 0.666679
O O2 0.488795 0.246294 0.429253
O O3 0.500000 0.000000 0.500000
O O4 0.734770 0.055895 0.576576
O O5 0.357777 0.651817 0.245906
O O6 0.262040 0.430970 0.272813
O O7 0.183772 0.462410 0.082430
O O8 0.080958 0.649050 0.118576
O O9 0.295271 0.563140 0.684306
O O10 0.568950 0.648327 0.902903
O O11 0.797957 0.651884 0.292356
O O12 0.745239 0.731103 0.126718
O O13 0.825488 0.680847 0.451305
O O14 0.871611 0.862111 0.586360
O O15 0.000000 0.000000 0.000000
#
# Coordination Sequence:
#
# PCOD8123711 Si02
#       7
#     4   4   4   4   4   4   4
#     4   8  15  32  59  82 101 144 185 227 282 330
#     4  10  21  38  53  82 121 156 177 226 304 338
#     4  10  18  35  63  82 107 155 193 229 278 350
#     4   9  18  37  60  79 110 152 180 229 288 345
#     4  10  23  36  55  82 121 153 182 242 282 334
#     4  11  18  34  61  79 103 155 196 209 275 361
#     4  10  19  37  59  87 112 138 203 243 277 316
#
# _framework density 19.330508999999999
#
# number of rings (size 3 to 8) (size 9 to 14) (size 15 to 20)
#    0.000    2.571    5.714    0.000    0.000    3.429 
#    5.143    0.000    3.143    0.000    0.000    0.000 
#    0.000    0.000    0.000    0.000    0.000    0.000 
#
# Total GULP energy -346914.484917 kJ/mol
# GULP energy per Si atom -12389.803033 kJ/mol
# Density = 1.928651 g / cm^3
# Si number density = 19.330509 Si / 1000 Ang^3
#
#
#
# Elastic Constant Matrix: (Units=GPa)
#
#
# Indices 1 2 3 4 5 6 
#
# 1 67.6346 7.0726 -11.3598 0.0000 -9.1331 0.0000
# 2 7.0726 89.0977 19.2225 0.0000 -5.6237 0.0000
# 3 -11.3598 19.2225 44.9689 0.0000 -9.5049 0.0000
# 4 0.0000 0.0000 0.0000 34.0206 0.0000 -2.4575
# 5 -9.1331 -5.6237 -9.5049 0.0000 14.5552 0.0000
# 6 0.0000 0.0000 0.0000 -2.4575 0.0000 17.7497
#
#
#
# Elastic Compliance Matrix: (Units=1/GPa)
#
#
# Indices 1 2 3 4 5 6 
#
# 1 0.018941 -0.002463 0.009453 0.000000 0.017106 0.000000
# 2 -0.002463 0.012714 -0.006201 0.000000 -0.000683 0.000000
# 3 0.009453 -0.006201 0.032511 0.000000 0.024766 0.000000
# 4 0.000000 0.000000 0.000000 0.029691 0.000000 0.004111
# 5 0.017106 -0.000683 0.024766 0.000000 0.095347 0.000000
# 6 0.000000 0.000000 0.000000 0.004111 0.000000 0.056908
#
#
# Mechanical properties :
#
#
# Convention : Reuss Voigt Hill
#
# Bulk Modulus (GPa) = 15.21067 25.73018 20.47042
# Shear Modulus (GPa) = 18.76533 25.71618 22.24075
#
# Velocity S-wave (km/s) = 3.11909 3.65134 3.39566
# Velocity P-wave (km/s) = 4.56699 5.57817 5.09771
#
# Compressibility (1/GPa) = 0.06574333
#
# Stress axis : x y z
#
# Youngs Moduli (GPa) = 52.79646 78.65358 30.75857
#
# Poissons Ratio (x) = 0.19375 -0.29077
# Poissons Ratio (y) = 0.13005 0.19074
# Poissons Ratio (z) = -0.49910 0.48776
#
# Static dielectric constant tensor:
#      x y z
#    x 3.640200 0.000000 -0.345290 
#    y 0.000000 4.809240 0.000000 
#    z -0.345290 0.000000 4.041590 
# 
# 
# High freq. dielectric constant tensor:
#      x y z
#    x 1.706320 0.000000 -0.015540 
#    y 0.000000 1.757170 0.000000 
#    z -0.015540 0.000000 1.757420 
# 
# From -- ./inp_files/68359.got.cif
#   From: 2010.03.12/outbox.cif.g09.slc.cpg/sg14_35_cif.got.tgz:68359.got - 2010.03.31 13:35:05.
