data_PCOD8123572
_publ_section_title
;
Structure prediction by ZEFSAII (Michael W. Deem and Ramdas Pophale) SiO2 
 PCOD8123572
Probable space group: P 21/C
;
_chemical_formula_sum "Si O2"
_cell_formula_units_Z 24
_cell_length_a 5.161163
_cell_length_b 14.612679
_cell_length_c 17.738067
_cell_angle_alpha 90.000000
_cell_angle_beta 66.756327
_cell_angle_gamma 90.000000
_cell_volume 1229.196014
_symmetry_space_group_name_H-M "P 21/C"
_symmetry_group_IT_number 14
_symmetry_cell_setting 'monoclinic'
loop_
_space_group_symop_operation_xyz
x,y,z
-x,1/2+y,1/2-z
-x,-y,-z
x,1/2-y,1/2+z
loop_
_atom_site_type_symbol
_atom_site_label
_atom_site_fract_x
_atom_site_fract_y
_atom_site_fract_z
Si Si1 0.036807 0.104246 0.664326
Si Si2 0.490657 0.871253 0.188775
Si Si3 0.514163 0.822454 0.750307
Si Si4 0.477637 0.507834 0.820686
Si Si5 0.131231 0.307111 0.643375
Si Si6 0.263913 0.437695 0.492403
O O1 0.286970 0.029635 0.643608
O O2 0.171409 0.199309 0.620835
O O3 0.853841 0.124113 0.762569
O O4 0.814491 0.063090 0.628561
O O5 0.610143 0.774759 0.206214
O O6 0.613885 0.952831 0.226977
O O7 0.598040 0.883923 0.092723
O O8 0.657104 0.839727 0.815076
O O9 0.181052 0.828978 0.794749
O O10 0.597527 0.901245 0.680723
O O11 0.184045 0.360314 0.560705
O O12 0.500000 0.500000 0.500000
O O13 0.000000 0.500000 0.500000
#
# Coordination Sequence:
#
# PCOD8123572 Si02
#       6
#     4   4   4   4   4   4
#     4   9  19  34  56  74 112 144 194 233 265 335
#     4   9  22  36  55  83 115 148 190 233 288 343
#     4  11  21  35  61  80 111 151 201 237 277 338
#     4  10  18  33  55  80 105 139 196 240 272 320
#     4  11  20  38  52  84 112 156 186 231 290 342
#     4  12  26  36  57  87 127 152 179 237 309 360
#
# _framework density 19.524958999999999
#
# number of rings (size 3 to 8) (size 9 to 14) (size 15 to 20)
#    1.000    0.667    1.667    4.000    4.667    0.000 
#    0.000    0.000    0.000    2.000    0.000    0.000 
#    0.000    0.000    0.000    0.000    0.000    0.000 
#
# Total GULP energy -297381.622633 kJ/mol
# GULP energy per Si atom -12390.900943 kJ/mol
# Density = 1.948052 g / cm^3
# Si number density = 19.524959 Si / 1000 Ang^3
#
#
#
# Elastic Constant Matrix: (Units=GPa)
#
#
# Indices 1 2 3 4 5 6 
#
# 1 118.4174 24.2152 2.6651 0.0000 10.7990 0.0000
# 2 24.2152 81.6105 25.4170 0.0000 2.6376 0.0000
# 3 2.6651 25.4170 58.1561 0.0000 7.0459 0.0000
# 4 0.0000 0.0000 0.0000 25.8906 0.0000 3.1918
# 5 10.7990 2.6376 7.0459 0.0000 15.3167 0.0000
# 6 0.0000 0.0000 0.0000 3.1918 0.0000 29.6253
#
#
#
# Elastic Compliance Matrix: (Units=1/GPa)
#
#
# Indices 1 2 3 4 5 6 
#
# 1 0.009713 -0.003220 0.001827 0.000000 -0.007134 0.000000
# 2 -0.003220 0.015254 -0.006858 0.000000 0.002799 0.000000
# 3 0.001827 -0.006858 0.021309 0.000000 -0.009909 0.000000
# 4 0.000000 0.000000 0.000000 0.039144 0.000000 -0.004217
# 5 -0.007134 0.002799 -0.009909 0.000000 0.074394 0.000000
# 6 0.000000 0.000000 0.000000 -0.004217 0.000000 0.034209
#
#
# Mechanical properties :
#
#
# Convention : Reuss Voigt Hill
#
# Bulk Modulus (GPa) = 33.58825 40.30875 36.94850
# Shear Modulus (GPa) = 22.68065 27.89229 25.28647
#
# Velocity S-wave (km/s) = 3.41196 3.78371 3.60263
# Velocity P-wave (km/s) = 5.72381 6.30699 6.02247
#
# Compressibility (1/GPa) = 0.02977231
#
# Stress axis : x y z
#
# Youngs Moduli (GPa) = 102.95865 65.55500 46.92769
#
# Poissons Ratio (x) = 0.21110 -0.08572
# Poissons Ratio (y) = 0.33155 0.32185
# Poissons Ratio (z) = -0.18806 0.44960
#
# Static dielectric constant tensor:
#      x y z
#    x 3.701660 0.000000 0.104820 
#    y 0.000000 3.734530 0.000000 
#    z 0.104820 0.000000 3.230980 
# 
# 
# High freq. dielectric constant tensor:
#      x y z
#    x 1.774570 0.000000 -0.000410 
#    y 0.000000 1.776210 0.000000 
#    z -0.000410 0.000000 1.700880 
# 
# From -- ./inp_files/37261.got.cif
#   From: 2010.03.12/outbox.cif.g09.slc.cpg/sg14_19_cif.got.tgz:37261.got - 2010.03.31 13:35:05.
