data_PCOD8123532
_publ_section_title
;
Structure prediction by ZEFSAII (Michael W. Deem and Ramdas Pophale) SiO2 
 PCOD8123532
Probable space group: P 21/C
;
_chemical_formula_sum "Si O2"
_cell_formula_units_Z 28
_cell_length_a 12.092695
_cell_length_b 15.234780
_cell_length_c 14.403664
_cell_angle_alpha 90.000000
_cell_angle_beta 37.936491
_cell_angle_gamma 90.000000
_cell_volume 1631.388481
_symmetry_space_group_name_H-M "P 21/C"
_symmetry_group_IT_number 14
_symmetry_cell_setting 'monoclinic'
loop_
_space_group_symop_operation_xyz
x,y,z
-x,1/2+y,1/2-z
-x,-y,-z
x,1/2-y,1/2+z
loop_
_atom_site_type_symbol
_atom_site_label
_atom_site_fract_x
_atom_site_fract_y
_atom_site_fract_z
Si Si1 0.582437 0.608574 0.106664
Si Si2 0.636816 0.750944 0.716073
Si Si3 0.496284 0.575292 0.825050
Si Si4 0.219710 0.651534 0.251374
Si Si5 0.023126 0.195715 0.916332
Si Si6 0.260259 0.719323 0.030653
Si Si7 0.763453 0.544624 0.807517
O O1 0.678951 0.680256 0.107113
O O2 0.519463 0.522038 0.209493
O O3 0.414374 0.655862 0.170295
O O4 0.727934 0.573493 0.936782
O O5 0.621129 0.648049 0.688788
O O6 0.798310 0.754439 0.683708
O O7 0.445448 0.775292 0.891500
O O8 0.578177 0.559998 0.874113
O O9 0.300061 0.618767 0.971441
O O10 0.211796 0.720608 0.171657
O O11 0.171938 0.555240 0.244826
O O12 0.074665 0.683309 0.421323
O O13 0.073430 0.101454 0.841446
O O14 0.902930 0.244597 0.920734
#
# Coordination Sequence:
#
# PCOD8123532 Si02
#       7
#     4   4   4   4   4   4   4
#     4  11  16  33  60  77 105 149 176 216 281 313
#     4   9  20  35  50  80 111 140 181 221 262 326
#     4   8  16  33  52  75 104 136 181 218 261 312
#     4  11  18  34  57  80 106 139 177 236 272 300
#     4  11  22  33  52  85 109 140 179 222 269 319
#     4  10  19  37  52  75 115 140 175 218 269 327
#     4  10  18  32  54  84 104 130 186 233 267 310
#
# _framework density 17.163292999999999
#
# number of rings (size 3 to 8) (size 9 to 14) (size 15 to 20)
#    0.857    1.143    4.286    1.286    2.000    0.000 
#    0.000    0.714    0.000    0.000    0.000   11.000 
#    0.000    0.000    0.000    0.000    0.000    0.000 
#
# Total GULP energy -346877.381158 kJ/mol
# GULP energy per Si atom -12388.477899 kJ/mol
# Density = 1.712423 g / cm^3
# Si number density = 17.163293 Si / 1000 Ang^3
#
#
#
# Elastic Constant Matrix: (Units=GPa)
#
#
# Indices 1 2 3 4 5 6 
#
# 1 68.0205 25.0843 34.6300 0.0000 -16.5289 0.0000
# 2 25.0843 57.3745 14.7937 0.0000 5.4841 0.0000
# 3 34.6300 14.7937 66.3954 0.0000 1.3698 0.0000
# 4 0.0000 0.0000 0.0000 25.7410 0.0000 8.4022
# 5 -16.5289 5.4841 1.3698 0.0000 20.8729 0.0000
# 6 0.0000 0.0000 0.0000 8.4022 0.0000 25.3916
#
#
#
# Elastic Compliance Matrix: (Units=1/GPa)
#
#
# Indices 1 2 3 4 5 6 
#
# 1 0.037295 -0.015296 -0.016759 0.000000 0.034652 0.000000
# 2 -0.015296 0.025216 0.002750 0.000000 -0.018919 0.000000
# 3 -0.016759 0.002750 0.023510 0.000000 -0.015536 0.000000
# 4 0.000000 0.000000 0.000000 0.043553 0.000000 -0.014412
# 5 0.034652 -0.018919 -0.015536 0.000000 0.081340 0.000000
# 6 0.000000 0.000000 0.000000 -0.014412 0.000000 0.044152
#
#
# Mechanical properties :
#
#
# Convention : Reuss Voigt Hill
#
# Bulk Modulus (GPa) = 36.48187 37.86740 37.17463
# Shear Modulus (GPa) = 15.48888 22.21992 18.85440
#
# Velocity S-wave (km/s) = 3.00733 3.60198 3.31800
# Velocity P-wave (km/s) = 5.77586 6.27774 6.03202
#
# Compressibility (1/GPa) = 0.02741088
#
# Stress axis : x y z
#
# Youngs Moduli (GPa) = 26.81342 39.65695 42.53532
#
# Poissons Ratio (x) = 0.60661 0.71283
# Poissons Ratio (y) = 0.41015 -0.11697
# Poissons Ratio (z) = 0.44935 -0.10906
#
# Static dielectric constant tensor:
#      x y z
#    x 2.928480 0.000000 -0.038430 
#    y 0.000000 3.287980 0.000000 
#    z -0.038430 0.000000 3.131620 
# 
# 
# High freq. dielectric constant tensor:
#      x y z
#    x 1.632300 0.000000 -0.007490 
#    y 0.000000 1.653580 0.000000 
#    z -0.007490 0.000000 1.656010 
# 
# From -- ./inp_files/44905.got.cif
#   From: 2010.03.12/outbox.cif.g09.slc.cpg/sg14_23_cif.got.tgz:44905.got - 2010.03.31 13:35:05.
