data_PCOD8123023
_publ_section_title
;
Structure prediction by ZEFSAII (Michael W. Deem and Ramdas Pophale) SiO2 
 PCOD8123023
Probable space group: P 2/C
;
_chemical_formula_sum "Si O2"
_cell_formula_units_Z 14
_cell_length_a 9.555954
_cell_length_b 4.897120
_cell_length_c 13.481678
_cell_angle_alpha 90.000000
_cell_angle_beta 119.321783
_cell_angle_gamma 90.000000
_cell_volume 550.068826
_symmetry_space_group_name_H-M "P 2/C"
_symmetry_group_IT_number 13
_symmetry_cell_setting 'monoclinic'
loop_
_space_group_symop_operation_xyz
x,y,z
-x,y,1/2-z
-x,-y,-z
x,-y,1/2+z
loop_
_atom_site_type_symbol
_atom_site_label
_atom_site_fract_x
_atom_site_fract_y
_atom_site_fract_z
Si Si1 0.500000 0.293656 0.750000
Si Si2 0.781265 0.386047 0.247001
Si Si3 0.219144 0.014314 0.082690
Si Si4 0.115509 0.528232 0.929043
O O1 0.382365 0.478284 0.774686
O O2 0.601745 0.112512 0.863318
O O3 0.802549 0.090423 0.307892
O O4 0.783723 0.354270 0.129216
O O5 0.936802 0.564581 0.335333
O O6 0.214213 0.283939 0.012960
O O7 0.094255 0.780857 0.000926
#
# Coordination Sequence:
#
# PCOD8123023 Si02
#       4
#     2   4   4   4
#     4  12  28  46  72 106 162 180 240 298 366 424
#     4  11  27  51  72 114 142 190 244 302 350 443
#     4  12  26  49  73 112 142 195 235 307 354 428
#     4  11  28  46  84 100 144 193 250 288 364 421
#
# _framework density 25.451362
#
# number of rings (size 3 to 8) (size 9 to 14) (size 15 to 20)
#    0.000    0.571    2.857    2.571    8.000    4.571 
#    0.000    0.000    0.000    0.000    0.000    0.000 
#    0.000    0.000    0.000    0.000    0.000    0.000 
#
# Total GULP energy -173570.034320 kJ/mol
# GULP energy per Si atom -12397.859594 kJ/mol
# Density = 2.539343 g / cm^3
# Si number density = 25.451362 Si / 1000 Ang^3
#
#
#
# Elastic Constant Matrix: (Units=GPa)
#
#
# Indices 1 2 3 4 5 6 
#
# 1 126.4786 -12.7225 10.6658 0.0000 -19.1690 0.0000
# 2 -12.7225 73.7729 -3.1074 0.0000 -8.4093 0.0000
# 3 10.6658 -3.1074 63.3725 0.0000 -21.2885 0.0000
# 4 0.0000 0.0000 0.0000 28.9295 0.0000 -7.5052
# 5 -19.1690 -8.4093 -21.2885 0.0000 42.2383 0.0000
# 6 0.0000 0.0000 0.0000 -7.5052 0.0000 9.9343
#
#
#
# Elastic Compliance Matrix: (Units=1/GPa)
#
#
# Indices 1 2 3 4 5 6 
#
# 1 0.008774 0.002024 0.000115 0.000000 0.004443 0.000000
# 2 0.002024 0.014537 0.001990 0.000000 0.004816 0.000000
# 3 0.000115 0.001990 0.019271 0.000000 0.010161 0.000000
# 4 0.000000 0.000000 0.000000 0.042993 0.000000 0.032481
# 5 0.004443 0.004816 0.010161 0.000000 0.031772 0.000000
# 6 0.000000 0.000000 0.000000 0.032481 0.000000 0.125199
#
#
# Mechanical properties :
#
#
# Convention : Reuss Voigt Hill
#
# Bulk Modulus (GPa) = 19.66930 28.14396 23.90663
# Shear Modulus (GPa) = 19.90170 34.13964 27.02067
#
# Velocity S-wave (km/s) = 2.79937 3.66644 3.26185
# Velocity P-wave (km/s) = 4.26540 5.38569 4.85795
#
# Compressibility (1/GPa) = 0.05084066
#
# Stress axis : x y z
#
# Youngs Moduli (GPa) = 113.97633 68.79002 51.89049
#
# Poissons Ratio (x) = -0.13926 -0.00597
# Poissons Ratio (y) = -0.23073 -0.10325
# Poissons Ratio (z) = -0.01311 -0.13688
#
# Static dielectric constant tensor:
#      x y z
#    x 4.628160 0.000000 0.009270 
#    y 0.000000 4.605850 0.000000 
#    z 0.009270 0.000000 5.026780 
# 
# 
# High freq. dielectric constant tensor:
#      x y z
#    x 2.011350 0.000000 0.010790 
#    y 0.000000 2.016750 0.000000 
#    z 0.010790 0.000000 2.029070 
# 
# From -- ./inp_files/45037.got.cif
#   From: 2010.06.25/outbox.cif.g09.slc.cpg/sg13_23_cif.got.tgz:45037.got - 2010.06.28 04:50:58.
