data_PCOD8123686
_publ_section_title
;
Structure prediction by ZEFSAII (Michael W. Deem and Ramdas Pophale) SiO2 
 PCOD8123686
Probable space group: P 21/C
;
_chemical_formula_sum "Si O2"
_cell_formula_units_Z 32
_cell_length_a 9.805692
_cell_length_b 18.973232
_cell_length_c 19.644558
_cell_angle_alpha 90.000000
_cell_angle_beta 151.318914
_cell_angle_gamma 90.000000
_cell_volume 1754.055245
_symmetry_space_group_name_H-M "P 21/C"
_symmetry_group_IT_number 14
_symmetry_cell_setting 'monoclinic'
loop_
_space_group_symop_operation_xyz
x,y,z
-x,1/2+y,1/2-z
-x,-y,-z
x,1/2-y,1/2+z
loop_
_atom_site_type_symbol
_atom_site_label
_atom_site_fract_x
_atom_site_fract_y
_atom_site_fract_z
Si Si1 0.313405 0.025402 0.624143
Si Si2 0.742754 0.467778 0.561173
Si Si3 0.600229 0.535083 0.113926
Si Si4 0.728786 0.536071 0.411928
Si Si5 0.320246 0.669878 0.039374
Si Si6 0.289555 0.827140 0.021748
Si Si7 0.288052 0.333173 0.173976
Si Si8 0.296762 0.323364 0.669455
O O1 0.315737 0.110430 0.625676
O O2 0.454619 0.001541 0.615486
O O3 0.464341 0.995749 0.756879
O O4 0.000000 0.000000 0.500000
O O5 0.500000 0.500000 0.500000
O O6 0.731265 0.518437 0.491558
O O7 0.640210 0.387608 0.501997
O O8 0.057697 0.469147 0.732133
O O9 0.487034 0.615703 0.063644
O O10 0.500000 0.500000 0.000000
O O11 0.725632 0.621182 0.401962
O O12 0.000000 0.500000 0.500000
O O13 0.373055 0.748705 0.032295
O O14 0.421631 0.663699 0.162397
O O15 0.984938 0.653916 0.896839
O O16 0.439631 0.841945 0.159007
O O17 0.954599 0.834796 0.886754
O O18 0.282854 0.256531 0.135200
#
# Coordination Sequence:
#
# PCOD8123686 Si02
#       8
#     4   4   4   4   4   4   4   4
#     4  12  21  36  62  90 121 153 200 247 307 360
#     4  12  26  41  60  91 123 164 211 251 301 362
#     4  12  26  42  58  89 131 163 200 253 309 366
#     4  12  19  38  64  86 116 154 202 256 300 347
#     4  10  19  37  59  88 118 156 194 247 309 360
#     4  10  19  35  63  86 115 151 204 251 297 361
#     4  10  20  31  60  94 116 147 201 252 302 365
#     4  10  18  35  58  90 118 149 197 258 304 347
#
# _framework density 18.24344
#
# number of rings (size 3 to 8) (size 9 to 14) (size 15 to 20)
#    0.000    1.000    7.500    0.000    3.500    0.000 
#    0.000    1.250    0.000    0.000    0.000    0.000 
#    0.000    0.000    0.000    0.000    0.000    0.000 
#
# Total GULP energy -396649.322841 kJ/mol
# GULP energy per Si atom -12395.291339 kJ/mol
# Density = 1.820192 g / cm^3
# Si number density = 18.243440 Si / 1000 Ang^3
#
#
#
# Elastic Constant Matrix: (Units=GPa)
#
#
# Indices 1 2 3 4 5 6 
#
# 1 84.2146 53.9105 29.6088 0.0000 1.0785 0.0000
# 2 53.9105 172.9589 40.8886 0.0000 -6.5699 0.0000
# 3 29.6088 40.8886 96.8186 0.0000 4.2824 0.0000
# 4 0.0000 0.0000 0.0000 28.9845 0.0000 -1.6581
# 5 1.0785 -6.5699 4.2824 0.0000 27.4928 0.0000
# 6 0.0000 0.0000 0.0000 -1.6581 0.0000 31.0889
#
#
#
# Elastic Compliance Matrix: (Units=1/GPa)
#
#
# Indices 1 2 3 4 5 6 
#
# 1 0.015625 -0.004218 -0.002946 0.000000 -0.001162 0.000000
# 2 -0.004218 0.007670 -0.002052 0.000000 0.002318 0.000000
# 3 -0.002946 -0.002052 0.012196 0.000000 -0.002274 0.000000
# 4 0.000000 0.000000 0.000000 0.034607 0.000000 0.001846
# 5 -0.001162 0.002318 -0.002274 0.000000 0.037327 0.000000
# 6 0.000000 0.000000 0.000000 0.001846 0.000000 0.032264
#
#
# Mechanical properties :
#
#
# Convention : Reuss Voigt Hill
#
# Bulk Modulus (GPa) = 58.61472 66.97864 62.79668
# Shear Modulus (GPa) = 30.52379 32.81885 31.67132
#
# Velocity S-wave (km/s) = 4.09484 4.24599 4.17110
# Velocity P-wave (km/s) = 7.38620 7.79945 7.59564
#
# Compressibility (1/GPa) = 0.01706056
#
# Stress axis : x y z
#
# Youngs Moduli (GPa) = 63.99919 130.38628 81.99109
#
# Poissons Ratio (x) = 0.54998 0.24152
# Poissons Ratio (y) = 0.26995 0.16821
# Poissons Ratio (z) = 0.18852 0.26750
#
# Static dielectric constant tensor:
#      x y z
#    x 2.952080 0.000000 0.172720 
#    y 0.000000 3.953430 0.000000 
#    z 0.172720 0.000000 3.614180 
# 
# 
# High freq. dielectric constant tensor:
#      x y z
#    x 1.655550 0.000000 0.020970 
#    y 0.000000 1.730430 0.000000 
#    z 0.020970 0.000000 1.729540 
# 
# From -- ./inp_files/56234.got.cif
#   From: 2010.03.12/outbox.cif.g09.slc.cpg/sg14_29_cif.got.tgz:56234.got - 2010.03.31 13:35:05.
