data_PCOD8123200
_publ_section_title
;
Structure prediction by ZEFSAII (Michael W. Deem and Ramdas Pophale) SiO2 
 PCOD8123200
Probable space group: P 2/C
;
_chemical_formula_sum "Si O2"
_cell_formula_units_Z 8
_cell_length_a 8.082356
_cell_length_b 8.333228
_cell_length_c 9.343718
_cell_angle_alpha 90.000000
_cell_angle_beta 30.116704
_cell_angle_gamma 90.000000
_cell_volume 315.769039
_symmetry_space_group_name_H-M "P 2/C"
_symmetry_group_IT_number 13
_symmetry_cell_setting 'monoclinic'
loop_
_space_group_symop_operation_xyz
x,y,z
-x,y,1/2-z
-x,-y,-z
x,-y,1/2+z
loop_
_atom_site_type_symbol
_atom_site_label
_atom_site_fract_x
_atom_site_fract_y
_atom_site_fract_z
Si Si1 0.715682 0.341741 0.347614
Si Si2 0.089090 0.841740 0.347614
O O1 0.500000 0.500000 0.500000
O O2 0.478658 0.194396 0.571896
O O3 0.000000 0.362454 0.250000
O O4 0.877550 0.305604 0.071896
O O5 0.000000 0.862453 0.250000
O O6 0.000000 0.000000 0.500000
#
# Coordination Sequence:
#
# PCOD8123200 Si02
#       2
#     4   4
#     4  12  27  50  77 110 151 200 251 310 375 446
#     4  12  27  50  77 110 151 200 251 310 375 446
#
# _framework density 25.334969999999998
#
# number of rings (size 3 to 8) (size 9 to 14) (size 15 to 20)
#    0.000    0.000    0.000    9.000    0.000    8.000 
#    0.000    5.000    0.000    0.000    0.000    0.000 
#    0.000    0.000    0.000    0.000    0.000    0.000 
#
# Total GULP energy -99265.035474 kJ/mol
# GULP energy per Si atom -12408.129434 kJ/mol
# Density = 2.527731 g / cm^3
# Si number density = 25.334970 Si / 1000 Ang^3
#
#
#
# Elastic Constant Matrix: (Units=GPa)
#
#
# Indices 1 2 3 4 5 6 
#
# 1 236.6584 117.3526 120.3021 0.0000 -2.8815 0.0000
# 2 117.3526 96.3430 50.1312 0.0000 8.4686 0.0000
# 3 120.3021 50.1312 189.4093 0.0000 8.8347 0.0000
# 4 0.0000 0.0000 0.0000 68.4911 0.0000 -3.4792
# 5 -2.8815 8.4686 8.8347 0.0000 68.1404 0.0000
# 6 0.0000 0.0000 0.0000 -3.4792 0.0000 40.8792
#
#
#
# Elastic Compliance Matrix: (Units=1/GPa)
#
#
# Indices 1 2 3 4 5 6 
#
# 1 0.014499 -0.015160 -0.005345 0.000000 0.003190 0.000000
# 2 -0.015160 0.027969 0.002433 0.000000 -0.004432 0.000000
# 3 -0.005345 0.002433 0.008104 0.000000 -0.001579 0.000000
# 4 0.000000 0.000000 0.000000 0.014664 0.000000 0.001248
# 5 0.003190 -0.004432 -0.001579 0.000000 0.015566 0.000000
# 6 0.000000 0.000000 0.000000 0.001248 0.000000 0.024569
#
#
# Mechanical properties :
#
#
# Convention : Reuss Voigt Hill
#
# Bulk Modulus (GPa) = 69.31135 121.99806 95.65471
# Shear Modulus (GPa) = 34.17070 51.14380 42.65725
#
# Velocity S-wave (km/s) = 3.67653 4.49787 4.10778
# Velocity P-wave (km/s) = 6.74091 8.67370 7.76765
#
# Compressibility (1/GPa) = 0.01442765
#
# Stress axis : x y z
#
# Youngs Moduli (GPa) = 68.97109 35.75404 123.38982
#
# Poissons Ratio (x) = 0.54202 0.65956
# Poissons Ratio (y) = 1.04558 -0.30017
# Poissons Ratio (z) = 0.36867 -0.08698
#
# Static dielectric constant tensor:
#      x y z
#    x 18.400870 0.000000 1.556070 
#    y 0.000000 4.834950 0.000000 
#    z 1.556070 0.000000 6.034010 
# 
# 
# High freq. dielectric constant tensor:
#      x y z
#    x 2.011070 0.000000 -0.005080 
#    y 0.000000 2.025200 0.000000 
#    z -0.005080 0.000000 2.051400 
# 
# From -- ./inp_files/8236.got.cif
#   From: 2010.06.25/outbox.cif.g09.slc.cpg/sg13_5_cif.got.tgz:8236.got - 2010.06.28 04:50:58.
