data_PCOD8123619
_publ_section_title
;
Structure prediction by ZEFSAII (Michael W. Deem and Ramdas Pophale) SiO2 
 PCOD8123619
Probable space group: P 21/C
;
_chemical_formula_sum "Si O2"
_cell_formula_units_Z 28
_cell_length_a 19.269756
_cell_length_b 4.947547
_cell_length_c 16.809823
_cell_angle_alpha 90.000000
_cell_angle_beta 59.714386
_cell_angle_gamma 90.000000
_cell_volume 1383.893892
_symmetry_space_group_name_H-M "P 21/C"
_symmetry_group_IT_number 14
_symmetry_cell_setting 'monoclinic'
loop_
_space_group_symop_operation_xyz
x,y,z
-x,1/2+y,1/2-z
-x,-y,-z
x,1/2-y,1/2+z
loop_
_atom_site_type_symbol
_atom_site_label
_atom_site_fract_x
_atom_site_fract_y
_atom_site_fract_z
Si Si1 0.726604 0.793849 0.828740
Si Si2 0.098782 0.171262 0.225569
Si Si3 0.553316 0.021564 0.216753
Si Si4 0.308358 0.718773 0.250790
Si Si5 0.693240 0.881590 0.026839
Si Si6 0.777749 0.127402 0.545766
Si Si7 0.925609 0.327861 0.865277
O O1 0.819913 0.886707 0.773266
O O2 0.721412 0.498680 0.794929
O O3 0.675433 0.003550 0.805710
O O4 0.690477 0.780220 0.938145
O O5 0.103324 0.473108 0.188140
O O6 0.020855 0.133458 0.327908
O O7 0.090927 0.974987 0.154555
O O8 0.501779 0.770977 0.279267
O O9 0.603101 0.920932 0.111357
O O10 0.609910 0.125439 0.254879
O O11 0.238588 0.767383 0.356155
O O12 0.738074 0.665669 0.057219
O O13 0.739503 0.166535 0.003806
O O14 0.873760 0.114659 0.474783
#
# Coordination Sequence:
#
# PCOD8123619 Si02
#       7
#     4   4   4   4   4   4   4
#     4  12  21  40  56  95 124 154 193 248 303 344
#     4  10  20  32  57  86 122 155 198 254 288 327
#     4  11  23  45  65  87 115 154 198 241 292 365
#     4  11  25  37  62  88 125 152 191 248 307 350
#     4  11  22  37  67  88 114 158 204 237 285 362
#     4  11  19  39  58  89 115 164 211 240 274 356
#     4  10  18  34  56  87 114 160 211 245 276 331
#
# _framework density 20.232765000000001
#
# number of rings (size 3 to 8) (size 9 to 14) (size 15 to 20)
#    0.000    1.143    2.857    6.000    0.000    0.000 
#    0.000    5.714    0.000    0.000    0.000    0.000 
#    0.000    0.000    0.000    0.000    0.000    0.000 
#
# Total GULP energy -347269.438999 kJ/mol
# GULP energy per Si atom -12402.479964 kJ/mol
# Density = 2.018671 g / cm^3
# Si number density = 20.232765 Si / 1000 Ang^3
#
#
#
# Elastic Constant Matrix: (Units=GPa)
#
#
# Indices 1 2 3 4 5 6 
#
# 1 73.1800 12.0979 44.7332 0.0000 -17.7762 0.0000
# 2 12.0979 89.1902 22.8185 0.0000 -6.1522 0.0000
# 3 44.7332 22.8185 105.6224 0.0000 -6.5735 0.0000
# 4 0.0000 0.0000 0.0000 29.5215 0.0000 3.8550
# 5 -17.7762 -6.1522 -6.5735 0.0000 36.1751 0.0000
# 6 0.0000 0.0000 0.0000 3.8550 0.0000 34.0801
#
#
#
# Elastic Compliance Matrix: (Units=1/GPa)
#
#
# Indices 1 2 3 4 5 6 
#
# 1 0.020856 -0.000112 -0.008266 0.000000 0.008727 0.000000
# 2 -0.000112 0.011957 -0.002440 0.000000 0.001535 0.000000
# 3 -0.008266 -0.002440 0.013368 0.000000 -0.002047 0.000000
# 4 0.000000 0.000000 0.000000 0.034381 0.000000 -0.003889
# 5 0.008727 0.001535 -0.002047 0.000000 0.031821 0.000000
# 6 0.000000 0.000000 0.000000 -0.003889 0.000000 0.029783
#
#
# Mechanical properties :
#
#
# Convention : Reuss Voigt Hill
#
# Bulk Modulus (GPa) = 40.74062 47.47684 44.10873
# Shear Modulus (GPa) = 29.07244 32.51153 30.79199
#
# Velocity S-wave (km/s) = 3.79476 4.01293 3.90537
# Velocity P-wave (km/s) = 6.27534 6.70729 6.49491
#
# Compressibility (1/GPa) = 0.02454552
#
# Stress axis : x y z
#
# Youngs Moduli (GPa) = 47.94784 83.63025 74.80531
#
# Poissons Ratio (x) = 0.00939 0.61830
# Poissons Ratio (y) = 0.00538 0.18254
# Poissons Ratio (z) = 0.39631 0.20407
#
# Static dielectric constant tensor:
#      x y z
#    x 3.545230 0.000000 -0.313340 
#    y 0.000000 3.878900 0.000000 
#    z -0.313340 0.000000 3.657000 
# 
# 
# High freq. dielectric constant tensor:
#      x y z
#    x 1.764800 0.000000 -0.022860 
#    y 0.000000 1.816420 0.000000 
#    z -0.022860 0.000000 1.783320 
# 
# From -- ./inp_files/47906.got.cif
#   From: 2010.03.12/outbox.cif.g09.slc.cpg/sg14_24_cif.got.tgz:47906.got - 2010.03.31 13:35:05.
