data_PCOD8123535
_publ_section_title
;
Structure prediction by ZEFSAII (Michael W. Deem and Ramdas Pophale) SiO2 
 PCOD8123535
Probable space group: P 21/C
;
_chemical_formula_sum "Si O2"
_cell_formula_units_Z 32
_cell_length_a 6.687214
_cell_length_b 23.776791
_cell_length_c 11.292366
_cell_angle_alpha 90.000000
_cell_angle_beta 108.584555
_cell_angle_gamma 90.000000
_cell_volume 1701.864651
_symmetry_space_group_name_H-M "P 21/C"
_symmetry_group_IT_number 14
_symmetry_cell_setting 'monoclinic'
loop_
_space_group_symop_operation_xyz
x,y,z
-x,1/2+y,1/2-z
-x,-y,-z
x,1/2-y,1/2+z
loop_
_atom_site_type_symbol
_atom_site_label
_atom_site_fract_x
_atom_site_fract_y
_atom_site_fract_z
Si Si1 0.561122 0.271477 0.697277
Si Si2 0.566245 0.143812 0.764880
Si Si3 0.644957 0.932564 0.599074
Si Si4 0.251312 0.555967 0.877421
Si Si5 0.183312 0.328647 0.743408
Si Si6 0.056970 0.707940 0.080552
Si Si7 0.865306 0.609366 0.906710
Si Si8 0.205810 0.685705 0.476139
O O1 0.590781 0.204849 0.711348
O O2 0.324021 0.288718 0.686510
O O3 0.717516 0.304553 0.815894
O O4 0.615372 0.285842 0.572031
O O5 0.699694 0.099204 0.717087
O O6 0.319551 0.127469 0.718620
O O7 0.665180 0.143423 0.915159
O O8 0.397364 0.933249 0.520532
O O9 0.689985 0.885649 0.705830
O O10 0.773503 0.920322 0.504487
O O11 0.715548 0.992739 0.664291
O O12 0.008937 0.563852 0.867896
O O13 0.126562 0.294645 0.853492
O O14 0.968269 0.346555 0.635458
O O15 0.070343 0.769048 0.024624
O O16 0.008099 0.662985 0.968969
#
# Coordination Sequence:
#
# PCOD8123535 Si02
#       8
#     4   4   4   4   4   4   4   4
#     4  10  20  34  53  76 105 140 173 209 257 312
#     4  10  22  33  49  79 107 135 174 209 256 315
#     4   9  20  35  55  80 101 131 176 219 265 314
#     4  10  19  35  55  77 106 133 168 223 268 305
#     4  10  20  35  55  77 103 139 176 215 262 312
#     4   9  19  33  51  78 106 131 169 215 259 308
#     4  10  18  32  55  79 102 133 169 213 265 311
#     4  10  21  35  50  75 109 141 174 213 257 313
#
# _framework density 18.802904999999999
#
# number of rings (size 3 to 8) (size 9 to 14) (size 15 to 20)
#    0.000    2.250    0.000    2.625    0.000   10.000 
#    0.000    0.625    0.000    1.500    0.000    0.000 
#    0.000    0.000    0.000    0.000    0.000    0.000 
#
# Total GULP energy -396793.649253 kJ/mol
# GULP energy per Si atom -12399.801539 kJ/mol
# Density = 1.876011 g / cm^3
# Si number density = 18.802905 Si / 1000 Ang^3
#
#
#
# Elastic Constant Matrix: (Units=GPa)
#
#
# Indices 1 2 3 4 5 6 
#
# 1 85.9933 27.9785 19.6791 0.0000 2.5661 0.0000
# 2 27.9785 81.8533 30.9429 0.0000 -3.9928 0.0000
# 3 19.6791 30.9429 76.3097 0.0000 4.1425 0.0000
# 4 0.0000 0.0000 0.0000 24.3222 0.0000 4.3623
# 5 2.5661 -3.9928 4.1425 0.0000 22.6971 0.0000
# 6 0.0000 0.0000 0.0000 4.3623 0.0000 23.3811
#
#
#
# Elastic Compliance Matrix: (Units=1/GPa)
#
#
# Indices 1 2 3 4 5 6 
#
# 1 0.013387 -0.004019 -0.001719 0.000000 -0.001907 0.000000
# 2 -0.004019 0.015940 -0.005660 0.000000 0.004291 0.000000
# 3 -0.001719 -0.005660 0.016045 0.000000 -0.003730 0.000000
# 4 0.000000 0.000000 0.000000 0.042538 0.000000 -0.007936
# 5 -0.001907 0.004291 -0.003730 0.000000 0.045710 0.000000
# 6 0.000000 0.000000 0.000000 -0.007936 0.000000 0.044250
#
#
# Mechanical properties :
#
#
# Convention : Reuss Voigt Hill
#
# Bulk Modulus (GPa) = 44.29509 44.59523 44.44516
# Shear Modulus (GPa) = 24.01642 25.11713 24.56678
#
# Velocity S-wave (km/s) = 3.57777 3.65884 3.61853
# Velocity P-wave (km/s) = 6.37777 6.45121 6.41460
#
# Compressibility (1/GPa) = 0.02257586
#
# Stress axis : x y z
#
# Youngs Moduli (GPa) = 74.70105 62.73675 62.32341
#
# Poissons Ratio (x) = 0.25213 0.10714
# Poissons Ratio (y) = 0.30021 0.35275
# Poissons Ratio (z) = 0.12842 0.35508
#
# Static dielectric constant tensor:
#      x y z
#    x 3.475420 0.000000 0.179050 
#    y 0.000000 3.313490 0.000000 
#    z 0.179050 0.000000 3.489820 
# 
# 
# High freq. dielectric constant tensor:
#      x y z
#    x 1.738090 0.000000 0.011940 
#    y 0.000000 1.712470 0.000000 
#    z 0.011940 0.000000 1.718890 
# 
# From -- ./inp_files/22118.got.cif
#   From: 2010.03.12/outbox.cif.g09.slc.cpg/sg14_12_cif.got.tgz:22118.got - 2010.03.31 13:35:05.
