data_PCOD8123132
_publ_section_title
;
Structure prediction by ZEFSAII (Michael W. Deem and Ramdas Pophale) SiO2 
 PCOD8123132
Probable space group: P 2/C
;
_chemical_formula_sum "Si O2"
_cell_formula_units_Z 18
_cell_length_a 7.480502
_cell_length_b 6.062666
_cell_length_c 19.776021
_cell_angle_alpha 90.000000
_cell_angle_beta 119.944384
_cell_angle_gamma 90.000000
_cell_volume 777.153933
_symmetry_space_group_name_H-M "P 2/C"
_symmetry_group_IT_number 13
_symmetry_cell_setting 'monoclinic'
loop_
_space_group_symop_operation_xyz
x,y,z
-x,y,1/2-z
-x,-y,-z
x,-y,1/2+z
loop_
_atom_site_type_symbol
_atom_site_label
_atom_site_fract_x
_atom_site_fract_y
_atom_site_fract_z
Si Si1 0.500000 0.100962 0.250000
Si Si2 0.119487 0.873324 0.965008
Si Si3 0.186070 0.445436 0.150968
Si Si4 0.474019 0.244310 0.624617
Si Si5 0.086132 0.193013 0.833971
O O1 0.292738 0.249853 0.214042
O O2 0.509200 0.955847 0.319254
O O3 0.000572 0.644455 0.929933
O O4 0.125477 0.011399 0.897719
O O5 0.349132 0.828923 0.034394
O O6 0.000000 0.000000 0.000000
O O7 0.365155 0.546265 0.137880
O O8 0.092324 0.633424 0.180795
O O9 0.698689 0.317164 0.640857
O O10 0.000000 0.074975 0.750000
#
# Coordination Sequence:
#
# PCOD8123132 Si02
#       5
#     2   4   4   4   4
#     4  12  24  46  76 100 150 194 234 298 372 424
#     4  12  25  49  76 105 151 191 236 303 362 426
#     4  12  25  46  75 103 145 193 240 299 360 430
#     4  12  26  47  73 109 143 193 243 295 364 432
#     4  12  27  47  71 110 147 188 246 299 357 433
#
# _framework density 23.161436999999999
#
# number of rings (size 3 to 8) (size 9 to 14) (size 15 to 20)
#    0.000    0.000    4.444    6.000    0.000    5.333 
#    0.000    2.222    0.000    0.000    0.000    0.000 
#    0.000    0.000    0.000    0.000    0.000    0.000 
#
# Total GULP energy -223263.595144 kJ/mol
# GULP energy per Si atom -12403.533064 kJ/mol
# Density = 2.310872 g / cm^3
# Si number density = 23.161437 Si / 1000 Ang^3
#
#
#
# Elastic Constant Matrix: (Units=GPa)
#
#
# Indices 1 2 3 4 5 6 
#
# 1 127.2621 9.8788 26.8452 0.0000 0.9788 0.0000
# 2 9.8788 76.8443 36.9508 0.0000 -8.7436 0.0000
# 3 26.8452 36.9508 168.6728 0.0000 2.8744 0.0000
# 4 0.0000 0.0000 0.0000 41.4014 0.0000 20.4197
# 5 0.9788 -8.7436 2.8744 0.0000 38.0080 0.0000
# 6 0.0000 0.0000 0.0000 20.4197 0.0000 23.2567
#
#
#
# Elastic Compliance Matrix: (Units=1/GPa)
#
#
# Indices 1 2 3 4 5 6 
#
# 1 0.008148 -0.000506 -0.001182 0.000000 -0.000237 0.000000
# 2 -0.000506 0.015084 -0.003287 0.000000 0.003732 0.000000
# 3 -0.001182 -0.003287 0.006858 0.000000 -0.001244 0.000000
# 4 0.000000 0.000000 0.000000 0.042603 0.000000 -0.037406
# 5 -0.000237 0.003732 -0.001244 0.000000 0.027269 0.000000
# 6 0.000000 0.000000 0.000000 -0.037406 0.000000 0.075841
#
#
# Mechanical properties :
#
#
# Convention : Reuss Voigt Hill
#
# Bulk Modulus (GPa) = 49.65447 57.79210 53.72328
# Shear Modulus (GPa) = 25.97850 40.47351 33.22601
#
# Velocity S-wave (km/s) = 3.35270 4.18479 3.79164
# Velocity P-wave (km/s) = 6.03924 6.95385 6.51262
#
# Compressibility (1/GPa) = 0.02013918
#
# Stress axis : x y z
#
# Youngs Moduli (GPa) = 122.72608 66.29661 145.81263
#
# Poissons Ratio (x) = 0.03355 0.17234
# Poissons Ratio (y) = 0.06212 0.47934
# Poissons Ratio (z) = 0.14505 0.21794
#
# Static dielectric constant tensor:
#      x y z
#    x 4.417690 0.000000 0.359490 
#    y 0.000000 4.248730 0.000000 
#    z 0.359490 0.000000 4.300380 
# 
# 
# High freq. dielectric constant tensor:
#      x y z
#    x 1.925040 0.000000 0.017460 
#    y 0.000000 1.906790 0.000000 
#    z 0.017460 0.000000 1.939760 
# 
# From -- ./inp_files/62542.got.cif
#   From: 2010.06.25/outbox.cif.g09.slc.cpg/sg13_32_cif.got.tgz:62542.got - 2010.06.28 04:50:58.
