data_PCOD8123664
_publ_section_title
;
Structure prediction by ZEFSAII (Michael W. Deem and Ramdas Pophale) SiO2 
 PCOD8123664
Probable space group: P 21/C
;
_chemical_formula_sum "Si O2"
_cell_formula_units_Z 24
_cell_length_a 10.088142
_cell_length_b 9.318115
_cell_length_c 17.740052
_cell_angle_alpha 90.000000
_cell_angle_beta 135.492947
_cell_angle_gamma 90.000000
_cell_volume 1168.988764
_symmetry_space_group_name_H-M "P 21/C"
_symmetry_group_IT_number 14
_symmetry_cell_setting 'monoclinic'
loop_
_space_group_symop_operation_xyz
x,y,z
-x,1/2+y,1/2-z
-x,-y,-z
x,1/2-y,1/2+z
loop_
_atom_site_type_symbol
_atom_site_label
_atom_site_fract_x
_atom_site_fract_y
_atom_site_fract_z
Si Si1 0.902125 0.230884 0.630595
Si Si2 0.543375 0.145191 0.559577
Si Si3 0.202872 0.700784 0.706833
Si Si4 0.115252 0.957515 0.762733
Si Si5 0.163936 0.595370 0.533995
Si Si6 0.234819 0.121231 0.945792
O O1 0.679482 0.238604 0.561098
O O2 0.999144 0.342659 0.729662
O O3 0.930034 0.281798 0.556471
O O4 0.972602 0.068512 0.666227
O O5 0.653706 0.110246 0.682444
O O6 0.353002 0.233410 0.499818
O O7 0.500000 0.000000 0.500000
O O8 0.221424 0.869162 0.739124
O O9 0.267275 0.674431 0.646239
O O10 0.988062 0.652303 0.634470
O O11 0.262915 0.045344 0.875509
O O12 0.297659 0.491424 0.537429
O O13 0.000000 0.500000 0.500000
#
# Coordination Sequence:
#
# PCOD8123664 Si02
#       6
#     4   4   4   4   4   4
#     4  10  21  37  64  96 123 161 212 256 310 371
#     4  11  23  38  67  96 121 160 215 265 301 370
#     4  10  21  39  61  90 126 164 202 254 312 375
#     4  10  18  34  64  90 122 158 208 250 303 361
#     4   9  21  39  61  86 131 168 200 250 321 371
#     4  10  20  37  65  89 125 164 203 254 320 361
#
# _framework density 20.530566
#
# number of rings (size 3 to 8) (size 9 to 14) (size 15 to 20)
#    0.000    2.000    3.333    1.000    0.000    6.667 
#    3.000    0.000    7.333    0.000    0.000    0.000 
#    0.000    0.000    0.000    0.000    0.000    0.000 
#
# Total GULP energy -297329.785389 kJ/mol
# GULP energy per Si atom -12388.741058 kJ/mol
# Density = 2.048384 g / cm^3
# Si number density = 20.530566 Si / 1000 Ang^3
#
#
#
# Elastic Constant Matrix: (Units=GPa)
#
#
# Indices 1 2 3 4 5 6 
#
# 1 65.9621 48.5533 55.7633 0.0000 -27.8720 0.0000
# 2 48.5533 143.4982 72.0989 0.0000 -20.7836 0.0000
# 3 55.7633 72.0989 126.8710 0.0000 -28.2088 0.0000
# 4 0.0000 0.0000 0.0000 40.0267 0.0000 -6.7980
# 5 -27.8720 -20.7836 -28.2088 0.0000 39.3467 0.0000
# 6 0.0000 0.0000 0.0000 -6.7980 0.0000 34.5178
#
#
#
# Elastic Compliance Matrix: (Units=1/GPa)
#
#
# Indices 1 2 3 4 5 6 
#
# 1 0.031144 -0.004477 -0.008048 0.000000 0.013927 0.000000
# 2 -0.004477 0.010463 -0.004109 0.000000 -0.000591 0.000000
# 3 -0.008048 -0.004109 0.014281 0.000000 0.002367 0.000000
# 4 0.000000 0.000000 0.000000 0.025848 0.000000 0.005091
# 5 0.013927 -0.000591 0.002367 0.000000 0.036665 0.000000
# 6 0.000000 0.000000 0.000000 0.005091 0.000000 0.029973
#
#
# Mechanical properties :
#
#
# Convention : Reuss Voigt Hill
#
# Bulk Modulus (GPa) = 44.21099 76.57360 60.39230
# Shear Modulus (GPa) = 26.42960 33.43928 29.93444
#
# Velocity S-wave (km/s) = 3.59183 4.04016 3.82257
# Velocity P-wave (km/s) = 6.22757 7.69040 6.99732
#
# Compressibility (1/GPa) = 0.02261881
#
# Stress axis : x y z
#
# Youngs Moduli (GPa) = 32.10897 95.57781 70.02398
#
# Poissons Ratio (x) = 0.42791 0.56354
# Poissons Ratio (y) = 0.14375 0.28776
# Poissons Ratio (z) = 0.25841 0.39277
#
# Static dielectric constant tensor:
#      x y z
#    x 3.774490 0.000000 -0.529610 
#    y 0.000000 4.147580 0.000000 
#    z -0.529610 0.000000 4.007660 
# 
# 
# High freq. dielectric constant tensor:
#      x y z
#    x 1.766810 0.000000 -0.024090 
#    y 0.000000 1.816270 0.000000 
#    z -0.024090 0.000000 1.794170 
# 
# From -- ./inp_files/66926.got.cif
#   From: 2010.03.12/outbox.cif.g09.slc.cpg/sg14_34_cif.got.tgz:66926.got - 2010.03.31 13:35:05.
