data_PCOD8123394
_publ_section_title
;
Structure prediction by ZEFSAII (Michael W. Deem and Ramdas Pophale) SiO2 
 PCOD8123394
Probable space group: P 21/C
;
_chemical_formula_sum "Si O2"
_cell_formula_units_Z 28
_cell_length_a 7.218537
_cell_length_b 9.647890
_cell_length_c 18.034794
_cell_angle_alpha 90.000000
_cell_angle_beta 92.109034
_cell_angle_gamma 90.000000
_cell_volume 1255.158082
_symmetry_space_group_name_H-M "P 21/C"
_symmetry_group_IT_number 14
_symmetry_cell_setting 'monoclinic'
loop_
_space_group_symop_operation_xyz
x,y,z
-x,1/2+y,1/2-z
-x,-y,-z
x,1/2-y,1/2+z
loop_
_atom_site_type_symbol
_atom_site_label
_atom_site_fract_x
_atom_site_fract_y
_atom_site_fract_z
Si Si1 0.333507 0.671570 0.483025
Si Si2 0.917965 0.240778 0.403314
Si Si3 0.831629 0.489935 0.788906
Si Si4 0.827876 0.771292 0.850523
Si Si5 0.799663 0.048911 0.785320
Si Si6 0.253857 0.359459 0.486829
Si Si7 0.262675 0.728100 0.320498
O O1 0.197395 0.781194 0.521588
O O2 0.224934 0.524978 0.484597
O O3 0.530524 0.669639 0.527518
O O4 0.376071 0.713866 0.398246
O O5 0.923143 0.100282 0.356376
O O6 0.801419 0.359800 0.359800
O O7 0.129405 0.287847 0.421574
O O8 0.734563 0.625794 0.823610
O O9 0.691887 0.398380 0.736177
O O10 0.988640 0.544453 0.736854
O O11 0.724060 0.895262 0.803659
O O12 0.044647 0.772441 0.834992
O O13 0.806647 0.792964 0.936950
O O14 0.681581 0.126952 0.719276
#
# Coordination Sequence:
#
# PCOD8123394 Si02
#       7
#     4   4   4   4   4   4   4
#     4  11  22  37  61  90 120 156 206 248 294 361
#     4  11  20  39  65  85 118 158 194 248 300 349
#     4   9  20  33  63  89 116 156 197 243 303 357
#     4  10  17  35  58  88 118 152 201 242 292 361
#     4   9  18  34  64  87 110 157 201 235 295 356
#     4  11  22  35  61  91 118 158 206 243 295 365
#     4   9  18  36  59  85 117 154 196 250 295 347
#
# _framework density 22.307948
#
# number of rings (size 3 to 8) (size 9 to 14) (size 15 to 20)
#    0.000    2.000    2.857    3.000    0.000    0.571 
#    0.000    2.143   25.143    0.000    0.000    0.000 
#    0.000    0.000    0.000    0.000    0.000    0.000 
#
# Total GULP energy -347070.089791 kJ/mol
# GULP energy per Si atom -12395.360350 kJ/mol
# Density = 2.225717 g / cm^3
# Si number density = 22.307948 Si / 1000 Ang^3
#
#
#
# Elastic Constant Matrix: (Units=GPa)
#
#
# Indices 1 2 3 4 5 6 
#
# 1 35.2133 12.2555 18.1352 0.0000 14.7874 0.0000
# 2 12.2555 120.0355 43.4215 0.0000 -1.0036 0.0000
# 3 18.1352 43.4215 114.7786 0.0000 3.8752 0.0000
# 4 0.0000 0.0000 0.0000 27.1049 0.0000 2.7934
# 5 14.7874 -1.0036 3.8752 0.0000 21.1820 0.0000
# 6 0.0000 0.0000 0.0000 2.7934 0.0000 1.5551
#
#
#
# Elastic Compliance Matrix: (Units=1/GPa)
#
#
# Indices 1 2 3 4 5 6 
#
# 1 0.044801 -0.003060 -0.004890 0.000000 -0.030527 0.000000
# 2 -0.003060 0.009888 -0.003366 0.000000 0.003221 0.000000
# 3 -0.004890 -0.003366 0.010715 0.000000 0.001294 0.000000
# 4 0.000000 0.000000 0.000000 0.045275 0.000000 -0.081328
# 5 -0.030527 0.003221 0.001294 0.000000 0.068437 0.000000
# 6 0.000000 0.000000 0.000000 -0.081328 0.000000 0.789123
#
#
# Mechanical properties :
#
#
# Convention : Reuss Voigt Hill
#
# Bulk Modulus (GPa) = 23.38037 46.40576 34.89306
# Shear Modulus (GPa) = 4.97449 23.04942 14.01195
#
# Velocity S-wave (km/s) = 1.49491 3.21789 2.50894
# Velocity P-wave (km/s) = 3.67194 5.88676 4.90597
#
# Compressibility (1/GPa) = 0.04277093
#
# Stress axis : x y z
#
# Youngs Moduli (GPa) = 22.32077 101.13468 93.32971
#
# Poissons Ratio (x) = 0.30951 0.45640
# Poissons Ratio (y) = 0.06831 0.31413
# Poissons Ratio (z) = 0.10915 0.34040
#
# Static dielectric constant tensor:
#      x y z
#    x 3.514490 0.000000 -0.074930 
#    y 0.000000 4.320530 0.000000 
#    z -0.074930 0.000000 4.161890 
# 
# 
# High freq. dielectric constant tensor:
#      x y z
#    x 1.845550 0.000000 -0.010850 
#    y 0.000000 1.869100 0.000000 
#    z -0.010850 0.000000 1.887730 
# 
# From -- ./inp_files/54932.got.cif
#   From: 2010.03.12/outbox.cif.g09.slc.cpg/sg14_28_cif.got.tgz:54932.got - 2010.03.31 13:35:05.
