data_PCOD8123555
_publ_section_title
;
Structure prediction by ZEFSAII (Michael W. Deem and Ramdas Pophale) SiO2 
 PCOD8123555
Probable space group: P 21/C
;
_chemical_formula_sum "Si O2"
_cell_formula_units_Z 28
_cell_length_a 11.082296
_cell_length_b 8.606286
_cell_length_c 20.174519
_cell_angle_alpha 90.000000
_cell_angle_beta 135.426066
_cell_angle_gamma 90.000000
_cell_volume 1350.454795
_symmetry_space_group_name_H-M "P 21/C"
_symmetry_group_IT_number 14
_symmetry_cell_setting 'monoclinic'
loop_
_space_group_symop_operation_xyz
x,y,z
-x,1/2+y,1/2-z
-x,-y,-z
x,1/2-y,1/2+z
loop_
_atom_site_type_symbol
_atom_site_label
_atom_site_fract_x
_atom_site_fract_y
_atom_site_fract_z
Si Si1 0.945039 0.954698 0.551214
Si Si2 0.392366 0.352812 0.438993
Si Si3 0.413511 0.665873 0.807920
Si Si4 0.265814 0.519310 0.266344
Si Si5 0.585888 0.386238 0.930730
Si Si6 0.253788 0.325841 0.527450
Si Si7 0.389263 0.604422 0.651532
O O1 0.925125 0.766783 0.536030
O O2 0.088152 0.004618 0.659541
O O3 0.770331 0.031410 0.511755
O O4 0.000000 0.000000 0.500000
O O5 0.500000 0.500000 0.500000
O O6 0.265244 0.405494 0.329784
O O7 0.523021 0.214830 0.469021
O O8 0.289042 0.306148 0.463099
O O9 0.293776 0.797493 0.796039
O O10 0.432610 0.511711 0.860063
O O11 0.604433 0.736012 0.872833
O O12 0.333292 0.616321 0.705861
O O13 0.422948 0.473381 0.279756
O O14 0.605513 0.277806 0.874285
O O15 0.250758 0.502466 0.554071
#
# Coordination Sequence:
#
# PCOD8123555 Si02
#       7
#     4   4   4   4   4   4   4
#     4  11  23  41  59  92 133 159 198 259 318 367
#     4  11  20  44  64  84 121 161 217 250 298 366
#     4  10  18  32  58  90 113 152 212 247 294 361
#     4  10  21  38  59  85 124 162 195 262 306 358
#     4  10  21  35  65  90 116 163 205 252 304 360
#     4  10  21  39  60  86 123 166 195 258 314 357
#     4  10  18  36  62  87 115 162 211 251 301 364
#
# _framework density 20.733757000000001
#
# number of rings (size 3 to 8) (size 9 to 14) (size 15 to 20)
#    0.000    1.714    4.286    4.286    0.000    3.429 
#    2.571    5.714    0.000    0.000    0.000    0.000 
#    0.000    0.000    0.000    0.000    0.000    0.000 
#
# Total GULP energy -346974.379792 kJ/mol
# GULP energy per Si atom -12391.942135 kJ/mol
# Density = 2.068657 g / cm^3
# Si number density = 20.733757 Si / 1000 Ang^3
#
#
#
# Elastic Constant Matrix: (Units=GPa)
#
#
# Indices 1 2 3 4 5 6 
#
# 1 60.7143 27.4790 27.0863 0.0000 -11.2186 0.0000
# 2 27.4790 118.2226 34.5439 0.0000 1.9706 0.0000
# 3 27.0863 34.5439 115.0530 0.0000 0.7268 0.0000
# 4 0.0000 0.0000 0.0000 32.6746 0.0000 -4.7672
# 5 -11.2186 1.9706 0.7268 0.0000 24.4390 0.0000
# 6 0.0000 0.0000 0.0000 -4.7672 0.0000 33.2979
#
#
#
# Elastic Compliance Matrix: (Units=1/GPa)
#
#
# Indices 1 2 3 4 5 6 
#
# 1 0.022097 -0.004136 -0.004027 0.000000 0.010597 0.000000
# 2 -0.004136 0.010057 -0.002029 0.000000 -0.002649 0.000000
# 3 -0.004027 -0.002029 0.010262 0.000000 -0.001990 0.000000
# 4 0.000000 0.000000 0.000000 0.031258 0.000000 0.004475
# 5 0.010597 -0.002649 -0.001990 0.000000 0.046055 0.000000
# 6 0.000000 0.000000 0.000000 0.004475 0.000000 0.030673
#
#
# Mechanical properties :
#
#
# Convention : Reuss Voigt Hill
#
# Bulk Modulus (GPa) = 45.39074 52.46757 48.92916
# Shear Modulus (GPa) = 28.06932 31.74100 29.90516
#
# Velocity S-wave (km/s) = 3.68339 3.91690 3.80194
# Velocity P-wave (km/s) = 6.32689 6.76878 6.55156
#
# Compressibility (1/GPa) = 0.02203092
#
# Stress axis : x y z
#
# Youngs Moduli (GPa) = 45.25434 99.43296 97.45085
#
# Poissons Ratio (x) = 0.41126 0.39247
# Poissons Ratio (y) = 0.18717 0.19774
# Poissons Ratio (z) = 0.18226 0.20176
#
# Static dielectric constant tensor:
#      x y z
#    x 3.011240 0.000000 0.157700 
#    y 0.000000 4.199010 0.000000 
#    z 0.157700 0.000000 3.523140 
# 
# 
# High freq. dielectric constant tensor:
#      x y z
#    x 1.774160 0.000000 -0.020380 
#    y 0.000000 1.833410 0.000000 
#    z -0.020380 0.000000 1.802640 
# 
# From -- ./inp_files/67085.got.cif
#   From: 2010.03.12/outbox.cif.g09.slc.cpg/sg14_34_cif.got.tgz:67085.got - 2010.03.31 13:35:05.
