data_PCOD8123131
_publ_section_title
;
Structure prediction by ZEFSAII (Michael W. Deem and Ramdas Pophale) SiO2 
 PCOD8123131
Probable space group: P 2/C
;
_chemical_formula_sum "Si O2"
_cell_formula_units_Z 24
_cell_length_a 14.350084
_cell_length_b 8.141630
_cell_length_c 13.261434
_cell_angle_alpha 90.000000
_cell_angle_beta 39.278307
_cell_angle_gamma 90.000000
_cell_volume 980.889906
_symmetry_space_group_name_H-M "P 2/C"
_symmetry_group_IT_number 13
_symmetry_cell_setting 'monoclinic'
loop_
_space_group_symop_operation_xyz
x,y,z
-x,y,1/2-z
-x,-y,-z
x,-y,1/2+z
loop_
_atom_site_type_symbol
_atom_site_label
_atom_site_fract_x
_atom_site_fract_y
_atom_site_fract_z
Si Si1 0.656489 0.876370 0.319435
Si Si2 0.286442 0.584505 0.517403
Si Si3 0.500000 0.833707 0.250000
Si Si4 0.221405 0.777167 0.769443
Si Si5 0.000000 0.420837 0.750000
Si Si6 0.499113 0.722326 0.640413
Si Si7 0.937935 0.675179 0.089539
O O1 0.554939 0.926263 0.306359
O O2 0.552074 0.823942 0.498903
O O3 0.774265 0.732519 0.192730
O O4 0.733923 0.038428 0.296105
O O5 0.356202 0.728384 0.394965
O O6 0.227469 0.650665 0.672784
O O7 0.410755 0.446104 0.427908
O O8 0.136884 0.524097 0.588149
O O9 0.326046 0.691428 0.765989
O O10 0.056931 0.802963 0.948277
O O11 0.933261 0.312980 0.715447
O O12 0.500000 0.813566 0.750000
O O13 0.000000 0.500000 0.000000
#
# Coordination Sequence:
#
# PCOD8123131 Si02
#       7
#     4   4   2   4   2   4   4
#     4  12  28  50  72 110 156 198 247 308 383 449
#     4  12  25  45  76 106 146 195 254 307 367 438
#     4  12  28  46  76 108 146 200 254 314 368 434
#     4  12  27  46  74 108 151 196 243 310 378 450
#     4  12  24  46  74 112 140 196 248 314 362 446
#     4  12  25  46  76 110 146 194 251 310 368 440
#     4  12  25  48  78 105 147 193 256 305 366 447
#
# _framework density 24.467579000000001
#
# number of rings (size 3 to 8) (size 9 to 14) (size 15 to 20)
#    0.000    0.000    5.833    3.500    3.500    0.000 
#    0.000    0.000    0.000    0.000    0.000    0.000 
#    0.000    0.000    0.000    0.000    0.000    0.000 
#
# Total GULP energy -297423.715488 kJ/mol
# GULP energy per Si atom -12392.654812 kJ/mol
# Density = 2.441189 g / cm^3
# Si number density = 24.467579 Si / 1000 Ang^3
#
#
#
# Elastic Constant Matrix: (Units=GPa)
#
#
# Indices 1 2 3 4 5 6 
#
# 1 126.7983 18.8735 43.6064 0.0000 11.2128 0.0000
# 2 18.8735 40.2551 -2.4688 0.0000 2.6731 0.0000
# 3 43.6064 -2.4688 133.0276 0.0000 1.5432 0.0000
# 4 0.0000 0.0000 0.0000 41.7474 0.0000 9.9249
# 5 11.2128 2.6731 1.5432 0.0000 43.9461 0.0000
# 6 0.0000 0.0000 0.0000 9.9249 0.0000 86.6147
#
#
#
# Elastic Compliance Matrix: (Units=1/GPa)
#
#
# Indices 1 2 3 4 5 6 
#
# 1 0.009915 -0.004711 -0.003313 0.000000 -0.002127 0.000000
# 2 -0.004711 0.027211 0.002055 0.000000 -0.000525 0.000000
# 3 -0.003313 0.002055 0.008637 0.000000 0.000417 0.000000
# 4 0.000000 0.000000 0.000000 0.024624 0.000000 -0.002822
# 5 -0.002127 -0.000525 0.000417 0.000000 0.023315 0.000000
# 6 0.000000 0.000000 0.000000 -0.002822 0.000000 0.011869
#
#
# Mechanical properties :
#
#
# Convention : Reuss Voigt Hill
#
# Bulk Modulus (GPa) = 29.56298 46.67814 38.12056
# Shear Modulus (GPa) = 38.82501 50.46629 44.64565
#
# Velocity S-wave (km/s) = 3.98778 4.54649 4.27627
# Velocity P-wave (km/s) = 5.77165 6.83225 6.32422
#
# Compressibility (1/GPa) = 0.03382609
#
# Stress axis : x y z
#
# Youngs Moduli (GPa) = 100.85610 36.74974 115.78746
#
# Poissons Ratio (x) = 0.17311 0.38359
# Poissons Ratio (y) = 0.47510 -0.23797
# Poissons Ratio (z) = 0.33413 -0.07553
#
# Static dielectric constant tensor:
#      x y z
#    x 4.591610 0.000000 -0.119710 
#    y 0.000000 4.147520 0.000000 
#    z -0.119710 0.000000 4.956570 
# 
# 
# High freq. dielectric constant tensor:
#      x y z
#    x 1.978690 0.000000 -0.001260 
#    y 0.000000 1.959630 0.000000 
#    z -0.001260 0.000000 2.001840 
# 
# From -- ./inp_files/52910.got.cif
#   From: 2010.06.25/outbox.cif.g09.slc.cpg/sg13_27_cif.got.tgz:52910.got - 2010.06.28 04:50:58.
