data_PCOD8123731
_publ_section_title
;
Structure prediction by ZEFSAII (Michael W. Deem and Ramdas Pophale) SiO2 
 PCOD8123731
Probable space group: P 21/C
;
_chemical_formula_sum "Si O2"
_cell_formula_units_Z 24
_cell_length_a 9.605192
_cell_length_b 13.634142
_cell_length_c 9.549140
_cell_angle_alpha 90.000000
_cell_angle_beta 99.767627
_cell_angle_gamma 90.000000
_cell_volume 1232.413584
_symmetry_space_group_name_H-M "P 21/C"
_symmetry_group_IT_number 14
_symmetry_cell_setting 'monoclinic'
loop_
_space_group_symop_operation_xyz
x,y,z
-x,1/2+y,1/2-z
-x,-y,-z
x,1/2-y,1/2+z
loop_
_atom_site_type_symbol
_atom_site_label
_atom_site_fract_x
_atom_site_fract_y
_atom_site_fract_z
Si Si1 0.198407 0.687203 0.882081
Si Si2 0.151017 0.023762 0.351274
Si Si3 0.528283 0.701860 0.883778
Si Si4 0.138942 0.863919 0.685929
Si Si5 0.397504 0.362791 0.813698
Si Si6 0.352112 0.006125 0.651878
O O1 0.126955 0.589552 0.800488
O O2 0.362048 0.688023 0.869811
O O3 0.123261 0.782741 0.804050
O O4 0.179196 0.689781 0.046825
O O5 0.244234 0.087822 0.258314
O O6 0.243787 0.015623 0.506218
O O7 0.005723 0.077710 0.356629
O O8 0.560118 0.804717 0.816986
O O9 0.595963 0.615117 0.797597
O O10 0.603872 0.705729 0.048289
O O11 0.262513 0.942846 0.750787
O O12 0.509169 0.447288 0.869435
#
# Coordination Sequence:
#
# PCOD8123731 Si02
#       6
#     4   4   4   4   4   4
#     4  11  19  38  58  83 110 149 186 232 275 325
#     4  10  21  37  57  83 113 151 185 223 275 342
#     4  11  19  35  60  84 111 144 191 232 271 321
#     4  11  23  35  61  83 113 147 190 223 279 338
#     4  11  20  35  59  84 108 146 188 230 272 325
#     4  10  18  36  58  81 105 151 187 220 267 337
#
# _framework density 19.473983
#
# number of rings (size 3 to 8) (size 9 to 14) (size 15 to 20)
#    0.000    1.333    6.667    3.000    0.000    4.000 
#    0.000    3.333    0.000    0.000    0.000    0.000 
#    0.000    0.000    0.000    0.000    0.000    0.000 
#
# Total GULP energy -297407.835846 kJ/mol
# GULP energy per Si atom -12391.993160 kJ/mol
# Density = 1.942966 g / cm^3
# Si number density = 19.473983 Si / 1000 Ang^3
#
#
#
# Elastic Constant Matrix: (Units=GPa)
#
#
# Indices 1 2 3 4 5 6 
#
# 1 96.5529 23.7021 2.7601 0.0000 -9.2987 0.0000
# 2 23.7021 51.4556 -2.6580 0.0000 -2.6223 0.0000
# 3 2.7601 -2.6580 16.4364 0.0000 -2.6539 0.0000
# 4 0.0000 0.0000 0.0000 26.5313 0.0000 -4.6906
# 5 -9.2987 -2.6223 -2.6539 0.0000 14.1050 0.0000
# 6 0.0000 0.0000 0.0000 -4.6906 0.0000 43.9429
#
#
#
# Elastic Compliance Matrix: (Units=1/GPa)
#
#
# Indices 1 2 3 4 5 6 
#
# 1 0.012408 -0.005465 -0.001867 0.000000 0.006813 0.000000
# 2 -0.005465 0.022270 0.004750 0.000000 0.001431 0.000000
# 3 -0.001867 0.004750 0.063805 0.000000 0.011657 0.000000
# 4 0.000000 0.000000 0.000000 0.038416 0.000000 0.004101
# 5 0.006813 0.001431 0.011657 0.000000 0.077847 0.000000
# 6 0.000000 0.000000 0.000000 0.004101 0.000000 0.023194
#
#
# Mechanical properties :
#
#
# Convention : Reuss Voigt Hill
#
# Bulk Modulus (GPa) = 10.71599 23.56147 17.13873
# Shear Modulus (GPa) = 18.23415 26.29190 22.26303
#
# Velocity S-wave (km/s) = 3.06328 3.67836 3.38482
# Velocity P-wave (km/s) = 4.24573 5.49233 4.90876
#
# Compressibility (1/GPa) = 0.09331845
#
# Stress axis : x y z
#
# Youngs Moduli (GPa) = 80.59311 44.90384 15.67285
#
# Poissons Ratio (x) = 0.24539 0.02927
# Poissons Ratio (y) = 0.44042 -0.07445
# Poissons Ratio (z) = 0.15050 -0.21330
#
# Static dielectric constant tensor:
#      x y z
#    x 3.800160 0.000000 -0.118220 
#    y 0.000000 4.205490 0.000000 
#    z -0.118220 0.000000 3.129050 
# 
# 
# High freq. dielectric constant tensor:
#      x y z
#    x 1.771410 0.000000 -0.006390 
#    y 0.000000 1.772580 0.000000 
#    z -0.006390 0.000000 1.702130 
# 
# From -- ./inp_files/8585.got.cif
#   From: 2010.03.12/outbox.cif.g09.slc.cpg/sg14_5_cif.got.tgz:8585.got - 2010.03.31 13:35:05.
