data_PCOD8123235
_publ_section_title
;
Structure prediction by ZEFSAII (Michael W. Deem and Ramdas Pophale) SiO2 
 PCOD8123235
Probable space group: P 21/C
;
_chemical_formula_sum "Si O2"
_cell_formula_units_Z 32
_cell_length_a 24.407166
_cell_length_b 5.064277
_cell_length_c 19.548609
_cell_angle_alpha 90.000000
_cell_angle_beta 139.852234
_cell_angle_gamma 90.000000
_cell_volume 1557.935579
_symmetry_space_group_name_H-M "P 21/C"
_symmetry_group_IT_number 14
_symmetry_cell_setting 'monoclinic'
loop_
_space_group_symop_operation_xyz
x,y,z
-x,1/2+y,1/2-z
-x,-y,-z
x,1/2-y,1/2+z
loop_
_atom_site_type_symbol
_atom_site_label
_atom_site_fract_x
_atom_site_fract_y
_atom_site_fract_z
Si Si1 0.060040 0.771116 0.982465
Si Si2 0.435616 0.309384 0.548476
Si Si3 0.776047 0.257689 0.092647
Si Si4 0.257555 0.235941 0.850228
Si Si5 0.051357 0.732010 0.817070
Si Si6 0.512642 0.808106 0.667810
Si Si7 0.621213 0.450767 0.375476
Si Si8 0.112545 0.264832 0.109515
O O1 0.075226 0.699040 0.918702
O O2 0.959383 0.777717 0.901371
O O3 0.107440 0.558038 0.074691
O O4 0.100272 0.056142 0.036642
O O5 0.355637 0.332136 0.419820
O O6 0.492194 0.457389 0.383844
O O7 0.384181 0.324540 0.571540
O O8 0.481120 0.030420 0.584978
O O9 0.739819 0.498458 0.102157
O O10 0.866635 0.336899 0.149384
O O11 0.785843 0.004555 0.150711
O O12 0.713114 0.188805 0.968472
O O13 0.204080 0.282548 0.730541
O O14 0.978000 0.529511 0.725583
O O15 0.451593 0.770910 0.676705
O O16 0.603593 0.907426 0.784989
#
# Coordination Sequence:
#
# PCOD8123235 Si02
#       8
#     4   4   4   4   4   4   4   4
#     4  10  21  36  52  77  98 131 180 218 270 312
#     4   9  16  25  39  65  96 130 160 200 242 312
#     4  11  22  32  53  77 109 145 178 217 258 326
#     4  11  19  34  50  79 105 137 179 212 272 309
#     4  12  24  40  56  77 109 146 181 219 263 316
#     4  10  15  25  41  63  99 139 160 196 252 305
#     4   9  17  26  43  66  99 139 169 196 252 310
#     4  10  20  34  56  72  99 133 172 232 266 306
#
# _framework density 20.540005000000001
#
# number of rings (size 3 to 8) (size 9 to 14) (size 15 to 20)
#    0.750    1.000    2.500    3.750    0.000    2.000 
#    0.000    0.000    0.000    0.000    0.000    0.000 
#    0.000    6.000    0.000    0.125    0.000    0.000 
#
# Total GULP energy -396535.729923 kJ/mol
# GULP energy per Si atom -12391.741560 kJ/mol
# Density = 2.049325 g / cm^3
# Si number density = 20.540005 Si / 1000 Ang^3
#
#
#
# Elastic Constant Matrix: (Units=GPa)
#
#
# Indices 1 2 3 4 5 6 
#
# 1 16.6277 1.1222 3.1298 0.0000 -3.2359 0.0000
# 2 1.1222 110.6608 25.0973 0.0000 1.8353 0.0000
# 3 3.1298 25.0973 120.0830 0.0000 6.9914 0.0000
# 4 0.0000 0.0000 0.0000 28.9024 0.0000 4.0496
# 5 -3.2359 1.8353 6.9914 0.0000 17.1038 0.0000
# 6 0.0000 0.0000 0.0000 4.0496 0.0000 12.6199
#
#
#
# Elastic Compliance Matrix: (Units=1/GPa)
#
#
# Indices 1 2 3 4 5 6 
#
# 1 0.063117 -0.000326 -0.002330 0.000000 0.012928 0.000000
# 2 -0.000326 0.009489 -0.001958 0.000000 -0.000279 0.000000
# 3 -0.002330 -0.001958 0.009026 0.000000 -0.003920 0.000000
# 4 0.000000 0.000000 0.000000 0.036228 0.000000 -0.011625
# 5 0.012928 -0.000279 -0.003920 0.000000 0.062545 0.000000
# 6 0.000000 0.000000 0.000000 -0.011625 0.000000 0.082970
#
#
# Mechanical properties :
#
#
# Convention : Reuss Voigt Hill
#
# Bulk Modulus (GPa) = 13.81150 34.00778 23.90964
# Shear Modulus (GPa) = 16.84992 26.26004 21.55498
#
# Velocity S-wave (km/s) = 2.86728 3.57947 3.24298
# Velocity P-wave (km/s) = 4.20720 5.80312 5.06837
#
# Compressibility (1/GPa) = 0.07240343
#
# Stress axis : x y z
#
# Youngs Moduli (GPa) = 15.84357 105.38839 110.79325
#
# Poissons Ratio (x) = 0.03437 0.25811
# Poissons Ratio (y) = 0.00517 0.21697
# Poissons Ratio (z) = 0.03691 0.20639
#
# Static dielectric constant tensor:
#      x y z
#    x 3.023250 0.000000 0.179020 
#    y 0.000000 3.793960 0.000000 
#    z 0.179020 0.000000 3.775460 
# 
# 
# High freq. dielectric constant tensor:
#      x y z
#    x 1.720580 0.000000 0.012600 
#    y 0.000000 1.822080 0.000000 
#    z 0.012600 0.000000 1.817320 
# 
# From -- ./inp_files/61595.got.cif
#   From: 2010.03.12/outbox.cif.g09.slc.cpg/sg14_31_cif.got.tgz:61595.got - 2010.03.31 13:35:05.
