data_PCOD8123541
_publ_section_title
;
Structure prediction by ZEFSAII (Michael W. Deem and Ramdas Pophale) SiO2 
 PCOD8123541
Probable space group: P 21/C
;
_chemical_formula_sum "Si O2"
_cell_formula_units_Z 32
_cell_length_a 16.900166
_cell_length_b 19.412582
_cell_length_c 10.040203
_cell_angle_alpha 90.000000
_cell_angle_beta 147.025445
_cell_angle_gamma 90.000000
_cell_volume 1792.785761
_symmetry_space_group_name_H-M "P 21/C"
_symmetry_group_IT_number 14
_symmetry_cell_setting 'monoclinic'
loop_
_space_group_symop_operation_xyz
x,y,z
-x,1/2+y,1/2-z
-x,-y,-z
x,1/2-y,1/2+z
loop_
_atom_site_type_symbol
_atom_site_label
_atom_site_fract_x
_atom_site_fract_y
_atom_site_fract_z
Si Si1 0.514508 0.451132 0.145253
Si Si2 0.175593 0.814207 0.558572
Si Si3 0.500091 0.701500 0.850982
Si Si4 0.614507 0.535987 0.754746
Si Si5 0.163706 0.703412 0.340352
Si Si6 0.515837 0.814323 0.073410
Si Si7 0.892617 0.032550 0.535340
Si Si8 0.148597 0.550594 0.325866
O O1 0.448656 0.374480 0.028984
O O2 0.432994 0.479834 0.160553
O O3 0.685102 0.447762 0.403570
O O4 0.500000 0.500000 0.000000
O O5 0.100647 0.764609 0.342686
O O6 0.143981 0.779083 0.656805
O O7 0.096216 0.886518 0.419017
O O8 0.348287 0.830975 0.799391
O O9 0.327962 0.702624 0.624521
O O10 0.535289 0.718431 0.747256
O O11 0.576303 0.759183 0.051579
O O12 0.500000 0.500000 0.500000
O O13 0.611016 0.616388 0.708466
O O14 0.775215 0.505617 0.962197
O O15 0.088647 0.628987 0.256040
O O16 0.853538 0.021135 0.326344
O O17 0.050845 0.997600 0.783820
#
# Coordination Sequence:
#
# PCOD8123541 Si02
#       8
#     4   4   4   4   4   4   4   4
#     4  10  20  35  53  76 109 136 168 214 264 308
#     4   9  15  28  48  74  95 128 168 215 244 296
#     4   8  16  29  46  72  95 131 167 211 248 297
#     4  11  18  32  53  80 103 131 175 217 249 301
#     4   8  15  28  48  69  96 125 170 207 246 294
#     4   9  16  28  47  70 103 125 170 213 251 294
#     4  10  18  32  56  79 102 133 177 214 252 303
#     4   9  18  34  54  76 103 137 172 211 255 306
#
# _framework density 17.849316000000002
#
# number of rings (size 3 to 8) (size 9 to 14) (size 15 to 20)
#    0.000    2.750    2.500    1.500    0.000    1.000 
#    6.750    0.625    2.750    3.000    0.000    0.000 
#    0.000    0.000    0.000    0.000    0.000    0.000 
#
# Total GULP energy -396465.710021 kJ/mol
# GULP energy per Si atom -12389.553438 kJ/mol
# Density = 1.780869 g / cm^3
# Si number density = 17.849316 Si / 1000 Ang^3
#
#
#
# Elastic Constant Matrix: (Units=GPa)
#
#
# Indices 1 2 3 4 5 6 
#
# 1 105.7848 69.9932 31.4805 0.0000 -10.6185 0.0000
# 2 69.9932 108.8384 28.5476 0.0000 -17.5857 0.0000
# 3 31.4805 28.5476 20.4900 0.0000 -5.1696 0.0000
# 4 0.0000 0.0000 0.0000 26.4573 0.0000 -8.6272
# 5 -10.6185 -17.5857 -5.1696 0.0000 23.1822 0.0000
# 6 0.0000 0.0000 0.0000 -8.6272 0.0000 34.1795
#
#
#
# Elastic Compliance Matrix: (Units=1/GPa)
#
#
# Indices 1 2 3 4 5 6 
#
# 1 0.021073 -0.008169 -0.021323 0.000000 -0.001300 0.000000
# 2 -0.008169 0.018759 -0.011590 0.000000 0.007903 0.000000
# 3 -0.021323 -0.011590 0.098576 0.000000 0.003424 0.000000
# 4 0.000000 0.000000 0.000000 0.041187 0.000000 0.010396
# 5 -0.001300 0.007903 0.003424 0.000000 0.049300 0.000000
# 6 0.000000 0.000000 0.000000 0.010396 0.000000 0.031881
#
#
# Mechanical properties :
#
#
# Convention : Reuss Voigt Hill
#
# Bulk Modulus (GPa) = 17.77982 55.01731 36.39856
# Shear Modulus (GPa) = 13.82403 23.76993 18.79698
#
# Velocity S-wave (km/s) = 2.78598 3.65321 3.24866
# Velocity P-wave (km/s) = 4.50905 6.97744 5.87436
#
# Compressibility (1/GPa) = 0.05624355
#
# Stress axis : x y z
#
# Youngs Moduli (GPa) = 47.45303 53.30899 10.14443
#
# Poissons Ratio (x) = 0.43550 0.21631
# Poissons Ratio (y) = 0.38766 0.11757
# Poissons Ratio (z) = 1.01184 0.61786
#
# Static dielectric constant tensor:
#      x y z
#    x 3.422080 0.000000 -0.040600 
#    y 0.000000 3.549080 0.000000 
#    z -0.040600 0.000000 3.167270 
# 
# 
# High freq. dielectric constant tensor:
#      x y z
#    x 1.680020 0.000000 -0.015190 
#    y 0.000000 1.700860 0.000000 
#    z -0.015190 0.000000 1.647580 
# 
# From -- ./inp_files/16874.got.cif
#   From: 2010.03.12/outbox.cif.g09.slc.cpg/sg14_9_cif.got.tgz:16874.got - 2010.03.31 13:35:05.
