data_PCOD8123451
_publ_section_title
;
Structure prediction by ZEFSAII (Michael W. Deem and Ramdas Pophale) SiO2 
 PCOD8123451
Probable space group: P 21/C
;
_chemical_formula_sum "Si O2"
_cell_formula_units_Z 32
_cell_length_a 8.984272
_cell_length_b 22.082489
_cell_length_c 12.207135
_cell_angle_alpha 90.000000
_cell_angle_beta 47.206276
_cell_angle_gamma 90.000000
_cell_volume 1777.153351
_symmetry_space_group_name_H-M "P 21/C"
_symmetry_group_IT_number 14
_symmetry_cell_setting 'monoclinic'
loop_
_space_group_symop_operation_xyz
x,y,z
-x,1/2+y,1/2-z
-x,-y,-z
x,1/2-y,1/2+z
loop_
_atom_site_type_symbol
_atom_site_label
_atom_site_fract_x
_atom_site_fract_y
_atom_site_fract_z
Si Si1 0.728799 0.757449 0.913583
Si Si2 0.272468 0.834290 0.450864
Si Si3 0.727531 0.665710 0.723332
Si Si4 0.268393 0.568145 0.136871
Si Si5 0.731607 0.931854 0.405264
Si Si6 0.728798 0.257449 0.357618
Si Si7 0.979617 0.837447 0.393590
Si Si8 0.020383 0.837447 0.873207
O O1 0.500000 0.776115 0.049873
O O2 0.758586 0.725148 0.782193
O O3 0.798707 0.712565 0.978458
O O4 0.864663 0.818280 0.852567
O O5 0.499999 0.832715 0.285336
O O6 0.251009 0.894445 0.533869
O O7 0.241413 0.774852 0.540780
O O8 0.097713 0.836677 0.448293
O O9 0.748990 0.605556 0.784878
O O10 0.902286 0.663323 0.546006
O O11 0.195934 0.500000 0.152034
O O12 0.116782 0.596631 0.303222
O O13 0.500000 0.569803 0.065349
O O14 0.883219 0.903369 0.420003
O O15 0.864663 0.318280 0.282770
O O16 0.798707 0.212565 0.222834
#
# Coordination Sequence:
#
# PCOD8123451 Si02
#       8
#     4   4   4   4   4   4   4   4
#     4   9  19  33  48  72 105 134 162 198 244 300
#     4   9  18  33  52  74 100 131 165 201 245 295
#     4   9  18  33  52  74 100 131 165 201 245 295
#     4   9  19  36  54  72  98 131 168 209 249 294
#     4   9  19  36  54  72  98 131 168 209 249 294
#     4   9  19  33  48  72 105 134 162 198 244 300
#     4  10  18  29  53  77  97 127 167 204 242 288
#     4  10  18  29  53  77  97 127 167 204 242 288
#
# _framework density 18.006325
#
# number of rings (size 3 to 8) (size 9 to 14) (size 15 to 20)
#    0.000    2.750    0.000    3.000    0.000    9.000 
#    0.000    0.000    0.000   30.000    0.000    0.000 
#    0.000    0.000    0.000    0.000    0.000    0.000 
#
# Total GULP energy -396520.557583 kJ/mol
# GULP energy per Si atom -12391.267424 kJ/mol
# Density = 1.796534 g / cm^3
# Si number density = 18.006325 Si / 1000 Ang^3
#
#
#
# Elastic Constant Matrix: (Units=GPa)
#
#
# Indices 1 2 3 4 5 6 
#
# 1 100.0809 26.1788 24.2166 0.0000 -3.1905 0.0000
# 2 26.1788 80.3900 24.5799 0.0000 -5.5772 0.0000
# 3 24.2166 24.5799 97.4303 0.0000 -6.0584 0.0000
# 4 0.0000 0.0000 0.0000 20.6840 0.0000 -9.6250
# 5 -3.1905 -5.5772 -6.0584 0.0000 27.4733 0.0000
# 6 0.0000 0.0000 0.0000 -9.6250 0.0000 23.4438
#
#
#
# Elastic Compliance Matrix: (Units=1/GPa)
#
#
# Indices 1 2 3 4 5 6 
#
# 1 0.011284 -0.003039 -0.002023 0.000000 0.000247 0.000000
# 2 -0.003039 0.014408 -0.002757 0.000000 0.001964 0.000000
# 3 -0.002023 -0.002757 0.011571 0.000000 0.001757 0.000000
# 4 0.000000 0.000000 0.000000 0.059764 0.000000 0.024537
# 5 0.000247 0.001964 0.001757 0.000000 0.037214 0.000000
# 6 0.000000 0.000000 0.000000 0.024537 0.000000 0.052729
#
#
# Mechanical properties :
#
#
# Convention : Reuss Voigt Hill
#
# Bulk Modulus (GPa) = 46.24142 47.53907 46.89024
# Shear Modulus (GPa) = 23.83019 27.84861 25.83940
#
# Velocity S-wave (km/s) = 3.64185 3.93695 3.79227
# Velocity P-wave (km/s) = 6.58942 6.86475 6.72849
#
# Compressibility (1/GPa) = 0.02162563
#
# Stress axis : x y z
#
# Youngs Moduli (GPa) = 88.61974 69.40392 86.41995
#
# Poissons Ratio (x) = 0.21092 0.17480
# Poissons Ratio (y) = 0.26932 0.23830
# Poissons Ratio (z) = 0.17924 0.19138
#
# Static dielectric constant tensor:
#      x y z
#    x 3.388000 0.000000 -0.281590 
#    y 0.000000 3.314210 0.000000 
#    z -0.281590 0.000000 3.307250 
# 
# 
# High freq. dielectric constant tensor:
#      x y z
#    x 1.696140 0.000000 -0.021890 
#    y 0.000000 1.676780 0.000000 
#    z -0.021890 0.000000 1.689870 
# 
# From -- ./inp_files/26963.got.cif
#   From: 2010.03.12/outbox.cif.g09.slc.cpg/sg14_14_cif.got.tgz:26963.got - 2010.03.31 13:35:05.
