data_PCOD8123598
_publ_section_title
;
Structure prediction by ZEFSAII (Michael W. Deem and Ramdas Pophale) SiO2 
 PCOD8123598
Probable space group: P 21/C
;
_chemical_formula_sum "Si O2"
_cell_formula_units_Z 28
_cell_length_a 5.140554
_cell_length_b 13.374192
_cell_length_c 22.833099
_cell_angle_alpha 90.000000
_cell_angle_beta 102.891615
_cell_angle_gamma 90.000000
_cell_volume 1530.224397
_symmetry_space_group_name_H-M "P 21/C"
_symmetry_group_IT_number 14
_symmetry_cell_setting 'monoclinic'
loop_
_space_group_symop_operation_xyz
x,y,z
-x,1/2+y,1/2-z
-x,-y,-z
x,1/2-y,1/2+z
loop_
_atom_site_type_symbol
_atom_site_label
_atom_site_fract_x
_atom_site_fract_y
_atom_site_fract_z
Si Si1 0.110100 0.514689 0.250403
Si Si2 0.580537 0.701687 0.897931
Si Si3 0.750010 0.869106 0.992775
Si Si4 0.246213 0.761954 0.780446
Si Si5 0.679312 0.080695 0.937769
Si Si6 0.334143 0.589463 0.699589
Si Si7 0.954436 0.384901 0.144326
O O1 0.126207 0.633403 0.255314
O O2 0.404619 0.469592 0.267666
O O3 0.925391 0.473549 0.293599
O O4 0.984194 0.490176 0.180035
O O5 0.495514 0.772638 0.838601
O O6 0.335154 0.626872 0.901167
O O7 0.824004 0.629522 0.893730
O O8 0.661830 0.767747 0.957094
O O9 0.586908 0.877685 0.044936
O O10 0.064470 0.865383 0.021132
O O11 0.689034 0.961441 0.946735
O O12 0.337667 0.699304 0.728374
O O13 0.015381 0.699814 0.803037
O O14 0.668396 0.105976 0.869477
#
# Coordination Sequence:
#
# PCOD8123598 Si02
#       7
#     4   4   4   4   4   4   4
#     4  11  20  33  53  75 109 143 165 217 267 315
#     4  10  18  34  50  72 104 132 176 217 249 312
#     4  10  20  33  51  74 101 143 178 207 258 320
#     4   9  22  31  55  75 107 137 176 207 278 311
#     4  10  21  33  49  77 106 136 180 210 258 318
#     4  11  22  36  51  80 114 137 175 219 260 329
#     4   9  19  32  45  78 101 126 183 206 252 322
#
# _framework density 18.297968999999998
#
# number of rings (size 3 to 8) (size 9 to 14) (size 15 to 20)
#    0.857    1.143    1.429    2.571    4.000    1.143 
#    0.000    0.000    0.000    0.000    0.000    6.000 
#    0.000    0.000    0.000    0.000    0.000    0.000 
#
# Total GULP energy -347067.857308 kJ/mol
# GULP energy per Si atom -12395.280618 kJ/mol
# Density = 1.825632 g / cm^3
# Si number density = 18.297969 Si / 1000 Ang^3
#
#
#
# Elastic Constant Matrix: (Units=GPa)
#
#
# Indices 1 2 3 4 5 6 
#
# 1 101.7028 12.0135 2.8875 0.0000 -5.1995 0.0000
# 2 12.0135 58.1797 9.1291 0.0000 -3.7951 0.0000
# 3 2.8875 9.1291 50.4660 0.0000 -11.8149 0.0000
# 4 0.0000 0.0000 0.0000 17.4450 0.0000 -1.2086
# 5 -5.1995 -3.7951 -11.8149 0.0000 21.3319 0.0000
# 6 0.0000 0.0000 0.0000 -1.2086 0.0000 17.4820
#
#
#
# Elastic Compliance Matrix: (Units=1/GPa)
#
#
# Indices 1 2 3 4 5 6 
#
# 1 0.010178 -0.002001 0.000318 0.000000 0.002301 0.000000
# 2 -0.002001 0.018130 -0.002900 0.000000 0.001131 0.000000
# 3 0.000318 -0.002900 0.023232 0.000000 0.012429 0.000000
# 4 0.000000 0.000000 0.000000 0.057599 0.000000 0.003982
# 5 0.002301 0.001131 0.012429 0.000000 0.054524 0.000000
# 6 0.000000 0.000000 0.000000 0.003982 0.000000 0.057477
#
#
# Mechanical properties :
#
#
# Convention : Reuss Voigt Hill
#
# Bulk Modulus (GPa) = 23.60009 28.71209 26.15609
# Shear Modulus (GPa) = 20.45574 23.67300 22.06437
#
# Velocity S-wave (km/s) = 3.34716 3.60078 3.47628
# Velocity P-wave (km/s) = 5.27860 5.74569 5.51709
#
# Compressibility (1/GPa) = 0.04237271
#
# Stress axis : x y z
#
# Youngs Moduli (GPa) = 98.25515 55.15629 43.04496
#
# Poissons Ratio (x) = 0.11039 -0.01371
# Poissons Ratio (y) = 0.19665 0.12484
# Poissons Ratio (z) = -0.03129 0.15997
#
# Static dielectric constant tensor:
#      x y z
#    x 3.549550 0.000000 0.003210 
#    y 0.000000 3.070780 0.000000 
#    z 0.003210 0.000000 3.109520 
# 
# 
# High freq. dielectric constant tensor:
#      x y z
#    x 1.728730 0.000000 -0.001990 
#    y 0.000000 1.677300 0.000000 
#    z -0.001990 0.000000 1.688060 
# 
# From -- ./inp_files/63713.got.cif
#   From: 2010.03.12/outbox.cif.g09.slc.cpg/sg14_32_cif.got.tgz:63713.got - 2010.03.31 13:35:05.
