data_PCOD8123999
_publ_section_title
;
Structure prediction by ZEFSAII (Michael W. Deem and Ramdas Pophale) SiO2 
 PCOD8123999
Probable space group: P 21/C
;
_chemical_formula_sum "Si O2"
_cell_formula_units_Z 32
_cell_length_a 12.031211
_cell_length_b 9.157066
_cell_length_c 19.924253
_cell_angle_alpha 90.000000
_cell_angle_beta 126.388536
_cell_angle_gamma 90.000000
_cell_volume 1767.056223
_symmetry_space_group_name_H-M "P 21/C"
_symmetry_group_IT_number 14
_symmetry_cell_setting 'monoclinic'
loop_
_space_group_symop_operation_xyz
x,y,z
-x,1/2+y,1/2-z
-x,-y,-z
x,1/2-y,1/2+z
loop_
_atom_site_type_symbol
_atom_site_label
_atom_site_fract_x
_atom_site_fract_y
_atom_site_fract_z
Si Si1 0.678072 0.154022 0.050612
Si Si2 0.112695 0.673781 0.781374
Si Si3 0.634439 0.678429 0.524553
Si Si4 0.373035 0.126107 0.268653
Si Si5 0.631721 0.195949 0.889517
Si Si6 0.831763 0.837889 0.690470
Si Si7 0.560657 0.630485 0.353361
Si Si8 0.701044 0.198349 0.769548
O O1 0.781177 0.237342 0.135458
O O2 0.690477 0.980551 0.066787
O O3 0.521378 0.204210 0.006780
O O4 0.720601 0.198383 0.989586
O O5 0.118021 0.503279 0.801417
O O6 0.154484 0.702018 0.718520
O O7 0.959164 0.728188 0.737666
O O8 0.731082 0.800257 0.592527
O O9 0.640346 0.697625 0.445919
O O10 0.517620 0.177840 0.351026
O O11 0.245632 0.186807 0.266365
O O12 0.359174 0.179103 0.185953
O O13 0.378232 0.951893 0.274268
O O14 0.730998 0.215400 0.860059
O O15 0.550452 0.043266 0.856610
O O16 0.400784 0.676813 0.293820
#
# Coordination Sequence:
#
# PCOD8123999 Si02
#       8
#     4   4   4   4   4   4   4   4
#     4  10  19  33  55  82 108 136 173 215 261 312
#     4  11  23  37  54  76 107 143 179 217 261 312
#     4  10  19  33  55  82 108 136 173 215 261 312
#     4   9  18  32  51  77 105 136 173 213 258 307
#     4   9  17  31  53  79 106 134 168 213 261 309
#     4  11  23  37  54  76 107 143 179 217 261 312
#     4   9  17  31  53  79 106 134 168 213 261 309
#     4   9  18  32  51  77 105 136 173 213 258 307
#
# _framework density 18.109214000000001
#
# number of rings (size 3 to 8) (size 9 to 14) (size 15 to 20)
#    0.000    2.250    2.500    0.750    0.000    2.500 
#    0.000    1.250    0.000    7.500    0.000    0.000 
#    0.000    0.000    0.000    0.000    0.000    0.000 
#
# Total GULP energy -396733.413248 kJ/mol
# GULP energy per Si atom -12397.919164 kJ/mol
# Density = 1.806800 g / cm^3
# Si number density = 18.109214 Si / 1000 Ang^3
#
#
#
# Elastic Constant Matrix: (Units=GPa)
#
#
# Indices 1 2 3 4 5 6 
#
# 1 73.9888 14.8329 25.2826 0.0000 -12.3587 0.0000
# 2 14.8329 21.0296 13.1465 0.0000 -5.2703 0.0000
# 3 25.2826 13.1465 66.5529 0.0000 -13.1971 0.0000
# 4 0.0000 0.0000 0.0000 30.8914 0.0000 2.1172
# 5 -12.3587 -5.2703 -13.1971 0.0000 26.4795 0.0000
# 6 0.0000 0.0000 0.0000 2.1172 0.0000 25.0133
#
#
#
# Elastic Compliance Matrix: (Units=1/GPa)
#
#
# Indices 1 2 3 4 5 6 
#
# 1 0.017350 -0.008628 -0.004019 0.000000 0.004378 0.000000
# 2 -0.008628 0.059432 -0.007673 0.000000 0.003978 0.000000
# 3 -0.004019 -0.007673 0.019301 0.000000 0.006216 0.000000
# 4 0.000000 0.000000 0.000000 0.032560 0.000000 -0.002756
# 5 0.004378 0.003978 0.006216 0.000000 0.043698 0.000000
# 6 0.000000 0.000000 0.000000 -0.002756 0.000000 0.040212
#
#
# Mechanical properties :
#
#
# Convention : Reuss Voigt Hill
#
# Bulk Modulus (GPa) = 18.03688 29.78836 23.91262
# Shear Modulus (GPa) = 18.40449 23.69746 21.05097
#
# Velocity S-wave (km/s) = 3.19141 3.62136 3.41316
# Velocity P-wave (km/s) = 4.85405 5.82844 5.36342
#
# Compressibility (1/GPa) = 0.05544197
#
# Stress axis : x y z
#
# Youngs Moduli (GPa) = 57.63810 16.82607 51.81169
#
# Poissons Ratio (x) = 0.14518 0.20821
# Poissons Ratio (y) = 0.49730 0.39757
# Poissons Ratio (z) = 0.23162 0.12911
#
# Static dielectric constant tensor:
#      x y z
#    x 3.546930 0.000000 -0.386210 
#    y 0.000000 3.358630 0.000000 
#    z -0.386210 0.000000 3.395130 
# 
# 
# High freq. dielectric constant tensor:
#      x y z
#    x 1.697380 0.000000 -0.030850 
#    y 0.000000 1.702160 0.000000 
#    z -0.030850 0.000000 1.685310 
# 
# From -- ./inp_files/57258.got.cif
#   From: 2010.03.12/outbox.cif.g09.slc.cpg/sg14_29_cif.got.tgz:57258.got - 2010.03.31 13:35:05.
