data_PCOD8123595
_publ_section_title
;
Structure prediction by ZEFSAII (Michael W. Deem and Ramdas Pophale) SiO2 
 PCOD8123595
Probable space group: P 21/C
;
_chemical_formula_sum "Si O2"
_cell_formula_units_Z 28
_cell_length_a 8.628825
_cell_length_b 18.028586
_cell_length_c 18.322082
_cell_angle_alpha 90.000000
_cell_angle_beta 147.489094
_cell_angle_gamma 90.000000
_cell_volume 1531.914074
_symmetry_space_group_name_H-M "P 21/C"
_symmetry_group_IT_number 14
_symmetry_cell_setting 'monoclinic'
loop_
_space_group_symop_operation_xyz
x,y,z
-x,1/2+y,1/2-z
-x,-y,-z
x,1/2-y,1/2+z
loop_
_atom_site_type_symbol
_atom_site_label
_atom_site_fract_x
_atom_site_fract_y
_atom_site_fract_z
Si Si1 0.774069 0.387177 0.912000
Si Si2 0.287767 0.678247 0.261838
Si Si3 0.574136 0.337737 0.982040
Si Si4 0.260920 0.219505 0.944534
Si Si5 0.918726 0.944758 0.675295
Si Si6 0.094345 0.905464 0.256361
Si Si7 0.336012 0.045753 0.581803
O O1 0.620733 0.346417 0.783102
O O2 0.726715 0.335370 0.963866
O O3 0.632952 0.468879 0.862404
O O4 0.117562 0.397492 0.034969
O O5 0.551562 0.717625 0.407133
O O6 0.019507 0.733248 0.148119
O O7 0.196989 0.605836 0.272135
O O8 0.439880 0.257788 0.949765
O O9 0.325440 0.399600 0.878576
O O10 0.808818 0.356990 0.136204
O O11 0.172293 0.136395 0.886975
O O12 0.783507 0.974412 0.546038
O O13 0.016558 0.014044 0.762751
O O14 0.356905 0.913490 0.302912
#
# Coordination Sequence:
#
# PCOD8123595 Si02
#       7
#     4   4   4   4   4   4   4
#     4  10  18  33  60  85 117 140 198 243 286 336
#     4  10  23  39  56  84 121 157 194 236 300 349
#     4  10  18  36  59  87 111 148 203 239 281 345
#     4  11  23  40  58  80 118 166 194 232 292 361
#     4   9  17  33  61  86 110 146 198 243 279 340
#     4  11  18  35  63  84 115 152 205 236 287 342
#     4   9  17  31  58  92 110 149 186 243 292 346
#
# _framework density 18.277787
#
# number of rings (size 3 to 8) (size 9 to 14) (size 15 to 20)
#    0.000    2.000    4.286    1.714    0.000    0.571 
#    2.571    0.714    0.000    0.000    0.000    0.000 
#    0.000    0.000    0.000    0.000    0.000    0.000 
#
# Total GULP energy -347219.609273 kJ/mol
# GULP energy per Si atom -12400.700331 kJ/mol
# Density = 1.823619 g / cm^3
# Si number density = 18.277787 Si / 1000 Ang^3
#
#
#
# Elastic Constant Matrix: (Units=GPa)
#
#
# Indices 1 2 3 4 5 6 
#
# 1 122.3084 37.2022 45.9688 0.0000 -12.8893 0.0000
# 2 37.2022 90.2503 47.7763 0.0000 -5.2657 0.0000
# 3 45.9688 47.7763 94.5149 0.0000 -1.7081 0.0000
# 4 0.0000 0.0000 0.0000 33.5736 0.0000 -3.2639
# 5 -12.8893 -5.2657 -1.7081 0.0000 14.1470 0.0000
# 6 0.0000 0.0000 0.0000 -3.2639 0.0000 27.7768
#
#
#
# Elastic Compliance Matrix: (Units=1/GPa)
#
#
# Indices 1 2 3 4 5 6 
#
# 1 0.011358 -0.001791 -0.004454 0.000000 0.009144 0.000000
# 2 -0.001791 0.015732 -0.007020 0.000000 0.003376 0.000000
# 3 -0.004454 -0.007020 0.016210 0.000000 -0.004714 0.000000
# 4 0.000000 0.000000 0.000000 0.030130 0.000000 0.003540
# 5 0.009144 0.003376 -0.004714 0.000000 0.079706 0.000000
# 6 0.000000 0.000000 0.000000 0.003540 0.000000 0.036417
#
#
# Mechanical properties :
#
#
# Convention : Reuss Voigt Hill
#
# Bulk Modulus (GPa) = 59.62878 63.21869 61.42374
# Shear Modulus (GPa) = 22.55579 26.84123 24.69851
#
# Velocity S-wave (km/s) = 3.51672 3.83628 3.67997
# Velocity P-wave (km/s) = 7.01315 7.36787 7.19270
#
# Compressibility (1/GPa) = 0.01677043
#
# Stress axis : x y z
#
# Youngs Moduli (GPa) = 88.04101 63.56537 61.69016
#
# Poissons Ratio (x) = 0.11383 0.27476
# Poissons Ratio (y) = 0.15766 0.43308
# Poissons Ratio (z) = 0.39212 0.44625
#
# Static dielectric constant tensor:
#      x y z
#    x 3.474660 0.000000 0.034010 
#    y 0.000000 3.414720 0.000000 
#    z 0.034010 0.000000 3.031570 
# 
# 
# High freq. dielectric constant tensor:
#      x y z
#    x 1.707630 0.000000 0.002600 
#    y 0.000000 1.712000 0.000000 
#    z 0.002600 0.000000 1.669500 
# 
# From -- ./inp_files/16645.got.cif
#   From: 2010.03.12/outbox.cif.g09.slc.cpg/sg14_9_cif.got.tgz:16645.got - 2010.03.31 13:35:05.
