data_PCOD8123820
_publ_section_title
;
Structure prediction by ZEFSAII (Michael W. Deem and Ramdas Pophale) SiO2 
 PCOD8123820
Probable space group: P 21/C
;
_chemical_formula_sum "Si O2"
_cell_formula_units_Z 32
_cell_length_a 22.895935
_cell_length_b 7.512002
_cell_length_c 23.201296
_cell_angle_alpha 90.000000
_cell_angle_beta 154.855652
_cell_angle_gamma 90.000000
_cell_volume 1695.560466
_symmetry_space_group_name_H-M "P 21/C"
_symmetry_group_IT_number 14
_symmetry_cell_setting 'monoclinic'
loop_
_space_group_symop_operation_xyz
x,y,z
-x,1/2+y,1/2-z
-x,-y,-z
x,1/2-y,1/2+z
loop_
_atom_site_type_symbol
_atom_site_label
_atom_site_fract_x
_atom_site_fract_y
_atom_site_fract_z
Si Si1 0.819547 0.535623 0.247801
Si Si2 0.339173 0.183916 0.210164
Si Si3 0.877682 0.113229 0.002919
Si Si4 0.804765 0.842857 0.318601
Si Si5 0.395396 0.226087 0.135102
Si Si6 0.639770 0.461091 0.979593
Si Si7 0.314699 0.822396 0.069184
Si Si8 0.887670 0.276503 0.892123
O O1 0.773132 0.721604 0.234825
O O2 0.705468 0.477831 0.100649
O O3 0.824725 0.391463 0.303373
O O4 0.965758 0.552316 0.346553
O O5 0.315513 0.321939 0.241047
O O6 0.344513 0.285262 0.153519
O O7 0.478044 0.071324 0.342968
O O8 0.211684 0.051798 0.097630
O O9 0.820756 0.190539 0.012227
O O10 0.872024 0.259224 0.947207
O O11 0.950803 0.791347 0.478045
O O12 0.806849 0.047360 0.299666
O O13 0.560719 0.238887 0.282259
O O14 0.348221 0.024650 0.080030
O O15 0.332249 0.358357 0.031433
O O16 0.710315 0.293940 0.010270
#
# Coordination Sequence:
#
# PCOD8123820 Si02
#       8
#     4   4   4   4   4   4   4   4
#     4  11  22  40  55  84 129 146 182 243 302 334
#     4  10  19  37  62  84 108 151 202 234 275 352
#     4  10  18  38  62  80 110 153 195 239 275 344
#     4  10  20  37  60  90 108 153 202 231 285 347
#     4  10  19  35  60  83 112 146 196 240 276 338
#     4  11  24  38  57  85 123 157 177 248 301 335
#     4  10  20  37  59  86 110 150 203 235 281 347
#     4  10  20  35  63  85 112 151 192 243 280 342
#
# _framework density 18.872817000000001
#
# number of rings (size 3 to 8) (size 9 to 14) (size 15 to 20)
#    0.000    1.750    6.250    0.750    1.750    1.500 
#    4.500    0.625    0.000    0.000    0.000    0.000 
#    0.000    0.000    0.000    0.000    0.000    0.000 
#
# Total GULP energy -396791.068491 kJ/mol
# GULP energy per Si atom -12399.720890 kJ/mol
# Density = 1.882986 g / cm^3
# Si number density = 18.872817 Si / 1000 Ang^3
#
#
#
# Elastic Constant Matrix: (Units=GPa)
#
#
# Indices 1 2 3 4 5 6 
#
# 1 88.2391 35.1975 21.0510 0.0000 7.5879 0.0000
# 2 35.1975 94.0896 14.1666 0.0000 -4.4499 0.0000
# 3 21.0510 14.1666 43.5509 0.0000 -8.8512 0.0000
# 4 0.0000 0.0000 0.0000 20.0522 0.0000 -2.6491
# 5 7.5879 -4.4499 -8.8512 0.0000 24.8919 0.0000
# 6 0.0000 0.0000 0.0000 -2.6491 0.0000 28.4638
#
#
#
# Elastic Compliance Matrix: (Units=1/GPa)
#
#
# Indices 1 2 3 4 5 6 
#
# 1 0.016012 -0.005224 -0.007785 0.000000 -0.008583 0.000000
# 2 -0.005224 0.012893 -0.000945 0.000000 0.003561 0.000000
# 3 -0.007785 -0.000945 0.029621 0.000000 0.012737 0.000000
# 4 0.000000 0.000000 0.000000 0.050491 0.000000 0.004699
# 5 -0.008583 0.003561 0.012737 0.000000 0.047956 0.000000
# 6 0.000000 0.000000 0.000000 0.004699 0.000000 0.035570
#
#
# Mechanical properties :
#
#
# Convention : Reuss Voigt Hill
#
# Bulk Modulus (GPa) = 32.66039 40.74553 36.70296
# Shear Modulus (GPa) = 21.67745 25.04588 23.36167
#
# Velocity S-wave (km/s) = 3.39279 3.64687 3.52212
# Velocity P-wave (km/s) = 5.71761 6.27450 6.00252
#
# Compressibility (1/GPa) = 0.03061813
#
# Stress axis : x y z
#
# Youngs Moduli (GPa) = 62.45426 77.56167 33.76028
#
# Poissons Ratio (x) = 0.40515 0.26281
# Poissons Ratio (y) = 0.32623 0.03191
# Poissons Ratio (z) = 0.48619 0.07332
#
# Static dielectric constant tensor:
#      x y z
#    x 3.622270 0.000000 0.168690 
#    y 0.000000 3.552190 0.000000 
#    z 0.168690 0.000000 3.102740 
# 
# 
# High freq. dielectric constant tensor:
#      x y z
#    x 1.741980 0.000000 0.011900 
#    y 0.000000 1.737260 0.000000 
#    z 0.011900 0.000000 1.696020 
# 
# From -- ./inp_files/69799.got.cif
#   From: 2010.03.12/outbox.cif.g09.slc.cpg/sg14_35_cif.got.tgz:69799.got - 2010.03.31 13:35:05.
