data_PCOD8123992
_publ_section_title
;
Structure prediction by ZEFSAII (Michael W. Deem and Ramdas Pophale) SiO2 
 PCOD8123992
Probable space group: P 21/C
;
_chemical_formula_sum "Si O2"
_cell_formula_units_Z 32
_cell_length_a 25.102406
_cell_length_b 8.676801
_cell_length_c 20.038555
_cell_angle_alpha 90.000000
_cell_angle_beta 156.944143
_cell_angle_gamma 90.000000
_cell_volume 1709.288973
_symmetry_space_group_name_H-M "P 21/C"
_symmetry_group_IT_number 14
_symmetry_cell_setting 'monoclinic'
loop_
_space_group_symop_operation_xyz
x,y,z
-x,1/2+y,1/2-z
-x,-y,-z
x,1/2-y,1/2+z
loop_
_atom_site_type_symbol
_atom_site_label
_atom_site_fract_x
_atom_site_fract_y
_atom_site_fract_z
Si Si1 0.333810 0.267813 0.029154
Si Si2 0.885612 0.725864 0.116271
Si Si3 0.286080 0.371869 0.690434
Si Si4 0.632227 0.686545 0.076607
Si Si5 0.610551 0.121693 0.384211
Si Si6 0.168750 0.869883 0.468460
Si Si7 0.582390 0.331923 0.997020
Si Si8 0.663832 0.270794 0.229725
O O1 0.457824 0.153343 0.185099
O O2 0.382508 0.438968 0.101604
O O3 0.204997 0.220976 0.925078
O O4 0.292311 0.253624 0.903015
O O5 0.872554 0.545638 0.087602
O O6 0.040709 0.759626 0.311696
O O7 0.843170 0.821746 0.001950
O O8 0.271242 0.295919 0.747289
O O9 0.291536 0.556297 0.699625
O O10 0.420754 0.296852 0.811871
O O11 0.594747 0.508955 0.029347
O O12 0.487476 0.771498 0.918949
O O13 0.720152 0.184609 0.458110
O O14 0.640847 0.204033 0.490778
O O15 0.231189 0.845802 0.614231
O O16 0.664597 0.241341 0.150088
#
# Coordination Sequence:
#
# PCOD8123992 Si02
#       8
#     4   4   4   4   4   4   4   4
#     4  10  19  33  54  80 105 132 173 217 257 304
#     4  11  23  36  52  76 107 143 176 211 258 310
#     4   9  16  31  55  78 103 136 169 210 260 307
#     4   8  15  29  53  81 104 130 168 212 259 308
#     4  10  19  33  54  80 105 132 173 217 257 304
#     4  11  23  36  52  76 107 143 176 211 258 310
#     4   8  15  29  53  81 104 130 168 212 259 308
#     4   9  16  31  55  78 103 136 169 210 260 307
#
# _framework density 18.721233999999999
#
# number of rings (size 3 to 8) (size 9 to 14) (size 15 to 20)
#    0.000    2.500    2.500    2.250    0.000    1.000 
#    0.000    5.000    0.000    7.500    0.000    0.000 
#    0.000    0.000    0.000    0.000    0.000    0.000 
#
# Total GULP energy -396657.915166 kJ/mol
# GULP energy per Si atom -12395.559849 kJ/mol
# Density = 1.867862 g / cm^3
# Si number density = 18.721234 Si / 1000 Ang^3
#
#
#
# Elastic Constant Matrix: (Units=GPa)
#
#
# Indices 1 2 3 4 5 6 
#
# 1 84.1192 6.5709 14.9641 0.0000 -8.5538 0.0000
# 2 6.5709 19.4884 -2.8070 0.0000 5.0766 0.0000
# 3 14.9641 -2.8070 49.4883 0.0000 0.9483 0.0000
# 4 0.0000 0.0000 0.0000 28.7688 0.0000 -3.4455
# 5 -8.5538 5.0766 0.9483 0.0000 27.0893 0.0000
# 6 0.0000 0.0000 0.0000 -3.4455 0.0000 20.5889
#
#
#
# Elastic Compliance Matrix: (Units=1/GPa)
#
#
# Indices 1 2 3 4 5 6 
#
# 1 0.013850 -0.006862 -0.004689 0.000000 0.005823 0.000000
# 2 -0.006862 0.057875 0.005611 0.000000 -0.013209 0.000000
# 3 -0.004689 0.005611 0.022006 0.000000 -0.003302 0.000000
# 4 0.000000 0.000000 0.000000 0.035471 0.000000 0.005936
# 5 0.005823 -0.013209 -0.003302 0.000000 0.041345 0.000000
# 6 0.000000 0.000000 0.000000 0.005936 0.000000 0.049563
#
#
# Mechanical properties :
#
#
# Convention : Reuss Voigt Hill
#
# Bulk Modulus (GPa) = 12.21727 21.17243 16.69485
# Shear Modulus (GPa) = 19.28456 24.24725 21.76591
#
# Velocity S-wave (km/s) = 3.21298 3.60276 3.41344
# Velocity P-wave (km/s) = 4.50604 5.35167 4.94696
#
# Compressibility (1/GPa) = 0.08185135
#
# Stress axis : x y z
#
# Youngs Moduli (GPa) = 72.20119 17.27850 45.44190
#
# Poissons Ratio (x) = 0.11857 0.21307
# Poissons Ratio (y) = 0.49546 -0.25497
# Poissons Ratio (z) = 0.33854 -0.09695
#
# Static dielectric constant tensor:
#      x y z
#    x 3.899130 0.000000 -0.286740 
#    y 0.000000 3.089040 0.000000 
#    z -0.286740 0.000000 3.295070 
# 
# 
# High freq. dielectric constant tensor:
#      x y z
#    x 1.731880 0.000000 -0.024360 
#    y 0.000000 1.699820 0.000000 
#    z -0.024360 0.000000 1.708570 
# 
# From -- ./inp_files/70538.got.cif
#   From: 2010.03.12/outbox.cif.g09.slc.cpg/sg14_36_cif.got.tgz:70538.got - 2010.03.31 13:35:05.
