data_PCOD8123310
_publ_section_title
;
Structure prediction by ZEFSAII (Michael W. Deem and Ramdas Pophale) SiO2 
 PCOD8123310
Probable space group: P 21/C
;
_chemical_formula_sum "Si O2"
_cell_formula_units_Z 32
_cell_length_a 22.434208
_cell_length_b 6.692353
_cell_length_c 24.885332
_cell_angle_alpha 90.000000
_cell_angle_beta 148.915918
_cell_angle_gamma 90.000000
_cell_volume 1928.995852
_symmetry_space_group_name_H-M "P 21/C"
_symmetry_group_IT_number 14
_symmetry_cell_setting 'monoclinic'
loop_
_space_group_symop_operation_xyz
x,y,z
-x,1/2+y,1/2-z
-x,-y,-z
x,1/2-y,1/2+z
loop_
_atom_site_type_symbol
_atom_site_label
_atom_site_fract_x
_atom_site_fract_y
_atom_site_fract_z
Si Si1 0.185979 0.476847 0.662092
Si Si2 0.370682 0.433485 0.947278
Si Si3 0.613997 0.215347 0.635296
Si Si4 0.967898 0.809125 0.160752
Si Si5 0.062363 0.418889 0.178928
Si Si6 0.146827 0.383395 0.833058
Si Si7 0.957155 0.433890 0.550552
Si Si8 0.715559 0.622365 0.706555
O O1 0.281012 0.642022 0.747267
O O2 0.141784 0.514036 0.568054
O O3 0.245168 0.256965 0.712032
O O4 0.082756 0.502566 0.625751
O O5 0.375536 0.644816 0.919140
O O6 0.279910 0.447482 0.926321
O O7 0.336814 0.267469 0.878102
O O8 0.494680 0.371849 0.067509
O O9 0.618384 0.456347 0.643893
O O10 0.864268 0.744615 0.120702
O O11 0.922135 0.948997 0.077773
O O12 0.014938 0.606645 0.172583
O O13 0.067068 0.917766 0.272720
O O14 0.170068 0.491938 0.226269
O O15 0.106539 0.247275 0.252293
O O16 0.964071 0.305879 0.067072
#
# Coordination Sequence:
#
# PCOD8123310 Si02
#       8
#     4   4   4   4   4   4   4   4
#     4   9  18  32  46  69  98 122 157 198 234 278
#     4   9  19  30  44  71  99 121 155 196 230 289
#     4  10  17  30  48  67  95 131 152 188 245 283
#     4  11  18  30  48  68  94 125 155 191 242 284
#     4   9  17  29  45  69  96 125 150 187 230 282
#     4  10  19  30  45  70  96 121 154 193 235 285
#     4   9  19  31  46  70  96 123 158 196 235 284
#     4   9  16  28  48  69  96 123 154 186 230 282
#
# _framework density 16.588940999999998
#
# number of rings (size 3 to 8) (size 9 to 14) (size 15 to 20)
#    0.000    2.500    1.250    4.125    0.000    1.000 
#    0.000    3.750    0.000    0.000    6.500    0.000 
#    0.000    0.000    0.000    0.000    0.000    0.000 
#
# Total GULP energy -396612.686371 kJ/mol
# GULP energy per Si atom -12394.146449 kJ/mol
# Density = 1.655118 g / cm^3
# Si number density = 16.588941 Si / 1000 Ang^3
#
#
#
# Elastic Constant Matrix: (Units=GPa)
#
#
# Indices 1 2 3 4 5 6 
#
# 1 68.0362 12.5187 23.5300 0.0000 -0.9865 0.0000
# 2 12.5187 70.0439 22.2257 0.0000 -0.0400 0.0000
# 3 23.5300 22.2257 79.3649 0.0000 -1.5683 0.0000
# 4 0.0000 0.0000 0.0000 17.4915 0.0000 0.2725
# 5 -0.9865 -0.0400 -1.5683 0.0000 17.8531 0.0000
# 6 0.0000 0.0000 0.0000 0.2725 0.0000 24.7271
#
#
#
# Elastic Compliance Matrix: (Units=1/GPa)
#
#
# Indices 1 2 3 4 5 6 
#
# 1 0.016531 -0.001539 -0.004460 0.000000 0.000518 0.000000
# 2 -0.001539 0.015815 -0.003980 0.000000 -0.000399 0.000000
# 3 -0.004460 -0.003980 0.015058 0.000000 0.001067 0.000000
# 4 0.000000 0.000000 0.000000 0.057180 0.000000 -0.000630
# 5 0.000518 -0.000399 0.001067 0.000000 0.056134 0.000000
# 6 0.000000 0.000000 0.000000 -0.000630 0.000000 0.040448
#
#
# Mechanical properties :
#
#
# Convention : Reuss Voigt Hill
#
# Bulk Modulus (GPa) = 36.43629 37.11042 36.77335
# Shear Modulus (GPa) = 21.71326 22.62571 22.16948
#
# Velocity S-wave (km/s) = 3.62180 3.69711 3.65965
# Velocity P-wave (km/s) = 6.28504 6.37526 6.33031
#
# Compressibility (1/GPa) = 0.02744517
#
# Stress axis : x y z
#
# Youngs Moduli (GPa) = 60.49166 63.23254 66.40950
#
# Poissons Ratio (x) = 0.09732 0.29618
# Poissons Ratio (y) = 0.09310 0.26434
# Poissons Ratio (z) = 0.26979 0.25169
#
# Static dielectric constant tensor:
#      x y z
#    x 3.071800 0.000000 0.114030 
#    y 0.000000 3.289820 0.000000 
#    z 0.114030 0.000000 3.055120 
# 
# 
# High freq. dielectric constant tensor:
#      x y z
#    x 1.610560 0.000000 0.007360 
#    y 0.000000 1.648940 0.000000 
#    z 0.007360 0.000000 1.616070 
# 
# From -- ./inp_files/74806.got.cif
#   From: 2010.03.12/outbox.cif.g09.slc.cpg/sg14_38_cif.got.tgz:74806.got - 2010.03.31 13:35:05.
