data_PCOD8123037
_publ_section_title
;
Structure prediction by ZEFSAII (Michael W. Deem and Ramdas Pophale) SiO2 
 PCOD8123037
Probable space group: P 2/C
;
_chemical_formula_sum "Si O2"
_cell_formula_units_Z 20
_cell_length_a 14.754374
_cell_length_b 5.353408
_cell_length_c 20.292153
_cell_angle_alpha 90.000000
_cell_angle_beta 27.397571
_cell_angle_gamma 90.000000
_cell_volume 737.547762
_symmetry_space_group_name_H-M "P 2/C"
_symmetry_group_IT_number 13
_symmetry_cell_setting 'monoclinic'
loop_
_space_group_symop_operation_xyz
x,y,z
-x,y,1/2-z
-x,-y,-z
x,-y,1/2+z
loop_
_atom_site_type_symbol
_atom_site_label
_atom_site_fract_x
_atom_site_fract_y
_atom_site_fract_z
Si Si1 0.500000 0.006493 0.250000
Si Si2 0.339529 0.408173 0.204745
Si Si3 0.294232 0.622462 0.472646
Si Si4 0.000000 0.096125 0.250000
Si Si5 0.801375 0.099552 0.753382
Si Si6 0.873966 0.680624 0.533145
O O1 0.425897 0.842182 0.358398
O O2 0.330687 0.171803 0.327520
O O3 0.551965 0.408847 0.103418
O O4 0.331447 0.648584 0.161138
O O5 0.142553 0.445361 0.381562
O O6 0.327341 0.150509 0.172558
O O7 0.142749 0.516290 0.516215
O O8 0.170801 0.725079 0.613208
O O9 0.082162 0.912857 0.253193
O O10 0.956632 0.116866 0.592269
#
# Coordination Sequence:
#
# PCOD8123037 Si02
#       6
#     2   4   4   2   4   4
#     4  12  20  46  80 112 146 204 262 310 374 454
#     4  12  26  48  79 119 151 197 262 331 378 446
#     4  12  26  48  81 111 159 204 259 315 389 472
#     4  12  30  54  72 110 160 220 256 304 402 474
#     4  12  29  47  77 111 161 203 254 325 385 460
#     4  12  24  46  80 117 154 202 260 323 390 456
#
# _framework density 27.116890000000001
#
# number of rings (size 3 to 8) (size 9 to 14) (size 15 to 20)
#    0.000    0.000    6.000    3.600    0.000    4.800 
#    0.000    0.000    0.000    0.000    0.000    0.000 
#    0.000    0.000    0.000    0.000    0.000    0.000 
#
# Total GULP energy -248167.586634 kJ/mol
# GULP energy per Si atom -12408.379332 kJ/mol
# Density = 2.705517 g / cm^3
# Si number density = 27.116890 Si / 1000 Ang^3
#
#
#
# Elastic Constant Matrix: (Units=GPa)
#
#
# Indices 1 2 3 4 5 6 
#
# 1 153.2980 61.4915 16.1753 0.0000 -4.9031 0.0000
# 2 61.4915 172.4405 32.9909 0.0000 5.8509 0.0000
# 3 16.1753 32.9909 103.4675 0.0000 8.2745 0.0000
# 4 0.0000 0.0000 0.0000 29.5164 0.0000 11.6603
# 5 -4.9031 5.8509 8.2745 0.0000 28.7492 0.0000
# 6 0.0000 0.0000 0.0000 11.6603 0.0000 40.1691
#
#
#
# Elastic Compliance Matrix: (Units=1/GPa)
#
#
# Indices 1 2 3 4 5 6 
#
# 1 0.007736 -0.002732 -0.000500 0.000000 0.002019 0.000000
# 2 -0.002732 0.007154 -0.001741 0.000000 -0.001421 0.000000
# 3 -0.000500 -0.001741 0.010519 0.000000 -0.002758 0.000000
# 4 0.000000 0.000000 0.000000 0.038268 0.000000 -0.011108
# 5 0.002019 -0.001421 -0.002758 0.000000 0.036211 0.000000
# 6 0.000000 0.000000 0.000000 -0.011108 0.000000 0.028119
#
#
# Mechanical properties :
#
#
# Convention : Reuss Voigt Hill
#
# Bulk Modulus (GPa) = 64.66145 72.28015 68.47080
# Shear Modulus (GPa) = 34.93899 40.92349 37.93124
#
# Velocity S-wave (km/s) = 3.59340 3.88899 3.74412
# Velocity P-wave (km/s) = 6.41202 6.84679 6.63297
#
# Compressibility (1/GPa) = 0.01546517
#
# Stress axis : x y z
#
# Youngs Moduli (GPa) = 129.26114 139.77459 95.06969
#
# Poissons Ratio (x) = 0.38181 0.04753
# Poissons Ratio (y) = 0.35309 0.16547
# Poissons Ratio (z) = 0.06462 0.24328
#
# Static dielectric constant tensor:
#      x y z
#    x 5.047640 0.000000 -0.275880 
#    y 0.000000 4.897720 0.000000 
#    z -0.275880 0.000000 4.964450 
# 
# 
# High freq. dielectric constant tensor:
#      x y z
#    x 2.102880 0.000000 -0.014950 
#    y 0.000000 2.104460 0.000000 
#    z -0.014950 0.000000 2.096710 
# 
# From -- ./inp_files/79225.got.cif
#   From: 2010.06.25/outbox.cif.g09.slc.cpg/sg13_40_cif.got.tgz:79225.got - 2010.06.28 04:50:58.
