data_PCOD8123126
_publ_section_title
;
Structure prediction by ZEFSAII (Michael W. Deem and Ramdas Pophale) SiO2 
 PCOD8123126
Probable space group: P 2/C
;
_chemical_formula_sum "Si O2"
_cell_formula_units_Z 20
_cell_length_a 9.167880
_cell_length_b 10.719291
_cell_length_c 9.874264
_cell_angle_alpha 90.000000
_cell_angle_beta 113.739217
_cell_angle_gamma 90.000000
_cell_volume 888.269150
_symmetry_space_group_name_H-M "P 2/C"
_symmetry_group_IT_number 13
_symmetry_cell_setting 'monoclinic'
loop_
_space_group_symop_operation_xyz
x,y,z
-x,y,1/2-z
-x,-y,-z
x,-y,1/2+z
loop_
_atom_site_type_symbol
_atom_site_label
_atom_site_fract_x
_atom_site_fract_y
_atom_site_fract_z
Si Si1 0.887900 0.994600 0.834281
Si Si2 0.315718 0.769605 0.194374
Si Si3 0.174486 0.658106 0.872093
Si Si4 0.327602 0.762407 0.683724
Si Si5 0.335810 0.580172 0.437169
O O1 0.778205 0.116382 0.770434
O O2 0.000000 0.970689 0.750000
O O3 0.789485 0.873686 0.833175
O O4 0.000000 0.000000 0.000000
O O5 0.500000 0.810684 0.250000
O O6 0.311170 0.644451 0.282167
O O7 0.228597 0.744436 0.018027
O O8 0.304470 0.668498 0.800406
O O9 0.188025 0.512259 0.915270
O O10 0.000000 0.693878 0.750000
O O11 0.500000 0.824240 0.750000
O O12 0.313739 0.688644 0.538480
O O13 0.500000 0.500000 0.500000
#
# Coordination Sequence:
#
# PCOD8123126 Si02
#       5
#     4   4   4   4   4
#     4  12  27  47  72 106 150 193 248 312 370 435
#     4  12  25  47  77 105 147 199 254 297 375 445
#     4  12  27  44  71 111 150 190 246 308 372 434
#     4  12  24  45  74 102 146 191 245 301 373 434
#     4  12  25  45  73 109 146 195 244 308 360 448
#
# _framework density 22.515696999999999
#
# number of rings (size 3 to 8) (size 9 to 14) (size 15 to 20)
#    0.000    0.000    4.000    6.000    0.000    5.600 
#    0.000    6.000    0.000    0.000    0.000    0.000 
#    0.000    0.000    0.000    0.000    0.000    0.000 
#
# Total GULP energy -247889.057760 kJ/mol
# GULP energy per Si atom -12394.452888 kJ/mol
# Density = 2.246445 g / cm^3
# Si number density = 22.515697 Si / 1000 Ang^3
#
#
#
# Elastic Constant Matrix: (Units=GPa)
#
#
# Indices 1 2 3 4 5 6 
#
# 1 169.3115 72.6634 72.9138 0.0000 5.2844 0.0000
# 2 72.6634 122.1951 37.6631 0.0000 12.6793 0.0000
# 3 72.9138 37.6631 148.6271 0.0000 7.1943 0.0000
# 4 0.0000 0.0000 0.0000 35.4190 0.0000 -4.8125
# 5 5.2844 12.6793 7.1943 0.0000 38.1796 0.0000
# 6 0.0000 0.0000 0.0000 -4.8125 0.0000 51.4258
#
#
#
# Elastic Compliance Matrix: (Units=1/GPa)
#
#
# Indices 1 2 3 4 5 6 
#
# 1 0.009333 -0.004574 -0.003462 0.000000 0.000880 0.000000
# 2 -0.004574 0.011371 -0.000490 0.000000 -0.003051 0.000000
# 3 -0.003462 -0.000490 0.008598 0.000000 -0.000978 0.000000
# 4 0.000000 0.000000 0.000000 0.028597 0.000000 0.002676
# 5 0.000880 -0.003051 -0.000978 0.000000 0.027268 0.000000
# 6 0.000000 0.000000 0.000000 0.002676 0.000000 0.019696
#
#
# Mechanical properties :
#
#
# Convention : Reuss Voigt Hill
#
# Bulk Modulus (GPa) = 81.63087 89.62378 85.62733
# Shear Modulus (GPa) = 39.68322 42.13110 40.90716
#
# Velocity S-wave (km/s) = 4.20273 4.33042 4.26705
# Velocity P-wave (km/s) = 7.73850 8.05573 7.89871
#
# Compressibility (1/GPa) = 0.01225027
#
# Stress axis : x y z
#
# Youngs Moduli (GPa) = 107.15018 87.94227 116.30418
#
# Poissons Ratio (x) = 0.40224 0.40264
# Poissons Ratio (y) = 0.49010 0.05698
# Poissons Ratio (z) = 0.37095 0.04309
#
# Static dielectric constant tensor:
#      x y z
#    x 4.300040 0.000000 -0.048090 
#    y 0.000000 -1.211100 0.000000 
#    z -0.048090 0.000000 4.192680 
# 
# 
# High freq. dielectric constant tensor:
#      x y z
#    x 1.898870 0.000000 -0.000030 
#    y 0.000000 1.903020 0.000000 
#    z -0.000030 0.000000 1.900750 
# 
# From -- ./inp_files/11878.got.cif
#   From: 2010.06.25/outbox.cif.g09.slc.cpg/sg13_6_cif.got.tgz:11878.got - 2010.06.28 04:50:58.
