data_PCOD8123354
_publ_section_title
;
Structure prediction by ZEFSAII (Michael W. Deem and Ramdas Pophale) SiO2 
 PCOD8123354
Probable space group: P 21/C
;
_chemical_formula_sum "Si O2"
_cell_formula_units_Z 32
_cell_length_a 11.338109
_cell_length_b 16.149600
_cell_length_c 11.896647
_cell_angle_alpha 90.000000
_cell_angle_beta 129.010926
_cell_angle_gamma 90.000000
_cell_volume 1692.631778
_symmetry_space_group_name_H-M "P 21/C"
_symmetry_group_IT_number 14
_symmetry_cell_setting 'monoclinic'
loop_
_space_group_symop_operation_xyz
x,y,z
-x,1/2+y,1/2-z
-x,-y,-z
x,1/2-y,1/2+z
loop_
_atom_site_type_symbol
_atom_site_label
_atom_site_fract_x
_atom_site_fract_y
_atom_site_fract_z
Si Si1 0.318193 0.309104 0.895593
Si Si2 0.101723 0.178130 0.705403
Si Si3 0.328971 0.665279 0.873429
Si Si4 0.140992 0.070126 0.142208
Si Si5 0.809684 0.093083 0.922335
Si Si6 0.881561 0.618505 0.037803
Si Si7 0.896100 0.039761 0.665502
Si Si8 0.129477 0.806090 0.838872
O O1 0.262516 0.213199 0.850108
O O2 0.251662 0.357036 0.746578
O O3 0.261465 0.344986 0.980011
O O4 0.495780 0.322603 0.996204
O O5 0.125657 0.149887 0.592736
O O6 0.041841 0.099934 0.741176
O O7 0.980182 0.252812 0.644833
O O8 0.298871 0.644517 0.725276
O O9 0.257496 0.593436 0.909218
O O10 0.256173 0.753077 0.854895
O O11 0.228096 0.005384 0.112614
O O12 0.078328 0.021539 0.214879
O O13 0.987853 0.105397 0.991834
O O14 0.784508 0.125603 0.033214
O O15 0.875835 0.517801 0.042261
O O16 0.037490 0.649607 0.185629
#
# Coordination Sequence:
#
# PCOD8123354 Si02
#       8
#     4   4   4   4   4   4   4   4
#     4  10  21  38  50  84 113 139 182 226 270 325
#     4  10  19  33  55  79 111 143 175 222 273 324
#     4  10  22  33  56  80 113 144 174 228 274 325
#     4   9  18  33  57  82 104 137 187 229 265 312
#     4  10  17  33  55  78 105 141 182 222 268 312
#     4  10  19  34  57  80 105 144 185 226 264 321
#     4   9  18  34  55  85 105 138 186 227 269 319
#     4  10  19  34  53  82 108 138 186 222 267 320
#
# _framework density 18.905470000000001
#
# number of rings (size 3 to 8) (size 9 to 14) (size 15 to 20)
#    0.000    2.250    3.750    1.125    0.000    6.500 
#    0.000    0.000    0.000    0.750    6.500    0.000 
#    0.000    0.000    0.000    0.000    0.000    0.000 
#
# Total GULP energy -396577.262456 kJ/mol
# GULP energy per Si atom -12393.039452 kJ/mol
# Density = 1.886244 g / cm^3
# Si number density = 18.905470 Si / 1000 Ang^3
#
#
#
# Elastic Constant Matrix: (Units=GPa)
#
#
# Indices 1 2 3 4 5 6 
#
# 1 60.2572 31.9064 32.6111 0.0000 22.6314 0.0000
# 2 31.9064 81.7026 26.2769 0.0000 11.8252 0.0000
# 3 32.6111 26.2769 67.7304 0.0000 23.5405 0.0000
# 4 0.0000 0.0000 0.0000 28.3507 0.0000 -4.7959
# 5 22.6314 11.8252 23.5405 0.0000 30.0790 0.0000
# 6 0.0000 0.0000 0.0000 -4.7959 0.0000 20.8675
#
#
#
# Elastic Compliance Matrix: (Units=1/GPa)
#
#
# Indices 1 2 3 4 5 6 
#
# 1 0.029203 -0.007330 -0.006294 0.000000 -0.014165 0.000000
# 2 -0.007330 0.015889 -0.003271 0.000000 0.001828 0.000000
# 3 -0.006294 -0.003271 0.023312 0.000000 -0.012223 0.000000
# 4 0.000000 0.000000 0.000000 0.036699 0.000000 0.008435
# 5 -0.014165 0.001828 -0.012223 0.000000 0.052751 0.000000
# 6 0.000000 0.000000 0.000000 0.008435 0.000000 0.049860
#
#
# Mechanical properties :
#
#
# Convention : Reuss Voigt Hill
#
# Bulk Modulus (GPa) = 28.88869 43.47544 36.18207
# Shear Modulus (GPa) = 19.75958 23.78583 21.77270
#
# Velocity S-wave (km/s) = 3.23643 3.55088 3.39730
# Velocity P-wave (km/s) = 5.41107 6.31331 5.87952
#
# Compressibility (1/GPa) = 0.03461562
#
# Stress axis : x y z
#
# Youngs Moduli (GPa) = 34.24296 62.93553 42.89641
#
# Poissons Ratio (x) = 0.46132 0.26998
# Poissons Ratio (y) = 0.25100 0.14029
# Poissons Ratio (z) = 0.21552 0.20583
#
# Static dielectric constant tensor:
#      x y z
#    x 3.170190 0.000000 -0.085450 
#    y 0.000000 3.897630 0.000000 
#    z -0.085450 0.000000 3.314390 
# 
# 
# High freq. dielectric constant tensor:
#      x y z
#    x 1.698660 0.000000 -0.009740 
#    y 0.000000 1.747270 0.000000 
#    z -0.009740 0.000000 1.720520 
# 
# From -- ./inp_files/30031.got.cif
#   From: 2010.03.12/outbox.cif.g09.slc.cpg/sg14_16_cif.got.tgz:30031.got - 2010.03.31 13:35:05.
