data_PCOD8123706
_publ_section_title
;
Structure prediction by ZEFSAII (Michael W. Deem and Ramdas Pophale) SiO2 
 PCOD8123706
Probable space group: P 21/C
;
_chemical_formula_sum "Si O2"
_cell_formula_units_Z 28
_cell_length_a 11.865071
_cell_length_b 14.119235
_cell_length_c 8.070009
_cell_angle_alpha 90.000000
_cell_angle_beta 116.072875
_cell_angle_gamma 90.000000
_cell_volume 1214.355555
_symmetry_space_group_name_H-M "P 21/C"
_symmetry_group_IT_number 14
_symmetry_cell_setting 'monoclinic'
loop_
_space_group_symop_operation_xyz
x,y,z
-x,1/2+y,1/2-z
-x,-y,-z
x,1/2-y,1/2+z
loop_
_atom_site_type_symbol
_atom_site_label
_atom_site_fract_x
_atom_site_fract_y
_atom_site_fract_z
Si Si1 0.157009 0.944977 0.663962
Si Si2 0.619572 0.416533 0.243846
Si Si3 0.901843 0.631863 0.022142
Si Si4 0.566983 0.100097 0.068706
Si Si5 0.526283 0.872167 0.654548
Si Si6 0.133311 0.486637 0.506319
Si Si7 0.790572 0.805030 0.783670
O O1 0.294901 0.904491 0.762431
O O2 0.050254 0.863982 0.568996
O O3 0.150231 0.024412 0.516533
O O4 0.117523 0.999782 0.803145
O O5 0.576560 0.358656 0.385781
O O6 0.547196 0.515819 0.187228
O O7 0.768317 0.437951 0.350488
O O8 0.585853 0.357177 0.054652
O O9 0.820978 0.697875 0.849497
O O10 0.881140 0.666426 0.193839
O O11 0.499900 0.162327 0.170659
O O12 0.500000 0.000000 0.000000
O O13 0.642084 0.813738 0.651028
O O14 0.181497 0.378856 0.551198
O O15 0.000000 0.500000 0.500000
#
# Coordination Sequence:
#
# PCOD8123706 Si02
#       7
#     4   4   4   4   4   4   4
#     4  10  22  39  64  93 124 169 215 267 325 389
#     4   8  17  29  52  90 119 154 196 248 309 370
#     4  11  24  40  61  90 127 167 216 266 327 388
#     4   9  18  32  59  94 121 153 203 257 309 386
#     4   9  18  33  56  87 120 156 198 250 318 369
#     4  10  18  35  61  92 124 161 215 262 319 389
#     4  11  23  39  61  90 126 167 212 274 323 383
#
# _framework density 23.057497000000001
#
# number of rings (size 3 to 8) (size 9 to 14) (size 15 to 20)
#    0.000    2.286    1.429    1.714    8.000    0.000 
#    0.000    0.000    0.000    6.857    0.000    0.000 
#    0.000    0.000    0.000    0.000    0.000    0.000 
#
# Total GULP energy -346892.154633 kJ/mol
# GULP energy per Si atom -12389.005523 kJ/mol
# Density = 2.300502 g / cm^3
# Si number density = 23.057497 Si / 1000 Ang^3
#
#
#
# Elastic Constant Matrix: (Units=GPa)
#
#
# Indices 1 2 3 4 5 6 
#
# 1 98.2117 19.8493 31.7467 0.0000 6.8245 0.0000
# 2 19.8493 40.3773 23.3334 0.0000 -2.3866 0.0000
# 3 31.7467 23.3334 114.6002 0.0000 1.7547 0.0000
# 4 0.0000 0.0000 0.0000 28.2698 0.0000 3.8583
# 5 6.8245 -2.3866 1.7547 0.0000 45.7203 0.0000
# 6 0.0000 0.0000 0.0000 3.8583 0.0000 14.0789
#
#
#
# Elastic Compliance Matrix: (Units=1/GPa)
#
#
# Indices 1 2 3 4 5 6 
#
# 1 0.012020 -0.004666 -0.002350 0.000000 -0.001948 0.000000
# 2 -0.004666 0.030011 -0.004855 0.000000 0.002449 0.000000
# 3 -0.002350 -0.004855 0.010370 0.000000 -0.000301 0.000000
# 4 0.000000 0.000000 0.000000 0.036748 0.000000 -0.010071
# 5 -0.001948 0.002449 -0.000301 0.000000 0.022302 0.000000
# 6 0.000000 0.000000 0.000000 -0.010071 0.000000 0.073788
#
#
# Mechanical properties :
#
#
# Convention : Reuss Voigt Hill
#
# Bulk Modulus (GPa) = 34.89389 44.78311 39.83850
# Shear Modulus (GPa) = 22.87965 29.49779 26.18872
#
# Velocity S-wave (km/s) = 3.15348 3.58063 3.37382
# Velocity P-wave (km/s) = 5.33156 6.04641 5.70020
#
# Compressibility (1/GPa) = 0.02865831
#
# Stress axis : x y z
#
# Youngs Moduli (GPa) = 83.19405 33.32126 96.43056
#
# Poissons Ratio (x) = 0.15548 0.22661
# Poissons Ratio (y) = 0.38820 0.46820
# Poissons Ratio (z) = 0.19550 0.16179
#
# Static dielectric constant tensor:
#      x y z
#    x 4.535410 0.000000 -0.386050 
#    y 0.000000 3.971340 0.000000 
#    z -0.386050 0.000000 4.845280 
# 
# 
# High freq. dielectric constant tensor:
#      x y z
#    x 1.914870 0.000000 -0.002470 
#    y 0.000000 1.861970 0.000000 
#    z -0.002470 0.000000 1.928800 
# 
# From -- ./inp_files/13405.got.cif
#   From: 2010.03.12/outbox.cif.g09.slc.cpg/sg14_7_cif.got.tgz:13405.got - 2010.03.31 13:35:05.
