data_PCOD8123291
_publ_section_title
;
Structure prediction by ZEFSAII (Michael W. Deem and Ramdas Pophale) SiO2 
 PCOD8123291
Probable space group: P 21/C
;
_chemical_formula_sum "Si O2"
_cell_formula_units_Z 32
_cell_length_a 30.891176
_cell_length_b 5.108278
_cell_length_c 28.484497
_cell_angle_alpha 90.000000
_cell_angle_beta 154.592216
_cell_angle_gamma 90.000000
_cell_volume 1928.560984
_symmetry_space_group_name_H-M "P 21/C"
_symmetry_group_IT_number 14
_symmetry_cell_setting 'monoclinic'
loop_
_space_group_symop_operation_xyz
x,y,z
-x,1/2+y,1/2-z
-x,-y,-z
x,1/2-y,1/2+z
loop_
_atom_site_type_symbol
_atom_site_label
_atom_site_fract_x
_atom_site_fract_y
_atom_site_fract_z
Si Si1 0.551281 0.537112 0.780572
Si Si2 0.527917 0.511126 0.649060
Si Si3 0.303860 0.508724 0.390422
Si Si4 0.176327 0.007318 0.855743
Si Si5 0.571302 0.490818 0.138469
Si Si6 0.022968 0.088701 0.299428
Si Si7 0.773202 0.007109 0.535686
Si Si8 0.652476 0.505896 0.120211
O O1 0.492716 0.325767 0.754525
O O2 0.538239 0.460768 0.713969
O O3 0.667870 0.537317 0.907721
O O4 0.409884 0.512009 0.521367
O O5 0.586957 0.283003 0.679793
O O6 0.582498 0.778751 0.687423
O O7 0.215176 0.525507 0.341281
O O8 0.290367 0.252280 0.345675
O O9 0.290761 0.748593 0.342009
O O10 0.223865 0.790704 0.937096
O O11 0.053605 0.976190 0.732790
O O12 0.208010 0.291747 0.905638
O O13 0.654648 0.519414 0.179035
O O14 0.462009 0.505118 0.008552
O O15 0.141397 0.018263 0.421944
O O16 0.014306 0.396793 0.279361
#
# Coordination Sequence:
#
# PCOD8123291 Si02
#       8
#     4   4   4   4   4   4   4   4
#     4  12  23  33  45  65  93 124 157 185 212 247
#     4  10  19  29  42  59  83 117 148 175 206 251
#     4  10  17  26  41  63  88 109 137 173 220 266
#     4  10  18  30  47  67  90 117 146 183 228 267
#     4   9  17  30  43  57  81 111 146 177 210 255
#     4   8  16  29  46  64  83 113 149 183 222 262
#     4  10  19  32  46  62  90 123 154 184 214 253
#     4   9  17  27  42  61  82 110 137 175 220 261
#
# _framework density 16.592683000000001
#
# number of rings (size 3 to 8) (size 9 to 14) (size 15 to 20)
#    0.000    2.250    0.000    4.500    0.000    5.000 
#    0.000    0.000    0.000    0.000    0.000    0.000 
#    0.000    6.000    0.000    0.000    0.000    0.000 
#
# Total GULP energy -396686.603048 kJ/mol
# GULP energy per Si atom -12396.456345 kJ/mol
# Density = 1.655492 g / cm^3
# Si number density = 16.592683 Si / 1000 Ang^3
#
#
#
# Elastic Constant Matrix: (Units=GPa)
#
#
# Indices 1 2 3 4 5 6 
#
# 1 114.2560 28.2717 29.9323 0.0000 8.5428 0.0000
# 2 28.2717 97.9228 10.7952 0.0000 8.0054 0.0000
# 3 29.9323 10.7952 46.1880 0.0000 15.2524 0.0000
# 4 0.0000 0.0000 0.0000 -3.7056 0.0000 -30.9494
# 5 8.5428 8.0054 15.2524 0.0000 21.0327 0.0000
# 6 0.0000 0.0000 0.0000 -30.9494 0.0000 -30.3958
#
#
#
# Elastic Compliance Matrix: (Units=1/GPa)
#
#
# Indices 1 2 3 4 5 6 
#
# 1 0.011140 -0.002561 -0.007164 0.000000 0.001645 0.000000
# 2 -0.002561 0.011208 0.000138 0.000000 -0.003326 0.000000
# 3 -0.007164 0.000138 0.033289 0.000000 -0.021283 0.000000
# 4 0.000000 0.000000 0.000000 0.035962 0.000000 -0.036617
# 5 0.001645 -0.003326 -0.021283 0.000000 0.063577 0.000000
# 6 0.000000 0.000000 0.000000 -0.036617 0.000000 0.004384
#
#
# Mechanical properties :
#
#
# Convention : Reuss Voigt Hill
#
# Bulk Modulus (GPa) = 27.42412 44.04059 35.73236
# Shear Modulus (GPa) = 26.19348 10.01078 18.10213
#
# Velocity S-wave (km/s) = 3.97749 2.45893 3.30657
# Velocity P-wave (km/s) = 6.13658 5.88741 6.01329
#
# Compressibility (1/GPa) = 0.03646425
#
# Stress axis : x y z
#
# Youngs Moduli (GPa) = 89.76908 89.22066 30.03986
#
# Poissons Ratio (x) = 0.22849 0.21520
# Poissons Ratio (y) = 0.22989 -0.00416
# Poissons Ratio (z) = 0.64309 -0.01235
#
# Static dielectric constant tensor:
#      x y z
#    x 3.281360 0.000000 0.198910 
#    y 0.000000 3.401760 0.000000 
#    z 0.198910 0.000000 2.725380 
# 
# 
# High freq. dielectric constant tensor:
#      x y z
#    x 1.645420 0.000000 0.014960 
#    y 0.000000 1.666220 0.000000 
#    z 0.014960 0.000000 1.571050 
# 
# From -- ./inp_files/72750.got.cif
#   From: 2010.03.12/outbox.cif.g09.slc.cpg/sg14_37_cif.got.tgz:72750.got - 2010.03.31 13:35:05.
