data_PCOD8123103
_publ_section_title
;
Structure prediction by ZEFSAII (Michael W. Deem and Ramdas Pophale) SiO2 
 PCOD8123103
Probable space group: P 2/C
;
_chemical_formula_sum "Si O2"
_cell_formula_units_Z 28
_cell_length_a 12.075799
_cell_length_b 13.830141
_cell_length_c 9.874951
_cell_angle_alpha 90.000000
_cell_angle_beta 127.215147
_cell_angle_gamma 90.000000
_cell_volume 1313.385914
_symmetry_space_group_name_H-M "P 2/C"
_symmetry_group_IT_number 13
_symmetry_cell_setting 'monoclinic'
loop_
_space_group_symop_operation_xyz
x,y,z
-x,y,1/2-z
-x,-y,-z
x,-y,1/2+z
loop_
_atom_site_type_symbol
_atom_site_label
_atom_site_fract_x
_atom_site_fract_y
_atom_site_fract_z
Si Si1 0.162874 0.906893 0.874633
Si Si2 0.679570 0.750000 0.013328
Si Si3 0.832103 0.250000 0.341043
Si Si4 0.584623 0.958784 0.940624
Si Si5 0.162874 0.593108 0.874633
Si Si6 0.844920 0.250000 0.911648
Si Si7 0.584623 0.541216 0.940624
O O1 0.205099 0.845329 0.773234
O O2 0.000000 0.936274 0.750000
O O3 0.197466 0.845094 0.034617
O O4 0.255913 0.003305 0.945618
O O5 0.779949 0.750000 0.216095
O O6 0.756889 0.750000 0.927779
O O7 0.581945 0.843174 0.948607
O O8 0.581945 0.656826 0.948607
O O9 0.794901 0.345329 0.226766
O O10 0.992911 0.250000 0.491785
O O11 0.500000 0.996086 0.750000
O O12 0.500000 0.000000 0.000000
O O13 0.000000 0.563726 0.750000
O O14 0.197466 0.654906 0.034617
O O15 0.255913 0.496695 0.945618
O O16 0.500000 0.503913 0.750000
O O17 0.500000 0.500000 0.000000
#
# Coordination Sequence:
#
# PCOD8123103 Si02
#       7
#     4   4   4   4   4   4   4
#     4   9  20  42  67  89 120 165 207 243 295 367
#     4  12  24  39  58  90 126 159 198 256 308 355
#     4   9  19  38  65  95 124 153 200 258 302 347
#     4  12  26  43  62  90 124 163 204 251 306 362
#     4   9  20  42  67  89 120 165 207 243 295 367
#     4   9  19  37  64  95 123 158 202 248 300 360
#     4  12  26  43  62  90 124 163 204 251 306 362
#
# _framework density 21.318943999999998
#
# number of rings (size 3 to 8) (size 9 to 14) (size 15 to 20)
#    0.000    1.714    0.000    6.000    0.000    4.571 
#    0.000   12.143    0.000    0.000    0.000    0.000 
#    0.000    0.000    0.000    0.000    0.000    0.000 
#
# Total GULP energy -347231.214022 kJ/mol
# GULP energy per Si atom -12401.114786 kJ/mol
# Density = 2.127042 g / cm^3
# Si number density = 21.318944 Si / 1000 Ang^3
#
#
#
# Elastic Constant Matrix: (Units=GPa)
#
#
# Indices 1 2 3 4 5 6 
#
# 1 124.3712 78.7792 60.8099 0.0000 -18.3732 0.0000
# 2 78.7792 130.0454 40.9073 0.0000 -0.5999 0.0000
# 3 60.8099 40.9073 157.5220 0.0000 -19.7442 0.0000
# 4 0.0000 0.0000 0.0000 -456.5842 0.0000 -36.5236
# 5 -18.3732 -0.5999 -19.7442 0.0000 42.2716 0.0000
# 6 0.0000 0.0000 0.0000 -36.5236 0.0000 31.5376
#
#
#
# Elastic Compliance Matrix: (Units=1/GPa)
#
#
# Indices 1 2 3 4 5 6 
#
# 1 0.015793 -0.008529 -0.003226 0.000000 0.005237 0.000000
# 2 -0.008529 0.013015 -0.000562 0.000000 -0.003785 0.000000
# 3 -0.003226 -0.000562 0.008033 0.000000 0.002342 0.000000
# 4 0.000000 0.000000 0.000000 -0.002004 0.000000 -0.002321
# 5 0.005237 -0.003785 0.002342 0.000000 0.026973 0.000000
# 6 0.000000 0.000000 0.000000 -0.002321 0.000000 0.029020
#
#
# Mechanical properties :
#
#
# Convention : Reuss Voigt Hill
#
# Bulk Modulus (GPa) = 81.90427 85.88126 83.89277
# Shear Modulus (GPa) = 41.82970 -61.12550 -9.64790
#
# Velocity S-wave (km/s) = 4.43435 -5.36043 -2.12963
# Velocity P-wave (km/s) = 8.04487 1.43501 5.77837
#
# Compressibility (1/GPa) = 0.01220938
#
# Stress axis : x y z
#
# Youngs Moduli (GPa) = 63.31768 76.83222 124.48514
#
# Poissons Ratio (x) = 0.65526 0.40155
# Poissons Ratio (y) = 0.54001 0.06996
# Poissons Ratio (z) = 0.20424 0.04318
#
# Static dielectric constant tensor:
#      x y z
#    x 3.841940 0.000000 -0.265260 
#    y 0.000000 4.091170 0.000000 
#    z -0.265260 0.000000 4.249300 
# 
# 
# High freq. dielectric constant tensor:
#      x y z
#    x 1.839630 0.000000 -0.007190 
#    y 0.000000 1.833200 0.000000 
#    z -0.007190 0.000000 1.853530 
# 
# From -- ./inp_files/16872.got.cif
#   From: 2010.06.25/outbox.cif.g09.slc.cpg/sg13_9_cif.got.tgz:16872.got - 2010.06.28 04:50:58.
