data_PCOD8123462
_publ_section_title
;
Structure prediction by ZEFSAII (Michael W. Deem and Ramdas Pophale) SiO2 
 PCOD8123462
Probable space group: P 21/C
;
_chemical_formula_sum "Si O2"
_cell_formula_units_Z 24
_cell_length_a 25.468569
_cell_length_b 7.964731
_cell_length_c 19.121519
_cell_angle_alpha 90.000000
_cell_angle_beta 19.179718
_cell_angle_gamma 90.000000
_cell_volume 1274.313130
_symmetry_space_group_name_H-M "P 21/C"
_symmetry_group_IT_number 14
_symmetry_cell_setting 'monoclinic'
loop_
_space_group_symop_operation_xyz
x,y,z
-x,1/2+y,1/2-z
-x,-y,-z
x,1/2-y,1/2+z
loop_
_atom_site_type_symbol
_atom_site_label
_atom_site_fract_x
_atom_site_fract_y
_atom_site_fract_z
Si Si1 0.891045 0.945136 0.030572
Si Si2 0.765643 0.445084 0.155997
Si Si3 0.871421 0.638621 0.145973
Si Si4 0.715083 0.753823 0.128913
Si Si5 0.406191 0.638598 0.076377
Si Si6 0.903221 0.746133 0.252761
O O1 0.951633 0.796275 0.004465
O O2 0.812668 0.875167 0.058151
O O3 0.760790 0.056098 0.238865
O O4 0.040258 0.060592 0.822150
O O5 0.739920 0.556308 0.259699
O O6 0.734746 0.560554 0.127702
O O7 0.636105 0.296262 0.320041
O O8 0.945688 0.375367 0.925133
O O9 0.806960 0.700235 0.302416
O O10 0.000000 0.500000 0.000000
O O11 0.525713 0.799901 0.364857
O O12 0.778668 0.778529 0.971315
O O13 0.500000 0.500000 0.000000
#
# Coordination Sequence:
#
# PCOD8123462 Si02
#       6
#     4   4   4   4   4   4
#     4   9  18  32  50  70  98 130 160 194 241 292
#     4   9  18  32  50  70  98 130 160 194 241 292
#     4   9  18  32  51  71  95 130 164 194 237 295
#     4  10  18  30  49  75  98 122 159 204 240 277
#     4   9  18  32  51  71  95 130 164 194 237 295
#     4  10  18  30  49  75  98 122 159 204 240 277
#
# _framework density 18.833674999999999
#
# number of rings (size 3 to 8) (size 9 to 14) (size 15 to 20)
#    0.000    2.667    0.000    2.000    0.000    0.000 
#    0.000    3.333    0.000    0.000    0.000    0.000 
#    0.000    0.000    0.000    0.000    0.000    0.000 
#
# Total GULP energy -297377.981711 kJ/mol
# GULP energy per Si atom -12390.749238 kJ/mol
# Density = 1.879081 g / cm^3
# Si number density = 18.833675 Si / 1000 Ang^3
#
#
#
# Elastic Constant Matrix: (Units=GPa)
#
#
# Indices 1 2 3 4 5 6 
#
# 1 55.5873 23.5235 27.7054 0.0000 28.1331 0.0000
# 2 23.5235 112.5819 36.5636 0.0000 11.6602 0.0000
# 3 27.7054 36.5636 115.4586 0.0000 25.4465 0.0000
# 4 0.0000 0.0000 0.0000 24.9740 0.0000 -3.0965
# 5 28.1331 11.6602 25.4465 0.0000 27.2306 0.0000
# 6 0.0000 0.0000 0.0000 -3.0965 0.0000 28.4173
#
#
#
# Elastic Compliance Matrix: (Units=1/GPa)
#
#
# Indices 1 2 3 4 5 6 
#
# 1 0.039561 -0.004366 0.000612 0.000000 -0.039575 0.000000
# 2 -0.004366 0.010442 -0.002856 0.000000 0.002708 0.000000
# 3 0.000612 -0.002856 0.011698 0.000000 -0.010340 0.000000
# 4 0.000000 0.000000 0.000000 0.040590 0.000000 0.004423
# 5 -0.039575 0.002708 -0.010340 0.000000 0.086113 0.000000
# 6 0.000000 0.000000 0.000000 0.004423 0.000000 0.035672
#
#
# Mechanical properties :
#
#
# Convention : Reuss Voigt Hill
#
# Bulk Modulus (GPa) = 20.62703 51.02364 35.82533
# Shear Modulus (GPa) = 19.72725 29.18005 24.45365
#
# Velocity S-wave (km/s) = 3.23994 3.94046 3.60724
# Velocity P-wave (km/s) = 4.99722 6.91762 6.03431
#
# Compressibility (1/GPa) = 0.04848008
#
# Stress axis : x y z
#
# Youngs Moduli (GPa) = 25.27712 95.76982 85.48659
#
# Poissons Ratio (x) = 0.41813 -0.05228
# Poissons Ratio (y) = 0.11036 0.24415
# Poissons Ratio (z) = -0.01546 0.27351
#
# Static dielectric constant tensor:
#      x y z
#    x 3.516440 0.000000 -0.034590 
#    y 0.000000 3.868040 0.000000 
#    z -0.034590 0.000000 3.473970 
# 
# 
# High freq. dielectric constant tensor:
#      x y z
#    x 1.702140 0.000000 0.002850 
#    y 0.000000 1.759470 0.000000 
#    z 0.002850 0.000000 1.705170 
# 
# From -- ./inp_files/12417.got.cif
#   From: 2010.03.12/outbox.cif.g09.slc.cpg/sg14_7_cif.got.tgz:12417.got - 2010.03.31 13:35:05.
