data_PCOD8123603
_publ_section_title
;
Structure prediction by ZEFSAII (Michael W. Deem and Ramdas Pophale) SiO2 
 PCOD8123603
Probable space group: P 21/C
;
_chemical_formula_sum "Si O2"
_cell_formula_units_Z 28
_cell_length_a 11.535863
_cell_length_b 11.814324
_cell_length_c 15.013162
_cell_angle_alpha 90.000000
_cell_angle_beta 38.275157
_cell_angle_gamma 90.000000
_cell_volume 1267.446022
_symmetry_space_group_name_H-M "P 21/C"
_symmetry_group_IT_number 14
_symmetry_cell_setting 'monoclinic'
loop_
_space_group_symop_operation_xyz
x,y,z
-x,1/2+y,1/2-z
-x,-y,-z
x,1/2-y,1/2+z
loop_
_atom_site_type_symbol
_atom_site_label
_atom_site_fract_x
_atom_site_fract_y
_atom_site_fract_z
Si Si1 0.370316 0.001260 0.209875
Si Si2 0.731974 0.936615 0.177719
Si Si3 0.785625 0.223521 0.637176
Si Si4 0.237519 0.452715 0.605713
Si Si5 0.546173 0.611608 0.167104
Si Si6 0.857373 0.766365 0.963245
Si Si7 0.071659 0.610479 0.573307
O O1 0.258067 0.909525 0.336676
O O2 0.233131 0.048903 0.215384
O O3 0.432933 0.102094 0.237518
O O4 0.549505 0.943895 0.056196
O O5 0.724365 0.828200 0.117476
O O6 0.847450 0.907289 0.197899
O O7 0.525996 0.987866 0.325880
O O8 0.830399 0.037069 0.063139
O O9 0.598270 0.291331 0.774343
O O10 0.868367 0.261115 0.489872
O O11 0.936210 0.247605 0.624260
O O12 0.125400 0.343974 0.635649
O O13 0.140365 0.569848 0.628914
O O14 0.749563 0.648474 0.005447
#
# Coordination Sequence:
#
# PCOD8123603 Si02
#       7
#     4   4   4   4   4   4   4
#     4  11  21  31  54  82 112 136 176 231 276 313
#     4   8  14  27  48  76  95 130 181 218 256 304
#     4  10  19  34  53  83 105 143 186 225 263 319
#     4  10  18  34  52  82 104 142 178 219 274 326
#     4  11  17  32  53  79 107 141 181 228 265 319
#     4  10  19  33  56  78 108 142 187 221 266 324
#     4   8  14  29  54  73 100 133 183 221 254 320
#
# _framework density 22.091670000000001
#
# number of rings (size 3 to 8) (size 9 to 14) (size 15 to 20)
#    0.000    2.286    5.714    2.571    0.000    0.571 
#    0.000    2.857    0.000    0.000    0.000    7.000 
#    0.000    0.000    0.000    0.000    0.000    0.000 
#
# Total GULP energy -346896.244809 kJ/mol
# GULP energy per Si atom -12389.151600 kJ/mol
# Density = 2.204139 g / cm^3
# Si number density = 22.091670 Si / 1000 Ang^3
#
#
#
# Elastic Constant Matrix: (Units=GPa)
#
#
# Indices 1 2 3 4 5 6 
#
# 1 141.8368 35.7172 38.5208 0.0000 -26.8732 0.0000
# 2 35.7172 69.3903 27.3854 0.0000 -7.5234 0.0000
# 3 38.5208 27.3854 26.7134 0.0000 -8.8978 0.0000
# 4 0.0000 0.0000 0.0000 18.6545 0.0000 -5.3443
# 5 -26.8732 -7.5234 -8.8978 0.0000 20.6345 0.0000
# 6 0.0000 0.0000 0.0000 -5.3443 0.0000 25.1085
#
#
#
# Elastic Compliance Matrix: (Units=1/GPa)
#
#
# Indices 1 2 3 4 5 6 
#
# 1 0.013337 0.000811 -0.016557 0.000000 0.010525 0.000000
# 2 0.000811 0.024338 -0.026638 0.000000 -0.001557 0.000000
# 3 -0.016557 -0.026638 0.091316 0.000000 0.008101 0.000000
# 4 0.000000 0.000000 0.000000 0.057088 0.000000 0.012151
# 5 0.010525 -0.001557 0.008101 0.000000 0.065096 0.000000
# 6 0.000000 0.000000 0.000000 0.012151 0.000000 0.042413
#
#
# Mechanical properties :
#
#
# Convention : Reuss Voigt Hill
#
# Bulk Modulus (GPa) = 22.61302 49.02081 35.81691
# Shear Modulus (GPa) = 12.71950 21.96730 17.34340
#
# Velocity S-wave (km/s) = 2.40210 3.15678 2.80494
# Velocity P-wave (km/s) = 4.23694 5.96028 5.17091
#
# Compressibility (1/GPa) = 0.04422231
#
# Stress axis : x y z
#
# Youngs Moduli (GPa) = 74.97831 41.08829 10.95098
#
# Poissons Ratio (x) = -0.03331 0.18132
# Poissons Ratio (y) = -0.06078 0.29171
# Poissons Ratio (z) = 1.24145 1.09449
#
# Static dielectric constant tensor:
#      x y z
#    x 4.335240 0.000000 -0.455320 
#    y 0.000000 4.114160 0.000000 
#    z -0.455320 0.000000 3.393630 
# 
# 
# High freq. dielectric constant tensor:
#      x y z
#    x 1.882100 0.000000 -0.042990 
#    y 0.000000 1.855440 0.000000 
#    z -0.042990 0.000000 1.800200 
# 
# From -- ./inp_files/57529.got.cif
#   From: 2010.03.12/outbox.cif.g09.slc.cpg/sg14_29_cif.got.tgz:57529.got - 2010.03.31 13:35:05.
