data_PCOD8123808
_publ_section_title
;
Structure prediction by ZEFSAII (Michael W. Deem and Ramdas Pophale) SiO2 
 PCOD8123808
Probable space group: P 21/C
;
_chemical_formula_sum "Si O2"
_cell_formula_units_Z 28
_cell_length_a 17.211471
_cell_length_b 9.037392
_cell_length_c 18.312851
_cell_angle_alpha 90.000000
_cell_angle_beta 155.480040
_cell_angle_gamma 90.000000
_cell_volume 1182.158916
_symmetry_space_group_name_H-M "P 21/C"
_symmetry_group_IT_number 14
_symmetry_cell_setting 'monoclinic'
loop_
_space_group_symop_operation_xyz
x,y,z
-x,1/2+y,1/2-z
-x,-y,-z
x,1/2-y,1/2+z
loop_
_atom_site_type_symbol
_atom_site_label
_atom_site_fract_x
_atom_site_fract_y
_atom_site_fract_z
Si Si1 0.765737 0.375731 0.245155
Si Si2 0.609145 0.642036 0.779010
Si Si3 0.370642 0.314747 0.849410
Si Si4 0.214322 0.876551 0.636440
Si Si5 0.938598 0.686828 0.622372
Si Si6 0.195856 0.899392 0.917664
Si Si7 0.177517 0.061348 0.751036
O O1 0.776321 0.549532 0.272744
O O2 0.735901 0.291546 0.297614
O O3 0.947742 0.317517 0.356937
O O4 0.585957 0.360389 0.039009
O O5 0.664271 0.740006 0.757321
O O6 0.634661 0.466865 0.782562
O O7 0.393675 0.659729 0.619459
O O8 0.755888 0.705689 0.963637
O O9 0.324119 0.196317 0.872982
O O10 0.031106 0.873123 0.428841
O O11 0.191956 0.951979 0.695741
O O12 0.889185 0.518912 0.599945
O O13 0.061197 0.757801 0.792904
O O14 0.228951 0.970865 0.866742
#
# Coordination Sequence:
#
# PCOD8123808 Si02
#       7
#     4   4   4   4   4   4   4
#     4  11  21  41  63 106 135 175 215 283 341 398
#     4  11  23  47  69 101 127 179 227 279 334 404
#     4  10  22  37  69 100 141 165 216 283 347 390
#     4  10  18  37  72  96 130 163 225 277 338 394
#     4  12  27  46  69  95 138 184 228 275 332 407
#     4  12  26  47  68  95 139 183 230 277 329 411
#     4  10  19  38  66  98 127 174 213 276 333 396
#
# _framework density 23.685476999999999
#
# number of rings (size 3 to 8) (size 9 to 14) (size 15 to 20)
#    0.000    1.143    4.286    2.571    2.000    5.714 
#    0.000    0.000    0.000    0.000    0.000    0.000 
#    0.000    0.000    0.000    0.000    0.000    0.000 
#
# Total GULP energy -347148.932419 kJ/mol
# GULP energy per Si atom -12398.176158 kJ/mol
# Density = 2.363157 g / cm^3
# Si number density = 23.685477 Si / 1000 Ang^3
#
#
#
# Elastic Constant Matrix: (Units=GPa)
#
#
# Indices 1 2 3 4 5 6 
#
# 1 19.5153 16.1750 18.9702 0.0000 0.6891 0.0000
# 2 16.1750 107.3886 28.2909 0.0000 11.2952 0.0000
# 3 18.9702 28.2909 128.7181 0.0000 19.2930 0.0000
# 4 0.0000 0.0000 0.0000 40.3324 0.0000 -0.1042
# 5 0.6891 11.2952 19.2930 0.0000 15.4481 0.0000
# 6 0.0000 0.0000 0.0000 -0.1042 0.0000 31.9367
#
#
#
# Elastic Compliance Matrix: (Units=1/GPa)
#
#
# Indices 1 2 3 4 5 6 
#
# 1 0.068714 -0.009342 -0.010627 0.000000 0.017038 0.000000
# 2 -0.009342 0.011557 0.000050 0.000000 -0.008096 0.000000
# 3 -0.010627 0.000050 0.011391 0.000000 -0.013789 0.000000
# 4 0.000000 0.000000 0.000000 0.024794 0.000000 0.000081
# 5 0.017038 -0.008096 -0.013789 0.000000 0.087113 0.000000
# 6 0.000000 0.000000 0.000000 0.000081 0.000000 0.031312
#
#
# Mechanical properties :
#
#
# Convention : Reuss Voigt Hill
#
# Bulk Modulus (GPa) = 19.29627 42.49936 30.89781
# Shear Modulus (GPa) = 17.12356 30.35583 23.73970
#
# Velocity S-wave (km/s) = 2.69170 3.58386 3.16933
# Velocity P-wave (km/s) = 4.22196 5.92516 5.14453
#
# Compressibility (1/GPa) = 0.05182348
#
# Stress axis : x y z
#
# Youngs Moduli (GPa) = 14.55309 86.52408 87.78976
#
# Poissons Ratio (x) = 0.80832 0.93298
# Poissons Ratio (y) = 0.13596 -0.00440
# Poissons Ratio (z) = 0.15466 -0.00434
#
# Static dielectric constant tensor:
#      x y z
#    x 3.782070 0.000000 -0.020780 
#    y 0.000000 4.560060 0.000000 
#    z -0.020780 0.000000 4.386380 
# 
# 
# High freq. dielectric constant tensor:
#      x y z
#    x 1.896870 0.000000 -0.002910 
#    y 0.000000 1.948440 0.000000 
#    z -0.002910 0.000000 1.949360 
# 
# From -- ./inp_files/74656.got.cif
#   From: 2010.03.12/outbox.cif.g09.slc.cpg/sg14_38_cif.got.tgz:74656.got - 2010.03.31 13:35:05.
