data_PCOD8123048
_publ_section_title
;
Structure prediction by ZEFSAII (Michael W. Deem and Ramdas Pophale) SiO2 
 PCOD8123048
Probable space group: P 2/C
;
_chemical_formula_sum "Si O2"
_cell_formula_units_Z 24
_cell_length_a 16.981387
_cell_length_b 7.696583
_cell_length_c 17.068075
_cell_angle_alpha 90.000000
_cell_angle_beta 30.810151
_cell_angle_gamma 90.000000
_cell_volume 1142.591596
_symmetry_space_group_name_H-M "P 2/C"
_symmetry_group_IT_number 13
_symmetry_cell_setting 'monoclinic'
loop_
_space_group_symop_operation_xyz
x,y,z
-x,y,1/2-z
-x,-y,-z
x,-y,1/2+z
loop_
_atom_site_type_symbol
_atom_site_label
_atom_site_fract_x
_atom_site_fract_y
_atom_site_fract_z
Si Si1 0.311536 0.778605 0.782415
Si Si2 0.669264 0.475726 0.622090
Si Si3 0.406965 0.330511 0.549979
Si Si4 0.866884 0.479154 0.810870
Si Si5 0.960601 0.331959 0.083916
Si Si6 0.724351 0.167476 0.687854
O O1 0.255458 0.637901 0.894903
O O2 0.487919 0.757098 0.605576
O O3 0.201440 0.752319 0.801450
O O4 0.298295 0.973780 0.825856
O O5 0.500000 0.542779 0.750000
O O6 0.754314 0.429375 0.469006
O O7 0.660841 0.301844 0.679184
O O8 0.500000 0.500000 0.500000
O O9 0.238447 0.362599 0.656057
O O10 0.373650 0.198770 0.649374
O O11 0.953065 0.620783 0.682773
O O12 0.000000 0.382495 0.750000
O O13 0.000000 0.500000 0.000000
O O14 0.093996 0.192983 0.954880
#
# Coordination Sequence:
#
# PCOD8123048 Si02
#       6
#     4   4   4   4   4   4
#     4  12  25  43  70 100 133 178 234 281 338 407
#     4  12  24  43  68  94 138 179 219 280 352 413
#     4  12  21  44  71  99 131 181 234 283 335 407
#     4  12  22  39  73  97 133 184 227 278 355 411
#     4  12  21  44  72  94 130 180 228 278 340 405
#     4  12  25  43  70  99 133 178 231 287 334 406
#
# _framework density 21.004881999999998
#
# number of rings (size 3 to 8) (size 9 to 14) (size 15 to 20)
#    0.000    0.000   10.000    1.000    0.000    0.667 
#    0.000    0.000    3.667    0.000    0.000    0.000 
#    0.000    0.000    0.000    0.000    0.000    0.000 
#
# Total GULP energy -297532.329773 kJ/mol
# GULP energy per Si atom -12397.180407 kJ/mol
# Density = 2.095707 g / cm^3
# Si number density = 21.004882 Si / 1000 Ang^3
#
#
#
# Elastic Constant Matrix: (Units=GPa)
#
#
# Indices 1 2 3 4 5 6 
#
# 1 94.1565 31.2795 19.9219 0.0000 -1.1413 0.0000
# 2 31.2795 139.8607 26.6189 0.0000 12.1606 0.0000
# 3 19.9219 26.6189 113.4511 0.0000 16.8738 0.0000
# 4 0.0000 0.0000 0.0000 25.1429 0.0000 -8.6311
# 5 -1.1413 12.1606 16.8738 0.0000 53.4771 0.0000
# 6 0.0000 0.0000 0.0000 -8.6311 0.0000 7.9180
#
#
#
# Elastic Compliance Matrix: (Units=1/GPa)
#
#
# Indices 1 2 3 4 5 6 
#
# 1 0.011805 -0.002433 -0.001702 0.000000 0.001342 0.000000
# 2 -0.002433 0.008060 -0.001242 0.000000 -0.001493 0.000000
# 3 -0.001702 -0.001242 0.009829 0.000000 -0.002855 0.000000
# 4 0.000000 0.000000 0.000000 0.063555 0.000000 0.069279
# 5 0.001342 -0.001493 -0.002855 0.000000 0.019969 0.000000
# 6 0.000000 0.000000 0.000000 0.069279 0.000000 0.201812
#
#
# Mechanical properties :
#
#
# Convention : Reuss Voigt Hill
#
# Bulk Modulus (GPa) = 52.79429 55.90099 54.34764
# Shear Modulus (GPa) = 15.05583 35.28413 25.16998
#
# Velocity S-wave (km/s) = 2.68017 4.10299 3.46539
# Velocity P-wave (km/s) = 5.89632 7.00836 6.47626
#
# Compressibility (1/GPa) = 0.01894144
#
# Stress axis : x y z
#
# Youngs Moduli (GPa) = 84.70831 124.06512 101.73698
#
# Poissons Ratio (x) = 0.30185 0.17313
# Poissons Ratio (y) = 0.20610 0.12635
# Poissons Ratio (z) = 0.14415 0.15407
#
# Static dielectric constant tensor:
#      x y z
#    x 4.134820 0.000000 -0.211760 
#    y 0.000000 3.491440 0.000000 
#    z -0.211760 0.000000 4.279350 
# 
# 
# High freq. dielectric constant tensor:
#      x y z
#    x 1.833080 0.000000 -0.006880 
#    y 0.000000 1.782730 0.000000 
#    z -0.006880 0.000000 1.848000 
# 
# From -- ./inp_files/69426.got.cif
#   From: 2010.06.25/outbox.cif.g09.slc.cpg/sg13_35_cif.got.tgz:69426.got - 2010.06.28 04:50:58.
