data_PCOD8123189
_publ_section_title
;
Structure prediction by ZEFSAII (Michael W. Deem and Ramdas Pophale) SiO2 
 PCOD8123189
Probable space group: P 2/C
;
_chemical_formula_sum "Si O2"
_cell_formula_units_Z 12
_cell_length_a 20.086768
_cell_length_b 6.422663
_cell_length_c 11.698594
_cell_angle_alpha 90.000000
_cell_angle_beta 19.860737
_cell_angle_gamma 90.000000
_cell_volume 512.742495
_symmetry_space_group_name_H-M "P 2/C"
_symmetry_group_IT_number 13
_symmetry_cell_setting 'monoclinic'
loop_
_space_group_symop_operation_xyz
x,y,z
-x,y,1/2-z
-x,-y,-z
x,-y,1/2+z
loop_
_atom_site_type_symbol
_atom_site_label
_atom_site_fract_x
_atom_site_fract_y
_atom_site_fract_z
Si Si1 0.500000 0.376522 0.750000
Si Si2 0.688916 0.105479 0.253686
Si Si3 0.000000 0.210354 0.250000
Si Si4 0.828970 0.459647 0.865087
O O1 0.635578 0.239510 0.449733
O O2 0.624476 0.525541 0.629996
O O3 0.500000 0.000000 0.500000
O O4 0.814735 0.242990 0.958169
O O5 0.835369 0.936235 0.073420
O O6 0.859204 0.347970 0.399856
O O7 0.000000 0.500000 0.500000
#
# Coordination Sequence:
#
# PCOD8123189 Si02
#       4
#     2   4   2   4
#     4  12  26  48  78 110 154 194 254 326 376 450
#     4  12  28  48  76 116 150 199 259 310 382 455
#     4  12  26  50  74 106 158 194 256 314 380 460
#     4  12  28  48  76 110 153 202 253 318 383 448
#
# _framework density 23.403561
#
# number of rings (size 3 to 8) (size 9 to 14) (size 15 to 20)
#    0.000    0.000    3.333    6.000    9.333    2.667 
#    0.000    0.000    0.000    0.000    0.000    0.000 
#    0.000    0.000    0.000    0.000    0.000    0.000 
#
# Total GULP energy -148680.963834 kJ/mol
# GULP energy per Si atom -12390.080320 kJ/mol
# Density = 2.335029 g / cm^3
# Si number density = 23.403561 Si / 1000 Ang^3
#
#
#
# Elastic Constant Matrix: (Units=GPa)
#
#
# Indices 1 2 3 4 5 6 
#
# 1 110.7921 37.8882 21.2986 0.0000 -16.2599 0.0000
# 2 37.8882 109.6927 42.7451 0.0000 -4.6886 0.0000
# 3 21.2986 42.7451 104.8079 0.0000 5.9325 0.0000
# 4 0.0000 0.0000 0.0000 54.1098 0.0000 -6.7487
# 5 -16.2599 -4.6886 5.9325 0.0000 61.2807 0.0000
# 6 0.0000 0.0000 0.0000 -6.7487 0.0000 10.9208
#
#
#
# Elastic Compliance Matrix: (Units=1/GPa)
#
#
# Indices 1 2 3 4 5 6 
#
# 1 0.010708 -0.003181 -0.001031 0.000000 0.002698 0.000000
# 2 -0.003181 0.011883 -0.004227 0.000000 0.000474 0.000000
# 3 -0.001031 -0.004227 0.011572 0.000000 -0.001717 0.000000
# 4 0.000000 0.000000 0.000000 0.020024 0.000000 0.012374
# 5 0.002698 0.000474 -0.001717 0.000000 0.017237 0.000000
# 6 0.000000 0.000000 0.000000 0.012374 0.000000 0.099216
#
#
# Mechanical properties :
#
#
# Convention : Reuss Voigt Hill
#
# Bulk Modulus (GPa) = 57.85697 58.79516 58.32607
# Shear Modulus (GPa) = 25.86938 40.15297 33.01118
#
# Velocity S-wave (km/s) = 3.32830 4.14657 3.75976
# Velocity P-wave (km/s) = 6.28850 6.93558 6.61995
#
# Compressibility (1/GPa) = 0.01728400
#
# Stress axis : x y z
#
# Youngs Moduli (GPa) = 93.38782 84.15729 86.41715
#
# Poissons Ratio (x) = 0.26774 0.08911
# Poissons Ratio (y) = 0.29711 0.36524
# Poissons Ratio (z) = 0.09630 0.35569
#
# Static dielectric constant tensor:
#      x y z
#    x 5.743790 0.000000 -0.403140 
#    y 0.000000 4.432780 0.000000 
#    z -0.403140 0.000000 4.188940 
# 
# 
# High freq. dielectric constant tensor:
#      x y z
#    x 1.932410 0.000000 -0.016330 
#    y 0.000000 1.938250 0.000000 
#    z -0.016330 0.000000 1.945420 
# 
# From -- ./inp_files/10459.got.cif
#   From: 2010.06.25/outbox.cif.g09.slc.cpg/sg13_6_cif.got.tgz:10459.got - 2010.06.28 04:50:58.
