data_PCOD8123853
_publ_section_title
;
Structure prediction by ZEFSAII (Michael W. Deem and Ramdas Pophale) SiO2 
 PCOD8123853
Probable space group: P 21/C
;
_chemical_formula_sum "Si O2"
_cell_formula_units_Z 20
_cell_length_a 9.993248
_cell_length_b 17.280219
_cell_length_c 8.973476
_cell_angle_alpha 90.000000
_cell_angle_beta 138.260074
_cell_angle_gamma 90.000000
_cell_volume 1031.639831
_symmetry_space_group_name_H-M "P 21/C"
_symmetry_group_IT_number 14
_symmetry_cell_setting 'monoclinic'
loop_
_space_group_symop_operation_xyz
x,y,z
-x,1/2+y,1/2-z
-x,-y,-z
x,1/2-y,1/2+z
loop_
_atom_site_type_symbol
_atom_site_label
_atom_site_fract_x
_atom_site_fract_y
_atom_site_fract_z
Si Si1 0.165898 0.403196 0.542120
Si Si2 0.553860 0.332022 0.975183
Si Si3 0.764587 0.078733 0.892301
Si Si4 0.076556 0.830088 0.399025
Si Si5 0.190561 0.809076 0.818535
O O1 0.325840 0.339866 0.731607
O O2 0.268103 0.487152 0.627451
O O3 0.976355 0.398643 0.494086
O O4 0.098310 0.383230 0.317149
O O5 0.416055 0.616506 0.851660
O O6 0.704871 0.362886 0.971138
O O7 0.610070 0.241859 0.059180
O O8 0.752341 0.112186 0.049468
O O9 0.063201 0.830768 0.566033
O O10 0.050916 0.742955 0.311830
#
# Coordination Sequence:
#
# PCOD8123853 Si02
#       5
#     4   4   4   4   4
#     4  10  20  36  61  83 111 148 192 221 283 335
#     4   9  18  37  55  79 112 145 183 228 271 339
#     4  10  20  37  59  85 112 149 182 236 275 327
#     4   9  19  36  55  77 114 143 182 239 269 327
#     4  10  18  40  54  76 119 144 178 237 283 314
#
# _framework density 19.386610999999998
#
# number of rings (size 3 to 8) (size 9 to 14) (size 15 to 20)
#    1.200    1.200    2.000    0.600    0.000    0.800 
#   14.400    1.000    0.000    0.000    0.000    0.000 
#    0.000    0.000    0.000    0.000    0.000    0.000 
#
# Total GULP energy -247879.886484 kJ/mol
# GULP energy per Si atom -12393.994324 kJ/mol
# Density = 1.934249 g / cm^3
# Si number density = 19.386611 Si / 1000 Ang^3
#
#
#
# Elastic Constant Matrix: (Units=GPa)
#
#
# Indices 1 2 3 4 5 6 
#
# 1 29.3037 14.0547 43.5593 0.0000 -18.1602 0.0000
# 2 14.0547 68.1125 37.0139 0.0000 -6.9179 0.0000
# 3 43.5593 37.0139 138.9415 0.0000 -18.6375 0.0000
# 4 0.0000 0.0000 0.0000 33.5985 0.0000 -7.5442
# 5 -18.1602 -6.9179 -18.6375 0.0000 40.8492 0.0000
# 6 0.0000 0.0000 0.0000 -7.5442 0.0000 17.2705
#
#
#
# Elastic Compliance Matrix: (Units=1/GPa)
#
#
# Indices 1 2 3 4 5 6 
#
# 1 0.085953 -0.002695 -0.022544 0.000000 0.027470 0.000000
# 2 -0.002695 0.017281 -0.003757 0.000000 0.000014 0.000000
# 3 -0.022544 -0.003757 0.014738 0.000000 -0.003934 0.000000
# 4 0.000000 0.000000 0.000000 0.033000 0.000000 0.014415
# 5 0.027470 0.000014 -0.003934 0.000000 0.034900 0.000000
# 6 0.000000 0.000000 0.000000 0.014415 0.000000 0.064199
#
#
# Mechanical properties :
#
#
# Convention : Reuss Voigt Hill
#
# Bulk Modulus (GPa) = 16.67227 47.29039 31.98133
# Shear Modulus (GPa) = 15.24130 27.79230 21.51680
#
# Velocity S-wave (km/s) = 2.80693 3.79037 3.33510
# Velocity P-wave (km/s) = 4.37306 6.60320 5.60026
#
# Compressibility (1/GPa) = 0.05997982
#
# Stress axis : x y z
#
# Youngs Moduli (GPa) = 11.63426 57.86826 67.85132
#
# Poissons Ratio (x) = 0.15596 1.52966
# Poissons Ratio (y) = 0.03135 0.25490
# Poissons Ratio (z) = 0.26229 0.21739
#
# Static dielectric constant tensor:
#      x y z
#    x 3.086850 0.000000 -0.129320 
#    y 0.000000 3.428770 0.000000 
#    z -0.129320 0.000000 3.377190 
# 
# 
# High freq. dielectric constant tensor:
#      x y z
#    x 1.713000 0.000000 -0.015270 
#    y 0.000000 1.742300 0.000000 
#    z -0.015270 0.000000 1.757050 
# 
# From -- ./inp_files/9267.got.cif
#   From: 2010.03.12/outbox.cif.g09.slc.cpg/sg14_5_cif.got.tgz:9267.got - 2010.03.31 13:35:05.
