data_PCOD8123764
_publ_section_title
;
Structure prediction by ZEFSAII (Michael W. Deem and Ramdas Pophale) SiO2 
 PCOD8123764
Probable space group: P 21/C
;
_chemical_formula_sum "Si O2"
_cell_formula_units_Z 28
_cell_length_a 15.518371
_cell_length_b 15.910137
_cell_length_c 11.780740
_cell_angle_alpha 90.000000
_cell_angle_beta 27.585334
_cell_angle_gamma 90.000000
_cell_volume 1346.909750
_symmetry_space_group_name_H-M "P 21/C"
_symmetry_group_IT_number 14
_symmetry_cell_setting 'monoclinic'
loop_
_space_group_symop_operation_xyz
x,y,z
-x,1/2+y,1/2-z
-x,-y,-z
x,1/2-y,1/2+z
loop_
_atom_site_type_symbol
_atom_site_label
_atom_site_fract_x
_atom_site_fract_y
_atom_site_fract_z
Si Si1 0.396137 0.808245 0.597247
Si Si2 0.403773 0.976860 0.961997
Si Si3 0.763549 0.602986 0.682604
Si Si4 0.163577 0.864357 0.666707
Si Si5 0.813187 0.432255 0.505203
Si Si6 0.403428 0.628657 0.674982
Si Si7 0.780743 0.944464 0.408845
O O1 0.577814 0.858980 0.345570
O O2 0.261171 0.804089 0.645460
O O3 0.292865 0.849695 0.826225
O O4 0.470529 0.716009 0.543435
O O5 0.253868 0.961547 0.039755
O O6 0.603165 0.935129 0.697836
O O7 0.432816 0.077411 0.949839
O O8 0.327325 0.932688 0.164835
O O9 0.770111 0.505011 0.645115
O O10 0.754791 0.613729 0.828965
O O11 0.942486 0.652905 0.425830
O O12 0.235329 0.848391 0.455987
O O13 0.200893 0.960468 0.658414
O O14 0.034529 0.415642 0.239066
#
# Coordination Sequence:
#
# PCOD8123764 Si02
#       7
#     4   4   4   4   4   4   4
#     4  12  22  36  62  95 119 156 204 256 306 352
#     4  10  22  45  62  81 127 173 200 244 300 379
#     4  11  19  36  62  98 121 153 199 257 305 355
#     4  10  21  40  59  88 127 152 200 256 299 356
#     4  11  20  36  66  95 119 158 204 247 314 353
#     4  10  25  43  60  86 127 167 203 246 307 366
#     4  10  18  36  65  95 118 154 207 246 296 368
#
# _framework density 20.788328
#
# number of rings (size 3 to 8) (size 9 to 14) (size 15 to 20)
#    0.000    1.429    4.286    3.000    2.000    0.000 
#    2.571   18.571    0.000    0.000    0.000    0.000 
#    0.000    0.000    0.000    0.000    0.000    0.000 
#
# Total GULP energy -347209.344207 kJ/mol
# GULP energy per Si atom -12400.333722 kJ/mol
# Density = 2.074101 g / cm^3
# Si number density = 20.788328 Si / 1000 Ang^3
#
#
#
# Elastic Constant Matrix: (Units=GPa)
#
#
# Indices 1 2 3 4 5 6 
#
# 1 119.0910 17.6497 33.4461 0.0000 0.3718 0.0000
# 2 17.6497 68.5607 16.7250 0.0000 0.0917 0.0000
# 3 33.4461 16.7250 75.3077 0.0000 -4.4727 0.0000
# 4 0.0000 0.0000 0.0000 10.0034 0.0000 0.9110
# 5 0.3718 0.0917 -4.4727 0.0000 37.8518 0.0000
# 6 0.0000 0.0000 0.0000 0.9110 0.0000 14.0598
#
#
#
# Elastic Compliance Matrix: (Units=1/GPa)
#
#
# Indices 1 2 3 4 5 6 
#
# 1 0.009756 -0.001528 -0.004027 0.000000 -0.000568 0.000000
# 2 -0.001528 0.015668 -0.002822 0.000000 -0.000356 0.000000
# 3 -0.004027 -0.002822 0.015808 0.000000 0.001914 0.000000
# 4 0.000000 0.000000 0.000000 0.100560 0.000000 -0.006516
# 5 -0.000568 -0.000356 0.001914 0.000000 0.026651 0.000000
# 6 0.000000 0.000000 0.000000 -0.006516 0.000000 0.071547
#
#
# Mechanical properties :
#
#
# Convention : Reuss Voigt Hill
#
# Bulk Modulus (GPa) = 40.85524 44.28903 42.57213
# Shear Modulus (GPa) = 18.87472 25.39223 22.13347
#
# Velocity S-wave (km/s) = 3.01649 3.49874 3.26652
# Velocity P-wave (km/s) = 5.64162 6.13780 5.89493
#
# Compressibility (1/GPa) = 0.02447667
#
# Stress axis : x y z
#
# Youngs Moduli (GPa) = 102.49810 63.82450 63.25940
#
# Poissons Ratio (x) = 0.09755 0.25477
# Poissons Ratio (y) = 0.15666 0.17852
# Poissons Ratio (z) = 0.41279 0.18012
#
# Static dielectric constant tensor:
#      x y z
#    x 3.678660 0.000000 -0.019390 
#    y 0.000000 3.477620 0.000000 
#    z -0.019390 0.000000 3.808440 
# 
# 
# High freq. dielectric constant tensor:
#      x y z
#    x 1.814790 0.000000 0.005650 
#    y 0.000000 1.783070 0.000000 
#    z 0.005650 0.000000 1.809850 
# 
# From -- ./inp_files/32904.got.cif
#   From: 2010.03.12/outbox.cif.g09.slc.cpg/sg14_17_cif.got.tgz:32904.got - 2010.03.31 13:35:05.
