data_PCOD8123375
_publ_section_title
;
Structure prediction by ZEFSAII (Michael W. Deem and Ramdas Pophale) SiO2 
 PCOD8123375
Probable space group: P 21/C
;
_chemical_formula_sum "Si O2"
_cell_formula_units_Z 24
_cell_length_a 14.907785
_cell_length_b 8.734765
_cell_length_c 11.102722
_cell_angle_alpha 90.000000
_cell_angle_beta 140.793277
_cell_angle_gamma 90.000000
_cell_volume 913.889106
_symmetry_space_group_name_H-M "P 21/C"
_symmetry_group_IT_number 14
_symmetry_cell_setting 'monoclinic'
loop_
_space_group_symop_operation_xyz
x,y,z
-x,1/2+y,1/2-z
-x,-y,-z
x,1/2-y,1/2+z
loop_
_atom_site_type_symbol
_atom_site_label
_atom_site_fract_x
_atom_site_fract_y
_atom_site_fract_z
Si Si1 0.507895 0.372738 0.903879
Si Si2 0.081257 0.991250 0.776628
Si Si3 0.783266 0.975283 0.841667
Si Si4 0.984176 0.693622 0.380395
Si Si5 0.423612 0.447007 0.251014
Si Si6 0.307418 0.612735 0.338473
O O1 0.389028 0.469784 0.859916
O O2 0.586967 0.484312 0.893176
O O3 0.632371 0.287672 0.110701
O O4 0.412530 0.239146 0.739649
O O5 0.002341 0.125898 0.622877
O O6 0.966854 0.887891 0.730709
O O7 0.191661 0.061424 0.990350
O O8 0.159934 0.888568 0.758196
O O9 0.851784 0.846309 0.827483
O O10 0.865810 0.138026 0.902639
O O11 0.299006 0.530270 0.199269
O O12 0.578640 0.489652 0.466931
#
# Coordination Sequence:
#
# PCOD8123375 Si02
#       6
#     4   4   4   4   4   4
#     4  10  17  34  58  83 121 149 188 242 289 349
#     4  10  18  39  56  83 117 152 196 236 285 343
#     4   9  18  34  59  85 115 152 194 238 289 343
#     4   9  20  34  61  83 115 156 193 242 283 338
#     4   9  18  32  54  87 112 155 188 224 304 338
#     4   9  19  33  60  82 118 154 187 240 290 349
#
# _framework density 26.261391
#
# number of rings (size 3 to 8) (size 9 to 14) (size 15 to 20)
#    2.000    0.667    1.667    1.000    0.000    0.000 
#    0.000    8.333    0.000    0.000    0.000    0.000 
#    0.000    0.000    0.000    0.000    0.000    0.000 
#
# Total GULP energy -297406.965975 kJ/mol
# GULP energy per Si atom -12391.956916 kJ/mol
# Density = 2.620162 g / cm^3
# Si number density = 26.261391 Si / 1000 Ang^3
#
#
#
# Elastic Constant Matrix: (Units=GPa)
#
#
# Indices 1 2 3 4 5 6 
#
# 1 184.2870 62.9524 14.3481 0.0000 11.5128 0.0000
# 2 62.9524 161.6020 17.3809 0.0000 1.2792 0.0000
# 3 14.3481 17.3809 64.4108 0.0000 16.2333 0.0000
# 4 0.0000 0.0000 0.0000 6.9791 0.0000 -8.7852
# 5 11.5128 1.2792 16.2333 0.0000 32.1094 0.0000
# 6 0.0000 0.0000 0.0000 -8.7852 0.0000 50.1403
#
#
#
# Elastic Compliance Matrix: (Units=1/GPa)
#
#
# Indices 1 2 3 4 5 6 
#
# 1 0.006414 -0.002456 -0.000242 0.000000 -0.002080 0.000000
# 2 -0.002456 0.007328 -0.001809 0.000000 0.001503 0.000000
# 3 -0.000242 -0.001809 0.018368 0.000000 -0.009127 0.000000
# 4 0.000000 0.000000 0.000000 0.183829 0.000000 0.032209
# 5 -0.002080 0.001503 -0.009127 0.000000 0.036444 0.000000
# 6 0.000000 0.000000 0.000000 0.032209 0.000000 0.025587
#
#
# Mechanical properties :
#
#
# Convention : Reuss Voigt Hill
#
# Bulk Modulus (GPa) = 43.29915 66.62920 54.96417
# Shear Modulus (GPa) = 16.96745 38.88700 27.92722
#
# Velocity S-wave (km/s) = 2.54460 3.85225 3.26457
# Velocity P-wave (km/s) = 5.01567 6.72406 5.93169
#
# Compressibility (1/GPa) = 0.02309514
#
# Stress axis : x y z
#
# Youngs Moduli (GPa) = 155.90681 136.47204 54.44340
#
# Poissons Ratio (x) = 0.33520 0.01317
# Poissons Ratio (y) = 0.38293 0.09849
# Poissons Ratio (z) = 0.03771 0.24688
#
# Static dielectric constant tensor:
#      x y z
#    x 4.527770 0.000000 -0.001480 
#    y 0.000000 4.455200 0.000000 
#    z -0.001480 0.000000 4.283660 
# 
# 
# High freq. dielectric constant tensor:
#      x y z
#    x 2.055380 0.000000 0.000520 
#    y 0.000000 2.058060 0.000000 
#    z 0.000520 0.000000 2.039300 
# 
# From -- ./inp_files/46626.got.cif
#   From: 2010.03.12/outbox.cif.g09.slc.cpg/sg14_24_cif.got.tgz:46626.got - 2010.03.31 13:35:05.
