data_PCOD8123872
_publ_section_title
;
Structure prediction by ZEFSAII (Michael W. Deem and Ramdas Pophale) SiO2 
 PCOD8123872
Probable space group: P 21/C
;
_chemical_formula_sum "Si O2"
_cell_formula_units_Z 24
_cell_length_a 7.740935
_cell_length_b 23.579842
_cell_length_c 11.322792
_cell_angle_alpha 90.000000
_cell_angle_beta 145.848229
_cell_angle_gamma 90.000000
_cell_volume 1160.246259
_symmetry_space_group_name_H-M "P 21/C"
_symmetry_group_IT_number 14
_symmetry_cell_setting 'monoclinic'
loop_
_space_group_symop_operation_xyz
x,y,z
-x,1/2+y,1/2-z
-x,-y,-z
x,1/2-y,1/2+z
loop_
_atom_site_type_symbol
_atom_site_label
_atom_site_fract_x
_atom_site_fract_y
_atom_site_fract_z
Si Si1 0.674198 0.818806 0.981108
Si Si2 0.670896 0.208075 0.748771
Si Si3 0.725075 0.923337 0.854863
Si Si4 0.745927 0.882583 0.606944
Si Si5 0.596782 0.357071 0.446229
Si Si6 0.434746 0.548711 0.740634
O O1 0.419960 0.773684 0.796164
O O2 0.598930 0.878850 0.878021
O O3 0.657696 0.828080 0.113715
O O4 0.004461 0.795422 0.132304
O O5 0.426521 0.173799 0.532494
O O6 0.691994 0.184575 0.893548
O O7 0.645558 0.899518 0.681353
O O8 0.546102 0.982181 0.774942
O O9 0.089620 0.931699 0.079960
O O10 0.662531 0.935897 0.476487
O O11 0.107619 0.870024 0.805309
O O12 0.463713 0.416059 0.318195
#
# Coordination Sequence:
#
# PCOD8123872 Si02
#       6
#     4   4   4   4   4   4
#     4  12  24  43  65  92 126 174 211 263 325 372
#     4  11  25  43  61  93 129 168 214 265 317 375
#     4  10  20  38  67  98 129 167 213 260 323 376
#     4  10  18  42  64  93 130 168 210 257 319 376
#     4  10  23  42  64  93 131 162 211 265 312 384
#     4   9  19  40  67  96 131 166 208 266 315 382
#
# _framework density 20.685265000000001
#
# number of rings (size 3 to 8) (size 9 to 14) (size 15 to 20)
#    0.000    1.667    5.000    1.500    2.333    2.000 
#    6.000    0.833    0.000    0.000    0.000    0.000 
#    0.000    0.000    0.000    0.000    0.000    0.000 
#
# Total GULP energy -297652.870691 kJ/mol
# GULP energy per Si atom -12402.202945 kJ/mol
# Density = 2.063818 g / cm^3
# Si number density = 20.685265 Si / 1000 Ang^3
#
#
#
# Elastic Constant Matrix: (Units=GPa)
#
#
# Indices 1 2 3 4 5 6 
#
# 1 127.6495 53.2939 43.4316 0.0000 -1.4064 0.0000
# 2 53.2939 143.8452 24.5198 0.0000 -4.3481 0.0000
# 3 43.4316 24.5198 90.5277 0.0000 -20.2555 0.0000
# 4 0.0000 0.0000 0.0000 25.9714 0.0000 -0.5307
# 5 -1.4064 -4.3481 -20.2555 0.0000 14.8753 0.0000
# 6 0.0000 0.0000 0.0000 -0.5307 0.0000 30.0414
#
#
#
# Elastic Compliance Matrix: (Units=1/GPa)
#
#
# Indices 1 2 3 4 5 6 
#
# 1 0.011351 -0.003363 -0.006493 0.000000 -0.008751 0.000000
# 2 -0.003363 0.008292 -0.000232 0.000000 0.001790 0.000000
# 3 -0.006493 -0.000232 0.020237 0.000000 0.026876 0.000000
# 4 0.000000 0.000000 0.000000 0.038518 0.000000 0.000680
# 5 -0.008751 0.001790 0.026876 0.000000 0.103518 0.000000
# 6 0.000000 0.000000 0.000000 0.000680 0.000000 0.033299
#
#
# Mechanical properties :
#
#
# Convention : Reuss Voigt Hill
#
# Bulk Modulus (GPa) = 50.74999 67.16811 58.95905
# Shear Modulus (GPa) = 20.66474 30.22944 25.44709
#
# Velocity S-wave (km/s) = 3.16414 3.82697 3.51123
# Velocity P-wave (km/s) = 6.15927 7.21593 6.70844
#
# Compressibility (1/GPa) = 0.01970444
#
# Stress axis : x y z
#
# Youngs Moduli (GPa) = 88.09986 120.60440 49.41333
#
# Poissons Ratio (x) = 0.40561 0.32083
# Poissons Ratio (y) = 0.29629 0.01145
# Poissons Ratio (z) = 0.57201 0.02795
#
# Static dielectric constant tensor:
#      x y z
#    x 3.584870 0.000000 -0.126950 
#    y 0.000000 3.997430 0.000000 
#    z -0.126950 0.000000 3.682800 
# 
# 
# High freq. dielectric constant tensor:
#      x y z
#    x 1.795750 0.000000 -0.012220 
#    y 0.000000 1.822910 0.000000 
#    z -0.012220 0.000000 1.804850 
# 
# From -- ./inp_files/27052.got.cif
#   From: 2010.03.12/outbox.cif.g09.slc.cpg/sg14_14_cif.got.tgz:27052.got - 2010.03.31 13:35:05.
