data_PCOD8123445
_publ_section_title
;
Structure prediction by ZEFSAII (Michael W. Deem and Ramdas Pophale) SiO2 
 PCOD8123445
Probable space group: P 21/C
;
_chemical_formula_sum "Si O2"
_cell_formula_units_Z 32
_cell_length_a 11.390762
_cell_length_b 18.746237
_cell_length_c 8.800211
_cell_angle_alpha 90.000000
_cell_angle_beta 112.723902
_cell_angle_gamma 90.000000
_cell_volume 1733.278865
_symmetry_space_group_name_H-M "P 21/C"
_symmetry_group_IT_number 14
_symmetry_cell_setting 'monoclinic'
loop_
_space_group_symop_operation_xyz
x,y,z
-x,1/2+y,1/2-z
-x,-y,-z
x,1/2-y,1/2+z
loop_
_atom_site_type_symbol
_atom_site_label
_atom_site_fract_x
_atom_site_fract_y
_atom_site_fract_z
Si Si1 0.234536 0.828337 0.797369
Si Si2 0.484631 0.672802 0.920083
Si Si3 0.995523 0.579843 0.816998
Si Si4 0.763995 0.672881 0.704309
Si Si5 0.515369 0.172804 0.935450
Si Si6 0.995525 0.579843 0.178526
Si Si7 0.765464 0.171661 0.562836
Si Si8 0.236005 0.327121 0.940312
O O1 0.118921 0.877233 0.796725
O O2 0.238364 0.822229 0.619180
O O3 0.365562 0.866097 0.922698
O O4 0.217276 0.749999 0.858634
O O5 0.455170 0.677979 0.727586
O O6 0.491676 0.749998 0.995842
O O7 0.365561 0.633901 0.942863
O O8 0.623709 0.638184 0.021084
O O9 0.869030 0.618789 0.690366
O O10 0.999997 0.500000 0.751595
O O11 0.991674 0.576915 0.995837
O O12 0.118920 0.622765 0.822194
O O13 0.623708 0.638186 0.602625
O O14 0.782078 0.750001 0.641042
O O15 0.784315 0.684340 0.892159
O O16 0.869031 0.618787 0.178665
#
# Coordination Sequence:
#
# PCOD8123445 Si02
#       8
#     4   4   4   4   4   4   4   4
#     4  10  18  29  49  72  93 119 151 189 229 270
#     4   9  16  27  45  69  95 118 146 186 229 272
#     4   9  18  32  48  67  92 123 158 190 223 269
#     4   9  17  30  50  72  92 119 153 190 229 268
#     4   9  16  27  45  69  95 118 146 186 229 272
#     4   9  18  32  48  67  92 123 158 190 223 269
#     4  10  18  29  49  72  93 119 151 189 229 270
#     4   9  17  30  50  72  92 119 153 190 229 268
#
# _framework density 18.462119000000001
#
# number of rings (size 3 to 8) (size 9 to 14) (size 15 to 20)
#    0.000    2.750    0.000    3.750    0.000    1.000 
#    0.000    2.500    0.000    6.750    0.000    0.000 
#    0.000    0.000    0.000    0.000    0.000    0.000 
#
# Total GULP energy -396511.700198 kJ/mol
# GULP energy per Si atom -12390.990631 kJ/mol
# Density = 1.842010 g / cm^3
# Si number density = 18.462119 Si / 1000 Ang^3
#
#
#
# Elastic Constant Matrix: (Units=GPa)
#
#
# Indices 1 2 3 4 5 6 
#
# 1 174.2595 74.7148 63.5271 0.0000 47.2252 0.0000
# 2 74.7148 96.4895 30.8742 0.0000 19.7728 0.0000
# 3 63.5271 30.8742 57.4928 0.0000 5.4379 0.0000
# 4 0.0000 0.0000 0.0000 12.6187 0.0000 -1.9773
# 5 47.2252 19.7728 5.4379 0.0000 21.8679 0.0000
# 6 0.0000 0.0000 0.0000 -1.9773 0.0000 8.2357
#
#
#
# Elastic Compliance Matrix: (Units=1/GPa)
#
#
# Indices 1 2 3 4 5 6 
#
# 1 0.042498 -0.005150 -0.036818 0.000000 -0.077965 0.000000
# 2 -0.005150 0.015637 -0.002480 0.000000 -0.002401 0.000000
# 3 -0.036818 -0.002480 0.052920 0.000000 0.068595 0.000000
# 4 0.000000 0.000000 0.000000 0.082346 0.000000 0.019771
# 5 -0.077965 -0.002401 0.068595 0.000000 0.199213 0.000000
# 6 0.000000 0.000000 0.000000 0.019771 0.000000 0.126170
#
#
# Mechanical properties :
#
#
# Convention : Reuss Voigt Hill
#
# Bulk Modulus (GPa) = 45.12920 74.05265 59.59092
# Shear Modulus (GPa) = 8.12922 19.15282 13.64102
#
# Velocity S-wave (km/s) = 2.10065 3.22438 2.72116
# Velocity P-wave (km/s) = 5.51189 7.35254 6.49772
#
# Compressibility (1/GPa) = 0.02215860
#
# Stress axis : x y z
#
# Youngs Moduli (GPa) = 23.53076 63.95140 18.89643
#
# Poissons Ratio (x) = 0.32932 0.69574
# Poissons Ratio (y) = 0.12117 0.04686
# Poissons Ratio (z) = 0.86636 0.15860
#
# Static dielectric constant tensor:
#      x y z
#    x 4.331060 0.000000 0.420580 
#    y 0.000000 3.166860 0.000000 
#    z 0.420580 0.000000 3.398760 
# 
# 
# High freq. dielectric constant tensor:
#      x y z
#    x 1.741390 0.000000 0.016530 
#    y 0.000000 1.671070 0.000000 
#    z 0.016530 0.000000 1.704750 
# 
# From -- ./inp_files/13784.got.cif
#   From: 2010.03.12/outbox.cif.g09.slc.cpg/sg14_7_cif.got.tgz:13784.got - 2010.03.31 13:35:05.
