data_PCOD8123411
_publ_section_title
;
Structure prediction by ZEFSAII (Michael W. Deem and Ramdas Pophale) SiO2 
 PCOD8123411
Probable space group: P 21/C
;
_chemical_formula_sum "Si O2"
_cell_formula_units_Z 32
_cell_length_a 24.026380
_cell_length_b 12.216356
_cell_length_c 17.918066
_cell_angle_alpha 90.000000
_cell_angle_beta 162.670977
_cell_angle_gamma 90.000000
_cell_volume 1566.502541
_symmetry_space_group_name_H-M "P 21/C"
_symmetry_group_IT_number 14
_symmetry_cell_setting 'monoclinic'
loop_
_space_group_symop_operation_xyz
x,y,z
-x,1/2+y,1/2-z
-x,-y,-z
x,1/2-y,1/2+z
loop_
_atom_site_type_symbol
_atom_site_label
_atom_site_fract_x
_atom_site_fract_y
_atom_site_fract_z
Si Si1 0.175510 0.115123 0.074095
Si Si2 0.420366 0.288906 0.132576
Si Si3 0.392867 0.476923 0.988829
Si Si4 0.795878 0.465817 0.514743
Si Si5 0.798087 0.916269 0.168992
Si Si6 0.195042 0.615127 0.225766
Si Si7 0.494296 0.280732 0.885110
Si Si8 0.144918 0.778279 0.814468
O O1 0.240414 0.055164 0.232120
O O2 0.342306 0.191098 0.254294
O O3 0.983987 0.174468 0.846282
O O4 0.095865 0.030326 0.910618
O O5 0.359247 0.409166 0.023463
O O6 0.389358 0.279588 0.181956
O O7 0.635792 0.257706 0.392220
O O8 0.293398 0.199757 0.928225
O O9 0.596392 0.436179 0.220455
O O10 0.394273 0.609502 0.999817
O O11 0.732305 0.541885 0.503612
O O12 0.915916 0.363591 0.697795
O O13 0.023320 0.904832 0.450076
O O14 0.728922 0.998303 0.146244
O O15 0.353840 0.691257 0.390593
O O16 0.105983 0.672216 0.184062
#
# Coordination Sequence:
#
# PCOD8123411 Si02
#       8
#     4   4   4   4   4   4   4   4
#     4  11  20  38  56  85 118 153 185 239 289 344
#     4  10  19  36  60  82 109 155 192 233 279 346
#     4  10  20  36  61  83 115 153 183 233 302 334
#     4   9  18  36  56  79 109 155 187 222 284 353
#     4  10  17  36  61  80 109 149 194 228 296 327
#     4   9  20  35  59  82 112 150 188 244 276 349
#     4  10  20  37  59  87 112 146 202 234 277 347
#     4   9  20  36  54  81 119 150 186 229 296 334
#
# _framework density 20.427671
#
# number of rings (size 3 to 8) (size 9 to 14) (size 15 to 20)
#    0.000    2.250    2.500    3.000    0.000    0.000 
#    9.000    5.625    0.000    3.000    0.000    0.000 
#    0.000    0.000    0.000    0.000    0.000    0.000 
#
# Total GULP energy -396434.011552 kJ/mol
# GULP energy per Si atom -12388.562861 kJ/mol
# Density = 2.038118 g / cm^3
# Si number density = 20.427671 Si / 1000 Ang^3
#
#
#
# Elastic Constant Matrix: (Units=GPa)
#
#
# Indices 1 2 3 4 5 6 
#
# 1 30.1831 -9.0470 7.6948 0.0000 -8.7844 0.0000
# 2 -9.0470 38.0001 3.1844 0.0000 -7.4794 0.0000
# 3 7.6948 3.1844 56.7691 0.0000 -11.8813 0.0000
# 4 0.0000 0.0000 0.0000 41.3514 0.0000 4.7309
# 5 -8.7844 -7.4794 -11.8813 0.0000 14.9190 0.0000
# 6 0.0000 0.0000 0.0000 4.7309 0.0000 24.5392
#
#
#
# Elastic Compliance Matrix: (Units=1/GPa)
#
#
# Indices 1 2 3 4 5 6 
#
# 1 0.050697 0.019944 0.000420 0.000000 0.040184 0.000000
# 2 0.019944 0.037182 0.001884 0.000000 0.031884 0.000000
# 3 0.000420 0.001884 0.021243 0.000000 0.018109 0.000000
# 4 0.000000 0.000000 0.000000 0.024728 0.000000 -0.004767
# 5 0.040184 0.031884 0.018109 0.000000 0.121095 0.000000
# 6 0.000000 0.000000 0.000000 -0.004767 0.000000 0.041670
#
#
# Mechanical properties :
#
#
# Convention : Reuss Voigt Hill
#
# Bulk Modulus (GPa) = 6.50972 14.29076 10.40024
# Shear Modulus (GPa) = 16.48391 24.36992 20.42692
#
# Velocity S-wave (km/s) = 2.84375 3.45771 3.16565
# Velocity P-wave (km/s) = 3.73848 4.79082 4.29699
#
# Compressibility (1/GPa) = 0.15361646
#
# Stress axis : x y z
#
# Youngs Moduli (GPa) = 19.72499 26.89500 47.07491
#
# Poissons Ratio (x) = -0.53639 -0.01975
# Poissons Ratio (y) = -0.39339 -0.08869
# Poissons Ratio (z) = -0.00828 -0.05067
#
# Static dielectric constant tensor:
#      x y z
#    x 3.375330 0.000000 -0.288360 
#    y 0.000000 3.954500 0.000000 
#    z -0.288360 0.000000 3.603900 
# 
# 
# High freq. dielectric constant tensor:
#      x y z
#    x 1.761070 0.000000 -0.026820 
#    y 0.000000 1.801620 0.000000 
#    z -0.026820 0.000000 1.796310 
# 
# From -- ./inp_files/62008.got.cif
#   From: 2010.03.12/outbox.cif.g09.slc.cpg/sg14_32_cif.got.tgz:62008.got - 2010.03.31 13:35:05.
