data_PCOD8123412
_publ_section_title
;
Structure prediction by ZEFSAII (Michael W. Deem and Ramdas Pophale) SiO2 
 PCOD8123412
Probable space group: P 21/C
;
_chemical_formula_sum "Si O2"
_cell_formula_units_Z 32
_cell_length_a 12.205019
_cell_length_b 10.837833
_cell_length_c 16.056187
_cell_angle_alpha 90.000000
_cell_angle_beta 48.817990
_cell_angle_gamma 90.000000
_cell_volume 1598.453704
_symmetry_space_group_name_H-M "P 21/C"
_symmetry_group_IT_number 14
_symmetry_cell_setting 'monoclinic'
loop_
_space_group_symop_operation_xyz
x,y,z
-x,1/2+y,1/2-z
-x,-y,-z
x,1/2-y,1/2+z
loop_
_atom_site_type_symbol
_atom_site_label
_atom_site_fract_x
_atom_site_fract_y
_atom_site_fract_z
Si Si1 0.688720 0.739985 0.426493
Si Si2 0.073678 0.732191 0.860099
Si Si3 0.239537 0.635497 0.622894
Si Si4 0.701377 0.139286 0.636870
Si Si5 0.460846 0.786476 0.903007
Si Si6 0.959032 0.924812 0.806367
Si Si7 0.474996 0.558690 0.618866
Si Si8 0.161785 0.462298 0.068022
O O1 0.604040 0.755083 0.381077
O O2 0.841158 0.672606 0.329370
O O3 0.593319 0.667164 0.544087
O O4 0.719638 0.877911 0.443795
O O5 0.178413 0.708440 0.730436
O O6 0.163192 0.727615 0.902062
O O7 0.014861 0.869990 0.867298
O O8 0.949874 0.627616 0.924523
O O9 0.310415 0.740902 0.529186
O O10 0.117976 0.555536 0.636131
O O11 0.374022 0.544994 0.585843
O O12 0.561596 0.213652 0.671231
O O13 0.639870 0.079524 0.750371
O O14 0.756506 0.038749 0.543812
O O15 0.449407 0.932372 0.892796
O O16 0.081387 0.946988 0.674251
#
# Coordination Sequence:
#
# PCOD8123412 Si02
#       8
#     4   4   4   4   4   4   4   4
#     4  10  20  39  64  88 104 152 203 243 279 330
#     4   9  20  36  57  82 116 152 185 230 289 346
#     4   9  16  34  61  78 102 145 203 232 268 331
#     4  11  24  37  53  87 121 156 179 230 306 344
#     4  11  20  37  60  82 112 152 193 239 284 343
#     4  10  17  36  61  85 107 148 195 243 271 334
#     4  10  20  37  60  80 114 152 193 238 279 353
#     4  10  22  37  63  85 118 146 197 240 282 345
#
# _framework density 20.019348000000001
#
# number of rings (size 3 to 8) (size 9 to 14) (size 15 to 20)
#    0.000    2.000    2.500    1.875    1.750    0.500 
#    2.250    0.625    0.000    0.000    0.000    0.000 
#    0.000    0.000    0.000    0.000    0.000    0.000 
#
# Total GULP energy -396529.421652 kJ/mol
# GULP energy per Si atom -12391.544427 kJ/mol
# Density = 1.997378 g / cm^3
# Si number density = 20.019348 Si / 1000 Ang^3
#
#
#
# Elastic Constant Matrix: (Units=GPa)
#
#
# Indices 1 2 3 4 5 6 
#
# 1 123.8439 46.7758 26.2944 0.0000 9.2841 0.0000
# 2 46.7758 66.0014 35.5490 0.0000 4.5775 0.0000
# 3 26.2944 35.5490 66.5539 0.0000 -7.3764 0.0000
# 4 0.0000 0.0000 0.0000 15.5563 0.0000 -1.8844
# 5 9.2841 4.5775 -7.3764 0.0000 25.9288 0.0000
# 6 0.0000 0.0000 0.0000 -1.8844 0.0000 31.0931
#
#
#
# Elastic Compliance Matrix: (Units=1/GPa)
#
#
# Indices 1 2 3 4 5 6 
#
# 1 0.011236 -0.007281 -0.000881 0.000000 -0.002988 0.000000
# 2 -0.007281 0.027382 -0.012386 0.000000 -0.005751 0.000000
# 3 -0.000881 -0.012386 0.022992 0.000000 0.009043 0.000000
# 4 0.000000 0.000000 0.000000 0.064758 0.000000 0.003925
# 5 -0.002988 -0.005751 0.009043 0.000000 0.043225 0.000000
# 6 0.000000 0.000000 0.000000 0.003925 0.000000 0.032399
#
#
# Mechanical properties :
#
#
# Convention : Reuss Voigt Hill
#
# Bulk Modulus (GPa) = 48.75167 52.62642 50.68905
# Shear Modulus (GPa) = 20.00591 24.36764 22.18677
#
# Velocity S-wave (km/s) = 3.16465 3.49263 3.33268
# Velocity P-wave (km/s) = 6.14479 6.52759 6.33908
#
# Compressibility (1/GPa) = 0.02051212
#
# Stress axis : x y z
#
# Youngs Moduli (GPa) = 89.00074 36.52100 43.49374
#
# Poissons Ratio (x) = 0.26591 0.03833
# Poissons Ratio (y) = 0.64802 0.53872
# Poissons Ratio (z) = 0.07843 0.45236
#
# Static dielectric constant tensor:
#      x y z
#    x 4.029170 0.000000 -0.183230 
#    y 0.000000 3.568350 0.000000 
#    z -0.183230 0.000000 3.628510 
# 
# 
# High freq. dielectric constant tensor:
#      x y z
#    x 1.779620 0.000000 -0.018590 
#    y 0.000000 1.770270 0.000000 
#    z -0.018590 0.000000 1.775330 
# 
# From -- ./inp_files/44373.got.cif
#   From: 2010.03.12/outbox.cif.g09.slc.cpg/sg14_23_cif.got.tgz:44373.got - 2010.03.31 13:35:05.
