data_PCOD8123229
_publ_section_title
;
Structure prediction by ZEFSAII (Michael W. Deem and Ramdas Pophale) SiO2 
 PCOD8123229
Probable space group: P 2/C
;
_chemical_formula_sum "Si O2"
_cell_formula_units_Z 32
_cell_length_a 15.000000
_cell_length_b 21.000000
_cell_length_c 15.000000
_cell_angle_alpha 90.000000
_cell_angle_beta 160.000000
_cell_angle_gamma 90.000000
_cell_volume 1616.045177
_symmetry_space_group_name_H-M "P 2/C"
_symmetry_group_IT_number 13
_symmetry_cell_setting 'monoclinic'
loop_
_space_group_symop_operation_xyz
x,y,z
-x,y,1/2-z
-x,-y,-z
x,-y,1/2+z
loop_
_atom_site_type_symbol
_atom_site_label
_atom_site_fract_x
_atom_site_fract_y
_atom_site_fract_z
Si Si1 0.406463 0.114856 0.916257
Si Si2 0.256987 0.965032 0.449391
Si Si3 0.911056 0.726740 0.762250
Si Si4 0.309994 0.608938 0.324816
Si Si5 0.742395 0.463980 0.547199
Si Si6 0.654314 0.250990 0.694079
Si Si7 0.131848 0.586425 0.727417
Si Si8 0.950864 0.942917 0.886762
O O1 0.346948 0.079237 0.952846
O O2 0.368776 0.190625 0.893790
O O3 0.226629 0.094582 0.660900
O O4 0.710246 0.101980 0.185659
O O5 0.000000 0.931322 0.250000
O O6 0.128210 0.030258 0.286027
O O7 0.500000 0.975646 0.750000
O O8 0.609961 0.743574 0.496425
O O9 0.958032 0.650914 0.808796
O O10 0.000000 0.752765 0.750000
O O11 0.098659 0.760438 0.009884
O O12 0.349646 0.581644 0.460414
O O13 0.293028 0.685689 0.314775
O O14 0.568696 0.588994 0.517704
O O15 0.063184 0.577341 0.040898
O O16 0.871992 0.529151 0.706288
O O17 0.000000 0.429282 0.750000
O O18 0.500000 0.474049 0.250000
O O19 0.000000 0.000000 0.000000
#
# Coordination Sequence:
#
# PCOD8123229 Si02
#       8
#     4   4   4   4   4   4   4   4
#     4  11  21  39  60  82 113 155 192 220 270 343
#     4  11  21  36  58  87 113 140 182 234 273 311
#     4  10  20  36  57  82 110 141 185 241 285 325
#     4  10  21  39  57  79 111 152 190 229 279 345
#     4  12  23  35  55  86 115 143 185 243 295 338
#     4  10  22  38  59  80 111 156 192 218 270 342
#     4  10  20  36  59  80 107 147 189 231 289 353
#     4  10  20  37  60  82 111 146 178 222 281 333
#
# _framework density 19.801427
#
# number of rings (size 3 to 8) (size 9 to 14) (size 15 to 20)
#    0.000    1.500    0.000    7.500    0.000    2.000 
#    0.000    7.500    0.000    0.000    0.000    0.000 
#    0.000    0.000    0.000    0.000    0.000    0.000 
#
# Total GULP energy -396426.746977 kJ/mol
# GULP energy per Si atom -12388.335843 kJ/mol
# Density = 1.975636 g / cm^3
# Si number density = 19.801427 Si / 1000 Ang^3
#
#
#
# Elastic Constant Matrix: (Units=GPa)
#
#
# Indices 1 2 3 4 5 6 
#
# 1 57.9149 22.8631 18.7367 0.0000 -22.6694 0.0000
# 2 22.8631 85.0413 28.4218 0.0000 -17.7041 0.0000
# 3 18.7367 28.4218 169.4669 0.0000 -20.8015 0.0000
# 4 0.0000 0.0000 0.0000 31.6939 0.0000 -1.8327
# 5 -22.6694 -17.7041 -20.8015 0.0000 39.2078 0.0000
# 6 0.0000 0.0000 0.0000 -1.8327 0.0000 14.3272
#
#
#
# Elastic Compliance Matrix: (Units=1/GPa)
#
#
# Indices 1 2 3 4 5 6 
#
# 1 0.023444 -0.003707 -0.000548 0.000000 0.011591 0.000000
# 2 -0.003707 0.013962 -0.001520 0.000000 0.003355 0.000000
# 3 -0.000548 -0.001520 0.006518 0.000000 0.002455 0.000000
# 4 0.000000 0.000000 0.000000 0.031787 0.000000 0.004066
# 5 0.011591 0.003355 0.002455 0.000000 0.035024 0.000000
# 6 0.000000 0.000000 0.000000 0.004066 0.000000 0.070318
#
#
# Mechanical properties :
#
#
# Convention : Reuss Voigt Hill
#
# Bulk Modulus (GPa) = 30.88827 50.27404 40.58116
# Shear Modulus (GPa) = 24.58296 33.20586 28.89441
#
# Velocity S-wave (km/s) = 3.52728 4.09949 3.82410
# Velocity P-wave (km/s) = 5.67642 6.91751 6.32747
#
# Compressibility (1/GPa) = 0.03237475
#
# Stress axis : x y z
#
# Youngs Moduli (GPa) = 42.65462 71.62310 153.42929
#
# Poissons Ratio (x) = 0.26550 0.08402
# Poissons Ratio (y) = 0.15812 0.23321
# Poissons Ratio (z) = 0.02336 0.10886
#
# Static dielectric constant tensor:
#      x y z
#    x 3.417870 0.000000 0.104970 
#    y 0.000000 3.758550 0.000000 
#    z 0.104970 0.000000 3.743140 
# 
# 
# High freq. dielectric constant tensor:
#      x y z
#    x 1.758160 0.000000 -0.001190 
#    y 0.000000 1.764670 0.000000 
#    z -0.001190 0.000000 1.820820 
# 
# From -- ./inp_files/54013.got.cif
#   From: 2010.06.25/outbox.ucp.g09.slc.cvg/sg13_28_cif.got.tgz:54013.got - 2010.06.28 14:22:30.
