data_PCOD8123824
_publ_section_title
;
Structure prediction by ZEFSAII (Michael W. Deem and Ramdas Pophale) SiO2 
 PCOD8123824
Probable space group: P 21/C
;
_chemical_formula_sum "Si O2"
_cell_formula_units_Z 24
_cell_length_a 7.726712
_cell_length_b 9.292568
_cell_length_c 26.841117
_cell_angle_alpha 90.000000
_cell_angle_beta 36.581187
_cell_angle_gamma 90.000000
_cell_volume 1148.547794
_symmetry_space_group_name_H-M "P 21/C"
_symmetry_group_IT_number 14
_symmetry_cell_setting 'monoclinic'
loop_
_space_group_symop_operation_xyz
x,y,z
-x,1/2+y,1/2-z
-x,-y,-z
x,1/2-y,1/2+z
loop_
_atom_site_type_symbol
_atom_site_label
_atom_site_fract_x
_atom_site_fract_y
_atom_site_fract_z
Si Si1 0.887781 0.824456 0.976170
Si Si2 0.273921 0.836231 0.465642
Si Si3 0.125330 0.493297 0.184272
Si Si4 0.759963 0.179118 0.844899
Si Si5 0.172610 0.451150 0.065574
Si Si6 0.781407 0.089701 0.946540
O O1 0.838942 0.718508 0.940932
O O2 0.129522 0.751770 0.954549
O O3 0.991024 0.980633 0.930085
O O4 0.586579 0.843704 0.075309
O O5 0.577218 0.903238 0.377130
O O6 0.325800 0.725256 0.497934
O O7 0.071346 0.961930 0.538540
O O8 0.174436 0.658773 0.187153
O O9 0.000101 0.484346 0.156418
O O10 0.882191 0.431080 0.276413
O O11 0.910692 0.144379 0.863813
O O12 0.500000 0.500000 0.000000
O O13 0.500000 0.000000 0.000000
#
# Coordination Sequence:
#
# PCOD8123824 Si02
#       6
#     4   4   4   4   4   4
#     4  11  22  38  67  94 117 157 208 260 302 355
#     4  11  21  40  66  90 119 157 208 257 303 359
#     4  11  23  38  63  88 123 164 209 249 309 368
#     4  11  23  39  61  90 123 165 206 253 303 369
#     4  10  18  38  63  86 113 162 206 240 294 371
#     4  10  21  39  63  89 120 160 208 248 298 375
#
# _framework density 20.895952999999999
#
# number of rings (size 3 to 8) (size 9 to 14) (size 15 to 20)
#    0.000    1.333    5.000    4.000    7.000    0.000 
#    0.000    1.667    0.000    0.000    0.000    0.000 
#    0.000    0.000    0.000    0.000    0.000    0.000 
#
# Total GULP energy -297398.453517 kJ/mol
# GULP energy per Si atom -12391.602230 kJ/mol
# Density = 2.084839 g / cm^3
# Si number density = 20.895953 Si / 1000 Ang^3
#
#
#
# Elastic Constant Matrix: (Units=GPa)
#
#
# Indices 1 2 3 4 5 6 
#
# 1 70.0746 14.8808 28.2065 0.0000 12.2552 0.0000
# 2 14.8808 125.9936 33.8854 0.0000 10.3240 0.0000
# 3 28.2065 33.8854 63.2518 0.0000 18.4586 0.0000
# 4 0.0000 0.0000 0.0000 37.5133 0.0000 13.4201
# 5 12.2552 10.3240 18.4586 0.0000 22.5679 0.0000
# 6 0.0000 0.0000 0.0000 13.4201 0.0000 49.8141
#
#
#
# Elastic Compliance Matrix: (Units=1/GPa)
#
#
# Indices 1 2 3 4 5 6 
#
# 1 0.017683 0.000054 -0.006706 0.000000 -0.004143 0.000000
# 2 0.000054 0.009274 -0.004920 0.000000 -0.000248 0.000000
# 3 -0.006706 -0.004920 0.025898 0.000000 -0.015290 0.000000
# 4 0.000000 0.000000 0.000000 0.029500 0.000000 -0.007948
# 5 -0.004143 -0.000248 -0.015290 0.000000 0.059180 0.000000
# 6 0.000000 0.000000 0.000000 -0.007948 0.000000 0.022216
#
#
# Mechanical properties :
#
#
# Convention : Reuss Voigt Hill
#
# Bulk Modulus (GPa) = 33.65663 45.91837 39.78750
# Shear Modulus (GPa) = 25.40683 34.13554 29.77118
#
# Velocity S-wave (km/s) = 3.49072 4.04616 3.77866
# Velocity P-wave (km/s) = 5.69110 6.62201 6.17412
#
# Compressibility (1/GPa) = 0.02971183
#
# Stress axis : x y z
#
# Youngs Moduli (GPa) = 56.55281 107.82746 38.61284
#
# Poissons Ratio (x) = -0.00587 0.25892
# Poissons Ratio (y) = -0.00308 0.18999
# Poissons Ratio (z) = 0.37922 0.53055
#
# Static dielectric constant tensor:
#      x y z
#    x 4.506130 0.000000 0.760530 
#    y 0.000000 4.864030 0.000000 
#    z 0.760530 0.000000 3.657530 
# 
# 
# High freq. dielectric constant tensor:
#      x y z
#    x 1.811780 0.000000 0.033920 
#    y 0.000000 1.854790 0.000000 
#    z 0.033920 0.000000 1.772450 
# 
# From -- ./inp_files/79338.got.cif
#   From: 2010.03.12/outbox.cif.g09.slc.cpg/sg14_40_cif.got.tgz:79338.got - 2010.03.31 13:35:05.
