data_PCOD8123169
_publ_section_title
;
Structure prediction by ZEFSAII (Michael W. Deem and Ramdas Pophale) SiO2 
 PCOD8123169
Probable space group: P 2/C
;
_chemical_formula_sum "Si O2"
_cell_formula_units_Z 22
_cell_length_a 5.188474
_cell_length_b 12.408964
_cell_length_c 14.078675
_cell_angle_alpha 90.000000
_cell_angle_beta 101.305352
_cell_angle_gamma 90.000000
_cell_volume 888.847440
_symmetry_space_group_name_H-M "P 2/C"
_symmetry_group_IT_number 13
_symmetry_cell_setting 'monoclinic'
loop_
_space_group_symop_operation_xyz
x,y,z
-x,y,1/2-z
-x,-y,-z
x,-y,1/2+z
loop_
_atom_site_type_symbol
_atom_site_label
_atom_site_fract_x
_atom_site_fract_y
_atom_site_fract_z
Si Si1 0.200663 0.779622 0.384507
Si Si2 0.500000 0.721718 0.750000
Si Si3 0.047826 0.434897 0.598037
Si Si4 0.500000 0.347698 0.750000
Si Si5 0.547205 0.121215 0.425045
Si Si6 0.000000 0.415752 0.250000
Si Si7 0.025592 0.008419 0.358506
O O1 0.305233 0.732829 0.292381
O O2 0.427976 0.817906 0.472902
O O3 0.048964 0.685367 0.428105
O O4 0.000272 0.878870 0.352126
O O5 0.535723 0.792461 0.659121
O O6 0.766015 0.653056 0.779028
O O7 0.343920 0.423632 0.663142
O O8 0.000000 0.500000 0.500000
O O9 0.878045 0.503819 0.661718
O O10 0.314751 0.034523 0.419995
O O11 0.812762 0.060127 0.412955
O O12 0.000000 0.056133 0.250000
#
# Coordination Sequence:
#
# PCOD8123169 Si02
#       7
#     4   2   4   2   4   2   4
#     4  12  29  47  80 112 159 210 263 334 407 479
#     4  12  25  47  74 110 154 198 259 331 392 466
#     4  12  28  51  77 112 155 211 269 331 402 480
#     4  12  27  51  78 116 160 208 273 325 416 470
#     4  12  27  49  77 118 156 210 266 328 399 489
#     4  12  26  48  74 110 150 200 264 324 388 474
#     4  12  25  49  78 115 163 205 265 327 402 480
#
# _framework density 24.751152999999999
#
# number of rings (size 3 to 8) (size 9 to 14) (size 15 to 20)
#    0.000    0.000    3.636    4.909   10.182    0.727 
#    0.000    0.000    0.000    0.000    0.000    0.000 
#    0.000    0.000    0.000    0.000    0.000    0.000 
#
# Total GULP energy -272815.739001 kJ/mol
# GULP energy per Si atom -12400.715409 kJ/mol
# Density = 2.469482 g / cm^3
# Si number density = 24.751153 Si / 1000 Ang^3
#
#
#
# Elastic Constant Matrix: (Units=GPa)
#
#
# Indices 1 2 3 4 5 6 
#
# 1 131.5163 52.8860 24.1627 0.0000 9.2654 0.0000
# 2 52.8860 150.9341 46.0169 0.0000 5.4108 0.0000
# 3 24.1627 46.0169 140.1731 0.0000 9.4691 0.0000
# 4 0.0000 0.0000 0.0000 44.2955 0.0000 3.6492
# 5 9.2654 5.4108 9.4691 0.0000 39.8746 0.0000
# 6 0.0000 0.0000 0.0000 3.6492 0.0000 33.5756
#
#
#
# Elastic Compliance Matrix: (Units=1/GPa)
#
#
# Indices 1 2 3 4 5 6 
#
# 1 0.008987 -0.002948 -0.000475 0.000000 -0.001575 0.000000
# 2 -0.002948 0.008336 -0.002234 0.000000 0.000084 0.000000
# 3 -0.000475 -0.002234 0.008051 0.000000 -0.001498 0.000000
# 4 0.000000 0.000000 0.000000 0.022780 0.000000 -0.002476
# 5 -0.001575 0.000084 -0.001498 0.000000 0.025789 0.000000
# 6 0.000000 0.000000 0.000000 -0.002476 0.000000 0.030053
#
#
# Mechanical properties :
#
#
# Convention : Reuss Voigt Hill
#
# Bulk Modulus (GPa) = 71.12332 74.30610 72.71471
# Shear Modulus (GPa) = 41.66785 43.51966 42.59375
#
# Velocity S-wave (km/s) = 4.10746 4.19774 4.15285
# Velocity P-wave (km/s) = 7.16190 7.31992 7.24134
#
# Compressibility (1/GPa) = 0.01406009
#
# Stress axis : x y z
#
# Youngs Moduli (GPa) = 111.26863 119.95512 124.21387
#
# Poissons Ratio (x) = 0.35360 0.05901
# Poissons Ratio (y) = 0.32799 0.27753
# Poissons Ratio (z) = 0.05286 0.26802
#
# Static dielectric constant tensor:
#      x y z
#    x 3.976290 0.000000 0.313370 
#    y 0.000000 4.793780 0.000000 
#    z 0.313370 0.000000 4.423570 
# 
# 
# High freq. dielectric constant tensor:
#      x y z
#    x 1.970100 0.000000 0.006400 
#    y 0.000000 2.010460 0.000000 
#    z 0.006400 0.000000 2.003910 
# 
# From -- ./inp_files/43784.got.cif
#   From: 2010.06.25/outbox.cif.g09.slc.cpg/sg13_22_cif.got.tgz:43784.got - 2010.06.28 04:50:58.
