data_PCOD8123763
_publ_section_title
;
Structure prediction by ZEFSAII (Michael W. Deem and Ramdas Pophale) SiO2 
 PCOD8123763
Probable space group: P 21/C
;
_chemical_formula_sum "Si O2"
_cell_formula_units_Z 28
_cell_length_a 19.892650
_cell_length_b 14.776743
_cell_length_c 14.726714
_cell_angle_alpha 90.000000
_cell_angle_beta 19.662262
_cell_angle_gamma 90.000000
_cell_volume 1456.565852
_symmetry_space_group_name_H-M "P 21/C"
_symmetry_group_IT_number 14
_symmetry_cell_setting 'monoclinic'
loop_
_space_group_symop_operation_xyz
x,y,z
-x,1/2+y,1/2-z
-x,-y,-z
x,1/2-y,1/2+z
loop_
_atom_site_type_symbol
_atom_site_label
_atom_site_fract_x
_atom_site_fract_y
_atom_site_fract_z
Si Si1 0.492438 0.234100 0.044957
Si Si2 0.950251 0.994814 0.281102
Si Si3 0.943846 0.829806 0.408432
Si Si4 0.163321 0.681224 0.009409
Si Si5 0.895058 0.911826 0.170344
Si Si6 0.895413 0.223826 0.608044
Si Si7 0.341309 0.422970 0.196403
O O1 0.612555 0.218325 0.796860
O O2 0.651670 0.214648 0.924198
O O3 0.295858 0.172354 0.299766
O O4 0.425145 0.337027 0.141878
O O5 0.013118 0.926461 0.281563
O O6 0.839710 0.932335 0.345730
O O7 0.810699 0.077543 0.490713
O O8 0.145677 0.042827 0.995068
O O9 0.998322 0.828746 0.445564
O O10 0.054981 0.744681 0.220997
O O11 0.035211 0.682329 0.077829
O O12 0.047644 0.829267 0.966033
O O13 0.700921 0.894216 0.354842
O O14 0.000000 0.000000 0.000000
O O15 0.500000 0.500000 0.000000
#
# Coordination Sequence:
#
# PCOD8123763 Si02
#       7
#     4   4   4   4   4   4   4
#     4  10  22  41  65  89 131 172 212 265 325 391
#     4  11  22  39  67  90 134 171 214 272 324 381
#     4  12  21  44  67  90 136 174 209 280 323 380
#     4  10  23  43  61  98 131 168 221 268 319 396
#     4  10  18  36  65  91 124 165 208 281 316 355
#     4  10  22  42  63  95 132 170 217 264 324 385
#     4  11  20  37  65  99 123 165 225 274 318 374
#
# _framework density 19.223299000000001
#
# number of rings (size 3 to 8) (size 9 to 14) (size 15 to 20)
#    0.857    0.571    4.286    3.429    0.000    1.143 
#    7.714    1.429    0.000    0.000    0.000    0.000 
#    0.000    0.000    0.000    0.000    0.000    0.000 
#
# Total GULP energy -346953.490140 kJ/mol
# GULP energy per Si atom -12391.196076 kJ/mol
# Density = 1.917955 g / cm^3
# Si number density = 19.223299 Si / 1000 Ang^3
#
#
#
# Elastic Constant Matrix: (Units=GPa)
#
#
# Indices 1 2 3 4 5 6 
#
# 1 91.0419 17.1520 32.7058 0.0000 -7.5007 0.0000
# 2 17.1520 80.9696 24.5673 0.0000 -3.5229 0.0000
# 3 32.7058 24.5673 77.1291 0.0000 -6.3300 0.0000
# 4 0.0000 0.0000 0.0000 29.0765 0.0000 4.7177
# 5 -7.5007 -3.5229 -6.3300 0.0000 29.9382 0.0000
# 6 0.0000 0.0000 0.0000 4.7177 0.0000 31.4615
#
#
#
# Elastic Compliance Matrix: (Units=1/GPa)
#
#
# Indices 1 2 3 4 5 6 
#
# 1 0.013191 -0.001171 -0.005048 0.000000 0.002100 0.000000
# 2 -0.001171 0.013790 -0.003854 0.000000 0.000514 0.000000
# 3 -0.005048 -0.003854 0.016478 0.000000 0.001766 0.000000
# 4 0.000000 0.000000 0.000000 0.035250 0.000000 -0.005286
# 5 0.002100 0.000514 0.001766 0.000000 0.034362 0.000000
# 6 0.000000 0.000000 0.000000 -0.005286 0.000000 0.032577
#
#
# Mechanical properties :
#
#
# Convention : Reuss Voigt Hill
#
# Bulk Modulus (GPa) = 42.89367 44.22120 43.55743
# Shear Modulus (GPa) = 28.80755 29.74295 29.27525
#
# Velocity S-wave (km/s) = 3.87534 3.93776 3.90667
# Velocity P-wave (km/s) = 6.51047 6.61275 6.56181
#
# Compressibility (1/GPa) = 0.02331347
#
# Stress axis : x y z
#
# Youngs Moduli (GPa) = 75.80879 72.51617 60.68607
#
# Poissons Ratio (x) = 0.08494 0.30635
# Poissons Ratio (y) = 0.08879 0.23386
# Poissons Ratio (z) = 0.38269 0.27944
#
# Static dielectric constant tensor:
#      x y z
#    x 6.390910 0.000000 -2.818730 
#    y 0.000000 3.488460 0.000000 
#    z -2.818730 0.000000 6.733500 
# 
# 
# High freq. dielectric constant tensor:
#      x y z
#    x 1.746090 0.000000 0.001010 
#    y 0.000000 1.752150 0.000000 
#    z 0.001010 0.000000 1.728250 
# 
# From -- ./inp_files/50557.got.cif
#   From: 2010.03.12/outbox.cif.g09.slc.cpg/sg14_26_cif.got.tgz:50557.got - 2010.03.31 13:35:05.
