data_PCOD8123625
_publ_section_title
;
Structure prediction by ZEFSAII (Michael W. Deem and Ramdas Pophale) SiO2 
 PCOD8123625
Probable space group: P 21/C
;
_chemical_formula_sum "Si O2"
_cell_formula_units_Z 32
_cell_length_a 15.561455
_cell_length_b 23.526486
_cell_length_c 8.736189
_cell_angle_alpha 90.000000
_cell_angle_beta 147.362676
_cell_angle_gamma 90.000000
_cell_volume 1724.945519
_symmetry_space_group_name_H-M "P 21/C"
_symmetry_group_IT_number 14
_symmetry_cell_setting 'monoclinic'
loop_
_space_group_symop_operation_xyz
x,y,z
-x,1/2+y,1/2-z
-x,-y,-z
x,1/2-y,1/2+z
loop_
_atom_site_type_symbol
_atom_site_label
_atom_site_fract_x
_atom_site_fract_y
_atom_site_fract_z
Si Si1 0.562733 0.040680 0.964084
Si Si2 0.186549 0.292249 0.810433
Si Si3 0.365254 0.207347 0.881018
Si Si4 0.385978 0.885915 0.691305
Si Si5 0.385984 0.114086 0.466635
Si Si6 0.562731 0.959320 0.724113
Si Si7 0.634753 0.207347 0.785266
Si Si8 0.813457 0.207751 0.750796
O O1 0.656974 0.088459 0.203890
O O2 0.416473 0.067735 0.646079
O O3 0.500000 0.000000 0.000000
O O4 0.662809 1.000000 0.994214
O O5 0.275505 0.234935 0.890872
O O6 0.000004 0.283249 0.516299
O O7 0.235011 0.305094 0.056463
O O8 0.237536 0.345755 0.782998
O O9 0.447066 0.148629 0.053296
O O10 0.500004 0.250000 0.018234
O O11 0.416470 0.932265 0.603334
O O12 0.237528 0.845757 0.429595
O O13 0.343030 0.088460 0.232973
O O14 0.552940 0.148629 0.712106
O O15 0.500000 0.000000 0.500000
O O16 0.764996 0.194906 0.851441
O O17 0.724502 0.234935 0.064369
#
# Coordination Sequence:
#
# PCOD8123625 Si02
#       8
#     4   4   4   4   4   4   4   4
#     4   9  18  32  56  86 101 125 183 237 261 301
#     4  11  22  34  51  81 115 144 172 211 264 322
#     4  10  20  34  54  78 109 143 182 214 251 315
#     4  10  18  34  57  82 105 141 176 220 265 311
#     4  10  18  34  57  82 105 141 176 220 265 311
#     4   9  18  32  56  86 101 125 183 237 261 301
#     4  10  20  34  54  78 109 143 182 214 251 315
#     4  11  22  34  51  81 115 144 172 211 264 322
#
# _framework density 18.551310999999998
#
# number of rings (size 3 to 8) (size 9 to 14) (size 15 to 20)
#    0.000    2.000    2.500    3.000    3.500    0.000 
#    0.000    0.000    0.000    7.500    0.000    0.000 
#    0.000    0.000    0.000    0.000    0.000    0.000 
#
# Total GULP energy -396441.165767 kJ/mol
# GULP energy per Si atom -12388.786430 kJ/mol
# Density = 1.850909 g / cm^3
# Si number density = 18.551311 Si / 1000 Ang^3
#
#
#
# Elastic Constant Matrix: (Units=GPa)
#
#
# Indices 1 2 3 4 5 6 
#
# 1 88.1171 34.8266 34.5234 0.0000 -10.0150 0.0000
# 2 34.8266 87.1661 28.2901 0.0000 -4.9155 0.0000
# 3 34.5234 28.2901 80.0397 0.0000 3.9402 0.0000
# 4 0.0000 0.0000 0.0000 16.4707 0.0000 -15.4904
# 5 -10.0150 -4.9155 3.9402 0.0000 30.6344 0.0000
# 6 0.0000 0.0000 0.0000 -15.4904 0.0000 37.0658
#
#
#
# Elastic Compliance Matrix: (Units=1/GPa)
#
#
# Indices 1 2 3 4 5 6 
#
# 1 0.015788 -0.004203 -0.005580 0.000000 0.005205 0.000000
# 2 -0.004203 0.014301 -0.003308 0.000000 0.001346 0.000000
# 3 -0.005580 -0.003308 0.016289 0.000000 -0.004450 0.000000
# 4 0.000000 0.000000 0.000000 0.100030 0.000000 0.041804
# 5 0.005205 0.001346 -0.004450 0.000000 0.035133 0.000000
# 6 0.000000 0.000000 0.000000 0.041804 0.000000 0.044450
#
#
# Mechanical properties :
#
#
# Convention : Reuss Voigt Hill
#
# Bulk Modulus (GPa) = 49.51766 50.06701 49.79233
# Shear Modulus (GPa) = 19.31213 27.34635 23.32924
#
# Velocity S-wave (km/s) = 3.22997 3.84356 3.55005
# Velocity P-wave (km/s) = 6.37656 6.83697 6.61078
#
# Compressibility (1/GPa) = 0.02019482
#
# Stress axis : x y z
#
# Youngs Moduli (GPa) = 63.34097 69.92371 61.39099
#
# Poissons Ratio (x) = 0.29391 0.34257
# Poissons Ratio (y) = 0.26624 0.20309
# Poissons Ratio (z) = 0.35346 0.23132
#
# Static dielectric constant tensor:
#      x y z
#    x 3.731460 0.000000 -0.456340 
#    y 0.000000 4.050610 0.000000 
#    z -0.456340 0.000000 3.124710 
# 
# 
# High freq. dielectric constant tensor:
#      x y z
#    x 1.724420 0.000000 -0.038980 
#    y 0.000000 1.735980 0.000000 
#    z -0.038980 0.000000 1.672580 
# 
# From -- ./inp_files/17054.got.cif
#   From: 2010.03.12/outbox.cif.g09.slc.cpg/sg14_9_cif.got.tgz:17054.got - 2010.03.31 13:35:05.
