data_PCOD8123700
_publ_section_title
;
Structure prediction by ZEFSAII (Michael W. Deem and Ramdas Pophale) SiO2 
 PCOD8123700
Probable space group: P 21/C
;
_chemical_formula_sum "Si O2"
_cell_formula_units_Z 28
_cell_length_a 14.177951
_cell_length_b 18.774440
_cell_length_c 8.079818
_cell_angle_alpha 90.000000
_cell_angle_beta 141.802840
_cell_angle_gamma 90.000000
_cell_volume 1329.933914
_symmetry_space_group_name_H-M "P 21/C"
_symmetry_group_IT_number 14
_symmetry_cell_setting 'monoclinic'
loop_
_space_group_symop_operation_xyz
x,y,z
-x,1/2+y,1/2-z
-x,-y,-z
x,1/2-y,1/2+z
loop_
_atom_site_type_symbol
_atom_site_label
_atom_site_fract_x
_atom_site_fract_y
_atom_site_fract_z
Si Si1 0.244355 0.663542 0.794301
Si Si2 0.077480 0.475501 0.352089
Si Si3 0.187804 0.562148 0.228137
Si Si4 0.597727 0.049887 0.275202
Si Si5 0.920605 0.898637 0.822121
Si Si6 0.402268 0.392439 0.244106
Si Si7 0.339775 0.808323 0.066895
O O1 0.338793 0.675777 0.759170
O O2 0.060691 0.657956 0.516497
O O3 0.300208 0.589171 0.948822
O O4 0.291582 0.726373 0.982809
O O5 0.208302 0.517621 0.429665
O O6 0.134896 0.418056 0.566448
O O7 0.967894 0.530213 0.294198
O O8 0.982765 0.436654 0.077266
O O9 0.305673 0.532444 0.257509
O O10 0.214022 0.645031 0.300178
O O11 0.562341 0.970082 0.294389
O O12 0.454457 0.098119 0.010856
O O13 0.774267 0.868584 0.519920
O O14 0.496107 0.329770 0.282231
#
# Coordination Sequence:
#
# PCOD8123700 Si02
#       7
#     4   4   4   4   4   4   4
#     4  12  24  45  68  88 125 180 222 259 320 401
#     4  10  19  33  63  98 135 156 209 262 324 365
#     4  10  18  35  60  98 128 170 202 258 313 390
#     4  10  20  40  65  93 138 172 204 265 328 387
#     4  11  20  39  65  98 126 163 212 280 303 381
#     4  10  22  40  63 100 132 161 210 273 327 373
#     4  11  25  41  65  89 128 178 216 255 326 402
#
# _framework density 21.053678000000001
#
# number of rings (size 3 to 8) (size 9 to 14) (size 15 to 20)
#    0.000    1.429    4.286    2.571    0.000    0.571 
#    5.143    2.857    0.000    0.000    0.000    0.000 
#    0.000    0.000    0.000    0.000    0.000    0.000 
#
# Total GULP energy -346924.248719 kJ/mol
# GULP energy per Si atom -12390.151740 kJ/mol
# Density = 2.100576 g / cm^3
# Si number density = 21.053678 Si / 1000 Ang^3
#
#
#
# Elastic Constant Matrix: (Units=GPa)
#
#
# Indices 1 2 3 4 5 6 
#
# 1 48.9532 8.1218 21.4791 0.0000 -12.4903 0.0000
# 2 8.1218 67.8497 18.7268 0.0000 9.0274 0.0000
# 3 21.4791 18.7268 114.0823 0.0000 16.4652 0.0000
# 4 0.0000 0.0000 0.0000 34.5477 0.0000 1.1365
# 5 -12.4903 9.0274 16.4652 0.0000 27.4999 0.0000
# 6 0.0000 0.0000 0.0000 1.1365 0.0000 22.7348
#
#
#
# Elastic Compliance Matrix: (Units=1/GPa)
#
#
# Indices 1 2 3 4 5 6 
#
# 1 0.029338 -0.003956 -0.007646 0.000000 0.019202 0.000000
# 2 -0.003956 0.016360 -0.000992 0.000000 -0.006574 0.000000
# 3 -0.007646 -0.000992 0.011846 0.000000 -0.010239 0.000000
# 4 0.000000 0.000000 0.000000 0.028993 0.000000 -0.001449
# 5 0.019202 -0.006574 -0.010239 0.000000 0.053374 0.000000
# 6 0.000000 0.000000 0.000000 -0.001449 0.000000 0.044058
#
#
# Mechanical properties :
#
#
# Convention : Reuss Voigt Hill
#
# Bulk Modulus (GPa) = 30.90576 36.39340 33.64958
# Shear Modulus (GPa) = 22.73325 29.12697 25.93011
#
# Velocity S-wave (km/s) = 3.28956 3.72353 3.51325
# Velocity P-wave (km/s) = 5.39811 5.98412 5.69866
#
# Compressibility (1/GPa) = 0.03235643
#
# Stress axis : x y z
#
# Youngs Moduli (GPa) = 34.08551 61.12295 84.41853
#
# Poissons Ratio (x) = 0.24183 0.64543
# Poissons Ratio (y) = 0.13486 0.08374
# Poissons Ratio (z) = 0.26060 0.06063
#
# Static dielectric constant tensor:
#      x y z
#    x 3.808570 0.000000 -0.138020 
#    y 0.000000 3.653480 0.000000 
#    z -0.138020 0.000000 4.089990 
# 
# 
# High freq. dielectric constant tensor:
#      x y z
#    x 1.808600 0.000000 -0.011190 
#    y 0.000000 1.795180 0.000000 
#    z -0.011190 0.000000 1.834840 
# 
# From -- ./inp_files/16686.got.cif
#   From: 2010.03.12/outbox.cif.g09.slc.cpg/sg14_9_cif.got.tgz:16686.got - 2010.03.31 13:35:05.
