data_PCOD8123225
_publ_section_title
;
Structure prediction by ZEFSAII (Michael W. Deem and Ramdas Pophale) SiO2 
 PCOD8123225
Probable space group: P 2/C
;
_chemical_formula_sum "Si O2"
_cell_formula_units_Z 24
_cell_length_a 15.451556
_cell_length_b 13.743720
_cell_length_c 16.639161
_cell_angle_alpha 90.000000
_cell_angle_beta 157.857661
_cell_angle_gamma 90.000000
_cell_volume 1331.816059
_symmetry_space_group_name_H-M "P 2/C"
_symmetry_group_IT_number 13
_symmetry_cell_setting 'monoclinic'
loop_
_space_group_symop_operation_xyz
x,y,z
-x,y,1/2-z
-x,-y,-z
x,-y,1/2+z
loop_
_atom_site_type_symbol
_atom_site_label
_atom_site_fract_x
_atom_site_fract_y
_atom_site_fract_z
Si Si1 0.529276 0.861374 0.865202
Si Si2 0.069252 0.359258 0.072709
Si Si3 0.069252 0.140742 0.072708
Si Si4 0.251133 0.969724 0.313028
Si Si5 0.529276 0.638626 0.865202
Si Si6 0.748867 0.530275 0.186972
O O1 0.500000 0.901897 0.750000
O O2 0.288370 0.870428 0.703518
O O3 0.615005 0.750000 0.937280
O O4 0.728015 0.925930 0.079189
O O5 0.045119 0.250000 0.085637
O O6 0.288369 0.370428 0.203518
O O7 0.090437 0.433835 0.166696
O O8 0.844137 0.385497 0.827670
O O9 0.090436 0.066164 0.166695
O O10 0.844137 0.114504 0.827669
O O11 0.500000 0.000000 0.500000
O O12 0.500000 0.598103 0.750000
O O13 0.728015 0.574070 0.079189
O O14 0.500000 0.500000 0.000000
#
# Coordination Sequence:
#
# PCOD8123225 Si02
#       6
#     4   4   4   4   4   4
#     4   9  17  28  44  69  97 119 140 173 219 266
#     4   9  17  29  46  67  89 116 149 181 216 258
#     4   9  17  29  46  67  89 116 149 181 216 258
#     4   9  17  29  44  64  89 118 149 181 216 256
#     4   9  17  28  44  69  97 119 140 173 219 266
#     4   9  17  29  44  64  89 118 149 181 216 256
#
# _framework density 18.020506999999998
#
# number of rings (size 3 to 8) (size 9 to 14) (size 15 to 20)
#    0.000    3.000    0.000    1.000    0.000    2.667 
#    0.000    5.000    0.000    1.000    0.000   21.000 
#    0.000    0.000    0.000    0.000    0.000    0.000 
#
# Total GULP energy -297393.706759 kJ/mol
# GULP energy per Si atom -12391.404448 kJ/mol
# Density = 1.797949 g / cm^3
# Si number density = 18.020507 Si / 1000 Ang^3
#
#
#
# Elastic Constant Matrix: (Units=GPa)
#
#
# Indices 1 2 3 4 5 6 
#
# 1 44.1712 36.0548 33.0919 0.0000 -31.0019 0.0000
# 2 36.0548 135.2315 65.9604 0.0000 -33.9161 0.0000
# 3 33.0919 65.9604 123.1386 0.0000 -41.6309 0.0000
# 4 0.0000 0.0000 0.0000 33.0974 0.0000 -8.9041
# 5 -31.0019 -33.9161 -41.6309 0.0000 37.8967 0.0000
# 6 0.0000 0.0000 0.0000 -8.9041 0.0000 21.6290
#
#
#
# Elastic Compliance Matrix: (Units=1/GPa)
#
#
# Indices 1 2 3 4 5 6 
#
# 1 0.055554 -0.005109 0.002587 0.000000 0.043716 0.000000
# 2 -0.005109 0.011082 -0.004173 0.000000 0.001154 0.000000
# 3 0.002587 -0.004173 0.014499 0.000000 0.014309 0.000000
# 4 0.000000 0.000000 0.000000 0.033977 0.000000 0.013987
# 5 0.043716 0.001154 0.014309 0.000000 0.078901 0.000000
# 6 0.000000 0.000000 0.000000 0.013987 0.000000 0.051992
#
#
# Mechanical properties :
#
#
# Convention : Reuss Voigt Hill
#
# Bulk Modulus (GPa) = 14.76156 63.63951 39.20054
# Shear Modulus (GPa) = 17.73200 29.68692 23.70946
#
# Velocity S-wave (km/s) = 3.14026 4.06322 3.63118
# Velocity P-wave (km/s) = 4.62144 7.57659 6.27544
#
# Compressibility (1/GPa) = 0.06774352
#
# Stress axis : x y z
#
# Youngs Moduli (GPa) = 18.00058 90.23886 68.97244
#
# Poissons Ratio (x) = 0.46107 -0.17843
# Poissons Ratio (y) = 0.09197 0.28781
# Poissons Ratio (z) = -0.04657 0.37655
#
# Static dielectric constant tensor:
#      x y z
#    x 3.004660 0.000000 -0.340130 
#    y 0.000000 3.788040 0.000000 
#    z -0.340130 0.000000 3.737960 
# 
# 
# High freq. dielectric constant tensor:
#      x y z
#    x 1.638450 0.000000 -0.014190 
#    y 0.000000 1.703910 0.000000 
#    z -0.014190 0.000000 1.718690 
# 
# From -- ./inp_files/44086.got.cif
#   From: 2010.06.25/outbox.cif.g09.slc.cpg/sg13_23_cif.got.tgz:44086.got - 2010.06.28 04:50:58.
