data_PCOD8123015
_publ_section_title
;
Structure prediction by ZEFSAII (Michael W. Deem and Ramdas Pophale) SiO2 
 PCOD8123015
Probable space group: P 2/C
;
_chemical_formula_sum "Si O2"
_cell_formula_units_Z 16
_cell_length_a 4.794328
_cell_length_b 9.364294
_cell_length_c 14.506325
_cell_angle_alpha 90.000000
_cell_angle_beta 70.922739
_cell_angle_gamma 90.000000
_cell_volume 615.500148
_symmetry_space_group_name_H-M "P 2/C"
_symmetry_group_IT_number 13
_symmetry_cell_setting 'monoclinic'
loop_
_space_group_symop_operation_xyz
x,y,z
-x,y,1/2-z
-x,-y,-z
x,-y,1/2+z
loop_
_atom_site_type_symbol
_atom_site_label
_atom_site_fract_x
_atom_site_fract_y
_atom_site_fract_z
Si Si1 0.432827 0.535917 0.148936
Si Si2 0.000000 0.246738 0.750000
Si Si3 0.751086 0.111916 0.057052
Si Si4 0.721649 0.296856 0.467663
Si Si5 0.500000 0.954741 0.250000
O O1 0.500000 0.524473 0.250000
O O2 0.337319 0.382813 0.120510
O O3 0.171269 0.650446 0.160632
O O4 0.701522 0.600944 0.059671
O O5 0.215079 0.146098 0.784848
O O6 0.523374 0.166753 0.001822
O O7 0.941170 0.244900 0.075146
O O8 0.525801 0.052938 0.157845
O O9 0.000000 0.000000 0.000000
#
# Coordination Sequence:
#
# PCOD8123015 Si02
#       5
#     4   2   4   4   2
#     4  11  27  47  78 107 149 195 244 311 370 439
#     4  12  24  44  74 108 142 196 252 290 372 448
#     4  12  26  49  74 107 155 193 246 310 359 448
#     4  11  28  47  75 111 147 190 251 304 372 435
#     4  12  26  44  76 106 148 204 246 300 378 436
#
# _framework density 25.995118000000002
#
# number of rings (size 3 to 8) (size 9 to 14) (size 15 to 20)
#    0.000    0.500    1.250    5.250    8.750    2.000 
#    0.000    0.000    0.000    0.000    0.000    0.000 
#    0.000    0.000    0.000    0.000    0.000    0.000 
#
# Total GULP energy -198391.497736 kJ/mol
# GULP energy per Si atom -12399.468609 kJ/mol
# Density = 2.593595 g / cm^3
# Si number density = 25.995118 Si / 1000 Ang^3
#
#
#
# Elastic Constant Matrix: (Units=GPa)
#
#
# Indices 1 2 3 4 5 6 
#
# 1 105.3366 -7.7461 6.0383 0.0000 -0.9320 0.0000
# 2 -7.7461 47.8972 18.7229 0.0000 -6.1867 0.0000
# 3 6.0383 18.7229 129.5164 0.0000 8.0548 0.0000
# 4 0.0000 0.0000 0.0000 54.5537 0.0000 -33.8896
# 5 -0.9320 -6.1867 8.0548 0.0000 34.4475 0.0000
# 6 0.0000 0.0000 0.0000 -33.8896 0.0000 64.6622
#
#
#
# Elastic Compliance Matrix: (Units=1/GPa)
#
#
# Indices 1 2 3 4 5 6 
#
# 1 0.009691 0.001979 -0.000788 0.000000 0.000802 0.000000
# 2 0.001979 0.023340 -0.003785 0.000000 0.005131 0.000000
# 3 -0.000788 -0.003785 0.008472 0.000000 -0.002682 0.000000
# 4 0.000000 0.000000 0.000000 0.027180 0.000000 0.014245
# 5 0.000802 0.005131 -0.002682 0.000000 0.030600 0.000000
# 6 0.000000 0.000000 0.000000 0.014245 0.000000 0.022931
#
#
# Mechanical properties :
#
#
# Convention : Reuss Voigt Hill
#
# Bulk Modulus (GPa) = 27.53713 35.19782 31.36747
# Shear Modulus (GPa) = 35.84036 48.44837 42.14436
#
# Velocity S-wave (km/s) = 3.71716 4.32180 4.03083
# Velocity P-wave (km/s) = 5.38881 6.20270 5.81002
#
# Compressibility (1/GPa) = 0.03631461
#
# Stress axis : x y z
#
# Youngs Moduli (GPa) = 103.18709 42.84407 118.03904
#
# Poissons Ratio (x) = -0.08478 0.09298
# Poissons Ratio (y) = -0.20418 0.44683
# Poissons Ratio (z) = 0.08128 0.16218
#
# Static dielectric constant tensor:
#      x y z
#    x 4.688210 0.000000 -0.252650 
#    y 0.000000 5.094710 0.000000 
#    z -0.252650 0.000000 4.360320 
# 
# 
# High freq. dielectric constant tensor:
#      x y z
#    x 2.046660 0.000000 -0.007040 
#    y 0.000000 2.061810 0.000000 
#    z -0.007040 0.000000 2.027930 
# 
# From -- ./inp_files/43237.got.cif
#   From: 2010.06.25/outbox.cif.g09.slc.cpg/sg13_22_cif.got.tgz:43237.got - 2010.06.28 04:50:58.
