data_PCOD8123689
_publ_section_title
;
Structure prediction by ZEFSAII (Michael W. Deem and Ramdas Pophale) SiO2 
 PCOD8123689
Probable space group: P 21/C
;
_chemical_formula_sum "Si O2"
_cell_formula_units_Z 20
_cell_length_a 11.600177
_cell_length_b 16.865231
_cell_length_c 5.278059
_cell_angle_alpha 90.000000
_cell_angle_beta 77.469253
_cell_angle_gamma 90.000000
_cell_volume 1008.000924
_symmetry_space_group_name_H-M "P 21/C"
_symmetry_group_IT_number 14
_symmetry_cell_setting 'monoclinic'
loop_
_space_group_symop_operation_xyz
x,y,z
-x,1/2+y,1/2-z
-x,-y,-z
x,1/2-y,1/2+z
loop_
_atom_site_type_symbol
_atom_site_label
_atom_site_fract_x
_atom_site_fract_y
_atom_site_fract_z
Si Si1 0.868713 0.553489 0.301618
Si Si2 0.862687 0.453617 0.802545
Si Si3 0.651580 0.657127 0.436805
Si Si4 0.279499 0.795584 0.606960
Si Si5 0.446753 0.328757 0.016354
O O1 0.836832 0.494350 0.545696
O O2 0.788274 0.631746 0.362408
O O3 0.004326 0.580800 0.256146
O O4 0.843098 0.513751 0.043100
O O5 0.771319 0.383143 0.879530
O O6 0.639800 0.752126 0.449981
O O7 0.581217 0.621887 0.225582
O O8 0.588018 0.620618 0.718163
O O9 0.234689 0.747852 0.382187
O O10 0.420243 0.799361 0.536146
#
# Coordination Sequence:
#
# PCOD8123689 Si02
#       5
#     4   4   4   4   4
#     4  10  21  42  60  83 122 150 194 241 286 348
#     4  10  23  40  61  85 115 159 191 239 292 337
#     4  10  18  35  59  82 112 158 181 235 293 331
#     4  12  21  40  62  83 120 153 192 239 289 342
#     4  10  19  35  57  83 118 149 187 238 287 330
#
# _framework density 19.841252000000001
#
# number of rings (size 3 to 8) (size 9 to 14) (size 15 to 20)
#    0.000    1.600    4.000    2.400    0.000    0.000 
#    7.200    6.000    0.000    0.000    0.000    0.000 
#    0.000    0.000    0.000    0.000    0.000    0.000 
#
# Total GULP energy -247925.226545 kJ/mol
# GULP energy per Si atom -12396.261327 kJ/mol
# Density = 1.979609 g / cm^3
# Si number density = 19.841252 Si / 1000 Ang^3
#
#
#
# Elastic Constant Matrix: (Units=GPa)
#
#
# Indices 1 2 3 4 5 6 
#
# 1 64.2899 41.2986 29.0501 0.0000 -4.9379 0.0000
# 2 41.2986 53.0784 9.5991 0.0000 -17.9315 0.0000
# 3 29.0501 9.5991 158.8177 0.0000 20.7237 0.0000
# 4 0.0000 0.0000 0.0000 24.2425 0.0000 -8.1777
# 5 -4.9379 -17.9315 20.7237 0.0000 28.7858 0.0000
# 6 0.0000 0.0000 0.0000 -8.1777 0.0000 32.0023
#
#
#
# Elastic Compliance Matrix: (Units=1/GPa)
#
#
# Indices 1 2 3 4 5 6 
#
# 1 0.036396 -0.031404 -0.003335 0.000000 -0.010919 0.000000
# 2 -0.031404 0.053147 -0.001198 0.000000 0.028582 0.000000
# 3 -0.003335 -0.001198 0.007892 0.000000 -0.007000 0.000000
# 4 0.000000 0.000000 0.000000 0.045141 0.000000 0.011535
# 5 -0.010919 0.028582 -0.007000 0.000000 0.055710 0.000000
# 6 0.000000 0.000000 0.000000 0.011535 0.000000 0.034195
#
#
# Mechanical properties :
#
#
# Convention : Reuss Voigt Hill
#
# Bulk Modulus (GPa) = 39.11932 48.45350 43.78641
# Shear Modulus (GPa) = 15.98075 30.08866 23.03471
#
# Velocity S-wave (km/s) = 2.84109 3.89841 3.41097
# Velocity P-wave (km/s) = 5.52461 6.68858 6.13427
#
# Compressibility (1/GPa) = 0.02556282
#
# Stress axis : x y z
#
# Youngs Moduli (GPa) = 27.47533 18.81562 126.70678
#
# Poissons Ratio (x) = 0.59089 0.42251
# Poissons Ratio (y) = 0.86285 0.15174
# Poissons Ratio (z) = 0.09162 0.02253
#
# Static dielectric constant tensor:
#      x y z
#    x 3.650580 0.000000 0.422300 
#    y 0.000000 3.096630 0.000000 
#    z 0.422300 0.000000 4.947490 
# 
# 
# High freq. dielectric constant tensor:
#      x y z
#    x 1.770300 0.000000 0.012860 
#    y 0.000000 1.728010 0.000000 
#    z 0.012860 0.000000 1.814560 
# 
# From -- ./inp_files/2499.got.cif
#   From: 2010.03.12/outbox.cif.g09.slc.cpg/sg14_2_cif.got.tgz:2499.got - 2010.03.31 13:35:05.
