data_PCOD8123769
_publ_section_title
;
Structure prediction by ZEFSAII (Michael W. Deem and Ramdas Pophale) SiO2 
 PCOD8123769
Probable space group: P 21/C
;
_chemical_formula_sum "Si O2"
_cell_formula_units_Z 32
_cell_length_a 13.152964
_cell_length_b 16.812811
_cell_length_c 11.640983
_cell_angle_alpha 90.000000
_cell_angle_beta 32.269920
_cell_angle_gamma 90.000000
_cell_volume 1374.423166
_symmetry_space_group_name_H-M "P 21/C"
_symmetry_group_IT_number 14
_symmetry_cell_setting 'monoclinic'
loop_
_space_group_symop_operation_xyz
x,y,z
-x,1/2+y,1/2-z
-x,-y,-z
x,1/2-y,1/2+z
loop_
_atom_site_type_symbol
_atom_site_label
_atom_site_fract_x
_atom_site_fract_y
_atom_site_fract_z
Si Si1 0.364853 0.800959 0.905565
Si Si2 0.655033 0.662506 0.315816
Si Si3 0.647005 0.138161 0.494218
Si Si4 0.625449 0.676484 0.944615
Si Si5 0.873105 0.527806 0.015893
Si Si6 0.169618 0.952603 0.045539
Si Si7 0.520425 0.945076 0.148084
Si Si8 0.272575 0.493098 0.201793
O O1 0.456239 0.826273 0.939557
O O2 0.544019 0.800298 0.646808
O O3 0.263772 0.714611 0.024755
O O4 0.195745 0.857017 0.020099
O O5 0.735654 0.746814 0.287083
O O6 0.816264 0.620782 0.084077
O O7 0.619946 0.600757 0.451053
O O8 0.559625 0.161744 0.455949
O O9 0.478624 0.109850 0.739864
O O10 0.786747 0.062304 0.334193
O O11 0.763120 0.597200 0.812801
O O12 0.690627 0.470953 0.185715
O O13 0.000000 0.500000 0.000000
O O14 0.982263 0.520333 0.791053
O O15 0.155989 0.990357 0.930794
O O16 0.358018 0.978053 0.934922
O O17 0.500000 0.500000 0.000000
#
# Coordination Sequence:
#
# PCOD8123769 Si02
#       8
#     4   4   4   4   4   4   4   4
#     4  11  20  37  67  95 131 170 216 274 332 391
#     4  11  23  38  65  98 129 175 222 270 334 399
#     4  10  20  35  68  99 122 172 228 256 329 403
#     4  10  19  36  67 100 126 173 224 272 329 396
#     4  12  26  40  63 102 133 174 227 270 335 402
#     4  12  22  41  69  94 134 174 217 277 331 394
#     4  12  21  43  68  94 127 175 220 270 337 397
#     4  10  18  36  67  96 128 173 223 266 327 399
#
# _framework density 23.282492999999999
#
# number of rings (size 3 to 8) (size 9 to 14) (size 15 to 20)
#    0.000    1.000    8.750    1.125    0.000    0.000 
#    0.000    1.875    2.750    0.000    0.000    0.000 
#    0.000    0.000    0.000    0.000    0.000    0.000 
#
# Total GULP energy -396549.492248 kJ/mol
# GULP energy per Si atom -12392.171633 kJ/mol
# Density = 2.322950 g / cm^3
# Si number density = 23.282493 Si / 1000 Ang^3
#
#
#
# Elastic Constant Matrix: (Units=GPa)
#
#
# Indices 1 2 3 4 5 6 
#
# 1 56.6212 36.5875 20.6979 0.0000 14.4006 0.0000
# 2 36.5875 180.4679 39.5315 0.0000 9.5646 0.0000
# 3 20.6979 39.5315 99.0622 0.0000 24.5732 0.0000
# 4 0.0000 0.0000 0.0000 35.0924 0.0000 15.1431
# 5 14.4006 9.5646 24.5732 0.0000 35.4915 0.0000
# 6 0.0000 0.0000 0.0000 15.1431 0.0000 28.8657
#
#
#
# Elastic Compliance Matrix: (Units=1/GPa)
#
#
# Indices 1 2 3 4 5 6 
#
# 1 0.022484 -0.003878 -0.001384 0.000000 -0.007119 0.000000
# 2 -0.003878 0.006741 -0.002197 0.000000 0.001278 0.000000
# 3 -0.001384 -0.002197 0.013250 0.000000 -0.008020 0.000000
# 4 0.000000 0.000000 0.000000 0.036835 0.000000 -0.019324
# 5 -0.007119 0.001278 -0.008020 0.000000 0.036273 0.000000
# 6 0.000000 0.000000 0.000000 -0.019324 0.000000 0.044780
#
#
# Mechanical properties :
#
#
# Convention : Reuss Voigt Hill
#
# Bulk Modulus (GPa) = 36.28843 58.86500 47.57671
# Shear Modulus (GPa) = 27.10533 35.84556 31.47544
#
# Velocity S-wave (km/s) = 3.41573 3.92802 3.68080
# Velocity P-wave (km/s) = 5.58357 6.77571 6.20832
#
# Compressibility (1/GPa) = 0.02755700
#
# Stress axis : x y z
#
# Youngs Moduli (GPa) = 44.47684 148.35078 75.47177
#
# Poissons Ratio (x) = 0.57526 0.10447
# Poissons Ratio (y) = 0.17247 0.16579
# Poissons Ratio (z) = 0.06157 0.32588
#
# Static dielectric constant tensor:
#      x y z
#    x 4.015620 0.000000 0.482350 
#    y 0.000000 5.019740 0.000000 
#    z 0.482350 0.000000 4.090220 
# 
# 
# High freq. dielectric constant tensor:
#      x y z
#    x 1.906460 0.000000 0.040660 
#    y 0.000000 1.940130 0.000000 
#    z 0.040660 0.000000 1.901480 
# 
# From -- ./inp_files/33041.got.cif
#   From: 2010.03.12/outbox.cif.g09.slc.cpg/sg14_17_cif.got.tgz:33041.got - 2010.03.31 13:35:05.
