data_PCOD8123070
_publ_section_title
;
Structure prediction by ZEFSAII (Michael W. Deem and Ramdas Pophale) SiO2 
 PCOD8123070
Probable space group: P 2/C
;
_chemical_formula_sum "Si O2"
_cell_formula_units_Z 20
_cell_length_a 8.916306
_cell_length_b 11.979337
_cell_length_c 8.647572
_cell_angle_alpha 90.000000
_cell_angle_beta 95.622382
_cell_angle_gamma 90.000000
_cell_volume 919.216032
_symmetry_space_group_name_H-M "P 2/C"
_symmetry_group_IT_number 13
_symmetry_cell_setting 'monoclinic'
loop_
_space_group_symop_operation_xyz
x,y,z
-x,y,1/2-z
-x,-y,-z
x,-y,1/2+z
loop_
_atom_site_type_symbol
_atom_site_label
_atom_site_fract_x
_atom_site_fract_y
_atom_site_fract_z
Si Si1 0.154518 0.758844 0.344381
Si Si2 0.394664 0.303399 0.374369
Si Si3 0.143480 0.647596 0.665167
Si Si4 0.666087 0.423461 0.833408
Si Si5 0.555584 0.886629 0.082160
O O1 0.103183 0.692736 0.492538
O O2 0.245115 0.677378 0.240068
O O3 0.263283 0.864165 0.399176
O O4 0.000000 0.802987 0.250000
O O5 0.500000 0.353219 0.250000
O O6 0.242189 0.261072 0.271749
O O7 0.349393 0.402338 0.485161
O O8 0.476722 0.206911 0.473402
O O9 0.242754 0.536679 0.669271
O O10 0.000000 0.616319 0.750000
O O11 0.500000 0.431122 0.750000
O O12 0.500000 0.881141 0.250000
O O13 0.500000 0.000000 0.000000
#
# Coordination Sequence:
#
# PCOD8123070 Si02
#       5
#     4   4   4   4   4
#     4  12  25  47  71 104 148 188 230 293 361 419
#     4  12  22  44  70 103 138 187 241 289 349 416
#     4  12  27  41  67 107 148 193 236 288 343 422
#     4  12  23  43  69 104 149 194 242 284 342 421
#     4  12  26  50  78 107 133 180 235 301 362 428
#
# _framework density 21.757670000000001
#
# number of rings (size 3 to 8) (size 9 to 14) (size 15 to 20)
#    0.000    0.000    6.000    4.200    0.000    4.800 
#    0.000    4.000    0.000    0.000    0.000    0.000 
#    0.000    0.000    0.000    0.000    0.000    0.000 
#
# Total GULP energy -247910.123515 kJ/mol
# GULP energy per Si atom -12395.506176 kJ/mol
# Density = 2.170815 g / cm^3
# Si number density = 21.757670 Si / 1000 Ang^3
#
#
#
# Elastic Constant Matrix: (Units=GPa)
#
#
# Indices 1 2 3 4 5 6 
#
# 1 175.3222 71.2585 82.6478 0.0000 14.3071 0.0000
# 2 71.2585 73.6199 41.6255 0.0000 7.8667 0.0000
# 3 82.6478 41.6255 169.3642 0.0000 -6.0652 0.0000
# 4 0.0000 0.0000 0.0000 -28.7099 0.0000 -0.9823
# 5 14.3071 7.8667 -6.0652 0.0000 58.7690 0.0000
# 6 0.0000 0.0000 0.0000 -0.9823 0.0000 19.1642
#
#
#
# Elastic Compliance Matrix: (Units=1/GPa)
#
#
# Indices 1 2 3 4 5 6 
#
# 1 0.010824 -0.008427 -0.003277 0.000000 -0.001845 0.000000
# 2 -0.008427 0.022717 -0.001512 0.000000 -0.001145 0.000000
# 3 -0.003277 -0.001512 0.007940 0.000000 0.001820 0.000000
# 4 0.000000 0.000000 0.000000 -0.034770 0.000000 -0.001782
# 5 -0.001845 -0.001145 0.001820 0.000000 0.017806 0.000000
# 6 0.000000 0.000000 0.000000 -0.001782 0.000000 0.052089
#
#
# Mechanical properties :
#
#
# Convention : Reuss Voigt Hill
#
# Bulk Modulus (GPa) = 66.44648 89.92999 78.18823
# Shear Modulus (GPa) = 46.27216 24.69629 35.48423
#
# Velocity S-wave (km/s) = 4.61663 3.37272 4.04280
# Velocity P-wave (km/s) = 7.68266 7.52258 7.60304
#
# Compressibility (1/GPa) = 0.01504971
#
# Stress axis : x y z
#
# Youngs Moduli (GPa) = 92.38451 44.01913 125.93825
#
# Poissons Ratio (x) = 0.37095 0.41271
# Poissons Ratio (y) = 0.77853 0.19043
# Poissons Ratio (z) = 0.30275 0.06656
#
# Static dielectric constant tensor:
#      x y z
#    x 4.325010 0.000000 -0.506200 
#    y 0.000000 3.925440 0.000000 
#    z -0.506200 0.000000 4.082800 
# 
# 
# High freq. dielectric constant tensor:
#      x y z
#    x 1.872390 0.000000 0.003190 
#    y 0.000000 1.818170 0.000000 
#    z 0.003190 0.000000 1.892870 
# 
# From -- ./inp_files/11868.got.cif
#   From: 2010.06.25/outbox.cif.g09.slc.cpg/sg13_6_cif.got.tgz:11868.got - 2010.06.28 04:50:58.
