data_PCOD8123877
_publ_section_title
;
Structure prediction by ZEFSAII (Michael W. Deem and Ramdas Pophale) SiO2 
 PCOD8123877
Probable space group: P 21/C
;
_chemical_formula_sum "Si O2"
_cell_formula_units_Z 24
_cell_length_a 13.599963
_cell_length_b 4.985255
_cell_length_c 27.029444
_cell_angle_alpha 90.000000
_cell_angle_beta 40.726667
_cell_angle_gamma 90.000000
_cell_volume 1195.667003
_symmetry_space_group_name_H-M "P 21/C"
_symmetry_group_IT_number 14
_symmetry_cell_setting 'monoclinic'
loop_
_space_group_symop_operation_xyz
x,y,z
-x,1/2+y,1/2-z
-x,-y,-z
x,1/2-y,1/2+z
loop_
_atom_site_type_symbol
_atom_site_label
_atom_site_fract_x
_atom_site_fract_y
_atom_site_fract_z
Si Si1 0.878100 0.715733 0.526105
Si Si2 0.769152 0.920659 0.970061
Si Si3 0.337854 0.588717 0.043849
Si Si4 0.134480 0.990213 0.376394
Si Si5 0.101254 0.943431 0.718939
Si Si6 0.117629 0.497220 0.322049
O O1 0.760728 0.570047 0.533739
O O2 0.000000 0.500000 0.500000
O O3 0.962479 0.941280 0.460251
O O4 0.787941 0.871503 0.604672
O O5 0.654267 0.134027 0.989973
O O6 0.938316 0.977120 0.888037
O O7 0.727035 0.626868 0.968712
O O8 0.231974 0.634339 0.131411
O O9 0.500000 0.500000 0.000000
O O10 0.194757 0.704574 0.332362
O O11 0.151766 0.193678 0.324441
O O12 0.178669 0.950019 0.743749
O O13 0.034754 0.232871 0.731064
#
# Coordination Sequence:
#
# PCOD8123877 Si02
#       6
#     4   4   4   4   4   4
#     4  10  19  29  52  83 121 144 178 232 310 344
#     4  11  21  35  58  81 119 154 189 240 291 343
#     4  12  25  41  56  83 122 160 198 237 286 348
#     4  10  19  29  46  81 121 141 171 232 295 353
#     4  12  22  36  59  85 110 154 200 244 289 338
#     4  11  19  32  53  80 116 142 186 231 293 332
#
# _framework density 20.072479999999999
#
# number of rings (size 3 to 8) (size 9 to 14) (size 15 to 20)
#    0.000    1.000    6.667    3.500    2.333    0.000 
#    0.000    0.000    0.000    0.000    0.000    4.667 
#    0.000    0.000    0.000    0.000    0.000    0.000 
#
# Total GULP energy -297410.894375 kJ/mol
# GULP energy per Si atom -12392.120599 kJ/mol
# Density = 2.002679 g / cm^3
# Si number density = 20.072480 Si / 1000 Ang^3
#
#
#
# Elastic Constant Matrix: (Units=GPa)
#
#
# Indices 1 2 3 4 5 6 
#
# 1 70.9843 18.6645 43.7242 0.0000 29.4852 0.0000
# 2 18.6645 104.3023 27.5911 0.0000 23.5788 0.0000
# 3 43.7242 27.5911 64.1318 0.0000 31.5174 0.0000
# 4 0.0000 0.0000 0.0000 23.1768 0.0000 17.5535
# 5 29.4852 23.5788 31.5174 0.0000 38.2503 0.0000
# 6 0.0000 0.0000 0.0000 17.5535 0.0000 33.0159
#
#
#
# Elastic Compliance Matrix: (Units=1/GPa)
#
#
# Indices 1 2 3 4 5 6 
#
# 1 0.026170 0.001090 -0.013557 0.000000 -0.009675 0.000000
# 2 0.001090 0.011406 -0.002995 0.000000 -0.005404 0.000000
# 3 -0.013557 -0.002995 0.033747 0.000000 -0.015510 0.000000
# 4 0.000000 0.000000 0.000000 0.072233 0.000000 -0.038404
# 5 -0.009675 -0.005404 -0.015510 0.000000 0.049712 0.000000
# 6 0.000000 0.000000 0.000000 -0.038404 0.000000 0.050706
#
#
# Mechanical properties :
#
#
# Convention : Reuss Voigt Hill
#
# Bulk Modulus (GPa) = 24.75235 46.59753 35.67494
# Shear Modulus (GPa) = 17.33916 28.85119 23.09517
#
# Velocity S-wave (km/s) = 2.94228 3.79535 3.39571
# Velocity P-wave (km/s) = 4.88886 6.51700 5.76074
#
# Compressibility (1/GPa) = 0.04040021
#
# Stress axis : x y z
#
# Youngs Moduli (GPa) = 38.21127 87.67106 29.63263
#
# Poissons Ratio (x) = -0.09558 0.40173
# Poissons Ratio (y) = -0.04166 0.08874
# Poissons Ratio (z) = 0.51803 0.26256
#
# Static dielectric constant tensor:
#      x y z
#    x 3.647570 0.000000 0.676490 
#    y 0.000000 4.108170 0.000000 
#    z 0.676490 0.000000 3.533790 
# 
# 
# High freq. dielectric constant tensor:
#      x y z
#    x 1.748410 0.000000 0.066740 
#    y 0.000000 1.810920 0.000000 
#    z 0.066740 0.000000 1.747280 
# 
# From -- ./inp_files/72615.got.cif
#   From: 2010.03.12/outbox.cif.g09.slc.cpg/sg14_37_cif.got.tgz:72615.got - 2010.03.31 13:35:05.
