data_PCOD8123615
_publ_section_title
;
Structure prediction by ZEFSAII (Michael W. Deem and Ramdas Pophale) SiO2 
 PCOD8123615
Probable space group: P 21/C
;
_chemical_formula_sum "Si O2"
_cell_formula_units_Z 28
_cell_length_a 6.443601
_cell_length_b 12.475009
_cell_length_c 20.344276
_cell_angle_alpha 90.000000
_cell_angle_beta 67.327676
_cell_angle_gamma 90.000000
_cell_volume 1508.980914
_symmetry_space_group_name_H-M "P 21/C"
_symmetry_group_IT_number 14
_symmetry_cell_setting 'monoclinic'
loop_
_space_group_symop_operation_xyz
x,y,z
-x,1/2+y,1/2-z
-x,-y,-z
x,1/2-y,1/2+z
loop_
_atom_site_type_symbol
_atom_site_label
_atom_site_fract_x
_atom_site_fract_y
_atom_site_fract_z
Si Si1 0.611147 0.283388 0.182783
Si Si2 0.440996 0.018406 0.288572
Si Si3 0.874732 0.346875 0.747242
Si Si4 0.813353 0.718821 0.187175
Si Si5 0.737148 0.394836 0.568803
Si Si6 0.286696 0.022007 0.158794
Si Si7 0.005514 0.909993 0.094202
O O1 0.610626 0.409397 0.165765
O O2 0.772960 0.257522 0.224531
O O3 0.358878 0.247106 0.232405
O O4 0.708338 0.218007 0.109454
O O5 0.700156 0.053267 0.266984
O O6 0.282872 0.112466 0.337134
O O7 0.387494 0.995243 0.218278
O O8 0.941434 0.310046 0.812863
O O9 0.103476 0.384009 0.684542
O O10 0.828113 0.816198 0.133711
O O11 0.489561 0.442181 0.586419
O O12 0.879934 0.478210 0.595446
O O13 0.856267 0.371116 0.485739
O O14 0.170805 0.921208 0.136762
#
# Coordination Sequence:
#
# PCOD8123615 Si02
#       7
#     4   4   4   4   4   4   4
#     4  11  19  36  56  82 111 147 185 234 273 339
#     4  10  21  33  58  85 112 142 192 236 280 326
#     4  10  18  34  56  82 111 139 189 231 280 322
#     4  10  21  35  56  82 113 147 189 230 282 328
#     4  11  22  37  56  87 116 149 191 227 284 337
#     4  11  17  36  54  84 111 145 186 232 281 332
#     4  11  23  37  58  83 120 151 183 235 283 335
#
# _framework density 18.555571
#
# number of rings (size 3 to 8) (size 9 to 14) (size 15 to 20)
#    0.000    1.429    5.714    3.000    0.000    2.286 
#    0.000    0.714    0.000    0.857    0.000    0.000 
#    0.000    0.000    0.000    0.000    0.000    0.000 
#
# Total GULP energy -347054.128100 kJ/mol
# GULP energy per Si atom -12394.790289 kJ/mol
# Density = 1.851334 g / cm^3
# Si number density = 18.555571 Si / 1000 Ang^3
#
#
#
# Elastic Constant Matrix: (Units=GPa)
#
#
# Indices 1 2 3 4 5 6 
#
# 1 95.7167 27.4885 29.0762 0.0000 -5.9606 0.0000
# 2 27.4885 116.7790 41.2880 0.0000 -2.6873 0.0000
# 3 29.0762 41.2880 82.7455 0.0000 -8.9270 0.0000
# 4 0.0000 0.0000 0.0000 29.4784 0.0000 -3.3815
# 5 -5.9606 -2.6873 -8.9270 0.0000 19.4712 0.0000
# 6 0.0000 0.0000 0.0000 -3.3815 0.0000 20.0045
#
#
#
# Elastic Compliance Matrix: (Units=1/GPa)
#
#
# Indices 1 2 3 4 5 6 
#
# 1 0.012013 -0.001658 -0.003179 0.000000 0.001991 0.000000
# 2 -0.001658 0.010645 -0.004866 0.000000 -0.001269 0.000000
# 3 -0.003179 -0.004866 0.016257 0.000000 0.005809 0.000000
# 4 0.000000 0.000000 0.000000 0.034594 0.000000 0.005848
# 5 0.001991 -0.001269 0.005809 0.000000 0.054455 0.000000
# 6 0.000000 0.000000 0.000000 0.005848 0.000000 0.050977
#
#
# Mechanical properties :
#
#
# Convention : Reuss Voigt Hill
#
# Bulk Modulus (GPa) = 51.25853 54.54963 52.90408
# Shear Modulus (GPa) = 24.40807 26.95005 25.67906
#
# Velocity S-wave (km/s) = 3.63078 3.81517 3.72412
# Velocity P-wave (km/s) = 6.72764 6.99065 6.86040
#
# Compressibility (1/GPa) = 0.01950895
#
# Stress axis : x y z
#
# Youngs Moduli (GPa) = 83.24013 93.94483 61.51199
#
# Poissons Ratio (x) = 0.15575 0.19557
# Poissons Ratio (y) = 0.13801 0.29930
# Poissons Ratio (z) = 0.26465 0.45711
#
# Static dielectric constant tensor:
#      x y z
#    x 3.711860 0.000000 -0.053920 
#    y 0.000000 3.485000 0.000000 
#    z -0.053920 0.000000 3.064700 
# 
# 
# High freq. dielectric constant tensor:
#      x y z
#    x 1.738120 0.000000 -0.008620 
#    y 0.000000 1.718210 0.000000 
#    z -0.008620 0.000000 1.675290 
# 
# From -- ./inp_files/63475.got.cif
#   From: 2010.03.12/outbox.cif.g09.slc.cpg/sg14_32_cif.got.tgz:63475.got - 2010.03.31 13:35:05.
