data_PCOD8123026
_publ_section_title
;
Structure prediction by ZEFSAII (Michael W. Deem and Ramdas Pophale) SiO2 
 PCOD8123026
Probable space group: P 2/C
;
_chemical_formula_sum "Si O2"
_cell_formula_units_Z 14
_cell_length_a 4.832464
_cell_length_b 7.979858
_cell_length_c 13.653532
_cell_angle_alpha 90.000000
_cell_angle_beta 79.539208
_cell_angle_gamma 90.000000
_cell_volume 517.761677
_symmetry_space_group_name_H-M "P 2/C"
_symmetry_group_IT_number 13
_symmetry_cell_setting 'monoclinic'
loop_
_space_group_symop_operation_xyz
x,y,z
-x,y,1/2-z
-x,-y,-z
x,-y,1/2+z
loop_
_atom_site_type_symbol
_atom_site_label
_atom_site_fract_x
_atom_site_fract_y
_atom_site_fract_z
Si Si1 0.500000 0.385015 0.250000
Si Si2 0.086748 0.872874 0.853159
Si Si3 0.266168 0.206530 0.949834
Si Si4 0.837693 0.343359 0.848010
O O1 0.682652 0.273847 0.164333
O O2 0.288884 0.489684 0.193151
O O3 0.000000 0.922211 0.750000
O O4 0.210291 0.033884 0.898297
O O5 0.813986 0.807004 0.930896
O O6 0.597399 0.236555 0.916651
O O7 0.085020 0.361473 0.913897
O O8 0.000000 0.243592 0.750000
#
# Coordination Sequence:
#
# PCOD8123026 Si02
#       4
#     2   4   4   4
#     4  12  28  46  76 120 162 200 246 336 372 454
#     4  11  29  49  78 119 155 197 265 332 367 458
#     4  11  28  51  84 109 153 213 258 306 400 452
#     4  12  25  51  76 114 155 208 251 309 385 470
#
# _framework density 27.039466999999998
#
# number of rings (size 3 to 8) (size 9 to 14) (size 15 to 20)
#    0.000    0.571    2.857    1.714   12.000    4.571 
#    0.000    0.000    0.000    0.000    0.000    0.000 
#    0.000    0.000    0.000    0.000    0.000    0.000 
#
# Total GULP energy -173488.005584 kJ/mol
# GULP energy per Si atom -12392.000399 kJ/mol
# Density = 2.697792 g / cm^3
# Si number density = 27.039467 Si / 1000 Ang^3
#
#
#
# Elastic Constant Matrix: (Units=GPa)
#
#
# Indices 1 2 3 4 5 6 
#
# 1 97.0928 15.4606 34.4820 0.0000 -34.9516 0.0000
# 2 15.4606 98.8895 39.6733 0.0000 -9.0697 0.0000
# 3 34.4820 39.6733 223.2908 0.0000 -47.7964 0.0000
# 4 0.0000 0.0000 0.0000 34.5297 0.0000 -14.2123
# 5 -34.9516 -9.0697 -47.7964 0.0000 60.2461 0.0000
# 6 0.0000 0.0000 0.0000 -14.2123 0.0000 44.3190
#
#
#
# Elastic Compliance Matrix: (Units=1/GPa)
#
#
# Indices 1 2 3 4 5 6 
#
# 1 0.013213 -0.001297 -0.000254 0.000000 0.007268 0.000000
# 2 -0.001297 0.011017 -0.001883 0.000000 -0.000588 0.000000
# 3 -0.000254 -0.001883 0.005734 0.000000 0.004118 0.000000
# 4 0.000000 0.000000 0.000000 0.033364 0.000000 0.010699
# 5 0.007268 -0.000588 0.004118 0.000000 0.023994 0.000000
# 6 0.000000 0.000000 0.000000 0.010699 0.000000 0.025995
#
#
# Mechanical properties :
#
#
# Convention : Reuss Voigt Hill
#
# Bulk Modulus (GPa) = 43.29977 66.50053 54.90015
# Shear Modulus (GPa) = 39.09836 49.79610 44.44723
#
# Velocity S-wave (km/s) = 3.80672 4.29605 4.05877
# Velocity P-wave (km/s) = 5.94725 7.01822 6.50481
#
# Compressibility (1/GPa) = 0.02309481
#
# Stress axis : x y z
#
# Youngs Moduli (GPa) = 75.68462 90.77234 174.40681
#
# Poissons Ratio (x) = 0.11774 0.04431
# Poissons Ratio (y) = 0.09817 0.32839
# Poissons Ratio (z) = 0.01923 0.17091
#
# Static dielectric constant tensor:
#      x y z
#    x 5.133520 0.000000 -0.359020 
#    y 0.000000 4.759980 0.000000 
#    z -0.359020 0.000000 5.407720 
# 
# 
# High freq. dielectric constant tensor:
#      x y z
#    x 2.096480 0.000000 -0.014760 
#    y 0.000000 2.079750 0.000000 
#    z -0.014760 0.000000 2.110950 
# 
# From -- ./inp_files/42995.got.cif
#   From: 2010.06.25/outbox.cif.g09.slc.cpg/sg13_22_cif.got.tgz:42995.got - 2010.06.28 04:50:58.
