data_PCOD8123453
_publ_section_title
;
Structure prediction by ZEFSAII (Michael W. Deem and Ramdas Pophale) SiO2 
 PCOD8123453
Probable space group: P 21/C
;
_chemical_formula_sum "Si O2"
_cell_formula_units_Z 32
_cell_length_a 8.911877
_cell_length_b 30.167508
_cell_length_c 5.400497
_cell_angle_alpha 90.000000
_cell_angle_beta 95.184877
_cell_angle_gamma 90.000000
_cell_volume 1445.978033
_symmetry_space_group_name_H-M "P 21/C"
_symmetry_group_IT_number 14
_symmetry_cell_setting 'monoclinic'
loop_
_space_group_symop_operation_xyz
x,y,z
-x,1/2+y,1/2-z
-x,-y,-z
x,1/2-y,1/2+z
loop_
_atom_site_type_symbol
_atom_site_label
_atom_site_fract_x
_atom_site_fract_y
_atom_site_fract_z
Si Si1 0.732176 0.476732 0.586353
Si Si2 0.016008 0.431799 0.778288
Si Si3 0.137483 0.729442 0.112486
Si Si4 0.800557 0.765081 0.035723
Si Si5 0.731061 0.936939 0.347164
Si Si6 0.166511 0.635227 0.940950
Si Si7 0.889147 0.636938 0.589243
Si Si8 0.606065 0.434463 0.072261
O O1 0.722834 0.530139 0.609369
O O2 0.653371 0.463411 0.318569
O O3 0.909314 0.462991 0.594945
O O4 0.650961 0.456616 0.817785
O O5 0.105238 0.394353 0.644425
O O6 0.145899 0.458848 0.944819
O O7 0.905115 0.408287 0.952115
O O8 0.210569 0.749863 0.373021
O O9 0.958610 0.738295 0.085115
O O10 0.176375 0.677087 0.126209
O O11 0.713573 0.753840 0.280200
O O12 0.811303 0.817476 0.003234
O O13 0.791566 0.888104 0.283555
O O14 0.573217 0.930847 0.459225
O O15 0.329581 0.615968 0.884486
O O16 0.060133 0.649385 0.696315
#
# Coordination Sequence:
#
# PCOD8123453 Si02
#       8
#     4   4   4   4   4   4   4   4
#     4  11  24  44  65  87 121 169 218 258 298 366
#     4  10  22  38  61  92 125 161 205 263 310 357
#     4  10  18  29  56  87 116 144 197 250 297 347
#     4  10  19  32  55  86 117 150 195 245 296 360
#     4  11  26  39  61  92 127 167 205 257 316 373
#     4  10  20  37  58  91 119 158 203 256 299 363
#     4  11  21  36  61  89 125 155 201 256 313 361
#     4  11  25  43  64  87 124 168 214 252 308 369
#
# _framework density 22.13035
#
# number of rings (size 3 to 8) (size 9 to 14) (size 15 to 20)
#    0.000    1.500    3.750    2.625    5.250    0.500 
#    0.000    0.000    0.000    1.500    0.000    0.000 
#    0.000    0.000    0.000    0.000    0.000    0.000 
#
# Total GULP energy -396620.525481 kJ/mol
# GULP energy per Si atom -12394.391421 kJ/mol
# Density = 2.207998 g / cm^3
# Si number density = 22.130350 Si / 1000 Ang^3
#
#
#
# Elastic Constant Matrix: (Units=GPa)
#
#
# Indices 1 2 3 4 5 6 
#
# 1 91.3399 24.0399 14.2339 0.0000 6.0246 0.0000
# 2 24.0399 80.9260 0.2459 0.0000 -7.0201 0.0000
# 3 14.2339 0.2459 110.2660 0.0000 -7.2245 0.0000
# 4 0.0000 0.0000 0.0000 27.9209 0.0000 -7.1156
# 5 6.0246 -7.0201 -7.2245 0.0000 9.1595 0.0000
# 6 0.0000 0.0000 0.0000 -7.1156 0.0000 15.0363
#
#
#
# Elastic Compliance Matrix: (Units=1/GPa)
#
#
# Indices 1 2 3 4 5 6 
#
# 1 0.013836 -0.005444 -0.002788 0.000000 -0.015471 0.000000
# 2 -0.005444 0.015426 0.001769 0.000000 0.016799 0.000000
# 3 -0.002788 0.001769 0.010159 0.000000 0.011202 0.000000
# 4 0.000000 0.000000 0.000000 0.040727 0.000000 0.019273
# 5 -0.015471 0.016799 0.011202 0.000000 0.141063 0.000000
# 6 0.000000 0.000000 0.000000 0.019273 0.000000 0.075626
#
#
# Mechanical properties :
#
#
# Convention : Reuss Voigt Hill
#
# Bulk Modulus (GPa) = 37.74163 39.95236 38.84700
# Shear Modulus (GPa) = 15.69399 26.69082 21.19240
#
# Velocity S-wave (km/s) = 2.66590 3.47662 3.09790
# Velocity P-wave (km/s) = 5.15435 5.84878 5.51251
#
# Compressibility (1/GPa) = 0.02649594
#
# Stress axis : x y z
#
# Youngs Moduli (GPa) = 72.27692 64.82593 98.43690
#
# Poissons Ratio (x) = 0.35289 0.27439
# Poissons Ratio (y) = 0.39345 -0.17413
# Poissons Ratio (z) = 0.20147 -0.11467
#
# Static dielectric constant tensor:
#      x y z
#    x 3.765880 0.000000 -0.090250 
#    y 0.000000 4.099610 0.000000 
#    z -0.090250 0.000000 4.480290 
# 
# 
# High freq. dielectric constant tensor:
#      x y z
#    x 1.823120 0.000000 -0.007430 
#    y 0.000000 1.872440 0.000000 
#    z -0.007430 0.000000 1.884450 
# 
# From -- ./inp_files/2138.got.cif
#   From: 2010.03.12/outbox.cif.g09.slc.cpg/sg14_2_cif.got.tgz:2138.got - 2010.03.31 13:35:05.
