data_PCOD8123261
_publ_section_title
;
Structure prediction by ZEFSAII (Michael W. Deem and Ramdas Pophale) SiO2 
 PCOD8123261
Probable space group: P 21/C
;
_chemical_formula_sum "Si O2"
_cell_formula_units_Z 24
_cell_length_a 26.541742
_cell_length_b 5.201017
_cell_length_c 17.509987
_cell_angle_alpha 90.000000
_cell_angle_beta 30.817385
_cell_angle_gamma 90.000000
_cell_volume 1238.314103
_symmetry_space_group_name_H-M "P 21/C"
_symmetry_group_IT_number 14
_symmetry_cell_setting 'monoclinic'
loop_
_space_group_symop_operation_xyz
x,y,z
-x,1/2+y,1/2-z
-x,-y,-z
x,1/2-y,1/2+z
loop_
_atom_site_type_symbol
_atom_site_label
_atom_site_fract_x
_atom_site_fract_y
_atom_site_fract_z
Si Si1 0.873443 0.832258 0.561340
Si Si2 0.614088 0.370126 0.053733
Si Si3 0.774172 0.339433 0.719193
Si Si4 0.035465 0.628477 0.745376
Si Si5 0.228358 0.440465 0.433601
Si Si6 0.613168 0.629885 0.651482
O O1 0.832005 0.076502 0.660515
O O2 0.848590 0.575978 0.642867
O O3 0.821738 0.802436 0.544549
O O4 0.990212 0.865395 0.390825
O O5 0.500630 0.360751 0.176615
O O6 0.640747 0.633738 0.061229
O O7 0.640258 0.134416 0.074564
O O8 0.676023 0.352026 0.896147
O O9 0.743336 0.353874 0.669771
O O10 0.151647 0.564698 0.594311
O O11 0.978529 0.408281 0.772760
O O12 0.325275 0.348612 0.350989
#
# Coordination Sequence:
#
# PCOD8123261 Si02
#       6
#     4   4   4   4   4   4
#     4   9  18  31  52  83 105 132 170 216 265 301
#     4  10  22  39  54  74 107 148 169 213 270 316
#     4  10  19  33  55  79 105 139 170 218 265 303
#     4  10  16  30  50  81 107 134 164 216 261 310
#     4   9  21  31  59  82 103 132 183 222 248 302
#     4  10  22  38  56  75 105 141 183 209 259 321
#
# _framework density 19.381187000000001
#
# number of rings (size 3 to 8) (size 9 to 14) (size 15 to 20)
#    1.000    1.333    1.667    1.000    2.333    0.667 
#    0.000    0.833    0.000    6.000    0.000    0.000 
#    0.000    0.000    0.000    0.000    0.000    0.000 
#
# Total GULP energy -297397.584312 kJ/mol
# GULP energy per Si atom -12391.566013 kJ/mol
# Density = 1.933707 g / cm^3
# Si number density = 19.381187 Si / 1000 Ang^3
#
#
#
# Elastic Constant Matrix: (Units=GPa)
#
#
# Indices 1 2 3 4 5 6 
#
# 1 19.1853 0.7813 5.8549 0.0000 0.4153 0.0000
# 2 0.7813 95.9196 39.4217 0.0000 2.4996 0.0000
# 3 5.8549 39.4217 143.8478 0.0000 25.3745 0.0000
# 4 0.0000 0.0000 0.0000 16.7886 0.0000 3.7931
# 5 0.4153 2.4996 25.3745 0.0000 10.3698 0.0000
# 6 0.0000 0.0000 0.0000 3.7931 0.0000 10.1610
#
#
#
# Elastic Compliance Matrix: (Units=1/GPa)
#
#
# Indices 1 2 3 4 5 6 
#
# 1 0.053017 0.000837 -0.003479 0.000000 0.006187 0.000000
# 2 0.000837 0.012246 -0.005038 0.000000 0.009343 0.000000
# 3 -0.003479 -0.005038 0.014490 0.000000 -0.034102 0.000000
# 4 0.000000 0.000000 0.000000 0.065051 0.000000 -0.024283
# 5 0.006187 0.009343 -0.034102 0.000000 0.177380 0.000000
# 6 0.000000 0.000000 0.000000 -0.024283 0.000000 0.107481
#
#
# Mechanical properties :
#
#
# Convention : Reuss Voigt Hill
#
# Bulk Modulus (GPa) = 15.52985 39.00760 27.26872
# Shear Modulus (GPa) = 10.71839 21.65687 16.18763
#
# Velocity S-wave (km/s) = 2.35421 3.34641 2.89316
# Velocity P-wave (km/s) = 3.92683 5.92465 5.02600
#
# Compressibility (1/GPa) = 0.06439213
#
# Stress axis : x y z
#
# Youngs Moduli (GPa) = 18.86190 81.66152 69.01524
#
# Poissons Ratio (x) = -0.06831 0.24007
# Poissons Ratio (y) = -0.01578 0.34770
# Poissons Ratio (z) = 0.06561 0.41141
#
# Static dielectric constant tensor:
#      x y z
#    x 2.887040 0.000000 -0.003030 
#    y 0.000000 3.653700 0.000000 
#    z -0.003030 0.000000 3.651280 
# 
# 
# High freq. dielectric constant tensor:
#      x y z
#    x 1.693600 0.000000 0.004050 
#    y 0.000000 1.770550 0.000000 
#    z 0.004050 0.000000 1.768260 
# 
# From -- ./inp_files/52110.got.cif
#   From: 2010.03.12/outbox.cif.g09.slc.cpg/sg14_27_cif.got.tgz:52110.got - 2010.03.31 13:35:05.
