data_PCOD8123679
_publ_section_title
;
Structure prediction by ZEFSAII (Michael W. Deem and Ramdas Pophale) SiO2 
 PCOD8123679
Probable space group: P 21/C
;
_chemical_formula_sum "Si O2"
_cell_formula_units_Z 24
_cell_length_a 13.217148
_cell_length_b 11.142106
_cell_length_c 17.804200
_cell_angle_alpha 90.000000
_cell_angle_beta 31.131883
_cell_angle_gamma 90.000000
_cell_volume 1355.583330
_symmetry_space_group_name_H-M "P 21/C"
_symmetry_group_IT_number 14
_symmetry_cell_setting 'monoclinic'
loop_
_space_group_symop_operation_xyz
x,y,z
-x,1/2+y,1/2-z
-x,-y,-z
x,1/2-y,1/2+z
loop_
_atom_site_type_symbol
_atom_site_label
_atom_site_fract_x
_atom_site_fract_y
_atom_site_fract_z
Si Si1 0.248574 0.643015 0.925024
Si Si2 0.975221 0.649872 0.608551
Si Si3 0.360640 0.046181 0.236703
Si Si4 0.881730 0.622192 0.243608
Si Si5 0.782683 0.949999 0.972692
Si Si6 0.679383 0.804567 0.175990
O O1 0.263462 0.567389 0.839130
O O2 0.457544 0.654068 0.833054
O O3 0.162370 0.774596 0.957465
O O4 0.098611 0.579415 0.078874
O O5 0.864184 0.733889 0.740649
O O6 0.823239 0.619580 0.638516
O O7 0.041412 0.526157 0.603474
O O8 0.280131 0.052734 0.203120
O O9 0.296708 0.163361 0.324447
O O10 0.594347 0.035419 0.084063
O O11 0.851744 0.597680 0.349246
O O12 0.735248 0.834928 0.054578
#
# Coordination Sequence:
#
# PCOD8123679 Si02
#       6
#     4   4   4   4   4   4
#     4   9  19  35  53  78 104 145 176 223 263 311
#     4   9  20  36  54  76 113 137 180 217 269 320
#     4  10  18  35  57  80 107 139 190 218 258 329
#     4   9  20  33  53  80 107 142 174 224 271 302
#     4  11  20  35  57  82 110 141 177 223 276 310
#     4  10  20  34  58  76 105 147 177 219 266 319
#
# _framework density 17.704556
#
# number of rings (size 3 to 8) (size 9 to 14) (size 15 to 20)
#    1.000    1.333    1.667    1.500    0.000    1.333 
#    0.000    0.833    7.333    0.000    0.000    0.000 
#    0.000    0.000    0.000    0.000    0.000    0.000 
#
# Total GULP energy -297466.786999 kJ/mol
# GULP energy per Si atom -12394.449458 kJ/mol
# Density = 1.766426 g / cm^3
# Si number density = 17.704556 Si / 1000 Ang^3
#
#
#
# Elastic Constant Matrix: (Units=GPa)
#
#
# Indices 1 2 3 4 5 6 
#
# 1 123.7981 23.1835 52.3984 0.0000 -7.8358 0.0000
# 2 23.1835 42.1300 10.9035 0.0000 7.2686 0.0000
# 3 52.3984 10.9035 77.9008 0.0000 5.7136 0.0000
# 4 0.0000 0.0000 0.0000 17.7341 0.0000 -0.9717
# 5 -7.8358 7.2686 5.7136 0.0000 28.5012 0.0000
# 6 0.0000 0.0000 0.0000 -0.9717 0.0000 21.9396
#
#
#
# Elastic Compliance Matrix: (Units=1/GPa)
#
#
# Indices 1 2 3 4 5 6 
#
# 1 0.013350 -0.006328 -0.008608 0.000000 0.007010 0.000000
# 2 -0.006328 0.028566 0.000934 0.000000 -0.009212 0.000000
# 3 -0.008608 0.000934 0.018966 0.000000 -0.006407 0.000000
# 4 0.000000 0.000000 0.000000 0.056526 0.000000 0.002503
# 5 0.007010 -0.009212 -0.006407 0.000000 0.040647 0.000000
# 6 0.000000 0.000000 0.000000 0.002503 0.000000 0.045691
#
#
# Mechanical properties :
#
#
# Convention : Reuss Voigt Hill
#
# Bulk Modulus (GPa) = 30.41596 46.31110 38.36353
# Shear Modulus (GPa) = 20.60092 24.12454 22.36273
#
# Velocity S-wave (km/s) = 3.41485 3.69537 3.55788
# Velocity P-wave (km/s) = 5.72410 6.66500 6.21239
#
# Compressibility (1/GPa) = 0.03287747
#
# Stress axis : x y z
#
# Youngs Moduli (GPa) = 74.90839 35.00694 52.72610
#
# Poissons Ratio (x) = 0.22151 0.45386
# Poissons Ratio (y) = 0.47400 -0.04922
# Poissons Ratio (z) = 0.64480 -0.03268
#
# Static dielectric constant tensor:
#      x y z
#    x 3.337750 0.000000 -0.224680 
#    y 0.000000 3.083030 0.000000 
#    z -0.224680 0.000000 3.128110 
# 
# 
# High freq. dielectric constant tensor:
#      x y z
#    x 1.691480 0.000000 -0.016240 
#    y 0.000000 1.669630 0.000000 
#    z -0.016240 0.000000 1.670030 
# 
# From -- ./inp_files/39568.got.cif
#   From: 2010.03.12/outbox.cif.g09.slc.cpg/sg14_20_cif.got.tgz:39568.got - 2010.03.31 13:35:05.
