data_PCOD8123294
_publ_section_title
;
Structure prediction by ZEFSAII (Michael W. Deem and Ramdas Pophale) SiO2 
 PCOD8123294
Probable space group: P 21/C
;
_chemical_formula_sum "Si O2"
_cell_formula_units_Z 32
_cell_length_a 12.353599
_cell_length_b 13.248986
_cell_length_c 21.904112
_cell_angle_alpha 90.000000
_cell_angle_beta 150.775603
_cell_angle_gamma 90.000000
_cell_volume 1750.360167
_symmetry_space_group_name_H-M "P 21/C"
_symmetry_group_IT_number 14
_symmetry_cell_setting 'monoclinic'
loop_
_space_group_symop_operation_xyz
x,y,z
-x,1/2+y,1/2-z
-x,-y,-z
x,1/2-y,1/2+z
loop_
_atom_site_type_symbol
_atom_site_label
_atom_site_fract_x
_atom_site_fract_y
_atom_site_fract_z
Si Si1 0.144084 0.611253 0.661481
Si Si2 0.267191 0.254215 0.052068
Si Si3 0.855981 0.611228 0.338544
Si Si4 0.466433 0.112878 0.744167
Si Si5 0.466502 0.887087 0.744194
Si Si6 0.484463 0.616054 0.062034
Si Si7 0.515600 0.616044 0.937991
Si Si8 0.732707 0.254176 0.947895
O O1 0.029606 0.500019 0.605863
O O2 0.313388 0.615027 0.688836
O O3 0.274521 0.628420 0.788820
O O4 0.965713 0.698410 0.565776
O O5 0.267654 0.333893 0.108778
O O6 0.470485 0.174924 0.163646
O O7 0.306450 0.312541 0.007992
O O8 0.686683 0.615032 0.311192
O O9 0.725551 0.628404 0.211208
O O10 0.034398 0.698365 0.434265
O O11 0.529414 0.174885 0.836316
O O12 0.392903 0.999977 0.725252
O O13 0.267746 0.833851 0.608812
O O14 0.403186 0.500010 0.027449
O O15 0.306550 0.687495 0.008030
O O16 0.500044 0.651291 0.000018
#
# Coordination Sequence:
#
# PCOD8123294 Si02
#       8
#     4   4   4   4   4   4   4   4
#     4   9  17  30  50  73  94 122 159 191 226 278
#     4  10  17  27  51  74  92 121 160 194 228 270
#     4   9  17  30  50  73  94 122 159 191 226 278
#     4   9  18  31  47  71 100 125 153 189 229 278
#     4   9  18  31  47  71 100 125 153 189 229 278
#     4   9  19  35  51  68  92 122 159 199 233 272
#     4   9  19  35  51  68  92 122 159 199 233 272
#     4  10  17  27  51  74  92 121 160 194 228 270
#
# _framework density 18.281952
#
# number of rings (size 3 to 8) (size 9 to 14) (size 15 to 20)
#    0.000    2.750    0.000    3.750    0.000    3.000 
#    0.000    0.000    0.000   69.000    0.000    0.000 
#    0.000    0.000    0.000    0.000    0.000    0.000 
#
# Total GULP energy -396649.578274 kJ/mol
# GULP energy per Si atom -12395.299321 kJ/mol
# Density = 1.824034 g / cm^3
# Si number density = 18.281952 Si / 1000 Ang^3
#
#
#
# Elastic Constant Matrix: (Units=GPa)
#
#
# Indices 1 2 3 4 5 6 
#
# 1 49.0847 22.7655 30.4949 0.0000 -12.5555 0.0000
# 2 22.7655 118.6680 33.8332 0.0000 2.5999 0.0000
# 3 30.4949 33.8332 64.5764 0.0000 -3.1292 0.0000
# 4 0.0000 0.0000 0.0000 35.1785 0.0000 4.7476
# 5 -12.5555 2.5999 -3.1292 0.0000 27.9562 0.0000
# 6 0.0000 0.0000 0.0000 4.7476 0.0000 32.7996
#
#
#
# Elastic Compliance Matrix: (Units=1/GPa)
#
#
# Indices 1 2 3 4 5 6 
#
# 1 0.033836 -0.002860 -0.013806 0.000000 0.013917 0.000000
# 2 -0.002860 0.010212 -0.004131 0.000000 -0.002697 0.000000
# 3 -0.013806 -0.004131 0.024018 0.000000 -0.003128 0.000000
# 4 0.000000 0.000000 0.000000 0.028993 0.000000 -0.004197
# 5 0.013917 -0.002697 -0.003128 0.000000 0.041921 0.000000
# 6 0.000000 0.000000 0.000000 -0.004197 0.000000 0.031096
#
#
# Mechanical properties :
#
#
# Convention : Reuss Voigt Hill
#
# Bulk Modulus (GPa) = 37.77346 45.16848 41.47097
# Shear Modulus (GPa) = 22.67647 28.86923 25.77285
#
# Velocity S-wave (km/s) = 3.52572 3.97811 3.75873
# Velocity P-wave (km/s) = 6.10579 6.77206 6.44754
#
# Compressibility (1/GPa) = 0.02647361
#
# Stress axis : x y z
#
# Youngs Moduli (GPa) = 29.55402 97.92131 41.63625
#
# Poissons Ratio (x) = 0.28006 0.57482
# Poissons Ratio (y) = 0.08453 0.17198
# Poissons Ratio (z) = 0.40801 0.40447
#
# Static dielectric constant tensor:
#      x y z
#    x 2.970080 0.000000 -0.267480 
#    y 0.000000 3.793220 0.000000 
#    z -0.267480 0.000000 3.410030 
# 
# 
# High freq. dielectric constant tensor:
#      x y z
#    x 1.656730 0.000000 -0.014640 
#    y 0.000000 1.728390 0.000000 
#    z -0.014640 0.000000 1.706580 
# 
# From -- ./inp_files/73898.got.cif
#   From: 2010.03.12/outbox.cif.g09.slc.cpg/sg14_37_cif.got.tgz:73898.got - 2010.03.31 13:35:05.
