data_PCOD8123270
_publ_section_title
;
Structure prediction by ZEFSAII (Michael W. Deem and Ramdas Pophale) SiO2 
 PCOD8123270
Probable space group: P 21/C
;
_chemical_formula_sum "Si O2"
_cell_formula_units_Z 32
_cell_length_a 8.989385
_cell_length_b 22.009417
_cell_length_c 9.354781
_cell_angle_alpha 90.000000
_cell_angle_beta 120.026537
_cell_angle_gamma 90.000000
_cell_volume 1602.457728
_symmetry_space_group_name_H-M "P 21/C"
_symmetry_group_IT_number 14
_symmetry_cell_setting 'monoclinic'
loop_
_space_group_symop_operation_xyz
x,y,z
-x,1/2+y,1/2-z
-x,-y,-z
x,1/2-y,1/2+z
loop_
_atom_site_type_symbol
_atom_site_label
_atom_site_fract_x
_atom_site_fract_y
_atom_site_fract_z
Si Si1 0.085004 0.059351 0.598636
Si Si2 0.916905 0.363328 0.246095
Si Si3 0.991418 0.152037 0.315850
Si Si4 0.285825 0.173785 0.998447
Si Si5 0.772334 0.767311 0.748277
Si Si6 0.751684 0.137447 0.953069
Si Si7 0.861112 0.272902 0.987804
Si Si8 0.566003 0.565069 0.584686
O O1 0.072386 0.108315 0.469700
O O2 0.283843 0.050318 0.731399
O O3 0.981276 0.078660 0.689600
O O4 0.000000 0.000000 0.500000
O O5 0.801918 0.387553 0.321099
O O6 0.806101 0.318510 0.089617
O O7 0.077962 0.327982 0.394485
O O8 0.157984 0.184279 0.331513
O O9 0.849425 0.196613 0.324150
O O10 0.888714 0.117379 0.140334
O O11 0.340653 0.200395 0.180323
O O12 0.343576 0.218214 0.894819
O O13 0.367188 0.106798 0.015537
O O14 0.933554 0.734670 0.898884
O O15 0.573313 0.105701 0.901194
O O16 0.749724 0.211478 0.944280
O O17 0.500000 0.500000 0.500000
#
# Coordination Sequence:
#
# PCOD8123270 Si02
#       8
#     4   4   4   4   4   4   4   4
#     4  10  22  43  65  82 113 165 221 251 301 357
#     4   9  18  34  62  93 119 156 204 247 291 374
#     4  10  18  33  65  93 118 154 200 255 297 368
#     4  10  19  36  60  89 122 162 199 250 301 368
#     4  10  16  31  59  93 118 147 205 247 296 355
#     4  11  19  36  61  91 119 155 193 247 317 357
#     4   9  16  31  57  91 128 154 187 240 304 367
#     4  11  26  44  59  84 130 166 202 261 319 363
#
# _framework density 19.969325000000001
#
# number of rings (size 3 to 8) (size 9 to 14) (size 15 to 20)
#    0.000    2.000    3.750    3.000    0.000    0.000 
#    6.750    2.500    2.750    0.000    0.000    0.000 
#    0.000    0.000    0.000    0.000    0.000    0.000 
#
# Total GULP energy -396604.326610 kJ/mol
# GULP energy per Si atom -12393.885207 kJ/mol
# Density = 1.992387 g / cm^3
# Si number density = 19.969325 Si / 1000 Ang^3
#
#
#
# Elastic Constant Matrix: (Units=GPa)
#
#
# Indices 1 2 3 4 5 6 
#
# 1 83.1210 57.9239 54.9469 0.0000 -16.9426 0.0000
# 2 57.9239 123.0500 62.7830 0.0000 -3.9283 0.0000
# 3 54.9469 62.7830 106.3917 0.0000 -21.4799 0.0000
# 4 0.0000 0.0000 0.0000 25.6317 0.0000 10.4281
# 5 -16.9426 -3.9283 -21.4799 0.0000 33.4825 0.0000
# 6 0.0000 0.0000 0.0000 10.4281 0.0000 23.1087
#
#
#
# Elastic Compliance Matrix: (Units=1/GPa)
#
#
# Indices 1 2 3 4 5 6 
#
# 1 0.022391 -0.007319 -0.005894 0.000000 0.006690 0.000000
# 2 -0.007319 0.014387 -0.005878 0.000000 -0.005787 0.000000
# 3 -0.005894 -0.005878 0.017428 0.000000 0.007508 0.000000
# 4 0.000000 0.000000 0.000000 0.047788 0.000000 -0.021565
# 5 0.006690 -0.005787 0.007508 0.000000 0.037390 0.000000
# 6 0.000000 0.000000 0.000000 -0.021565 0.000000 0.053005
#
#
# Mechanical properties :
#
#
# Convention : Reuss Voigt Hill
#
# Bulk Modulus (GPa) = 62.41086 73.76336 68.08711
# Shear Modulus (GPa) = 21.19436 25.57184 23.38310
#
# Velocity S-wave (km/s) = 3.26136 3.58237 3.42563
# Velocity P-wave (km/s) = 6.74561 7.35729 7.05808
#
# Compressibility (1/GPa) = 0.01602285
#
# Stress axis : x y z
#
# Youngs Moduli (GPa) = 44.66024 69.50957 57.37988
#
# Poissons Ratio (x) = 0.50877 0.33821
# Poissons Ratio (y) = 0.32689 0.33726
# Poissons Ratio (z) = 0.26323 0.40856
#
# Static dielectric constant tensor:
#      x y z
#    x 3.367140 0.000000 -0.317000 
#    y 0.000000 3.290760 0.000000 
#    z -0.317000 0.000000 3.767950 
# 
# 
# High freq. dielectric constant tensor:
#      x y z
#    x 1.752420 0.000000 -0.028480 
#    y 0.000000 1.768080 0.000000 
#    z -0.028480 0.000000 1.781570 
# 
# From -- ./inp_files/10817.got.cif
#   From: 2010.03.12/outbox.cif.g09.slc.cpg/sg14_6_cif.got.tgz:10817.got - 2010.03.31 13:35:05.
