data_PCOD8123762
_publ_section_title
;
Structure prediction by ZEFSAII (Michael W. Deem and Ramdas Pophale) SiO2 
 PCOD8123762
Probable space group: P 21/C
;
_chemical_formula_sum "Si O2"
_cell_formula_units_Z 28
_cell_length_a 12.246386
_cell_length_b 9.247654
_cell_length_c 13.487317
_cell_angle_alpha 90.000000
_cell_angle_beta 115.092903
_cell_angle_gamma 90.000000
_cell_volume 1383.285190
_symmetry_space_group_name_H-M "P 21/C"
_symmetry_group_IT_number 14
_symmetry_cell_setting 'monoclinic'
loop_
_space_group_symop_operation_xyz
x,y,z
-x,1/2+y,1/2-z
-x,-y,-z
x,1/2-y,1/2+z
loop_
_atom_site_type_symbol
_atom_site_label
_atom_site_fract_x
_atom_site_fract_y
_atom_site_fract_z
Si Si1 0.793262 0.833794 0.802845
Si Si2 0.463243 0.914550 0.836944
Si Si3 0.871430 0.079248 0.960408
Si Si4 0.312077 0.506206 0.455432
Si Si5 0.396015 0.352999 0.160832
Si Si6 0.776001 0.690360 0.076358
Si Si7 0.022286 0.169319 0.499504
O O1 0.676350 0.742033 0.786684
O O2 0.795649 0.885219 0.689544
O O3 0.909581 0.735677 0.877615
O O4 0.783571 0.986923 0.856156
O O5 0.490436 0.745977 0.826709
O O6 0.349281 0.914478 0.867974
O O7 0.433312 0.994940 0.722282
O O8 0.574655 0.003360 0.926426
O O9 0.893913 0.247027 0.939353
O O10 0.805832 0.082659 0.042396
O O11 0.000000 0.000000 0.000000
O O12 0.276397 0.344522 0.414800
O O13 0.316267 0.391943 0.032752
O O14 0.903163 0.705040 0.070402
O O15 0.000000 0.000000 0.500000
#
# Coordination Sequence:
#
# PCOD8123762 Si02
#       7
#     4   4   4   4   4   4   4
#     4  10  19  37  64  82 116 161 198 244 303 363
#     4  10  20  36  63  86 120 155 203 247 302 358
#     4  10  18  38  65  85 117 163 204 241 298 371
#     4  10  18  36  65  88 110 163 208 237 296 372
#     4  10  20  38  58  89 118 159 195 253 304 355
#     4  10  19  37  61  84 116 155 203 240 305 357
#     4  10  22  39  57  91 122 153 198 255 304 353
#
# _framework density 20.241669000000002
#
# number of rings (size 3 to 8) (size 9 to 14) (size 15 to 20)
#    0.000    2.000    7.143    0.000    0.000    1.143 
#    5.143    2.143    0.000    0.000    0.000    0.000 
#    0.000    0.000    0.000    0.000    0.000    0.000 
#
# Total GULP energy -346999.071378 kJ/mol
# GULP energy per Si atom -12392.823978 kJ/mol
# Density = 2.019560 g / cm^3
# Si number density = 20.241669 Si / 1000 Ang^3
#
#
#
# Elastic Constant Matrix: (Units=GPa)
#
#
# Indices 1 2 3 4 5 6 
#
# 1 112.5460 24.3084 30.6397 0.0000 -20.4147 0.0000
# 2 24.3084 85.6171 30.9299 0.0000 -0.2143 0.0000
# 3 30.6397 30.9299 102.9540 0.0000 -29.5838 0.0000
# 4 0.0000 0.0000 0.0000 20.8483 0.0000 0.0852
# 5 -20.4147 -0.2143 -29.5838 0.0000 23.6478 0.0000
# 6 0.0000 0.0000 0.0000 0.0852 0.0000 22.7763
#
#
#
# Elastic Compliance Matrix: (Units=1/GPa)
#
#
# Indices 1 2 3 4 5 6 
#
# 1 0.011377 -0.003468 0.000733 0.000000 0.010706 0.000000
# 2 -0.003468 0.015071 -0.006739 0.000000 -0.011288 0.000000
# 3 0.000733 -0.006739 0.018241 0.000000 0.023391 0.000000
# 4 0.000000 0.000000 0.000000 0.047966 0.000000 -0.000180
# 5 0.010706 -0.011288 0.023391 0.000000 0.080691 0.000000
# 6 0.000000 0.000000 0.000000 -0.000180 0.000000 0.043906
#
#
# Mechanical properties :
#
#
# Convention : Reuss Voigt Hill
#
# Bulk Modulus (GPa) = 38.85055 52.54144 45.69600
# Shear Modulus (GPa) = 20.42642 27.80375 24.11509
#
# Velocity S-wave (km/s) = 3.18012 3.71022 3.45535
# Velocity P-wave (km/s) = 5.72008 6.66091 6.20834
#
# Compressibility (1/GPa) = 0.02573966
#
# Stress axis : x y z
#
# Youngs Moduli (GPa) = 87.89745 66.35313 54.82093
#
# Poissons Ratio (x) = 0.23011 -0.04016
# Poissons Ratio (y) = 0.30482 0.36945
# Poissons Ratio (z) = -0.06439 0.44717
#
# Static dielectric constant tensor:
#      x y z
#    x 4.132110 0.000000 0.134850 
#    y 0.000000 3.618770 0.000000 
#    z 0.134850 0.000000 3.685320 
# 
# 
# High freq. dielectric constant tensor:
#      x y z
#    x 1.798620 0.000000 -0.010430 
#    y 0.000000 1.765490 0.000000 
#    z -0.010430 0.000000 1.773310 
# 
# From -- ./inp_files/43477.got.cif
#   From: 2010.03.12/outbox.cif.g09.slc.cpg/sg14_22_cif.got.tgz:43477.got - 2010.03.31 13:35:05.
