data_PCOD8123295
_publ_section_title
;
Structure prediction by ZEFSAII (Michael W. Deem and Ramdas Pophale) SiO2 
 PCOD8123295
Probable space group: P 21/C
;
_chemical_formula_sum "Si O2"
_cell_formula_units_Z 32
_cell_length_a 6.825511
_cell_length_b 23.193783
_cell_length_c 12.757231
_cell_angle_alpha 90.000000
_cell_angle_beta 98.309359
_cell_angle_gamma 90.000000
_cell_volume 1998.388595
_symmetry_space_group_name_H-M "P 21/C"
_symmetry_group_IT_number 14
_symmetry_cell_setting 'monoclinic'
loop_
_space_group_symop_operation_xyz
x,y,z
-x,1/2+y,1/2-z
-x,-y,-z
x,1/2-y,1/2+z
loop_
_atom_site_type_symbol
_atom_site_label
_atom_site_fract_x
_atom_site_fract_y
_atom_site_fract_z
Si Si1 0.467639 0.345044 0.698420
Si Si2 0.701376 0.439202 0.598464
Si Si3 0.595566 0.729983 0.921014
Si Si4 0.958192 0.725710 0.569932
Si Si5 0.338378 0.180652 0.795740
Si Si6 0.093973 0.383209 0.566409
Si Si7 0.381117 0.775382 0.601396
Si Si8 0.627930 0.933681 0.087968
O O1 0.612369 0.396315 0.677349
O O2 0.489854 0.291701 0.620670
O O3 0.237440 0.364364 0.673854
O O4 0.529183 0.325495 0.818883
O O5 0.592149 0.434669 0.477852
O O6 0.682884 0.504325 0.640841
O O7 0.930533 0.424912 0.601138
O O8 0.641050 0.688774 0.826766
O O9 0.797064 0.734135 0.001945
O O10 0.425282 0.704729 0.985007
O O11 0.872879 0.703359 0.675520
O O12 0.006914 0.672012 0.497196
O O13 0.149480 0.765240 0.604669
O O14 0.511028 0.214489 0.869806
O O15 0.363487 0.112865 0.818755
O O16 0.221274 0.418440 0.492777
#
# Coordination Sequence:
#
# PCOD8123295 Si02
#       8
#     4   4   4   4   4   4   4   4
#     4   9  19  29  43  68  91 114 149 181 219 267
#     4  10  17  28  46  66  92 119 145 183 223 264
#     4   9  18  30  44  64  91 118 146 181 220 265
#     4   9  17  28  45  66  88 114 146 180 221 267
#     4   9  18  31  44  65  93 118 146 183 223 266
#     4   9  16  29  45  65  91 117 143 178 224 270
#     4  10  18  30  47  67  91 119 148 183 223 265
#     4   9  18  29  44  68  91 116 150 182 220 268
#
# _framework density 16.012902
#
# number of rings (size 3 to 8) (size 9 to 14) (size 15 to 20)
#    0.000    2.750    0.000    4.125    0.000    6.000 
#    0.000    0.000    0.000    0.750    0.000    1.750 
#    0.000    0.000    0.000    0.000    0.000    0.000 
#
# Total GULP energy -396721.755782 kJ/mol
# GULP energy per Si atom -12397.554868 kJ/mol
# Density = 1.597646 g / cm^3
# Si number density = 16.012902 Si / 1000 Ang^3
#
#
#
# Elastic Constant Matrix: (Units=GPa)
#
#
# Indices 1 2 3 4 5 6 
#
# 1 80.1228 35.8019 36.8782 0.0000 -2.0094 0.0000
# 2 35.8019 104.1941 46.7958 0.0000 -3.2526 0.0000
# 3 36.8782 46.7958 92.1193 0.0000 -7.2951 0.0000
# 4 0.0000 0.0000 0.0000 19.2672 0.0000 0.7177
# 5 -2.0094 -3.2526 -7.2951 0.0000 14.6119 0.0000
# 6 0.0000 0.0000 0.0000 0.7177 0.0000 20.2042
#
#
#
# Elastic Compliance Matrix: (Units=1/GPa)
#
#
# Indices 1 2 3 4 5 6 
#
# 1 0.016210 -0.003435 -0.004819 0.000000 -0.000941 0.000000
# 2 -0.003435 0.013165 -0.005328 0.000000 -0.000202 0.000000
# 3 -0.004819 -0.005328 0.015977 0.000000 0.006128 0.000000
# 4 0.000000 0.000000 0.000000 0.051970 0.000000 -0.001846
# 5 -0.000941 -0.000202 0.006128 0.000000 0.071322 0.000000
# 6 0.000000 0.000000 0.000000 -0.001846 0.000000 0.049560
#
#
# Mechanical properties :
#
#
# Convention : Reuss Voigt Hill
#
# Bulk Modulus (GPa) = 54.98532 57.26533 56.12533
# Shear Modulus (GPa) = 19.88615 21.28069 20.58342
#
# Velocity S-wave (km/s) = 3.52786 3.64946 3.58917
# Velocity P-wave (km/s) = 7.14192 7.32105 7.23204
#
# Compressibility (1/GPa) = 0.01818667
#
# Stress axis : x y z
#
# Youngs Moduli (GPa) = 61.68957 75.96177 62.59114
#
# Poissons Ratio (x) = 0.26093 0.30163
# Poissons Ratio (y) = 0.21190 0.33351
# Poissons Ratio (z) = 0.29728 0.40475
#
# Static dielectric constant tensor:
#      x y z
#    x 3.049960 0.000000 -0.028920 
#    y 0.000000 2.956300 0.000000 
#    z -0.028920 0.000000 2.908890 
# 
# 
# High freq. dielectric constant tensor:
#      x y z
#    x 1.620470 0.000000 -0.003550 
#    y 0.000000 1.597550 0.000000 
#    z -0.003550 0.000000 1.589350 
# 
# From -- ./inp_files/22110.got.cif
#   From: 2010.03.12/outbox.cif.g09.slc.cpg/sg14_12_cif.got.tgz:22110.got - 2010.03.31 13:35:05.
