data_PCOD8123277
_publ_section_title
;
Structure prediction by ZEFSAII (Michael W. Deem and Ramdas Pophale) SiO2 
 PCOD8123277
Probable space group: P 21/C
;
_chemical_formula_sum "Si O2"
_cell_formula_units_Z 20
_cell_length_a 12.916673
_cell_length_b 5.194714
_cell_length_c 13.110288
_cell_angle_alpha 90.000000
_cell_angle_beta 74.459324
_cell_angle_gamma 90.000000
_cell_volume 847.518981
_symmetry_space_group_name_H-M "P 21/C"
_symmetry_group_IT_number 14
_symmetry_cell_setting 'monoclinic'
loop_
_space_group_symop_operation_xyz
x,y,z
-x,1/2+y,1/2-z
-x,-y,-z
x,1/2-y,1/2+z
loop_
_atom_site_type_symbol
_atom_site_label
_atom_site_fract_x
_atom_site_fract_y
_atom_site_fract_z
Si Si1 0.752011 0.392793 0.530141
Si Si2 0.568458 0.391087 0.727215
Si Si3 0.761377 0.318851 0.818468
Si Si4 0.136850 0.320834 0.665640
Si Si5 0.960352 0.252427 0.569315
O O1 0.636774 0.456858 0.608126
O O2 0.740031 0.175065 0.446180
O O3 0.799844 0.645861 0.459929
O O4 0.829578 0.280943 0.601161
O O5 0.510862 0.654616 0.775696
O O6 0.646332 0.294720 0.796183
O O7 0.819950 0.586922 0.776532
O O8 0.841584 0.076599 0.771131
O O9 0.011751 0.266039 0.670036
O O10 0.000000 0.500000 0.500000
O O11 0.000000 0.000000 0.500000
#
# Coordination Sequence:
#
# PCOD8123277 Si02
#       5
#     4   4   4   4   4
#     4   9  23  38  66  86 123 159 195 239 308 347
#     4  12  28  43  59  87 119 157 212 258 292 347
#     4  10  21  40  62  85 123 151 202 245 298 354
#     4   9  18  37  62  92 119 153 187 241 298 367
#     4  10  16  32  62  93 117 153 188 231 293 365
#
# _framework density 23.598289999999999
#
# number of rings (size 3 to 8) (size 9 to 14) (size 15 to 20)
#    1.200    0.800    2.000    1.200    2.800    1.600 
#    0.000    2.000    0.000    0.000    0.000    0.000 
#    0.000    0.000    0.000    0.000    0.000    0.000 
#
# Total GULP energy -247806.339295 kJ/mol
# GULP energy per Si atom -12390.316965 kJ/mol
# Density = 2.354458 g / cm^3
# Si number density = 23.598290 Si / 1000 Ang^3
#
#
#
# Elastic Constant Matrix: (Units=GPa)
#
#
# Indices 1 2 3 4 5 6 
#
# 1 111.0048 31.3037 18.4986 0.0000 0.4541 0.0000
# 2 31.3037 153.9498 7.5058 0.0000 -0.6860 0.0000
# 3 18.4986 7.5058 18.2247 0.0000 -3.3804 0.0000
# 4 0.0000 0.0000 0.0000 27.0679 0.0000 10.1072
# 5 0.4541 -0.6860 -3.3804 0.0000 48.9808 0.0000
# 6 0.0000 0.0000 0.0000 10.1072 0.0000 38.7425
#
#
#
# Elastic Compliance Matrix: (Units=1/GPa)
#
#
# Indices 1 2 3 4 5 6 
#
# 1 0.011336 -0.001776 -0.010939 0.000000 -0.000885 0.000000
# 2 -0.001776 0.006907 -0.001035 0.000000 0.000042 0.000000
# 3 -0.010939 -0.001035 0.067278 0.000000 0.004730 0.000000
# 4 0.000000 0.000000 0.000000 0.040931 0.000000 -0.010678
# 5 -0.000885 0.000042 0.004730 0.000000 0.020751 0.000000
# 6 0.000000 0.000000 0.000000 -0.010678 0.000000 0.028597
#
#
# Mechanical properties :
#
#
# Convention : Reuss Voigt Hill
#
# Bulk Modulus (GPa) = 17.23487 44.19950 30.71719
# Shear Modulus (GPa) = 22.45775 38.01633 30.23704
#
# Velocity S-wave (km/s) = 3.08826 4.01805 3.58344
# Velocity P-wave (km/s) = 4.47613 6.34799 5.49239
#
# Compressibility (1/GPa) = 0.05802190
#
# Stress axis : x y z
#
# Youngs Moduli (GPa) = 88.21499 144.77423 14.86379
#
# Poissons Ratio (x) = 0.25706 0.16260
# Poissons Ratio (y) = 0.15664 0.01538
# Poissons Ratio (z) = 0.96500 0.14980
#
# Static dielectric constant tensor:
#      x y z
#    x 4.494380 0.000000 0.183790 
#    y 0.000000 4.075730 0.000000 
#    z 0.183790 0.000000 3.827540 
# 
# 
# High freq. dielectric constant tensor:
#      x y z
#    x 1.936510 0.000000 0.012100 
#    y 0.000000 1.937170 0.000000 
#    z 0.012100 0.000000 1.925230 
# 
# From -- ./inp_files/42430.got.cif
#   From: 2010.03.12/outbox.cif.g09.slc.cpg/sg14_22_cif.got.tgz:42430.got - 2010.03.31 13:35:05.
