data_PCOD8123859
_publ_section_title
;
Structure prediction by ZEFSAII (Michael W. Deem and Ramdas Pophale) SiO2 
 PCOD8123859
Probable space group: P 21/C
;
_chemical_formula_sum "Si O2"
_cell_formula_units_Z 28
_cell_length_a 9.198036
_cell_length_b 12.436194
_cell_length_c 21.099173
_cell_angle_alpha 90.000000
_cell_angle_beta 143.062172
_cell_angle_gamma 90.000000
_cell_volume 1450.390570
_symmetry_space_group_name_H-M "P 21/C"
_symmetry_group_IT_number 14
_symmetry_cell_setting 'monoclinic'
loop_
_space_group_symop_operation_xyz
x,y,z
-x,1/2+y,1/2-z
-x,-y,-z
x,1/2-y,1/2+z
loop_
_atom_site_type_symbol
_atom_site_label
_atom_site_fract_x
_atom_site_fract_y
_atom_site_fract_z
Si Si1 0.928588 0.935427 0.913290
Si Si2 0.737112 0.511859 0.122689
Si Si3 0.135906 0.253448 0.305377
Si Si4 0.358926 0.774953 0.065033
Si Si5 0.213457 0.885033 0.235941
Si Si6 0.571740 0.741494 0.774145
Si Si7 0.978896 0.349750 0.129628
O O1 0.693808 0.855933 0.836815
O O2 0.880398 0.024603 0.844116
O O3 0.162575 0.864887 0.979652
O O4 0.000000 0.000000 0.000000
O O5 0.817904 0.630505 0.165070
O O6 0.681610 0.445091 0.166666
O O7 0.959888 0.463212 0.159249
O O8 0.500000 0.500000 0.000000
O O9 0.391443 0.312309 0.380229
O O10 0.982596 0.258792 0.186687
O O11 0.010578 0.309409 0.321707
O O12 0.393376 0.747351 0.151433
O O13 0.258984 0.666526 0.996889
O O14 0.420604 0.808036 0.279319
O O15 0.780468 0.655427 0.829286
#
# Coordination Sequence:
#
# PCOD8123859 Si02
#       7
#     4   4   4   4   4   4   4
#     4  11  23  41  66  90 129 167 207 261 323 373
#     4  11  21  39  63  89 124 163 207 256 310 363
#     4  10  22  39  61  90 128 161 212 262 304 377
#     4  10  18  40  63  89 124 166 205 256 321 374
#     4  11  24  42  62  97 126 162 216 261 306 381
#     4  10  22  40  64  90 129 163 210 261 310 382
#     4   9  20  37  62  88 123 169 201 256 322 366
#
# _framework density 19.305145
#
# number of rings (size 3 to 8) (size 9 to 14) (size 15 to 20)
#    0.000    1.714    2.857    2.571    0.000    2.857 
#    2.571    0.714    0.000    0.000    0.000    0.000 
#    0.000    0.000    0.000    0.000    0.000    0.000 
#
# Total GULP energy -347027.013998 kJ/mol
# GULP energy per Si atom -12393.821928 kJ/mol
# Density = 1.926121 g / cm^3
# Si number density = 19.305145 Si / 1000 Ang^3
#
#
#
# Elastic Constant Matrix: (Units=GPa)
#
#
# Indices 1 2 3 4 5 6 
#
# 1 135.3245 65.6539 48.9950 0.0000 0.6722 0.0000
# 2 65.6539 123.1148 50.8495 0.0000 2.0140 0.0000
# 3 48.9950 50.8495 121.4832 0.0000 -5.9026 0.0000
# 4 0.0000 0.0000 0.0000 29.5215 0.0000 0.4278
# 5 0.6722 2.0140 -5.9026 0.0000 19.7810 0.0000
# 6 0.0000 0.0000 0.0000 0.4278 0.0000 29.2194
#
#
#
# Elastic Compliance Matrix: (Units=1/GPa)
#
#
# Indices 1 2 3 4 5 6 
#
# 1 0.010472 -0.004617 -0.002319 0.000000 -0.000578 0.000000
# 2 -0.004617 0.011957 -0.003241 0.000000 -0.002028 0.000000
# 3 -0.002319 -0.003241 0.010698 0.000000 0.003601 0.000000
# 4 0.000000 0.000000 0.000000 0.033881 0.000000 -0.000496
# 5 -0.000578 -0.002028 0.003601 0.000000 0.051854 0.000000
# 6 0.000000 0.000000 0.000000 -0.000496 0.000000 0.034231
#
#
# Mechanical properties :
#
#
# Convention : Reuss Voigt Hill
#
# Bulk Modulus (GPa) = 78.29196 78.99105 78.64150
# Shear Modulus (GPa) = 28.13647 29.99933 29.06790
#
# Velocity S-wave (km/s) = 3.82181 3.94630 3.88455
# Velocity P-wave (km/s) = 7.75358 7.85941 7.80667
#
# Compressibility (1/GPa) = 0.01277270
#
# Stress axis : x y z
#
# Youngs Moduli (GPa) = 95.49052 83.63584 93.47211
#
# Poissons Ratio (x) = 0.38618 0.21675
# Poissons Ratio (y) = 0.44091 0.30294
# Poissons Ratio (z) = 0.22143 0.27106
#
# Static dielectric constant tensor:
#      x y z
#    x 3.567900 0.000000 0.163300 
#    y 0.000000 4.894370 0.000000 
#    z 0.163300 0.000000 3.044810 
# 
# 
# High freq. dielectric constant tensor:
#      x y z
#    x 1.749170 0.000000 -0.006000 
#    y 0.000000 1.747160 0.000000 
#    z -0.006000 0.000000 1.766850 
# 
# From -- ./inp_files/65644.got.cif
#   From: 2010.03.12/outbox.cif.g09.slc.cpg/sg14_33_cif.got.tgz:65644.got - 2010.03.31 13:35:05.
