data_PCOD8123994
_publ_section_title
;
Structure prediction by ZEFSAII (Michael W. Deem and Ramdas Pophale) SiO2 
 PCOD8123994
Probable space group: P 21/C
;
_chemical_formula_sum "Si O2"
_cell_formula_units_Z 32
_cell_length_a 16.063467
_cell_length_b 8.342908
_cell_length_c 23.161457
_cell_angle_alpha 90.000000
_cell_angle_beta 28.735843
_cell_angle_gamma 90.000000
_cell_volume 1492.319786
_symmetry_space_group_name_H-M "P 21/C"
_symmetry_group_IT_number 14
_symmetry_cell_setting 'monoclinic'
loop_
_space_group_symop_operation_xyz
x,y,z
-x,1/2+y,1/2-z
-x,-y,-z
x,1/2-y,1/2+z
loop_
_atom_site_type_symbol
_atom_site_label
_atom_site_fract_x
_atom_site_fract_y
_atom_site_fract_z
Si Si1 0.823475 0.148323 0.817702
Si Si2 0.990918 0.961464 0.814745
Si Si3 0.543947 0.747613 0.462551
Si Si4 0.765511 0.504422 0.675677
Si Si5 0.896450 0.663167 0.491009
Si Si6 0.895166 0.973840 0.435633
Si Si7 0.432388 0.033266 0.446647
Si Si8 0.134128 0.248795 0.795761
O O1 0.881217 0.333810 0.794449
O O2 0.931333 0.100636 0.696401
O O3 0.857999 0.031032 0.849689
O O4 0.619022 0.130564 0.930332
O O5 0.877105 0.889438 0.936052
O O6 0.111350 0.101472 0.765483
O O7 0.592486 0.815372 0.496211
O O8 0.709167 0.656049 0.332667
O O9 0.485441 0.882024 0.452243
O O10 0.761787 0.555650 0.610229
O O11 0.582910 0.433761 0.807691
O O12 0.810330 0.675712 0.677193
O O13 0.910673 0.370500 0.601484
O O14 0.851269 0.855382 0.516651
O O15 0.743500 0.993217 0.481636
O O16 0.959019 0.151236 0.415252
#
# Coordination Sequence:
#
# PCOD8123994 Si02
#       8
#     4   4   4   4   4   4   4   4
#     4  11  20  33  54  79 114 148 184 229 283 338
#     4  10  19  33  54  81 111 149 187 229 283 336
#     4  10  19  33  54  82 112 148 187 225 276 345
#     4   9  19  40  62  77 104 153 195 230 282 343
#     4   9  20  39  60  80 109 147 193 236 284 341
#     4  11  22  35  55  87 117 143 183 239 289 337
#     4  10  19  34  57  80 110 149 189 227 278 343
#     4  10  20  34  54  80 111 144 186 232 285 343
#
# _framework density 21.443124999999998
#
# number of rings (size 3 to 8) (size 9 to 14) (size 15 to 20)
#    0.000    2.000    0.000    6.750    0.000    2.000 
#    0.000    8.750    0.000    0.000    0.000    0.000 
#    0.000    0.000    0.000    0.000    0.000    0.000 
#
# Total GULP energy -396581.422756 kJ/mol
# GULP energy per Si atom -12393.169461 kJ/mol
# Density = 2.139432 g / cm^3
# Si number density = 21.443125 Si / 1000 Ang^3
#
#
#
# Elastic Constant Matrix: (Units=GPa)
#
#
# Indices 1 2 3 4 5 6 
#
# 1 66.4073 17.1813 20.4488 0.0000 1.7679 0.0000
# 2 17.1813 56.5186 9.1626 0.0000 -3.6947 0.0000
# 3 20.4488 9.1626 90.1463 0.0000 -0.3312 0.0000
# 4 0.0000 0.0000 0.0000 28.4764 0.0000 -4.5048
# 5 1.7679 -3.6947 -0.3312 0.0000 30.9795 0.0000
# 6 0.0000 0.0000 0.0000 -4.5048 0.0000 25.8314
#
#
#
# Elastic Compliance Matrix: (Units=1/GPa)
#
#
# Indices 1 2 3 4 5 6 
#
# 1 0.017421 -0.004839 -0.003466 0.000000 -0.001608 0.000000
# 2 -0.004839 0.019475 -0.000872 0.000000 0.002589 0.000000
# 3 -0.003466 -0.000872 0.011969 0.000000 0.000222 0.000000
# 4 0.000000 0.000000 0.000000 0.036113 0.000000 0.006298
# 5 -0.001608 0.002589 0.000222 0.000000 0.032682 0.000000
# 6 0.000000 0.000000 0.000000 0.006298 0.000000 0.039811
#
#
# Mechanical properties :
#
#
# Convention : Reuss Voigt Hill
#
# Bulk Modulus (GPa) = 32.77588 34.07305 33.42446
# Shear Modulus (GPa) = 26.88247 28.14276 27.51261
#
# Velocity S-wave (km/s) = 3.54455 3.62669 3.58586
# Velocity P-wave (km/s) = 5.66304 5.78460 5.72414
#
# Compressibility (1/GPa) = 0.03051024
#
# Stress axis : x y z
#
# Youngs Moduli (GPa) = 57.40334 51.34792 83.55105
#
# Poissons Ratio (x) = 0.24847 0.28957
# Poissons Ratio (y) = 0.27778 0.07288
# Poissons Ratio (z) = 0.19895 0.04479
#
# Static dielectric constant tensor:
#      x y z
#    x 3.770230 0.000000 0.135950 
#    y 0.000000 4.139300 0.000000 
#    z 0.135950 0.000000 4.040100 
# 
# 
# High freq. dielectric constant tensor:
#      x y z
#    x 1.822270 0.000000 0.002280 
#    y 0.000000 1.837860 0.000000 
#    z 0.002280 0.000000 1.836850 
# 
# From -- ./inp_files/73827.got.cif
#   From: 2010.03.12/outbox.cif.g09.slc.cpg/sg14_37_cif.got.tgz:73827.got - 2010.03.31 13:35:05.
