data_PCOD8123794
_publ_section_title
;
Structure prediction by ZEFSAII (Michael W. Deem and Ramdas Pophale) SiO2 
 PCOD8123794
Probable space group: P 21/C
;
_chemical_formula_sum "Si O2"
_cell_formula_units_Z 32
_cell_length_a 15.126216
_cell_length_b 17.521152
_cell_length_c 11.494375
_cell_angle_alpha 90.000000
_cell_angle_beta 30.202996
_cell_angle_gamma 90.000000
_cell_volume 1532.507257
_symmetry_space_group_name_H-M "P 21/C"
_symmetry_group_IT_number 14
_symmetry_cell_setting 'monoclinic'
loop_
_space_group_symop_operation_xyz
x,y,z
-x,1/2+y,1/2-z
-x,-y,-z
x,1/2-y,1/2+z
loop_
_atom_site_type_symbol
_atom_site_label
_atom_site_fract_x
_atom_site_fract_y
_atom_site_fract_z
Si Si1 0.883679 0.637732 0.805315
Si Si2 0.491376 0.142336 0.334619
Si Si3 0.529765 0.418314 0.024338
Si Si4 0.346754 0.011948 0.924751
Si Si5 0.954959 0.026116 0.290321
Si Si6 0.897204 0.145289 0.168299
Si Si7 0.177684 0.544242 0.818172
Si Si8 0.835945 0.311205 0.330016
O O1 0.868608 0.546004 0.825201
O O2 0.969889 0.660805 0.586495
O O3 0.989067 0.672376 0.794117
O O4 0.684733 0.671295 0.030480
O O5 0.461470 0.145112 0.509399
O O6 0.528636 0.055643 0.257124
O O7 0.661337 0.191565 0.107902
O O8 0.734961 0.405497 0.810138
O O9 0.500000 0.500000 0.000000
O O10 0.426031 0.413516 0.268062
O O11 0.144845 0.997046 0.117543
O O12 0.333972 0.008969 0.081732
O O13 0.988328 0.097438 0.167741
O O14 0.815162 0.052446 0.550034
O O15 0.839559 0.227604 0.275078
O O16 0.180155 0.627614 0.755826
O O17 0.000000 0.500000 0.000000
#
# Coordination Sequence:
#
# PCOD8123794 Si02
#       8
#     4   4   4   4   4   4   4   4
#     4  12  22  44  71  93 129 174 226 276 332 400
#     4  10  20  40  67  91 128 173 212 271 338 390
#     4  10  18  37  62  93 131 162 219 280 322 392
#     4   9  17  35  61  96 128 161 217 276 316 388
#     4  11  20  38  70  99 125 177 232 274 336 397
#     4  12  26  39  68 101 136 177 225 284 349 398
#     4   9  18  38  66  88 130 184 213 273 335 397
#     4  11  24  46  62  95 144 173 214 282 345 399
#
# _framework density 20.880815999999999
#
# number of rings (size 3 to 8) (size 9 to 14) (size 15 to 20)
#    0.000    1.500    5.000    3.375    1.750    0.000 
#    4.500    5.625    0.000    0.000    0.000    0.000 
#    0.000    0.000    0.000    0.000    0.000    0.000 
#
# Total GULP energy -396432.615065 kJ/mol
# GULP energy per Si atom -12388.519221 kJ/mol
# Density = 2.083329 g / cm^3
# Si number density = 20.880816 Si / 1000 Ang^3
#
#
#
# Elastic Constant Matrix: (Units=GPa)
#
#
# Indices 1 2 3 4 5 6 
#
# 1 58.0491 18.0775 37.3976 0.0000 -3.4899 0.0000
# 2 18.0775 81.7808 19.8141 0.0000 4.0015 0.0000
# 3 37.3976 19.8141 111.8122 0.0000 -3.3660 0.0000
# 4 0.0000 0.0000 0.0000 19.4316 0.0000 2.0395
# 5 -3.4899 4.0015 -3.3660 0.0000 41.3919 0.0000
# 6 0.0000 0.0000 0.0000 2.0395 0.0000 19.0767
#
#
#
# Elastic Compliance Matrix: (Units=1/GPa)
#
#
# Indices 1 2 3 4 5 6 
#
# 1 0.022914 -0.003452 -0.007001 0.000000 0.001696 0.000000
# 2 -0.003452 0.013380 -0.001267 0.000000 -0.001688 0.000000
# 3 -0.007001 -0.001267 0.011524 0.000000 0.000469 0.000000
# 4 0.000000 0.000000 0.000000 0.052047 0.000000 -0.005564
# 5 0.001696 -0.001688 0.000469 0.000000 0.024504 0.000000
# 6 0.000000 0.000000 0.000000 -0.005564 0.000000 0.053015
#
#
# Mechanical properties :
#
#
# Convention : Reuss Voigt Hill
#
# Bulk Modulus (GPa) = 41.02127 44.69115 42.85621
# Shear Modulus (GPa) = 23.92908 27.73691 25.83300
#
# Velocity S-wave (km/s) = 3.38891 3.64860 3.52115
# Velocity P-wave (km/s) = 5.91617 6.26092 6.09098
#
# Compressibility (1/GPa) = 0.02437760
#
# Stress axis : x y z
#
# Youngs Moduli (GPa) = 43.64093 74.73575 86.77536
#
# Poissons Ratio (x) = 0.25798 0.60754
# Poissons Ratio (y) = 0.15064 0.10998
# Poissons Ratio (z) = 0.30554 0.09472
#
# Static dielectric constant tensor:
#      x y z
#    x 4.323900 0.000000 0.714780 
#    y 0.000000 3.439390 0.000000 
#    z 0.714780 0.000000 4.477860 
# 
# 
# High freq. dielectric constant tensor:
#      x y z
#    x 1.815020 0.000000 0.013940 
#    y 0.000000 1.777290 0.000000 
#    z 0.013940 0.000000 1.833240 
# 
# From -- ./inp_files/33036.got.cif
#   From: 2010.03.12/outbox.cif.g09.slc.cpg/sg14_17_cif.got.tgz:33036.got - 2010.03.31 13:35:05.
