data_PCOD8123966
_publ_section_title
;
Structure prediction by ZEFSAII (Michael W. Deem and Ramdas Pophale) SiO2 
 PCOD8123966
Probable space group: P 21/C
;
_chemical_formula_sum "Si O2"
_cell_formula_units_Z 32
_cell_length_a 8.827487
_cell_length_b 18.417213
_cell_length_c 10.268654
_cell_angle_alpha 90.000000
_cell_angle_beta 84.729209
_cell_angle_gamma 90.000000
_cell_volume 1662.395213
_symmetry_space_group_name_H-M "P 21/C"
_symmetry_group_IT_number 14
_symmetry_cell_setting 'monoclinic'
loop_
_space_group_symop_operation_xyz
x,y,z
-x,1/2+y,1/2-z
-x,-y,-z
x,1/2-y,1/2+z
loop_
_atom_site_type_symbol
_atom_site_label
_atom_site_fract_x
_atom_site_fract_y
_atom_site_fract_z
Si Si1 0.461635 0.389765 0.748711
Si Si2 0.841418 0.953593 0.646228
Si Si3 0.665057 0.894330 0.019156
Si Si4 0.062529 0.072196 0.650144
Si Si5 0.113062 0.230937 0.623732
Si Si6 0.260470 0.978069 0.824277
Si Si7 0.311211 0.253692 0.855596
Si Si8 0.987379 0.879934 0.867971
O O1 0.334833 0.447146 0.805555
O O2 0.443786 0.380267 0.594610
O O3 0.626427 0.424771 0.764200
O O4 0.446432 0.313596 0.829141
O O5 0.864136 0.936261 0.495541
O O6 0.946427 0.898928 0.721817
O O7 0.896929 0.035374 0.673541
O O8 0.628640 0.827730 0.121420
O O9 0.637954 0.974172 0.083244
O O10 0.844280 0.896265 0.971541
O O11 0.037442 0.157042 0.680948
O O12 0.181593 0.037095 0.739129
O O13 0.231848 0.258892 0.721633
O O14 0.199418 0.220080 0.479711
O O15 0.982274 0.293049 0.623004
O O16 0.133508 0.926433 0.903128
#
# Coordination Sequence:
#
# PCOD8123966 Si02
#       8
#     4   4   4   4   4   4   4   4
#     4  11  21  37  56  79 120 150 179 237 292 339
#     4   9  18  35  52  79 112 143 179 227 288 326
#     4  10  20  37  60  78 105 153 198 225 274 344
#     4  10  19  32  58  81 106 142 192 234 269 341
#     4  11  18  35  61  81 108 142 201 231 279 333
#     4  11  22  34  56  87 114 145 189 235 288 337
#     4  11  19  35  60  84 102 152 193 229 273 351
#     4   9  19  35  58  81 106 145 188 240 276 326
#
# _framework density 19.249333
#
# number of rings (size 3 to 8) (size 9 to 14) (size 15 to 20)
#    0.000    1.750    6.250    0.750    0.000    0.500 
#    0.000    1.250   13.750    0.000    0.000    0.000 
#    0.000    0.000    0.000    0.000    0.000    0.000 
#
# Total GULP energy -396599.588532 kJ/mol
# GULP energy per Si atom -12393.737142 kJ/mol
# Density = 1.920552 g / cm^3
# Si number density = 19.249333 Si / 1000 Ang^3
#
#
#
# Elastic Constant Matrix: (Units=GPa)
#
#
# Indices 1 2 3 4 5 6 
#
# 1 39.5340 30.7640 2.6081 0.0000 -10.0171 0.0000
# 2 30.7640 160.2120 21.1415 0.0000 -11.4211 0.0000
# 3 2.6081 21.1415 69.5756 0.0000 2.3635 0.0000
# 4 0.0000 0.0000 0.0000 31.0617 0.0000 -8.9213
# 5 -10.0171 -11.4211 2.3635 0.0000 16.9161 0.0000
# 6 0.0000 0.0000 0.0000 -8.9213 0.0000 19.1992
#
#
#
# Elastic Compliance Matrix: (Units=1/GPa)
#
#
# Indices 1 2 3 4 5 6 
#
# 1 0.033532 -0.005245 -0.000219 0.000000 0.016346 0.000000
# 2 -0.005245 0.007715 -0.002230 0.000000 0.002415 0.000000
# 3 -0.000219 -0.002230 0.015186 0.000000 -0.003757 0.000000
# 4 0.000000 0.000000 0.000000 0.037152 0.000000 0.017264
# 5 0.016346 0.002415 -0.003757 0.000000 0.070950 0.000000
# 6 0.000000 0.000000 0.000000 0.017264 0.000000 0.060107
#
#
# Mechanical properties :
#
#
# Convention : Reuss Voigt Hill
#
# Bulk Modulus (GPa) = 24.36214 42.03878 33.20046
# Shear Modulus (GPa) = 19.70739 27.75593 23.73166
#
# Velocity S-wave (km/s) = 3.20315 3.80138 3.51501
# Velocity P-wave (km/s) = 5.13457 6.41512 5.81023
#
# Compressibility (1/GPa) = 0.04104729
#
# Stress axis : x y z
#
# Youngs Moduli (GPa) = 29.82215 129.61393 65.84914
#
# Poissons Ratio (x) = 0.67979 0.01439
# Poissons Ratio (y) = 0.15641 0.14683
# Poissons Ratio (z) = 0.00652 0.28901
#
# Static dielectric constant tensor:
#      x y z
#    x 3.145740 0.000000 0.041110 
#    y 0.000000 4.011040 0.000000 
#    z 0.041110 0.000000 3.518280 
# 
# 
# High freq. dielectric constant tensor:
#      x y z
#    x 1.699750 0.000000 0.006540 
#    y 0.000000 1.769180 0.000000 
#    z 0.006540 0.000000 1.750890 
# 
# From -- ./inp_files/26068.got.cif
#   From: 2010.03.12/outbox.cif.g09.slc.cpg/sg14_14_cif.got.tgz:26068.got - 2010.03.31 13:35:05.
