data_PCOD8123890
_publ_section_title
;
Structure prediction by ZEFSAII (Michael W. Deem and Ramdas Pophale) SiO2 
 PCOD8123890
Probable space group: P 21/C
;
_chemical_formula_sum "Si O2"
_cell_formula_units_Z 32
_cell_length_a 12.324548
_cell_length_b 17.583908
_cell_length_c 22.921721
_cell_angle_alpha 90.000000
_cell_angle_beta 21.576722
_cell_angle_gamma 90.000000
_cell_volume 1826.764226
_symmetry_space_group_name_H-M "P 21/C"
_symmetry_group_IT_number 14
_symmetry_cell_setting 'monoclinic'
loop_
_space_group_symop_operation_xyz
x,y,z
-x,1/2+y,1/2-z
-x,-y,-z
x,1/2-y,1/2+z
loop_
_atom_site_type_symbol
_atom_site_label
_atom_site_fract_x
_atom_site_fract_y
_atom_site_fract_z
Si Si1 0.846718 0.824295 0.947850
Si Si2 0.168107 0.887930 0.894095
Si Si3 0.169247 0.948378 0.495813
Si Si4 0.155568 0.516681 0.737887
Si Si5 0.831869 0.887936 0.562212
Si Si6 0.155605 0.016687 0.106525
Si Si7 0.846766 0.324304 0.205416
Si Si8 0.169228 0.051617 0.834952
O O1 0.924593 0.896175 0.868305
O O2 0.976972 0.834796 0.947484
O O3 0.999975 0.749998 0.842871
O O4 0.499976 0.811238 0.126068
O O5 0.499996 0.855449 0.733725
O O6 0.176407 0.972170 0.864564
O O7 0.016081 0.888414 0.033800
O O8 0.500012 0.916985 0.339299
O O9 0.983934 0.888413 0.549869
O O10 0.176432 0.027816 0.459003
O O11 0.017811 0.958098 0.634348
O O12 0.499989 0.501538 0.575533
O O13 0.056153 0.499995 0.721921
O O14 0.075383 0.603823 0.792898
O O15 0.023002 0.834809 0.424463
O O16 0.982203 0.958102 0.152154
#
# Coordination Sequence:
#
# PCOD8123890 Si02
#       8
#     4   4   4   4   4   4   4   4
#     4  10  19  31  48  70  96 124 156 197 245 295
#     4   9  16  27  44  66  92 120 149 184 230 281
#     4   9  16  26  43  68  94 118 148 189 234 278
#     4   9  18  32  49  69  94 127 167 206 242 285
#     4   9  16  27  44  66  92 120 149 184 230 281
#     4   9  18  32  49  69  94 127 167 206 242 285
#     4  10  19  31  48  70  96 124 156 197 245 295
#     4   9  16  26  43  68  94 118 148 189 234 278
#
# _framework density 17.517312
#
# number of rings (size 3 to 8) (size 9 to 14) (size 15 to 20)
#    0.000    2.750    0.000    2.250    0.000    7.500 
#    0.000    0.000    0.000    1.500    0.000    7.000 
#    0.000    0.000    0.000    0.000    0.000    0.000 
#
# Total GULP energy -396778.342875 kJ/mol
# GULP energy per Si atom -12399.323215 kJ/mol
# Density = 1.747744 g / cm^3
# Si number density = 17.517312 Si / 1000 Ang^3
#
#
#
# Elastic Constant Matrix: (Units=GPa)
#
#
# Indices 1 2 3 4 5 6 
#
# 1 135.5375 37.3153 64.1056 0.0000 4.6296 0.0000
# 2 37.3153 54.2348 34.0029 0.0000 0.9850 0.0000
# 3 64.1056 34.0029 114.8176 0.0000 1.5070 0.0000
# 4 0.0000 0.0000 0.0000 24.0911 0.0000 -2.7325
# 5 4.6296 0.9850 1.5070 0.0000 28.8248 0.0000
# 6 0.0000 0.0000 0.0000 -2.7325 0.0000 14.8645
#
#
#
# Elastic Compliance Matrix: (Units=1/GPa)
#
#
# Indices 1 2 3 4 5 6 
#
# 1 0.010906 -0.004510 -0.004736 0.000000 -0.001350 0.000000
# 2 -0.004510 0.024513 -0.004743 0.000000 0.000135 0.000000
# 3 -0.004736 -0.004743 0.012755 0.000000 0.000256 0.000000
# 4 0.000000 0.000000 0.000000 0.042393 0.000000 0.007793
# 5 -0.001350 0.000135 0.000256 0.000000 0.034891 0.000000
# 6 0.000000 0.000000 0.000000 0.007793 0.000000 0.068707
#
#
# Mechanical properties :
#
#
# Convention : Reuss Voigt Hill
#
# Bulk Modulus (GPa) = 49.51526 63.93752 56.72639
# Shear Modulus (GPa) = 21.84615 24.83381 23.33998
#
# Velocity S-wave (km/s) = 3.53529 3.76928 3.65416
# Velocity P-wave (km/s) = 6.70762 7.45132 7.08923
#
# Compressibility (1/GPa) = 0.02019579
#
# Stress axis : x y z
#
# Youngs Moduli (GPa) = 91.69638 40.79539 78.40217
#
# Poissons Ratio (x) = 0.18398 0.37128
# Poissons Ratio (y) = 0.41354 0.37187
# Poissons Ratio (z) = 0.43423 0.19350
#
# Static dielectric constant tensor:
#      x y z
#    x 3.194880 0.000000 -0.068220 
#    y 0.000000 3.002140 0.000000 
#    z -0.068220 0.000000 3.424180 
# 
# 
# High freq. dielectric constant tensor:
#      x y z
#    x 1.662840 0.000000 -0.008300 
#    y 0.000000 1.639120 0.000000 
#    z -0.008300 0.000000 1.690780 
# 
# From -- ./inp_files/73367.got.cif
#   From: 2010.03.12/outbox.cif.g09.slc.cpg/sg14_37_cif.got.tgz:73367.got - 2010.03.31 13:35:05.
