data_PCOD8123356
_publ_section_title
;
Structure prediction by ZEFSAII (Michael W. Deem and Ramdas Pophale) SiO2 
 PCOD8123356
Probable space group: P 21/C
;
_chemical_formula_sum "Si O2"
_cell_formula_units_Z 32
_cell_length_a 9.672756
_cell_length_b 19.019139
_cell_length_c 16.383489
_cell_angle_alpha 90.000000
_cell_angle_beta 145.170728
_cell_angle_gamma 90.000000
_cell_volume 1721.411670
_symmetry_space_group_name_H-M "P 21/C"
_symmetry_group_IT_number 14
_symmetry_cell_setting 'monoclinic'
loop_
_space_group_symop_operation_xyz
x,y,z
-x,1/2+y,1/2-z
-x,-y,-z
x,1/2-y,1/2+z
loop_
_atom_site_type_symbol
_atom_site_label
_atom_site_fract_x
_atom_site_fract_y
_atom_site_fract_z
Si Si1 0.576990 0.549450 0.258101
Si Si2 0.588002 0.095032 0.706263
Si Si3 0.036802 0.398828 0.673926
Si Si4 0.284171 0.312468 0.514125
Si Si5 0.752486 0.334541 0.830665
Si Si6 0.123270 0.692525 0.547572
Si Si7 0.883112 0.954198 0.066959
Si Si8 0.171529 0.337279 0.911198
O O1 0.458444 0.473053 0.183607
O O2 0.354480 0.597844 0.176634
O O3 0.787235 0.540716 0.427594
O O4 0.704269 0.581116 0.239284
O O5 0.642267 0.154850 0.799393
O O6 0.427090 0.127076 0.555929
O O7 0.837301 0.066188 0.790804
O O8 0.912157 0.338152 0.559622
O O9 0.861638 0.468071 0.596454
O O10 0.070306 0.366839 0.778713
O O11 0.560333 0.300546 0.674465
O O12 0.261394 0.389532 0.458179
O O13 0.200039 0.247650 0.417212
O O14 0.116654 0.319512 0.513918
O O15 0.821084 0.275633 0.931094
O O16 0.989260 0.356960 0.895580
#
# Coordination Sequence:
#
# PCOD8123356 Si02
#       8
#     4   4   4   4   4   4   4   4
#     4  10  18  35  62  82 105 147 199 218 258 331
#     4  10  17  33  57  84 106 143 182 231 262 327
#     4  11  19  36  57  91 103 136 194 241 257 316
#     4   9  18  36  58  76 104 154 184 214 266 349
#     4  10  20  37  55  79 111 156 176 221 277 344
#     4  10  17  34  62  79  98 144 202 218 252 326
#     4   9  17  33  64  82 100 144 201 222 252 322
#     4  11  24  33  52  87 122 135 171 231 304 308
#
# _framework density 18.589393999999999
#
# number of rings (size 3 to 8) (size 9 to 14) (size 15 to 20)
#    0.000    2.000    6.250    0.750    0.000    2.500 
#    2.250    3.750    0.000    0.000    0.000    0.000 
#    0.000    0.000    0.000    0.000    0.000    0.000 
#
# Total GULP energy -396560.081289 kJ/mol
# GULP energy per Si atom -12392.502540 kJ/mol
# Density = 1.854708 g / cm^3
# Si number density = 18.589394 Si / 1000 Ang^3
#
#
#
# Elastic Constant Matrix: (Units=GPa)
#
#
# Indices 1 2 3 4 5 6 
#
# 1 28.2026 37.8681 18.1963 0.0000 -5.0568 0.0000
# 2 37.8681 126.4977 58.6072 0.0000 -22.5439 0.0000
# 3 18.1963 58.6072 87.1115 0.0000 -11.4841 0.0000
# 4 0.0000 0.0000 0.0000 35.1867 0.0000 0.2419
# 5 -5.0568 -22.5439 -11.4841 0.0000 22.4545 0.0000
# 6 0.0000 0.0000 0.0000 0.2419 0.0000 22.8205
#
#
#
# Elastic Compliance Matrix: (Units=1/GPa)
#
#
# Indices 1 2 3 4 5 6 
#
# 1 0.059874 -0.018564 -0.000747 0.000000 -0.005536 0.000000
# 2 -0.018564 0.018814 -0.007335 0.000000 0.010956 0.000000
# 3 -0.000747 -0.007335 0.016704 0.000000 0.001010 0.000000
# 4 0.000000 0.000000 0.000000 0.028422 0.000000 -0.000301
# 5 -0.005536 0.010956 0.001010 0.000000 0.054804 0.000000
# 6 0.000000 0.000000 0.000000 -0.000301 0.000000 0.043823
#
#
# Mechanical properties :
#
#
# Convention : Reuss Voigt Hill
#
# Bulk Modulus (GPa) = 23.75399 52.35055 38.05227
# Shear Modulus (GPa) = 17.25526 24.56835 20.91181
#
# Velocity S-wave (km/s) = 3.04999 3.63937 3.35764
# Velocity P-wave (km/s) = 5.02088 6.77368 5.96204
#
# Compressibility (1/GPa) = 0.04209820
#
# Stress axis : x y z
#
# Youngs Moduli (GPa) = 16.70185 53.15245 59.86641
#
# Poissons Ratio (x) = 0.98674 0.04471
# Poissons Ratio (y) = 0.31006 0.43914
# Poissons Ratio (z) = 0.01247 0.38990
#
# Static dielectric constant tensor:
#      x y z
#    x 2.901420 0.000000 0.156060 
#    y 0.000000 4.029940 0.000000 
#    z 0.156060 0.000000 3.245150 
# 
# 
# High freq. dielectric constant tensor:
#      x y z
#    x 1.664630 0.000000 0.016760 
#    y 0.000000 1.751080 0.000000 
#    z 0.016760 0.000000 1.708820 
# 
# From -- ./inp_files/26832.got.cif
#   From: 2010.03.12/outbox.cif.g09.slc.cpg/sg14_14_cif.got.tgz:26832.got - 2010.03.31 13:35:05.
