data_PCOD8123102
_publ_section_title
;
Structure prediction by ZEFSAII (Michael W. Deem and Ramdas Pophale) SiO2 
 PCOD8123102
Probable space group: P 2/C
;
_chemical_formula_sum "Si O2"
_cell_formula_units_Z 16
_cell_length_a 9.438949
_cell_length_b 7.660582
_cell_length_c 12.046491
_cell_angle_alpha 90.000000
_cell_angle_beta 43.687666
_cell_angle_gamma 90.000000
_cell_volume 601.661537
_symmetry_space_group_name_H-M "P 2/C"
_symmetry_group_IT_number 13
_symmetry_cell_setting 'monoclinic'
loop_
_space_group_symop_operation_xyz
x,y,z
-x,y,1/2-z
-x,-y,-z
x,-y,1/2+z
loop_
_atom_site_type_symbol
_atom_site_label
_atom_site_fract_x
_atom_site_fract_y
_atom_site_fract_z
Si Si1 0.565141 0.187076 0.418329
Si Si2 0.695777 0.369716 0.562974
Si Si3 0.861493 0.275931 0.936225
Si Si4 0.011521 0.911601 0.877140
O O1 0.618736 0.332149 0.481236
O O2 0.378339 0.253277 0.451969
O O3 0.760915 0.161915 0.225721
O O4 0.500000 0.000000 0.500000
O O5 0.500000 0.393807 0.750000
O O6 0.855184 0.531227 0.491418
O O7 0.831308 0.208309 0.526857
O O8 0.000000 0.285537 0.750000
O O9 0.957862 0.111174 0.954455
O O10 0.000000 0.927216 0.750000
#
# Coordination Sequence:
#
# PCOD8123102 Si02
#       4
#     4   4   4   4
#     4  12  23  49  75 101 143 188 233 294 360 416
#     4  12  28  46  72 108 143 185 240 291 352 427
#     4  12  26  47  75 102 143 188 236 293 359 418
#     4  12  27  46  75 105 145 186 236 293 355 425
#
# _framework density 26.593022999999999
#
# number of rings (size 3 to 8) (size 9 to 14) (size 15 to 20)
#    0.000    0.000    5.000    4.500    3.500    1.000 
#    0.000    0.000    0.000    0.000    0.000    0.000 
#    0.000    0.000    0.000    0.000    0.000    0.000 
#
# Total GULP energy -198299.480455 kJ/mol
# GULP energy per Si atom -12393.717528 kJ/mol
# Density = 2.653250 g / cm^3
# Si number density = 26.593023 Si / 1000 Ang^3
#
#
#
# Elastic Constant Matrix: (Units=GPa)
#
#
# Indices 1 2 3 4 5 6 
#
# 1 128.1315 37.5084 28.9275 0.0000 -26.8808 0.0000
# 2 37.5084 198.8564 68.8659 0.0000 -1.3945 0.0000
# 3 28.9275 68.8659 168.6269 0.0000 -37.1181 0.0000
# 4 0.0000 0.0000 0.0000 35.3716 0.0000 -19.2945
# 5 -26.8808 -1.3945 -37.1181 0.0000 38.7882 0.0000
# 6 0.0000 0.0000 0.0000 -19.2945 0.0000 37.8439
#
#
#
# Elastic Compliance Matrix: (Units=1/GPa)
#
#
# Indices 1 2 3 4 5 6 
#
# 1 0.009802 -0.002080 0.000819 0.000000 0.007502 0.000000
# 2 -0.002080 0.006519 -0.003257 0.000000 -0.004324 0.000000
# 3 0.000819 -0.003257 0.009146 0.000000 0.009203 0.000000
# 4 0.000000 0.000000 0.000000 0.039163 0.000000 0.019967
# 5 0.007502 -0.004324 0.009203 0.000000 0.039631 0.000000
# 6 0.000000 0.000000 0.000000 0.019967 0.000000 0.036604
#
#
# Mechanical properties :
#
#
# Convention : Reuss Voigt Hill
#
# Bulk Modulus (GPa) = 60.86108 85.13538 72.99823
# Shear Modulus (GPa) = 32.17963 46.42161 39.30062
#
# Velocity S-wave (km/s) = 3.48239 4.18261 3.84846
# Velocity P-wave (km/s) = 6.25341 7.44374 6.87439
#
# Compressibility (1/GPa) = 0.01643086
#
# Stress axis : x y z
#
# Youngs Moduli (GPa) = 102.01627 153.40301 109.34260
#
# Poissons Ratio (x) = 0.31909 -0.08959
# Poissons Ratio (y) = 0.21220 0.35615
# Poissons Ratio (z) = -0.08359 0.49967
#
# Static dielectric constant tensor:
#      x y z
#    x 5.107040 0.000000 0.017210 
#    y 0.000000 11.205470 0.000000 
#    z 0.017210 0.000000 5.074140 
# 
# 
# High freq. dielectric constant tensor:
#      x y z
#    x 2.078650 0.000000 -0.005870 
#    y 0.000000 2.088070 0.000000 
#    z -0.005870 0.000000 2.092620 
# 
# From -- ./inp_files/27969.got.cif
#   From: 2010.06.25/outbox.cif.g09.slc.cpg/sg13_14_cif.got.tgz:27969.got - 2010.06.28 04:50:58.
