data_PCOD8123125
_publ_section_title
;
Structure prediction by ZEFSAII (Michael W. Deem and Ramdas Pophale) SiO2 
 PCOD8123125
Probable space group: P 2/C
;
_chemical_formula_sum "Si O2"
_cell_formula_units_Z 28
_cell_length_a 13.633439
_cell_length_b 11.692232
_cell_length_c 8.127023
_cell_angle_alpha 90.000000
_cell_angle_beta 115.688163
_cell_angle_gamma 90.000000
_cell_volume 1167.453029
_symmetry_space_group_name_H-M "P 2/C"
_symmetry_group_IT_number 13
_symmetry_cell_setting 'monoclinic'
loop_
_space_group_symop_operation_xyz
x,y,z
-x,y,1/2-z
-x,-y,-z
x,-y,1/2+z
loop_
_atom_site_type_symbol
_atom_site_label
_atom_site_fract_x
_atom_site_fract_y
_atom_site_fract_z
Si Si1 0.524214 0.202463 0.594459
Si Si2 0.770509 0.448252 0.473648
Si Si3 0.880626 0.321303 0.093288
Si Si4 0.388099 0.439323 0.881050
Si Si5 0.708208 0.160841 0.145206
Si Si6 0.882299 0.248265 0.718989
Si Si7 0.296453 0.915311 0.486855
O O1 0.500000 0.136518 0.750000
O O2 0.588544 0.319213 0.693618
O O3 0.405897 0.230011 0.432452
O O4 0.590690 0.126967 0.512945
O O5 0.842407 0.549986 0.602332
O O6 0.658289 0.408858 0.476244
O O7 0.714638 0.487445 0.262516
O O8 0.845037 0.334777 0.543026
O O9 0.802594 0.239144 0.140753
O O10 0.000000 0.301545 0.250000
O O11 0.880169 0.307382 0.895901
O O12 0.500000 0.500000 0.000000
O O13 0.726663 0.120184 0.343424
O O14 0.703460 0.051489 0.022211
O O15 0.804491 0.139185 0.684864
O O16 0.000000 0.203572 0.750000
#
# Coordination Sequence:
#
# PCOD8123125 Si02
#       7
#     4   4   4   4   4   4   4
#     4  12  24  45  70 106 149 192 242 299 363 436
#     4  12  25  44  70 104 151 192 245 300 365 434
#     4  12  27  48  74 107 143 196 252 307 367 434
#     4  12  25  40  69 106 151 193 238 297 360 439
#     4  12  27  46  78 104 148 190 247 305 372 438
#     4  12  27  47  74 107 149 194 252 307 364 441
#     4  12  26  48  73 111 144 194 243 305 370 440
#
# _framework density 23.983833000000001
#
# number of rings (size 3 to 8) (size 9 to 14) (size 15 to 20)
#    0.000    0.000    2.857    7.714    6.000    2.857 
#    0.000    2.857    0.000    0.000    0.000    0.000 
#    0.000    0.000    0.000    0.000    0.000    0.000 
#
# Total GULP energy -346915.415299 kJ/mol
# GULP energy per Si atom -12389.836261 kJ/mol
# Density = 2.392924 g / cm^3
# Si number density = 23.983833 Si / 1000 Ang^3
#
#
#
# Elastic Constant Matrix: (Units=GPa)
#
#
# Indices 1 2 3 4 5 6 
#
# 1 166.0397 27.7406 24.2746 0.0000 12.3398 0.0000
# 2 27.7406 61.9436 9.3064 0.0000 2.6472 0.0000
# 3 24.2746 9.3064 75.6429 0.0000 9.5703 0.0000
# 4 0.0000 0.0000 0.0000 31.2256 0.0000 -4.8822
# 5 12.3398 2.6472 9.5703 0.0000 52.1049 0.0000
# 6 0.0000 0.0000 0.0000 -4.8822 0.0000 29.9311
#
#
#
# Elastic Compliance Matrix: (Units=1/GPa)
#
#
# Indices 1 2 3 4 5 6 
#
# 1 0.006817 -0.002747 -0.001703 0.000000 -0.001162 0.000000
# 2 -0.002747 0.017567 -0.001279 0.000000 -0.000007 0.000000
# 3 -0.001703 -0.001279 0.014194 0.000000 -0.002139 0.000000
# 4 0.000000 0.000000 0.000000 0.032863 0.000000 0.005360
# 5 -0.001162 -0.000007 -0.002139 0.000000 0.019860 0.000000
# 6 0.000000 0.000000 0.000000 0.005360 0.000000 0.034284
#
#
# Mechanical properties :
#
#
# Convention : Reuss Voigt Hill
#
# Bulk Modulus (GPa) = 36.87255 47.36327 42.11791
# Shear Modulus (GPa) = 34.22705 38.80597 36.51651
#
# Velocity S-wave (km/s) = 3.78178 4.02681 3.90622
# Velocity P-wave (km/s) = 5.87167 6.43515 6.15985
#
# Compressibility (1/GPa) = 0.02712044
#
# Stress axis : x y z
#
# Youngs Moduli (GPa) = 146.69307 56.92652 70.45068
#
# Poissons Ratio (x) = 0.15640 0.11995
# Poissons Ratio (y) = 0.40303 0.09008
# Poissons Ratio (z) = 0.24976 0.07279
#
# Static dielectric constant tensor:
#      x y z
#    x 4.515440 0.000000 0.007110 
#    y 0.000000 4.411240 0.000000 
#    z 0.007110 0.000000 4.442970 
# 
# 
# High freq. dielectric constant tensor:
#      x y z
#    x 1.974150 0.000000 -0.003570 
#    y 0.000000 1.943520 0.000000 
#    z -0.003570 0.000000 1.957970 
# 
# From -- ./inp_files/19098.got.cif
#   From: 2010.06.25/outbox.cif.g09.slc.cpg/sg13_10_cif.got.tgz:19098.got - 2010.06.28 04:50:58.
