data_PCOD8123589
_publ_section_title
;
Structure prediction by ZEFSAII (Michael W. Deem and Ramdas Pophale) SiO2 
 PCOD8123589
Probable space group: P 21/C
;
_chemical_formula_sum "Si O2"
_cell_formula_units_Z 28
_cell_length_a 14.660908
_cell_length_b 16.589349
_cell_length_c 18.224611
_cell_angle_alpha 90.000000
_cell_angle_beta 19.010713
_cell_angle_gamma 90.000000
_cell_volume 1443.863562
_symmetry_space_group_name_H-M "P 21/C"
_symmetry_group_IT_number 14
_symmetry_cell_setting 'monoclinic'
loop_
_space_group_symop_operation_xyz
x,y,z
-x,1/2+y,1/2-z
-x,-y,-z
x,1/2-y,1/2+z
loop_
_atom_site_type_symbol
_atom_site_label
_atom_site_fract_x
_atom_site_fract_y
_atom_site_fract_z
Si Si1 0.072317 0.631382 0.460189
Si Si2 0.799761 0.499946 0.983412
Si Si3 0.945466 0.581416 0.085080
Si Si4 0.011175 0.714593 0.915459
Si Si5 0.553325 0.354569 0.692340
Si Si6 0.415482 0.020453 0.645704
Si Si7 0.689834 0.382752 0.427607
O O1 0.064415 0.694333 0.399756
O O2 0.225561 0.671229 0.413732
O O3 0.238527 0.553873 0.308747
O O4 0.759710 0.603575 0.719804
O O5 0.865822 0.422566 0.984650
O O6 0.090855 0.546157 0.751834
O O7 0.572163 0.556354 0.197162
O O8 0.686713 0.468567 0.991297
O O9 0.620559 0.586821 0.354173
O O10 0.000000 0.500000 0.000000
O O11 0.037529 0.656974 0.966286
O O12 0.240347 0.691507 0.679922
O O13 0.701864 0.708865 0.115150
O O14 0.715893 0.353509 0.491641
O O15 0.500000 0.000000 0.500000
#
# Coordination Sequence:
#
# PCOD8123589 Si02
#       7
#     4   4   4   4   4   4   4
#     4  10  22  41  58  80 117 150 190 247 289 336
#     4  10  19  33  57  87 113 147 196 237 287 344
#     4  11  19  34  55  89 120 150 184 234 289 341
#     4  10  22  35  55  86 117 150 189 233 288 349
#     4   9  19  36  57  79 113 157 185 232 293 340
#     4  10  22  40  62  82 107 153 203 242 286 345
#     4  10  18  33  58  86 115 154 189 229 291 348
#
# _framework density 19.392413999999999
#
# number of rings (size 3 to 8) (size 9 to 14) (size 15 to 20)
#    0.000    2.000    4.286    1.286    0.000    3.429 
#    0.000    1.429    0.000    0.000    0.000    0.000 
#    0.000    0.000    0.000    0.000    0.000    0.000 
#
# Total GULP energy -347183.180830 kJ/mol
# GULP energy per Si atom -12399.399315 kJ/mol
# Density = 1.934828 g / cm^3
# Si number density = 19.392414 Si / 1000 Ang^3
#
#
#
# Elastic Constant Matrix: (Units=GPa)
#
#
# Indices 1 2 3 4 5 6 
#
# 1 164.7300 36.6587 53.5078 0.0000 -6.4679 0.0000
# 2 36.6587 55.5745 27.5403 0.0000 -7.4862 0.0000
# 3 53.5078 27.5403 98.1624 0.0000 16.0276 0.0000
# 4 0.0000 0.0000 0.0000 17.3218 0.0000 2.9627
# 5 -6.4679 -7.4862 16.0276 0.0000 31.1526 0.0000
# 6 0.0000 0.0000 0.0000 2.9627 0.0000 32.3579
#
#
#
# Elastic Compliance Matrix: (Units=1/GPa)
#
#
# Indices 1 2 3 4 5 6 
#
# 1 0.008195 -0.002921 -0.004160 0.000000 0.003140 0.000000
# 2 -0.002921 0.024397 -0.006671 0.000000 0.008688 0.000000
# 3 -0.004160 -0.006671 0.016080 0.000000 -0.010740 0.000000
# 4 0.000000 0.000000 0.000000 0.058649 0.000000 -0.005370
# 5 0.003140 0.008688 -0.010740 0.000000 0.040365 0.000000
# 6 0.000000 0.000000 0.000000 -0.005370 0.000000 0.031396
#
#
# Mechanical properties :
#
#
# Convention : Reuss Voigt Hill
#
# Bulk Modulus (GPa) = 47.24270 61.54227 54.39249
# Shear Modulus (GPa) = 23.40343 29.55048 26.47695
#
# Velocity S-wave (km/s) = 3.47772 3.90784 3.69904
# Velocity P-wave (km/s) = 6.36713 7.22259 6.80831
#
# Compressibility (1/GPa) = 0.02116729
#
# Stress axis : x y z
#
# Youngs Moduli (GPa) = 122.02177 40.98848 62.18850
#
# Poissons Ratio (x) = 0.11974 0.25872
# Poissons Ratio (y) = 0.35645 0.41486
# Poissons Ratio (z) = 0.50765 0.27344
#
# Static dielectric constant tensor:
#      x y z
#    x 4.058510 0.000000 -0.021160 
#    y 0.000000 3.313150 0.000000 
#    z -0.021160 0.000000 3.712410 
# 
# 
# High freq. dielectric constant tensor:
#      x y z
#    x 1.769200 0.000000 0.000960 
#    y 0.000000 1.724330 0.000000 
#    z 0.000960 0.000000 1.757030 
# 
# From -- ./inp_files/59678.got.cif
#   From: 2010.03.12/outbox.cif.g09.slc.cpg/sg14_30_cif.got.tgz:59678.got - 2010.03.31 13:35:05.
