data_PCOD8123396
_publ_section_title
;
Structure prediction by ZEFSAII (Michael W. Deem and Ramdas Pophale) SiO2 
 PCOD8123396
Probable space group: P 21/C
;
_chemical_formula_sum "Si O2"
_cell_formula_units_Z 32
_cell_length_a 8.494958
_cell_length_b 16.452494
_cell_length_c 18.011390
_cell_angle_alpha 90.000000
_cell_angle_beta 135.765307
_cell_angle_gamma 90.000000
_cell_volume 1756.087291
_symmetry_space_group_name_H-M "P 21/C"
_symmetry_group_IT_number 14
_symmetry_cell_setting 'monoclinic'
loop_
_space_group_symop_operation_xyz
x,y,z
-x,1/2+y,1/2-z
-x,-y,-z
x,1/2-y,1/2+z
loop_
_atom_site_type_symbol
_atom_site_label
_atom_site_fract_x
_atom_site_fract_y
_atom_site_fract_z
Si Si1 0.968308 0.713795 0.776694
Si Si2 0.728121 0.899717 0.477794
Si Si3 0.232547 0.565887 0.822086
Si Si4 0.774579 0.329358 0.313476
Si Si5 0.681673 0.632384 0.789908
Si Si6 0.906754 0.474282 0.806315
Si Si7 0.309946 0.816794 0.826785
Si Si8 0.236402 0.275889 0.451541
O O1 0.813893 0.708908 0.798016
O O2 0.813012 0.702317 0.650832
O O3 0.153126 0.641778 0.845879
O O4 0.109180 0.797895 0.818494
O O5 0.501140 0.949932 0.421420
O O6 0.740762 0.874325 0.396282
O O7 0.728681 0.820037 0.529303
O O8 0.944714 0.954589 0.570392
O O9 0.188124 0.587725 0.720941
O O10 0.082387 0.489109 0.797461
O O11 0.585495 0.348118 0.311529
O O12 0.678198 0.258367 0.226660
O O13 0.017098 0.301853 0.427610
O O14 0.745582 0.550687 0.767607
O O15 0.741412 0.400351 0.732006
O O16 0.548094 0.826441 0.948548
#
# Coordination Sequence:
#
# PCOD8123396 Si02
#       8
#     4   4   4   4   4   4   4   4
#     4   9  18  35  53  77 109 142 180 223 268 324
#     4  11  17  34  59  82 112 144 175 227 285 331
#     4   8  17  32  53  74 112 142 171 213 279 324
#     4   9  18  37  56  70 115 154 174 212 284 326
#     4  10  21  36  51  81 119 145 170 229 295 318
#     4  11  20  32  55  87 110 138 188 229 266 329
#     4  10  18  35  58  79 105 145 191 229 251 332
#     4  10  17  35  61  78  98 151 195 210 267 329
#
# _framework density 18.222328999999998
#
# number of rings (size 3 to 8) (size 9 to 14) (size 15 to 20)
#    0.000    2.500    6.250    0.750    0.000    0.000 
#    2.250    8.750    0.000    0.000    0.000    0.000 
#    0.000    0.000    0.000    0.000    0.000    0.000 
#
# Total GULP energy -396509.604799 kJ/mol
# GULP energy per Si atom -12390.925150 kJ/mol
# Density = 1.818085 g / cm^3
# Si number density = 18.222329 Si / 1000 Ang^3
#
#
#
# Elastic Constant Matrix: (Units=GPa)
#
#
# Indices 1 2 3 4 5 6 
#
# 1 124.2750 28.5366 39.5868 0.0000 19.9381 0.0000
# 2 28.5366 57.1318 26.5050 0.0000 6.4019 0.0000
# 3 39.5868 26.5050 108.7501 0.0000 30.3644 0.0000
# 4 0.0000 0.0000 0.0000 21.4486 0.0000 3.1850
# 5 19.9381 6.4019 30.3644 0.0000 25.3982 0.0000
# 6 0.0000 0.0000 0.0000 3.1850 0.0000 24.5376
#
#
#
# Elastic Compliance Matrix: (Units=1/GPa)
#
#
# Indices 1 2 3 4 5 6 
#
# 1 0.010230 -0.003924 -0.001203 0.000000 -0.005603 0.000000
# 2 -0.003924 0.021263 -0.004680 0.000000 0.003315 0.000000
# 3 -0.001203 -0.004680 0.015282 0.000000 -0.016146 0.000000
# 4 0.000000 0.000000 0.000000 0.047539 0.000000 -0.006171
# 5 -0.005603 0.003315 -0.016146 0.000000 0.062239 0.000000
# 6 0.000000 0.000000 0.000000 -0.006171 0.000000 0.041555
#
#
# Mechanical properties :
#
#
# Convention : Reuss Voigt Hill
#
# Bulk Modulus (GPa) = 36.81604 53.26820 45.04212
# Shear Modulus (GPa) = 22.04831 27.31213 24.68022
#
# Velocity S-wave (km/s) = 3.48222 3.87567 3.68420
# Velocity P-wave (km/s) = 6.03453 7.02308 6.54748
#
# Compressibility (1/GPa) = 0.02716207
#
# Stress axis : x y z
#
# Youngs Moduli (GPa) = 97.75335 47.03063 65.43596
#
# Poissons Ratio (x) = 0.18453 0.07872
# Poissons Ratio (y) = 0.38355 0.30622
# Poissons Ratio (z) = 0.11760 0.22009
#
# Static dielectric constant tensor:
#      x y z
#    x 3.484070 0.000000 0.313070 
#    y 0.000000 3.235580 0.000000 
#    z 0.313070 0.000000 3.320060 
# 
# 
# High freq. dielectric constant tensor:
#      x y z
#    x 1.698670 0.000000 0.026070 
#    y 0.000000 1.685630 0.000000 
#    z 0.026070 0.000000 1.692470 
# 
# From -- ./inp_files/65992.got.cif
#   From: 2010.03.12/outbox.cif.g09.slc.cpg/sg14_33_cif.got.tgz:65992.got - 2010.03.31 13:35:05.
