data_PCOD8123035
_publ_section_title
;
Structure prediction by ZEFSAII (Michael W. Deem and Ramdas Pophale) SiO2 
 PCOD8123035
Probable space group: P 2/C
;
_chemical_formula_sum "Si O2"
_cell_formula_units_Z 22
_cell_length_a 25.054532
_cell_length_b 7.497779
_cell_length_c 15.919132
_cell_angle_alpha 90.000000
_cell_angle_beta 159.592884
_cell_angle_gamma 90.000000
_cell_volume 1042.739630
_symmetry_space_group_name_H-M "P 2/C"
_symmetry_group_IT_number 13
_symmetry_cell_setting 'monoclinic'
loop_
_space_group_symop_operation_xyz
x,y,z
-x,y,1/2-z
-x,-y,-z
x,-y,1/2+z
loop_
_atom_site_type_symbol
_atom_site_label
_atom_site_fract_x
_atom_site_fract_y
_atom_site_fract_z
Si Si1 0.767736 0.711502 0.764352
Si Si2 0.531859 0.194958 0.585198
Si Si3 0.277452 0.894600 0.978201
Si Si4 0.500000 0.807226 0.750000
Si Si5 0.712328 0.676684 0.200718
Si Si6 0.037514 0.970974 0.902237
O O1 0.630421 0.729185 0.627410
O O2 0.717019 0.773585 0.596846
O O3 0.812350 0.502377 0.833694
O O4 0.911001 0.824620 0.009801
O O5 0.645360 0.206545 0.831262
O O6 0.614426 0.324398 0.641288
O O7 0.500000 0.000000 0.500000
O O8 0.372254 0.074928 0.107201
O O9 0.103587 0.939168 0.744626
O O10 0.414082 0.681657 0.558243
O O11 0.824080 0.846460 0.362368
O O12 0.000000 0.930427 0.750000
#
# Coordination Sequence:
#
# PCOD8123035 Si02
#       6
#     4   4   4   2   4   4
#     4  12  26  44  69 104 138 179 233 285 342 406
#     4  12  20  45  72  97 136 183 229 283 338 405
#     4  12  22  44  75  96 138 188 226 283 346 411
#     4  12  24  44  74  98 138 180 234 282 342 404
#     4  12  27  45  70 105 138 180 231 285 345 408
#     4  12  25  47  71  98 143 186 227 280 350 415
#
# _framework density 21.098268000000001
#
# number of rings (size 3 to 8) (size 9 to 14) (size 15 to 20)
#    0.000    0.000    9.091    1.091    2.545    1.455 
#    0.000    0.000    0.000    0.000    0.000    0.000 
#    0.000    0.000    0.000    0.000    0.000    0.000 
#
# Total GULP energy -272864.773761 kJ/mol
# GULP energy per Si atom -12402.944262 kJ/mol
# Density = 2.105025 g / cm^3
# Si number density = 21.098268 Si / 1000 Ang^3
#
#
#
# Elastic Constant Matrix: (Units=GPa)
#
#
# Indices 1 2 3 4 5 6 
#
# 1 93.6644 27.8332 30.8749 0.0000 9.4577 0.0000
# 2 27.8332 99.3418 -4.0733 0.0000 -2.9369 0.0000
# 3 30.8749 -4.0733 49.6092 0.0000 3.1377 0.0000
# 4 0.0000 0.0000 0.0000 23.6842 0.0000 -0.2495
# 5 9.4577 -2.9369 3.1377 0.0000 42.1039 0.0000
# 6 0.0000 0.0000 0.0000 -0.2495 0.0000 16.6367
#
#
#
# Elastic Compliance Matrix: (Units=1/GPa)
#
#
# Indices 1 2 3 4 5 6 
#
# 1 0.015754 -0.004917 -0.010010 0.000000 -0.003136 0.000000
# 2 -0.004917 0.011652 0.003914 0.000000 0.001626 0.000000
# 3 -0.010010 0.003914 0.026675 0.000000 0.000534 0.000000
# 4 0.000000 0.000000 0.000000 0.042229 0.000000 0.000633
# 5 -0.003136 0.001626 0.000534 0.000000 0.024529 0.000000
# 6 0.000000 0.000000 0.000000 0.000633 0.000000 0.060118
#
#
# Mechanical properties :
#
#
# Convention : Reuss Voigt Hill
#
# Bulk Modulus (GPa) = 31.19588 39.09832 35.14710
# Shear Modulus (GPa) = 23.40088 29.01700 26.20894
#
# Velocity S-wave (km/s) = 3.33398 3.71256 3.52835
# Velocity P-wave (km/s) = 5.44414 6.07859 5.77009
#
# Compressibility (1/GPa) = 0.03205551
#
# Stress axis : x y z
#
# Youngs Moduli (GPa) = 63.47686 85.81901 37.48832
#
# Poissons Ratio (x) = 0.42197 0.37526
# Poissons Ratio (y) = 0.31211 -0.14673
# Poissons Ratio (z) = 0.63540 -0.33590
#
# Static dielectric constant tensor:
#      x y z
#    x 4.272600 0.000000 -0.165060 
#    y 0.000000 3.818330 0.000000 
#    z -0.165060 0.000000 4.008720 
# 
# 
# High freq. dielectric constant tensor:
#      x y z
#    x 1.848790 0.000000 -0.002420 
#    y 0.000000 1.813540 0.000000 
#    z -0.002420 0.000000 1.833250 
# 
# From -- ./inp_files/56915.got.cif
#   From: 2010.06.25/outbox.cif.g09.slc.cpg/sg13_29_cif.got.tgz:56915.got - 2010.06.28 04:50:58.
