data_PCOD8123644
_publ_section_title
;
Structure prediction by ZEFSAII (Michael W. Deem and Ramdas Pophale) SiO2 
 PCOD8123644
Probable space group: P 21/C
;
_chemical_formula_sum "Si O2"
_cell_formula_units_Z 32
_cell_length_a 8.947881
_cell_length_b 20.079253
_cell_length_c 15.993115
_cell_angle_alpha 90.000000
_cell_angle_beta 146.190304
_cell_angle_gamma 90.000000
_cell_volume 1598.881263
_symmetry_space_group_name_H-M "P 21/C"
_symmetry_group_IT_number 14
_symmetry_cell_setting 'monoclinic'
loop_
_space_group_symop_operation_xyz
x,y,z
-x,1/2+y,1/2-z
-x,-y,-z
x,1/2-y,1/2+z
loop_
_atom_site_type_symbol
_atom_site_label
_atom_site_fract_x
_atom_site_fract_y
_atom_site_fract_z
Si Si1 0.602006 0.060389 0.604954
Si Si2 0.211490 0.735362 0.181304
Si Si3 0.899650 0.351479 0.116229
Si Si4 0.441251 0.373508 0.292034
Si Si5 0.929887 0.208035 0.060674
Si Si6 0.338463 0.323914 0.064418
Si Si7 0.528912 0.636851 0.221358
Si Si8 0.289017 0.505683 0.670058
O O1 0.801992 0.114286 0.656262
O O2 0.354996 0.104630 0.526116
O O3 0.748806 0.026954 0.751473
O O4 0.500000 0.000000 0.500000
O O5 0.096208 0.775331 0.049070
O O6 0.389502 0.780473 0.328009
O O7 0.415058 0.678573 0.245542
O O8 0.940779 0.707416 0.099834
O O9 0.190487 0.383333 0.236268
O O10 0.916186 0.270370 0.118847
O O11 0.693113 0.375413 0.951083
O O12 0.674283 0.339876 0.457138
O O13 0.336267 0.328467 0.165105
O O14 0.533352 0.443898 0.300348
O O15 0.212729 0.170343 0.203450
O O16 0.581127 0.565383 0.283268
O O17 0.000000 0.500000 0.500000
#
# Coordination Sequence:
#
# PCOD8123644 Si02
#       8
#     4   4   4   4   4   4   4   4
#     4  11  25  43  59  90 134 168 205 258 323 377
#     4  10  18  34  59  97 118 153 211 269 294 357
#     4  11  21  38  61  92 122 167 205 263 311 371
#     4  10  20  36  64  93 122 162 218 255 298 378
#     4  10  18  35  61  91 126 158 209 252 312 366
#     4  10  20  37  61  89 127 162 203 264 310 363
#     4  11  19  34  67  91 123 158 213 249 312 370
#     4  11  23  41  67  89 121 174 211 256 311 369
#
# _framework density 20.013992999999999
#
# number of rings (size 3 to 8) (size 9 to 14) (size 15 to 20)
#    0.000    1.500    6.250    1.500    0.000    1.500 
#    4.500    0.625    0.000    0.000    0.000    0.000 
#    0.000    0.000    0.000    0.000    0.000    0.000 
#
# Total GULP energy -396595.592594 kJ/mol
# GULP energy per Si atom -12393.612269 kJ/mol
# Density = 1.996844 g / cm^3
# Si number density = 20.013993 Si / 1000 Ang^3
#
#
#
# Elastic Constant Matrix: (Units=GPa)
#
#
# Indices 1 2 3 4 5 6 
#
# 1 66.2228 31.3971 32.4603 0.0000 10.6708 0.0000
# 2 31.3971 114.3640 49.4156 0.0000 4.6060 0.0000
# 3 32.4603 49.4156 114.5206 0.0000 27.9682 0.0000
# 4 0.0000 0.0000 0.0000 24.2928 0.0000 -4.9733
# 5 10.6708 4.6060 27.9682 0.0000 27.8054 0.0000
# 6 0.0000 0.0000 0.0000 -4.9733 0.0000 19.8565
#
#
#
# Elastic Compliance Matrix: (Units=1/GPa)
#
#
# Indices 1 2 3 4 5 6 
#
# 1 0.018892 -0.003839 -0.002761 0.000000 -0.003837 0.000000
# 2 -0.003839 0.011844 -0.005174 0.000000 0.004716 0.000000
# 3 -0.002761 -0.005174 0.014952 0.000000 -0.013123 0.000000
# 4 0.000000 0.000000 0.000000 0.043389 0.000000 0.010867
# 5 -0.003837 0.004716 -0.013123 0.000000 0.049855 0.000000
# 6 0.000000 0.000000 0.000000 0.010867 0.000000 0.053083
#
#
# Mechanical properties :
#
#
# Convention : Reuss Voigt Hill
#
# Bulk Modulus (GPa) = 45.16823 57.96147 51.56485
# Shear Modulus (GPa) = 22.42706 26.51323 24.47015
#
# Velocity S-wave (km/s) = 3.35112 3.64364 3.50044
# Velocity P-wave (km/s) = 6.13112 6.83556 6.49290
#
# Compressibility (1/GPa) = 0.02213945
#
# Stress axis : x y z
#
# Youngs Moduli (GPa) = 52.93116 84.43318 66.87953
#
# Poissons Ratio (x) = 0.32414 0.18468
# Poissons Ratio (y) = 0.20320 0.34604
# Poissons Ratio (z) = 0.14617 0.43686
#
# Static dielectric constant tensor:
#      x y z
#    x 2.677390 0.000000 0.042780 
#    y 0.000000 3.466540 0.000000 
#    z 0.042780 0.000000 3.718440 
# 
# 
# High freq. dielectric constant tensor:
#      x y z
#    x 1.748870 0.000000 0.020560 
#    y 0.000000 1.791380 0.000000 
#    z 0.020560 0.000000 1.783610 
# 
# From -- ./inp_files/56241.got.cif
#   From: 2010.03.12/outbox.cif.g09.slc.cpg/sg14_29_cif.got.tgz:56241.got - 2010.03.31 13:35:05.
