data_PCOD8123280
_publ_section_title
;
Structure prediction by ZEFSAII (Michael W. Deem and Ramdas Pophale) SiO2 
 PCOD8123280
Probable space group: P 21/C
;
_chemical_formula_sum "Si O2"
_cell_formula_units_Z 32
_cell_length_a 26.864198
_cell_length_b 11.356470
_cell_length_c 18.388731
_cell_angle_alpha 90.000000
_cell_angle_beta 18.556721
_cell_angle_gamma 90.000000
_cell_volume 1785.370200
_symmetry_space_group_name_H-M "P 21/C"
_symmetry_group_IT_number 14
_symmetry_cell_setting 'monoclinic'
loop_
_space_group_symop_operation_xyz
x,y,z
-x,1/2+y,1/2-z
-x,-y,-z
x,1/2-y,1/2+z
loop_
_atom_site_type_symbol
_atom_site_label
_atom_site_fract_x
_atom_site_fract_y
_atom_site_fract_z
Si Si1 0.669296 0.104243 0.976594
Si Si2 0.837545 0.232485 0.139052
Si Si3 0.382603 0.676332 0.677797
Si Si4 0.611651 0.638520 0.583592
Si Si5 0.323680 0.522248 0.062068
Si Si6 0.187916 0.343366 0.137815
Si Si7 0.395141 0.429134 0.738742
Si Si8 0.482187 0.813804 0.667968
O O1 0.805894 0.177256 0.749111
O O2 0.517442 0.074037 0.136883
O O3 0.625328 0.171608 0.111446
O O4 0.729237 0.972951 0.914315
O O5 0.764474 0.292170 0.168934
O O6 0.769441 0.104858 0.253510
O O7 0.019826 0.215569 0.874600
O O8 0.360108 0.556312 0.753284
O O9 0.540291 0.661634 0.411290
O O10 0.390596 0.788200 0.720637
O O11 0.686146 0.739687 0.528970
O O12 0.584562 0.695818 0.541269
O O13 0.446345 0.600940 0.847866
O O14 0.208669 0.449061 0.167699
O O15 0.413695 0.429219 0.988609
O O16 0.225475 0.391389 0.004858
#
# Coordination Sequence:
#
# PCOD8123280 Si02
#       8
#     4   4   4   4   4   4   4   4
#     4  10  18  33  61  85 110 144 196 243 271 328
#     4  11  23  36  51  87 126 151 177 231 306 354
#     4  10  21  35  58  83 115 145 191 236 287 342
#     4  10  16  33  61  85 102 138 207 241 261 313
#     4  10  19  35  59  83 107 149 195 240 275 329
#     4  11  21  36  60  84 115 150 190 238 288 341
#     4  10  18  36  60  83 102 155 198 231 274 343
#     4  10  17  32  61  88 104 144 198 244 267 323
#
# _framework density 17.923454
#
# number of rings (size 3 to 8) (size 9 to 14) (size 15 to 20)
#    0.000    1.750    6.250    1.125    0.000    1.000 
#    0.000    3.750    2.750    0.000    0.000    0.000 
#    0.000    0.000    0.000    0.000    0.000    0.000 
#
# Total GULP energy -396501.311925 kJ/mol
# GULP energy per Si atom -12390.665998 kJ/mol
# Density = 1.788266 g / cm^3
# Si number density = 17.923454 Si / 1000 Ang^3
#
#
#
# Elastic Constant Matrix: (Units=GPa)
#
#
# Indices 1 2 3 4 5 6 
#
# 1 79.8526 33.5715 27.1089 0.0000 11.8560 0.0000
# 2 33.5715 98.0825 30.0913 0.0000 3.0196 0.0000
# 3 27.1089 30.0913 81.6011 0.0000 1.6041 0.0000
# 4 0.0000 0.0000 0.0000 28.0626 0.0000 3.3579
# 5 11.8560 3.0196 1.6041 0.0000 21.4458 0.0000
# 6 0.0000 0.0000 0.0000 3.3579 0.0000 25.0705
#
#
#
# Elastic Compliance Matrix: (Units=1/GPa)
#
#
# Indices 1 2 3 4 5 6 
#
# 1 0.016912 -0.004348 -0.003849 0.000000 -0.008450 0.000000
# 2 -0.004348 0.012650 -0.003238 0.000000 0.000865 0.000000
# 3 -0.003849 -0.003238 0.014698 0.000000 0.001484 0.000000
# 4 0.000000 0.000000 0.000000 0.036215 0.000000 -0.004851
# 5 -0.008450 0.000865 0.001484 0.000000 0.051068 0.000000
# 6 0.000000 0.000000 0.000000 -0.004851 0.000000 0.040537
#
#
# Mechanical properties :
#
#
# Convention : Reuss Voigt Hill
#
# Bulk Modulus (GPa) = 46.74650 49.00883 47.87766
# Shear Modulus (GPa) = 24.74269 26.16674 25.45472
#
# Velocity S-wave (km/s) = 3.71949 3.82503 3.77263
# Velocity P-wave (km/s) = 6.67712 6.84913 6.76367
#
# Compressibility (1/GPa) = 0.02139197
#
# Stress axis : x y z
#
# Youngs Moduli (GPa) = 59.12899 79.04973 68.03568
#
# Poissons Ratio (x) = 0.34368 0.26188
# Poissons Ratio (y) = 0.25707 0.22027
# Poissons Ratio (z) = 0.22759 0.25593
#
# Static dielectric constant tensor:
#      x y z
#    x 3.255230 0.000000 0.187300 
#    y 0.000000 3.667680 0.000000 
#    z 0.187300 0.000000 3.096250 
# 
# 
# High freq. dielectric constant tensor:
#      x y z
#    x 1.675210 0.000000 0.021580 
#    y 0.000000 1.719270 0.000000 
#    z 0.021580 0.000000 1.662520 
# 
# From -- ./inp_files/62351.got.cif
#   From: 2010.03.12/outbox.cif.g09.slc.cpg/sg14_32_cif.got.tgz:62351.got - 2010.03.31 13:35:05.
