data_PCOD8123209
_publ_section_title
;
Structure prediction by ZEFSAII (Michael W. Deem and Ramdas Pophale) SiO2 
 PCOD8123209
Probable space group: P 2/C
;
_chemical_formula_sum "Si O2"
_cell_formula_units_Z 20
_cell_length_a 18.396384
_cell_length_b 5.156497
_cell_length_c 14.718405
_cell_angle_alpha 90.000000
_cell_angle_beta 147.526552
_cell_angle_gamma 90.000000
_cell_volume 749.632542
_symmetry_space_group_name_H-M "P 2/C"
_symmetry_group_IT_number 13
_symmetry_cell_setting 'monoclinic'
loop_
_space_group_symop_operation_xyz
x,y,z
-x,y,1/2-z
-x,-y,-z
x,-y,1/2+z
loop_
_atom_site_type_symbol
_atom_site_label
_atom_site_fract_x
_atom_site_fract_y
_atom_site_fract_z
Si Si1 0.232308 0.429536 0.688484
Si Si2 0.000000 0.227103 0.750000
Si Si3 0.500000 0.670123 0.750000
Si Si4 0.610796 0.057051 0.192257
Si Si5 0.768998 0.508435 0.611046
Si Si6 0.011933 0.861673 0.607518
O O1 0.239352 0.349922 0.802901
O O2 0.075402 0.408596 0.489346
O O3 0.311854 0.215087 0.713353
O O4 0.288984 0.716275 0.735470
O O5 0.130656 0.388422 0.857646
O O6 0.054504 0.047138 0.888373
O O7 0.455899 0.861477 0.783685
O O8 0.379524 0.479227 0.590007
O O9 0.500000 0.000000 0.000000
O O10 0.832054 0.791414 0.702762
O O11 0.000000 0.000000 0.500000
#
# Coordination Sequence:
#
# PCOD8123209 Si02
#       6
#     4   2   2   4   4   4
#     4  12  27  52  87 119 171 229 291 362 442 521
#     4  12  28  50  82 134 170 230 296 364 438 534
#     4  12  30  54  86 126 174 228 300 362 438 534
#     4  12  28  55  83 125 174 233 289 359 443 528
#     4  12  28  51  83 125 172 231 293 359 448 521
#     4  12  27  52  86 124 177 224 292 371 451 526
#
# _framework density 26.679739999999999
#
# number of rings (size 3 to 8) (size 9 to 14) (size 15 to 20)
#    0.000    0.000    4.000    4.200    8.400    0.800 
#    0.000    0.000    0.000    0.000    0.000    0.000 
#    0.000    0.000    0.000    0.000    0.000    0.000 
#
# Total GULP energy -248005.753242 kJ/mol
# GULP energy per Si atom -12400.287662 kJ/mol
# Density = 2.661902 g / cm^3
# Si number density = 26.679740 Si / 1000 Ang^3
#
#
#
# Elastic Constant Matrix: (Units=GPa)
#
#
# Indices 1 2 3 4 5 6 
#
# 1 171.4882 31.2246 45.5564 0.0000 -17.2043 0.0000
# 2 31.2246 106.0037 30.8353 0.0000 4.4723 0.0000
# 3 45.5564 30.8353 155.2794 0.0000 10.8464 0.0000
# 4 0.0000 0.0000 0.0000 48.9065 0.0000 -0.6735
# 5 -17.2043 4.4723 10.8464 0.0000 48.3034 0.0000
# 6 0.0000 0.0000 0.0000 -0.6735 0.0000 26.8021
#
#
#
# Elastic Compliance Matrix: (Units=1/GPa)
#
#
# Indices 1 2 3 4 5 6 
#
# 1 0.006944 -0.001613 -0.001931 0.000000 0.003056 0.000000
# 2 -0.001613 0.010398 -0.001508 0.000000 -0.001199 0.000000
# 3 -0.001931 -0.001508 0.007461 0.000000 -0.002223 0.000000
# 4 0.000000 0.000000 0.000000 0.020454 0.000000 0.000514
# 5 0.003056 -0.001199 -0.002223 0.000000 0.022401 0.000000
# 6 0.000000 0.000000 0.000000 0.000514 0.000000 0.037323
#
#
# Mechanical properties :
#
#
# Convention : Reuss Voigt Hill
#
# Bulk Modulus (GPa) = 68.02370 72.00042 70.01206
# Shear Modulus (GPa) = 41.67168 46.47939 44.07554
#
# Velocity S-wave (km/s) = 3.95640 4.17840 4.06892
# Velocity P-wave (km/s) = 6.81341 7.09396 6.95510
#
# Compressibility (1/GPa) = 0.01470076
#
# Stress axis : x y z
#
# Youngs Moduli (GPa) = 143.99942 96.17288 134.02766
#
# Poissons Ratio (x) = 0.15512 0.25875
# Poissons Ratio (y) = 0.23226 0.20210
# Poissons Ratio (z) = 0.27800 0.14502
#
# Static dielectric constant tensor:
#      x y z
#    x 5.375550 0.000000 0.113350 
#    y 0.000000 4.658170 0.000000 
#    z 0.113350 0.000000 5.175340 
# 
# 
# High freq. dielectric constant tensor:
#      x y z
#    x 2.095620 0.000000 -0.008360 
#    y 0.000000 2.063260 0.000000 
#    z -0.008360 0.000000 2.084880 
# 
# From -- ./inp_files/56712.got.cif
#   From: 2010.06.25/outbox.cif.g09.slc.cpg/sg13_29_cif.got.tgz:56712.got - 2010.06.28 04:50:58.
