data_PCOD8123798
_publ_section_title
;
Structure prediction by ZEFSAII (Michael W. Deem and Ramdas Pophale) SiO2 
 PCOD8123798
Probable space group: P 21/C
;
_chemical_formula_sum "Si O2"
_cell_formula_units_Z 28
_cell_length_a 9.223531
_cell_length_b 11.998583
_cell_length_c 21.708162
_cell_angle_alpha 90.000000
_cell_angle_beta 36.993494
_cell_angle_gamma 90.000000
_cell_volume 1445.598870
_symmetry_space_group_name_H-M "P 21/C"
_symmetry_group_IT_number 14
_symmetry_cell_setting 'monoclinic'
loop_
_space_group_symop_operation_xyz
x,y,z
-x,1/2+y,1/2-z
-x,-y,-z
x,1/2-y,1/2+z
loop_
_atom_site_type_symbol
_atom_site_label
_atom_site_fract_x
_atom_site_fract_y
_atom_site_fract_z
Si Si1 0.366446 0.206332 0.696723
Si Si2 0.219683 0.505613 0.589362
Si Si3 0.453015 0.126590 0.534853
Si Si4 0.006630 0.231362 0.154534
Si Si5 0.867031 0.921133 0.113960
Si Si6 0.140148 0.733740 0.669602
Si Si7 0.187098 0.840322 0.907002
O O1 0.443449 0.130261 0.612350
O O2 0.312450 0.132647 0.775666
O O3 0.584572 0.288017 0.637159
O O4 0.127491 0.277017 0.759346
O O5 0.500000 0.500000 0.500000
O O6 0.121487 0.384402 0.637375
O O7 0.126941 0.599765 0.667489
O O8 0.126223 0.541620 0.553789
O O9 0.205675 0.170625 0.588174
O O10 0.665493 0.206707 0.438915
O O11 0.500000 0.000000 0.500000
O O12 0.806869 0.249416 0.275813
O O13 0.877513 0.228937 0.132525
O O14 0.737703 0.032331 0.133000
O O15 0.946213 0.837491 0.032031
#
# Coordination Sequence:
#
# PCOD8123798 Si02
#       7
#     4   4   4   4   4   4   4
#     4  10  21  41  61  85 120 159 198 240 303 357
#     4  10  18  37  64  87 114 150 209 251 288 348
#     4  11  24  41  60  89 124 157 196 252 299 351
#     4  10  23  38  61  93 119 158 197 249 300 352
#     4   9  21  38  62  88 117 160 193 255 292 348
#     4  10  22  37  62  88 117 159 200 248 302 351
#     4  10  21  41  60  87 124 153 205 240 297 359
#
# _framework density 19.369136000000001
#
# number of rings (size 3 to 8) (size 9 to 14) (size 15 to 20)
#    0.000    2.000    1.429    1.714   10.000    1.143 
#    5.143    0.714    0.000    0.000    0.000    0.000 
#    0.000    0.000    0.000    0.000    0.000    0.000 
#
# Total GULP energy -347008.229254 kJ/mol
# GULP energy per Si atom -12393.151045 kJ/mol
# Density = 1.932505 g / cm^3
# Si number density = 19.369136 Si / 1000 Ang^3
#
#
#
# Elastic Constant Matrix: (Units=GPa)
#
#
# Indices 1 2 3 4 5 6 
#
# 1 84.5370 25.9991 37.2289 0.0000 7.8330 0.0000
# 2 25.9991 73.5366 30.1219 0.0000 3.4580 0.0000
# 3 37.2289 30.1219 116.7059 0.0000 22.1151 0.0000
# 4 0.0000 0.0000 0.0000 23.8187 0.0000 5.1624
# 5 7.8330 3.4580 22.1151 0.0000 38.5754 0.0000
# 6 0.0000 0.0000 0.0000 5.1624 0.0000 31.1992
#
#
#
# Elastic Compliance Matrix: (Units=1/GPa)
#
#
# Indices 1 2 3 4 5 6 
#
# 1 0.014593 -0.003657 -0.003604 0.000000 -0.000570 0.000000
# 2 -0.003657 0.016157 -0.003220 0.000000 0.001140 0.000000
# 3 -0.003604 -0.003220 0.011618 0.000000 -0.005640 0.000000
# 4 0.000000 0.000000 0.000000 0.043545 0.000000 -0.007205
# 5 -0.000570 0.001140 -0.005640 0.000000 0.029170 0.000000
# 6 0.000000 0.000000 0.000000 -0.007205 0.000000 0.033244
#
#
# Mechanical properties :
#
#
# Convention : Reuss Voigt Hill
#
# Bulk Modulus (GPa) = 46.71085 51.27547 48.99316
# Shear Modulus (GPa) = 28.34084 30.81397 29.57740
#
# Velocity S-wave (km/s) = 3.82932 3.99291 3.91197
# Velocity P-wave (km/s) = 6.61212 6.91289 6.76418
#
# Compressibility (1/GPa) = 0.02140830
#
# Stress axis : x y z
#
# Youngs Moduli (GPa) = 68.52370 61.89376 86.07474
#
# Poissons Ratio (x) = 0.22633 0.31017
# Poissons Ratio (y) = 0.25057 0.27713
# Poissons Ratio (z) = 0.24693 0.19927
#
# Static dielectric constant tensor:
#      x y z
#    x 3.642570 0.000000 0.041550 
#    y 0.000000 3.517900 0.000000 
#    z 0.041550 0.000000 4.019510 
# 
# 
# High freq. dielectric constant tensor:
#      x y z
#    x 1.752700 0.000000 0.014230 
#    y 0.000000 1.745710 0.000000 
#    z 0.014230 0.000000 1.760680 
# 
# From -- ./inp_files/65548.got.cif
#   From: 2010.03.12/outbox.cif.g09.slc.cpg/sg14_33_cif.got.tgz:65548.got - 2010.03.31 13:35:05.
