data_PCOD8123943
_publ_section_title
;
Structure prediction by ZEFSAII (Michael W. Deem and Ramdas Pophale) SiO2 
 PCOD8123943
Probable space group: P 21/C
;
_chemical_formula_sum "Si O2"
_cell_formula_units_Z 24
_cell_length_a 24.348890
_cell_length_b 9.075406
_cell_length_c 18.040420
_cell_angle_alpha 90.000000
_cell_angle_beta 160.626878
_cell_angle_gamma 90.000000
_cell_volume 1322.396604
_symmetry_space_group_name_H-M "P 21/C"
_symmetry_group_IT_number 14
_symmetry_cell_setting 'monoclinic'
loop_
_space_group_symop_operation_xyz
x,y,z
-x,1/2+y,1/2-z
-x,-y,-z
x,1/2-y,1/2+z
loop_
_atom_site_type_symbol
_atom_site_label
_atom_site_fract_x
_atom_site_fract_y
_atom_site_fract_z
Si Si1 0.306169 0.631521 0.714114
Si Si2 0.004504 0.355782 0.586212
Si Si3 0.525891 0.647833 0.130543
Si Si4 0.199066 0.642860 0.803145
Si Si5 0.164149 0.188376 0.429652
Si Si6 0.136179 0.661601 0.886898
O O1 0.146838 0.574010 0.557585
O O2 0.370969 0.503254 0.742844
O O3 0.261248 0.770762 0.606059
O O4 0.449564 0.684598 0.952928
O O5 0.917991 0.269843 0.406477
O O6 0.128252 0.477913 0.712453
O O7 0.112349 0.254815 0.780236
O O8 0.646648 0.778794 0.309949
O O9 0.388010 0.635973 0.018192
O O10 0.192964 0.711870 0.876969
O O11 0.047524 0.272496 0.339077
O O12 0.134713 0.013439 0.395072
#
# Coordination Sequence:
#
# PCOD8123943 Si02
#       6
#     4   4   4   4   4   4
#     4   9  19  35  54  74  99 135 170 201 246 305
#     4   8  16  32  51  70  97 132 167 198 241 298
#     4  10  19  32  53  78 102 128 165 210 252 293
#     4   9  17  30  51  76 100 126 164 209 248 290
#     4  10  19  33  52  73  99 134 169 202 244 298
#     4  10  20  34  53  73  99 136 171 202 245 300
#
# _framework density 18.148866999999999
#
# number of rings (size 3 to 8) (size 9 to 14) (size 15 to 20)
#    0.000    2.667    0.000    3.000    0.000    4.667 
#    0.000    0.000    0.000   16.000    0.000    0.000 
#    0.000    0.000    0.000    0.000    0.000    0.000 
#
# Total GULP energy -297377.585083 kJ/mol
# GULP energy per Si atom -12390.732712 kJ/mol
# Density = 1.810756 g / cm^3
# Si number density = 18.148867 Si / 1000 Ang^3
#
#
#
# Elastic Constant Matrix: (Units=GPa)
#
#
# Indices 1 2 3 4 5 6 
#
# 1 123.7194 41.1004 57.3190 0.0000 0.7343 0.0000
# 2 41.1004 66.0208 43.8195 0.0000 -3.4454 0.0000
# 3 57.3190 43.8195 128.2548 0.0000 -2.0248 0.0000
# 4 0.0000 0.0000 0.0000 29.9503 0.0000 -0.4336
# 5 0.7343 -3.4454 -2.0248 0.0000 26.4033 0.0000
# 6 0.0000 0.0000 0.0000 -0.4336 0.0000 21.0868
#
#
#
# Elastic Compliance Matrix: (Units=1/GPa)
#
#
# Indices 1 2 3 4 5 6 
#
# 1 0.011270 -0.004815 -0.003410 0.000000 -0.001203 0.000000
# 2 -0.004815 0.021757 -0.005241 0.000000 0.002571 0.000000
# 3 -0.003410 -0.005241 0.011116 0.000000 0.000263 0.000000
# 4 0.000000 0.000000 0.000000 0.033399 0.000000 0.000687
# 5 -0.001203 0.002571 0.000263 0.000000 0.038263 0.000000
# 6 0.000000 0.000000 0.000000 0.000687 0.000000 0.047437
#
#
# Mechanical properties :
#
#
# Convention : Reuss Voigt Hill
#
# Bulk Modulus (GPa) = 58.10681 66.94142 62.52411
# Shear Modulus (GPa) = 25.52179 27.20514 26.36346
#
# Velocity S-wave (km/s) = 3.75406 3.87589 3.81546
# Velocity P-wave (km/s) = 7.13281 7.54949 7.34410
#
# Compressibility (1/GPa) = 0.01720969
#
# Stress axis : x y z
#
# Youngs Moduli (GPa) = 88.73462 45.96226 89.96045
#
# Poissons Ratio (x) = 0.22130 0.30681
# Poissons Ratio (y) = 0.42725 0.47149
# Poissons Ratio (z) = 0.30263 0.24089
#
# Static dielectric constant tensor:
#      x y z
#    x 3.667920 0.000000 -0.261090 
#    y 0.000000 2.864770 0.000000 
#    z -0.261090 0.000000 3.663880 
# 
# 
# High freq. dielectric constant tensor:
#      x y z
#    x 1.714500 0.000000 -0.009130 
#    y 0.000000 1.650050 0.000000 
#    z -0.009130 0.000000 1.723520 
# 
# From -- ./inp_files/54487.got.cif
#   From: 2010.03.12/outbox.cif.g09.slc.cpg/sg14_28_cif.got.tgz:54487.got - 2010.03.31 13:35:05.
