data_PCOD8123430
_publ_section_title
;
Structure prediction by ZEFSAII (Michael W. Deem and Ramdas Pophale) SiO2 
 PCOD8123430
Probable space group: P 21/C
;
_chemical_formula_sum "Si O2"
_cell_formula_units_Z 32
_cell_length_a 28.739693
_cell_length_b 9.604600
_cell_length_c 12.120899
_cell_angle_alpha 90.000000
_cell_angle_beta 152.488105
_cell_angle_gamma 90.000000
_cell_volume 1545.521305
_symmetry_space_group_name_H-M "P 21/C"
_symmetry_group_IT_number 14
_symmetry_cell_setting 'monoclinic'
loop_
_space_group_symop_operation_xyz
x,y,z
-x,1/2+y,1/2-z
-x,-y,-z
x,1/2-y,1/2+z
loop_
_atom_site_type_symbol
_atom_site_label
_atom_site_fract_x
_atom_site_fract_y
_atom_site_fract_z
Si Si1 0.067345 0.849619 0.849509
Si Si2 0.677792 0.996644 0.143863
Si Si3 0.188872 0.835005 0.894811
Si Si4 0.117918 0.953741 0.527860
Si Si5 0.246660 0.589552 0.868477
Si Si6 0.362574 0.802700 0.416090
Si Si7 0.452888 0.105986 0.315207
Si Si8 0.402134 0.401714 0.307309
O O1 0.092427 0.837592 0.772713
O O2 0.064261 0.694328 0.893371
O O3 0.150254 0.944489 0.088447
O O4 0.959677 0.919807 0.638506
O O5 0.798719 0.015121 0.390653
O O6 0.628875 0.138620 0.086365
O O7 0.640292 0.886996 0.156806
O O8 0.644368 0.956163 0.949782
O O9 0.170115 0.944826 0.757767
O O10 0.208180 0.678641 0.891334
O O11 0.287180 0.878182 0.171389
O O12 0.325390 0.681516 0.963288
O O13 0.306913 0.453538 0.033844
O O14 0.470540 0.870684 0.625428
O O15 0.429545 0.247591 0.328851
O O16 0.500000 0.000000 0.500000
O O17 0.500000 0.500000 0.500000
#
# Coordination Sequence:
#
# PCOD8123430 Si02
#       8
#     4   4   4   4   4   4   4   4
#     4  10  22  38  65  94 129 172 219 274 334 392
#     4  12  24  43  70  94 135 176 222 275 328 400
#     4  10  17  39  67  97 117 175 218 267 328 396
#     4  11  22  42  65  95 133 172 225 274 337 393
#     4  10  20  38  67  95 125 171 229 263 327 402
#     4  11  21  40  69  92 132 174 220 264 332 401
#     4  12  29  41  64 103 133 172 221 273 331 398
#     4  12  24  42  69  95 132 177 220 267 337 397
#
# _framework density 20.704986000000002
#
# number of rings (size 3 to 8) (size 9 to 14) (size 15 to 20)
#    0.000    1.000    6.250    1.875    3.500    1.000 
#    0.000   10.625    0.000    0.000    0.000    0.000 
#    0.000    0.000    0.000    0.000    0.000    0.000 
#
# Total GULP energy -396760.868736 kJ/mol
# GULP energy per Si atom -12398.777148 kJ/mol
# Density = 2.065786 g / cm^3
# Si number density = 20.704986 Si / 1000 Ang^3
#
#
#
# Elastic Constant Matrix: (Units=GPa)
#
#
# Indices 1 2 3 4 5 6 
#
# 1 110.9688 47.3845 43.9706 0.0000 -1.8327 0.0000
# 2 47.3845 98.4383 65.1231 0.0000 11.6084 0.0000
# 3 43.9706 65.1231 88.5426 0.0000 -2.1753 0.0000
# 4 0.0000 0.0000 0.0000 39.2274 0.0000 3.4493
# 5 -1.8327 11.6084 -2.1753 0.0000 32.6604 0.0000
# 6 0.0000 0.0000 0.0000 3.4493 0.0000 33.5517
#
#
#
# Elastic Compliance Matrix: (Units=1/GPa)
#
#
# Indices 1 2 3 4 5 6 
#
# 1 0.011919 -0.004048 -0.002894 0.000000 0.001915 0.000000
# 2 -0.004048 0.023504 -0.015513 0.000000 -0.009614 0.000000
# 3 -0.002894 -0.015513 0.024312 0.000000 0.006971 0.000000
# 4 0.000000 0.000000 0.000000 0.025725 0.000000 -0.002645
# 5 0.001915 -0.009614 0.006971 0.000000 0.034607 0.000000
# 6 0.000000 0.000000 0.000000 -0.002645 0.000000 0.030077
#
#
# Mechanical properties :
#
#
# Convention : Reuss Voigt Hill
#
# Bulk Modulus (GPa) = 67.45873 67.87848 67.66861
# Shear Modulus (GPa) = 25.00053 30.51931 27.75992
#
# Velocity S-wave (km/s) = 3.47863 3.84345 3.66558
# Velocity P-wave (km/s) = 6.98471 7.24920 7.11818
#
# Compressibility (1/GPa) = 0.01482388
#
# Stress axis : x y z
#
# Youngs Moduli (GPa) = 83.90214 42.54622 41.13136
#
# Poissons Ratio (x) = 0.17224 0.11905
# Poissons Ratio (y) = 0.33965 0.63807
# Poissons Ratio (z) = 0.24284 0.66002
#
# Static dielectric constant tensor:
#      x y z
#    x 3.865790 0.000000 -0.082700 
#    y 0.000000 3.497040 0.000000 
#    z -0.082700 0.000000 3.846610 
# 
# 
# High freq. dielectric constant tensor:
#      x y z
#    x 1.827200 0.000000 -0.005930 
#    y 0.000000 1.782560 0.000000 
#    z -0.005930 0.000000 1.809750 
# 
# From -- ./inp_files/36449.got.cif
#   From: 2010.03.12/outbox.cif.g09.slc.cpg/sg14_19_cif.got.tgz:36449.got - 2010.03.31 13:35:05.
