data_PCOD8123334
_publ_section_title
;
Structure prediction by ZEFSAII (Michael W. Deem and Ramdas Pophale) SiO2 
 PCOD8123334
Probable space group: P 21/C
;
_chemical_formula_sum "Si O2"
_cell_formula_units_Z 20
_cell_length_a 12.669725
_cell_length_b 5.051663
_cell_length_c 17.987782
_cell_angle_alpha 90.000000
_cell_angle_beta 74.498685
_cell_angle_gamma 90.000000
_cell_volume 1109.396846
_symmetry_space_group_name_H-M "P 21/C"
_symmetry_group_IT_number 14
_symmetry_cell_setting 'monoclinic'
loop_
_space_group_symop_operation_xyz
x,y,z
-x,1/2+y,1/2-z
-x,-y,-z
x,1/2-y,1/2+z
loop_
_atom_site_type_symbol
_atom_site_label
_atom_site_fract_x
_atom_site_fract_y
_atom_site_fract_z
Si Si1 0.948569 0.741181 0.298848
Si Si2 0.964960 0.250093 0.052846
Si Si3 0.728856 0.693223 0.265864
Si Si4 0.262872 0.693382 0.336640
Si Si5 0.503900 0.200768 0.701907
O O1 0.817327 0.729520 0.314176
O O2 0.006083 0.487283 0.254507
O O3 0.973477 0.760717 0.380578
O O4 0.834039 0.246443 0.087419
O O5 0.000000 0.500000 0.000000
O O6 0.000000 0.000000 0.000000
O O7 0.741986 0.399443 0.230671
O O8 0.606712 0.736397 0.324443
O O9 0.748579 0.899901 0.194864
O O10 0.379470 0.728598 0.358805
O O11 0.496449 0.391748 0.776133
#
# Coordination Sequence:
#
# PCOD8123334 Si02
#       5
#     4   4   4   4   4
#     4  12  21  36  57  79 107 142 180 227 263 307
#     4  12  24  36  52  78 114 147 176 213 272 324
#     4  10  17  32  54  80 101 130 178 226 262 302
#     4  10  18  33  52  76 107 136 173 218 262 315
#     4   8  16  27  49  77 101 127 167 222 267 298
#
# _framework density 18.027812999999998
#
# number of rings (size 3 to 8) (size 9 to 14) (size 15 to 20)
#    0.000    1.600    4.000    2.400    0.000    0.000 
#    0.000    0.000    0.000    2.400    0.000    0.000 
#    0.000    0.000    0.000    0.000    0.000    0.000 
#
# Total GULP energy -247871.500486 kJ/mol
# GULP energy per Si atom -12393.575024 kJ/mol
# Density = 1.798678 g / cm^3
# Si number density = 18.027813 Si / 1000 Ang^3
#
#
#
# Elastic Constant Matrix: (Units=GPa)
#
#
# Indices 1 2 3 4 5 6 
#
# 1 200.0055 14.8084 49.2594 0.0000 -15.9878 0.0000
# 2 14.8084 98.4920 23.7251 0.0000 1.7511 0.0000
# 3 49.2594 23.7251 79.9935 0.0000 1.1452 0.0000
# 4 0.0000 0.0000 0.0000 27.3833 0.0000 -4.4418
# 5 -15.9878 1.7511 1.1452 0.0000 29.5129 0.0000
# 6 0.0000 0.0000 0.0000 -4.4418 0.0000 25.7692
#
#
#
# Elastic Compliance Matrix: (Units=1/GPa)
#
#
# Indices 1 2 3 4 5 6 
#
# 1 0.006242 -0.000068 -0.003874 0.000000 0.003536 0.000000
# 2 -0.000068 0.010943 -0.003196 0.000000 -0.000562 0.000000
# 3 -0.003874 -0.003196 0.015870 0.000000 -0.002525 0.000000
# 4 0.000000 0.000000 0.000000 0.037569 0.000000 0.006476
# 5 0.003536 -0.000562 -0.002525 0.000000 0.035930 0.000000
# 6 0.000000 0.000000 0.000000 0.006476 0.000000 0.039922
#
#
# Mechanical properties :
#
#
# Convention : Reuss Voigt Hill
#
# Bulk Modulus (GPa) = 53.24850 61.56411 57.40631
# Shear Modulus (GPa) = 29.93797 35.91297 32.92547
#
# Velocity S-wave (km/s) = 4.07953 4.46812 4.27824
# Velocity P-wave (km/s) = 7.19660 7.80016 7.50445
#
# Compressibility (1/GPa) = 0.01877987
#
# Stress axis : x y z
#
# Youngs Moduli (GPa) = 160.21394 91.38171 63.01000
#
# Poissons Ratio (x) = 0.00623 0.24410
# Poissons Ratio (y) = 0.01091 0.20135
# Poissons Ratio (z) = 0.62067 0.29202
#
# Static dielectric constant tensor:
#      x y z
#    x 4.456200 0.000000 0.192130 
#    y 0.000000 3.574460 0.000000 
#    z 0.192130 0.000000 3.141500 
# 
# 
# High freq. dielectric constant tensor:
#      x y z
#    x 1.731800 0.000000 -0.013320 
#    y 0.000000 1.729840 0.000000 
#    z -0.013320 0.000000 1.620380 
# 
# From -- ./inp_files/42431.got.cif
#   From: 2010.03.12/outbox.cif.g09.slc.cpg/sg14_22_cif.got.tgz:42431.got - 2010.03.31 13:35:05.
