data_PCOD8123089
_publ_section_title
;
Structure prediction by ZEFSAII (Michael W. Deem and Ramdas Pophale) SiO2 
 PCOD8123089
Probable space group: P 2/C
;
_chemical_formula_sum "Si O2"
_cell_formula_units_Z 16
_cell_length_a 9.021347
_cell_length_b 10.285960
_cell_length_c 12.687354
_cell_angle_alpha 90.000000
_cell_angle_beta 35.793998
_cell_angle_gamma 90.000000
_cell_volume 688.570851
_symmetry_space_group_name_H-M "P 2/C"
_symmetry_group_IT_number 13
_symmetry_cell_setting 'monoclinic'
loop_
_space_group_symop_operation_xyz
x,y,z
-x,y,1/2-z
-x,-y,-z
x,-y,1/2+z
loop_
_atom_site_type_symbol
_atom_site_label
_atom_site_fract_x
_atom_site_fract_y
_atom_site_fract_z
Si Si1 0.500000 0.651753 0.750000
Si Si2 0.795754 0.105307 0.578326
Si Si3 0.000000 0.226381 0.250000
Si Si4 0.983574 0.723761 0.373926
Si Si5 0.256917 0.537881 0.703745
O O1 0.323911 0.554684 0.786431
O O2 0.689457 0.743565 0.574761
O O3 0.500000 0.059773 0.750000
O O4 0.860888 0.140440 0.419643
O O5 0.826540 0.222589 0.645563
O O6 0.000000 0.000000 0.500000
O O7 0.808145 0.319327 0.300113
O O8 0.038417 0.570153 0.323498
O O9 0.000000 0.794999 0.250000
O O10 0.500000 0.500000 0.500000
#
# Coordination Sequence:
#
# PCOD8123089 Si02
#       5
#     2   4   2   4   4
#     4  12  24  40  70 106 160 194 242 300 384 450
#     4  12  32  53  79 108 149 207 262 319 374 445
#     4  12  26  50  74 112 152 192 254 308 380 460
#     4  12  26  45  73 111 152 197 250 306 380 452
#     4  12  23  42  71 114 154 196 236 307 383 458
#
# _framework density 23.236535
#
# number of rings (size 3 to 8) (size 9 to 14) (size 15 to 20)
#    0.000    0.000    6.250    2.250    8.750    1.000 
#    0.000    0.000    0.000    0.000    0.000    0.000 
#    0.000    0.000    0.000    0.000    0.000    0.000 
#
# Total GULP energy -198285.342384 kJ/mol
# GULP energy per Si atom -12392.833899 kJ/mol
# Density = 2.318365 g / cm^3
# Si number density = 23.236535 Si / 1000 Ang^3
#
#
#
# Elastic Constant Matrix: (Units=GPa)
#
#
# Indices 1 2 3 4 5 6 
#
# 1 159.6430 38.9028 68.0847 0.0000 9.6695 0.0000
# 2 38.9028 85.2784 45.7160 0.0000 -3.5022 0.0000
# 3 68.0847 45.7160 198.1199 0.0000 -3.0046 0.0000
# 4 0.0000 0.0000 0.0000 24.4897 0.0000 -9.7664
# 5 9.6695 -3.5022 -3.0046 0.0000 58.4347 0.0000
# 6 0.0000 0.0000 0.0000 -9.7664 0.0000 28.5932
#
#
#
# Elastic Compliance Matrix: (Units=1/GPa)
#
#
# Indices 1 2 3 4 5 6 
#
# 1 0.007890 -0.002507 -0.002156 0.000000 -0.001567 0.000000
# 2 -0.002507 0.014203 -0.002398 0.000000 0.001143 0.000000
# 3 -0.002156 -0.002398 0.006350 0.000000 0.000540 0.000000
# 4 0.000000 0.000000 0.000000 0.047273 0.000000 0.016147
# 5 -0.001567 0.001143 0.000540 0.000000 0.017469 0.000000
# 6 0.000000 0.000000 0.000000 0.016147 0.000000 0.040488
#
#
# Mechanical properties :
#
#
# Convention : Reuss Voigt Hill
#
# Bulk Modulus (GPa) = 69.84138 83.16090 76.50114
# Shear Modulus (GPa) = 32.77204 41.65937 37.21571
#
# Velocity S-wave (km/s) = 3.75956 4.23879 4.00634
# Velocity P-wave (km/s) = 6.99769 7.73453 7.37532
#
# Compressibility (1/GPa) = 0.01431816
#
# Stress axis : x y z
#
# Youngs Moduli (GPa) = 126.74937 70.40894 157.47772
#
# Poissons Ratio (x) = 0.17654 0.33959
# Poissons Ratio (y) = 0.31781 0.37767
# Poissons Ratio (z) = 0.27333 0.16886
#
# Static dielectric constant tensor:
#      x y z
#    x 4.609580 0.000000 0.315700 
#    y 0.000000 4.301930 0.000000 
#    z 0.315700 0.000000 4.492160 
# 
# 
# High freq. dielectric constant tensor:
#      x y z
#    x 1.943240 0.000000 0.013020 
#    y 0.000000 1.888200 0.000000 
#    z 0.013020 0.000000 1.939280 
# 
# From -- ./inp_files/28854.got.cif
#   From: 2010.06.25/outbox.cif.g09.slc.cpg/sg13_15_cif.got.tgz:28854.got - 2010.06.28 04:50:58.
