data_PCOD8123381
_publ_section_title
;
Structure prediction by ZEFSAII (Michael W. Deem and Ramdas Pophale) SiO2 
 PCOD8123381
Probable space group: P 21/C
;
_chemical_formula_sum "Si O2"
_cell_formula_units_Z 32
_cell_length_a 9.086040
_cell_length_b 17.396671
_cell_length_c 10.768112
_cell_angle_alpha 90.000000
_cell_angle_beta 72.761334
_cell_angle_gamma 90.000000
_cell_volume 1625.621620
_symmetry_space_group_name_H-M "P 21/C"
_symmetry_group_IT_number 14
_symmetry_cell_setting 'monoclinic'
loop_
_space_group_symop_operation_xyz
x,y,z
-x,1/2+y,1/2-z
-x,-y,-z
x,1/2-y,1/2+z
loop_
_atom_site_type_symbol
_atom_site_label
_atom_site_fract_x
_atom_site_fract_y
_atom_site_fract_z
Si Si1 0.049788 0.254117 0.747656
Si Si2 0.446280 0.816720 0.178012
Si Si3 0.863638 0.387811 0.238681
Si Si4 0.046194 0.857367 0.944232
Si Si5 0.668162 0.257848 0.548403
Si Si6 0.763177 0.632822 0.693296
Si Si7 0.899458 0.370096 0.954702
Si Si8 0.905081 0.007079 0.251589
O O1 0.211209 0.208370 0.725829
O O2 0.909836 0.192651 0.793408
O O3 0.040280 0.294411 0.617996
O O4 0.032645 0.317058 0.860898
O O5 0.321384 0.886076 0.219949
O O6 0.420984 0.754827 0.296799
O O7 0.610773 0.857993 0.150847
O O8 0.442186 0.780692 0.039886
O O9 0.928717 0.462974 0.291697
O O10 0.945669 0.389242 0.083457
O O11 0.201501 0.822595 0.963882
O O12 0.097241 0.933142 0.859687
O O13 0.918271 0.879209 0.075191
O O14 0.739203 0.176111 0.491545
O O15 0.763714 0.554198 0.774019
O O16 0.878130 0.449369 0.887278
#
# Coordination Sequence:
#
# PCOD8123381 Si02
#       8
#     4   4   4   4   4   4   4   4
#     4  10  17  34  60  88 111 151 205 253 289 350
#     4  11  23  37  62  86 132 155 198 250 316 360
#     4  10  18  36  57  87 120 156 196 246 305 361
#     4  11  20  38  66  84 115 155 218 247 295 351
#     4  11  20  41  64  92 113 165 204 256 298 367
#     4  11  23  36  55  90 126 153 196 256 306 352
#     4  10  17  34  64  86 110 153 214 249 289 349
#     4  10  22  36  59  85 117 161 204 248 300 362
#
# _framework density 19.684778000000001
#
# number of rings (size 3 to 8) (size 9 to 14) (size 15 to 20)
#    0.000    1.500    5.000    2.250    1.750    0.000 
#    0.000    5.000    5.500    0.000    0.000    0.000 
#    0.000    0.000    0.000    0.000    0.000    0.000 
#
# Total GULP energy -396550.498593 kJ/mol
# GULP energy per Si atom -12392.203081 kJ/mol
# Density = 1.963997 g / cm^3
# Si number density = 19.684778 Si / 1000 Ang^3
#
#
#
# Elastic Constant Matrix: (Units=GPa)
#
#
# Indices 1 2 3 4 5 6 
#
# 1 127.5745 49.0396 26.7382 0.0000 14.4121 0.0000
# 2 49.0396 107.0940 26.2151 0.0000 15.0592 0.0000
# 3 26.7382 26.2151 69.1911 0.0000 19.1158 0.0000
# 4 0.0000 0.0000 0.0000 25.3358 0.0000 9.9060
# 5 14.4121 15.0592 19.1158 0.0000 25.7914 0.0000
# 6 0.0000 0.0000 0.0000 9.9060 0.0000 21.0265
#
#
#
# Elastic Compliance Matrix: (Units=1/GPa)
#
#
# Indices 1 2 3 4 5 6 
#
# 1 0.009911 -0.003813 -0.001849 0.000000 -0.001942 0.000000
# 2 -0.003813 0.012084 -0.002194 0.000000 -0.003300 0.000000
# 3 -0.001849 -0.002194 0.019314 0.000000 -0.012001 0.000000
# 4 0.000000 0.000000 0.000000 0.048382 0.000000 -0.022794
# 5 -0.001942 -0.003300 -0.012001 0.000000 0.050679 0.000000
# 6 0.000000 0.000000 0.000000 -0.022794 0.000000 0.058297
#
#
# Mechanical properties :
#
#
# Convention : Reuss Voigt Hill
#
# Bulk Modulus (GPa) = 39.06448 56.42726 47.74587
# Shear Modulus (GPa) = 22.43046 27.88852 25.15949
#
# Velocity S-wave (km/s) = 3.37928 3.76806 3.57896
# Velocity P-wave (km/s) = 5.92572 6.90353 6.43323
#
# Compressibility (1/GPa) = 0.02559871
#
# Stress axis : x y z
#
# Youngs Moduli (GPa) = 100.89747 82.75114 51.77614
#
# Poissons Ratio (x) = 0.31551 0.09574
# Poissons Ratio (y) = 0.38470 0.11357
# Poissons Ratio (z) = 0.18656 0.18152
#
# Static dielectric constant tensor:
#      x y z
#    x 3.500610 0.000000 0.390040 
#    y 0.000000 3.675160 0.000000 
#    z 0.390040 0.000000 3.702600 
# 
# 
# High freq. dielectric constant tensor:
#      x y z
#    x 1.745730 0.000000 0.036210 
#    y 0.000000 1.763650 0.000000 
#    z 0.036210 0.000000 1.769190 
# 
# From -- ./inp_files/26264.got.cif
#   From: 2010.03.12/outbox.cif.g09.slc.cpg/sg14_14_cif.got.tgz:26264.got - 2010.03.31 13:35:05.
