data_PCOD8123577
_publ_section_title
;
Structure prediction by ZEFSAII (Michael W. Deem and Ramdas Pophale) SiO2 
 PCOD8123577
Probable space group: P 21/C
;
_chemical_formula_sum "Si O2"
_cell_formula_units_Z 24
_cell_length_a 15.578229
_cell_length_b 6.081634
_cell_length_c 16.288753
_cell_angle_alpha 90.000000
_cell_angle_beta 52.124942
_cell_angle_gamma 90.000000
_cell_volume 1218.138296
_symmetry_space_group_name_H-M "P 21/C"
_symmetry_group_IT_number 14
_symmetry_cell_setting 'monoclinic'
loop_
_space_group_symop_operation_xyz
x,y,z
-x,1/2+y,1/2-z
-x,-y,-z
x,1/2-y,1/2+z
loop_
_atom_site_type_symbol
_atom_site_label
_atom_site_fract_x
_atom_site_fract_y
_atom_site_fract_z
Si Si1 0.724665 0.044086 0.770978
Si Si2 0.084800 0.806244 0.439598
Si Si3 0.849976 0.762929 0.325440
Si Si4 0.470785 0.307076 0.577912
Si Si5 0.970430 0.493072 0.382555
Si Si6 0.335598 0.928289 0.573947
O O1 0.796334 0.092964 0.648481
O O2 0.695990 0.270919 0.832274
O O3 0.791711 0.888497 0.792951
O O4 0.613707 0.914717 0.806533
O O5 0.092197 0.665423 0.517829
O O6 0.051587 0.655549 0.382188
O O7 0.000000 0.000000 0.500000
O O8 0.876447 0.625770 0.391207
O O9 0.962084 0.851875 0.222287
O O10 0.774071 0.967526 0.399615
O O11 0.500000 0.500000 0.500000
O O12 0.587605 0.202859 0.538488
O O13 0.407072 0.124566 0.565664
#
# Coordination Sequence:
#
# PCOD8123577 Si02
#       6
#     4   4   4   4   4   4
#     4  10  18  33  56  79 117 149 189 239 289 341
#     4  11  22  38  52  79 122 157 191 238 284 355
#     4  11  21  34  53  80 116 155 191 241 289 344
#     4   8  16  29  51  83 114 133 183 238 290 336
#     4  11  24  34  53  79 118 158 197 230 291 354
#     4   9  17  31  52  81 118 137 180 244 287 337
#
# _framework density 19.702197000000002
#
# number of rings (size 3 to 8) (size 9 to 14) (size 15 to 20)
#    0.000    2.000    3.333    1.000    0.000    0.000 
#    0.000    0.000    0.000    0.000    0.000    0.000 
#  415.000    0.000    0.000    0.000    0.000    1.333 
#
# Total GULP energy -297327.065737 kJ/mol
# GULP energy per Si atom -12388.627739 kJ/mol
# Density = 1.965735 g / cm^3
# Si number density = 19.702197 Si / 1000 Ang^3
#
#
#
# Elastic Constant Matrix: (Units=GPa)
#
#
# Indices 1 2 3 4 5 6 
#
# 1 65.7844 38.4878 60.7300 0.0000 -17.3264 0.0000
# 2 38.4878 113.0050 59.6890 0.0000 -18.9596 0.0000
# 3 60.7300 59.6890 131.8502 0.0000 -36.2542 0.0000
# 4 0.0000 0.0000 0.0000 33.2615 0.0000 -18.1238
# 5 -17.3264 -18.9596 -36.2542 0.0000 34.5866 0.0000
# 6 0.0000 0.0000 0.0000 -18.1238 0.0000 48.1461
#
#
#
# Elastic Compliance Matrix: (Units=1/GPa)
#
#
# Indices 1 2 3 4 5 6 
#
# 1 0.027471 -0.003503 -0.010974 0.000000 0.000338 0.000000
# 2 -0.003503 0.012113 -0.003550 0.000000 0.001164 0.000000
# 3 -0.010974 -0.003550 0.017139 0.000000 0.010522 0.000000
# 4 0.000000 0.000000 0.000000 0.037823 0.000000 0.014238
# 5 0.000338 0.001164 0.010522 0.000000 0.040750 0.000000
# 6 0.000000 0.000000 0.000000 0.014238 0.000000 0.026130
#
#
# Mechanical properties :
#
#
# Convention : Reuss Voigt Hill
#
# Bulk Modulus (GPa) = 48.38270 69.82813 59.10542
# Shear Modulus (GPa) = 24.46567 33.31437 28.89002
#
# Velocity S-wave (km/s) = 3.52770 4.11651 3.83343
# Velocity P-wave (km/s) = 6.41898 7.62319 7.04685
#
# Compressibility (1/GPa) = 0.02066854
#
# Stress axis : x y z
#
# Youngs Moduli (GPa) = 36.40257 82.55911 58.34528
#
# Poissons Ratio (x) = 0.28919 0.64029
# Poissons Ratio (y) = 0.12751 0.20712
# Poissons Ratio (z) = 0.39949 0.29308
#
# Static dielectric constant tensor:
#      x y z
#    x 3.609230 0.000000 -0.674210 
#    y 0.000000 4.018640 0.000000 
#    z -0.674210 0.000000 3.681020 
# 
# 
# High freq. dielectric constant tensor:
#      x y z
#    x 1.733320 0.000000 -0.051980 
#    y 0.000000 1.803320 0.000000 
#    z -0.051980 0.000000 1.751400 
# 
# From -- ./inp_files/45796.got.cif
#   From: 2010.03.12/outbox.cif.g09.slc.cpg/sg14_23_cif.got.tgz:45796.got - 2010.03.31 13:35:05.
