data_PCOD8123543
_publ_section_title
;
Structure prediction by ZEFSAII (Michael W. Deem and Ramdas Pophale) SiO2 
 PCOD8123543
Probable space group: P 21/C
;
_chemical_formula_sum "Si O2"
_cell_formula_units_Z 16
_cell_length_a 21.197406
_cell_length_b 7.554556
_cell_length_c 5.298599
_cell_angle_alpha 90.000000
_cell_angle_beta 59.914027
_cell_angle_gamma 90.000000
_cell_volume 734.186606
_symmetry_space_group_name_H-M "P 21/C"
_symmetry_group_IT_number 14
_symmetry_cell_setting 'monoclinic'
loop_
_space_group_symop_operation_xyz
x,y,z
-x,1/2+y,1/2-z
-x,-y,-z
x,1/2-y,1/2+z
loop_
_atom_site_type_symbol
_atom_site_label
_atom_site_fract_x
_atom_site_fract_y
_atom_site_fract_z
Si Si1 0.854518 0.066959 0.292116
Si Si2 0.084420 0.542535 0.830332
Si Si3 0.435126 0.362796 0.605434
Si Si4 0.684373 0.143234 0.633256
O O1 0.877438 0.958219 0.496921
O O2 0.901099 0.247641 0.199105
O O3 0.769718 0.107157 0.461612
O O4 0.877627 0.958119 0.995294
O O5 0.000000 0.500000 0.000000
O O6 0.500000 0.500000 0.500000
O O7 0.441462 0.277342 0.317200
O O8 0.357144 0.457676 0.784506
O O9 0.661331 0.249905 0.429388
#
# Coordination Sequence:
#
# PCOD8123543 Si02
#       4
#     4   4   4   4
#     4  10  19  35  56  85 113 167 214 266 330 394
#     4  10  18  32  56  80 116 151 213 267 321 387
#     4  12  26  46  71 106 141 177 224 273 333 403
#     4  12  21  41  72  97 133 182 225 276 335 407
#
# _framework density 21.792824
#
# number of rings (size 3 to 8) (size 9 to 14) (size 15 to 20)
#    0.000    1.000    5.000    4.500    0.000    0.000 
#    0.000    0.000   33.000    0.000    0.000    0.000 
#    0.000    0.000    0.000    0.000    0.000    0.000 
#
# Total GULP energy -198368.637678 kJ/mol
# GULP energy per Si atom -12398.039855 kJ/mol
# Density = 2.174322 g / cm^3
# Si number density = 21.792824 Si / 1000 Ang^3
#
#
#
# Elastic Constant Matrix: (Units=GPa)
#
#
# Indices 1 2 3 4 5 6 
#
# 1 110.5484 38.8427 64.1819 0.0000 15.6622 0.0000
# 2 38.8427 53.7397 28.2330 0.0000 -16.7426 0.0000
# 3 64.1819 28.2330 136.4057 0.0000 35.3021 0.0000
# 4 0.0000 0.0000 0.0000 39.7947 0.0000 -8.5217
# 5 15.6622 -16.7426 35.3021 0.0000 66.4757 0.0000
# 6 0.0000 0.0000 0.0000 -8.5217 0.0000 43.0818
#
#
#
# Elastic Compliance Matrix: (Units=1/GPa)
#
#
# Indices 1 2 3 4 5 6 
#
# 1 0.015726 -0.010465 -0.004165 0.000000 -0.004129 0.000000
# 2 -0.010465 0.033413 -0.005574 0.000000 0.013841 0.000000
# 3 -0.004165 -0.005574 0.012235 0.000000 -0.006920 0.000000
# 4 0.000000 0.000000 0.000000 0.026240 0.000000 0.005190
# 5 -0.004129 0.013841 -0.006920 0.000000 0.023177 0.000000
# 6 0.000000 0.000000 0.000000 0.005190 0.000000 0.024238
#
#
# Mechanical properties :
#
#
# Convention : Reuss Voigt Hill
#
# Bulk Modulus (GPa) = 47.69428 62.57878 55.13653
# Shear Modulus (GPa) = 27.40855 41.16620 34.28738
#
# Velocity S-wave (km/s) = 3.55024 4.35095 3.97083
# Velocity P-wave (km/s) = 6.22402 7.34974 6.81018
#
# Compressibility (1/GPa) = 0.02096688
#
# Stress axis : x y z
#
# Youngs Moduli (GPa) = 63.59009 29.92884 81.73124
#
# Poissons Ratio (x) = 0.31320 0.34038
# Poissons Ratio (y) = 0.66547 0.45555
# Poissons Ratio (z) = 0.26483 0.16682
#
# Static dielectric constant tensor:
#      x y z
#    x 3.991280 0.000000 0.095530 
#    y 0.000000 3.420620 0.000000 
#    z 0.095530 0.000000 3.949720 
# 
# 
# High freq. dielectric constant tensor:
#      x y z
#    x 1.879630 0.000000 0.017380 
#    y 0.000000 1.816880 0.000000 
#    z 0.017380 0.000000 1.887580 
# 
# From -- ./inp_files/4027.got.cif
#   From: 2010.03.12/outbox.cif.g09.slc.cpg/sg14_3_cif.got.tgz:4027.got - 2010.03.31 13:35:05.
