data_PCOD8123104
_publ_section_title
;
Structure prediction by ZEFSAII (Michael W. Deem and Ramdas Pophale) SiO2 
 PCOD8123104
Probable space group: P 2/C
;
_chemical_formula_sum "Si O2"
_cell_formula_units_Z 24
_cell_length_a 7.711762
_cell_length_b 9.400929
_cell_length_c 15.808861
_cell_angle_alpha 90.000000
_cell_angle_beta 85.114615
_cell_angle_gamma 90.000000
_cell_volume 1141.942744
_symmetry_space_group_name_H-M "P 2/C"
_symmetry_group_IT_number 13
_symmetry_cell_setting 'monoclinic'
loop_
_space_group_symop_operation_xyz
x,y,z
-x,y,1/2-z
-x,-y,-z
x,-y,1/2+z
loop_
_atom_site_type_symbol
_atom_site_label
_atom_site_fract_x
_atom_site_fract_y
_atom_site_fract_z
Si Si1 0.856930 0.757853 0.196367
Si Si2 0.302897 0.959101 0.764525
Si Si3 0.984774 0.669855 0.008044
Si Si4 0.308737 0.253420 0.402115
Si Si5 0.306461 0.473829 0.260701
Si Si6 0.286736 0.761522 0.621689
O O1 0.918418 0.727224 0.099813
O O2 0.813614 0.610407 0.243735
O O3 0.000000 0.831931 0.250000
O O4 0.704532 0.874724 0.211093
O O5 0.500000 0.906013 0.750000
O O6 0.229112 0.872738 0.847755
O O7 0.227424 0.904456 0.676510
O O8 0.845168 0.735138 0.948740
O O9 0.000000 0.500000 0.000000
O O10 0.179237 0.734791 0.987569
O O11 0.281556 0.399646 0.352140
O O12 0.511732 0.230421 0.420614
O O13 0.500000 0.533542 0.250000
O O14 0.264781 0.370000 0.185833
#
# Coordination Sequence:
#
# PCOD8123104 Si02
#       6
#     4   4   4   4   4   4
#     4  12  25  39  57  94 128 162 206 260 316 366
#     4   9  21  44  66  89 122 167 212 252 308 379
#     4  12  24  40  64  97 130 162 209 262 309 371
#     4   9  20  41  66  93 122 162 210 252 312 377
#     4   9  18  38  64  88 120 163 206 253 308 372
#     4   9  21  42  70  88 118 170 210 252 310 370
#
# _framework density 21.016815999999999
#
# number of rings (size 3 to 8) (size 9 to 14) (size 15 to 20)
#    0.000    2.000    1.667    3.500    2.333    2.667 
#    6.000    1.667    0.000    0.000    0.000    0.000 
#    0.000    0.000    0.000    0.000    0.000    0.000 
#
# Total GULP energy -297363.926957 kJ/mol
# GULP energy per Si atom -12390.163623 kJ/mol
# Density = 2.096898 g / cm^3
# Si number density = 21.016816 Si / 1000 Ang^3
#
#
#
# Elastic Constant Matrix: (Units=GPa)
#
#
# Indices 1 2 3 4 5 6 
#
# 1 80.2893 28.2185 47.9787 0.0000 -7.0743 0.0000
# 2 28.2185 113.4481 45.1719 0.0000 -9.3808 0.0000
# 3 47.9787 45.1719 120.2541 0.0000 -2.7326 0.0000
# 4 0.0000 0.0000 0.0000 32.7011 0.0000 -2.9296
# 5 -7.0743 -9.3808 -2.7326 0.0000 28.2511 0.0000
# 6 0.0000 0.0000 0.0000 -2.9296 0.0000 26.2005
#
#
#
# Elastic Compliance Matrix: (Units=1/GPa)
#
#
# Indices 1 2 3 4 5 6 
#
# 1 0.016914 -0.001515 -0.006108 0.000000 0.003141 0.000000
# 2 -0.001515 0.010774 -0.003377 0.000000 0.002871 0.000000
# 3 -0.006108 -0.003377 0.011987 0.000000 -0.001491 0.000000
# 4 0.000000 0.000000 0.000000 0.030889 0.000000 0.003454
# 5 0.003141 0.002871 -0.001491 0.000000 0.036993 0.000000
# 6 0.000000 0.000000 0.000000 0.003454 0.000000 0.038553
#
#
# Mechanical properties :
#
#
# Convention : Reuss Voigt Hill
#
# Bulk Modulus (GPa) = 56.57870 61.85886 59.21878
# Shear Modulus (GPa) = 28.73521 30.27205 29.50363
#
# Velocity S-wave (km/s) = 3.70164 3.79934 3.75081
# Velocity P-wave (km/s) = 6.72671 6.98166 6.85537
#
# Compressibility (1/GPa) = 0.01767449
#
# Stress axis : x y z
#
# Youngs Moduli (GPa) = 59.12200 92.81912 83.42198
#
# Poissons Ratio (x) = 0.14066 0.50952
# Poissons Ratio (y) = 0.08960 0.28172
# Poissons Ratio (z) = 0.36110 0.31346
#
# Static dielectric constant tensor:
#      x y z
#    x 3.888240 0.000000 -0.183650 
#    y 0.000000 3.634940 0.000000 
#    z -0.183650 0.000000 3.710600 
# 
# 
# High freq. dielectric constant tensor:
#      x y z
#    x 1.826390 0.000000 -0.011610 
#    y 0.000000 1.823560 0.000000 
#    z -0.011610 0.000000 1.811230 
# 
# From -- ./inp_files/46041.got.cif
#   From: 2010.06.25/outbox.cif.g09.slc.cpg/sg13_24_cif.got.tgz:46041.got - 2010.06.28 04:50:58.
