data_PCOD8123494
_publ_section_title
;
Structure prediction by ZEFSAII (Michael W. Deem and Ramdas Pophale) SiO2 
 PCOD8123494
Probable space group: P 21/C
;
_chemical_formula_sum "Si O2"
_cell_formula_units_Z 28
_cell_length_a 14.259650
_cell_length_b 19.528864
_cell_length_c 4.956053
_cell_angle_alpha 90.000000
_cell_angle_beta 81.772937
_cell_angle_gamma 90.000000
_cell_volume 1365.932378
_symmetry_space_group_name_H-M "P 21/C"
_symmetry_group_IT_number 14
_symmetry_cell_setting 'monoclinic'
loop_
_space_group_symop_operation_xyz
x,y,z
-x,1/2+y,1/2-z
-x,-y,-z
x,1/2-y,1/2+z
loop_
_atom_site_type_symbol
_atom_site_label
_atom_site_fract_x
_atom_site_fract_y
_atom_site_fract_z
Si Si1 0.288995 0.702330 0.821045
Si Si2 0.916000 0.293534 0.197303
Si Si3 0.300620 0.379824 0.905910
Si Si4 0.625884 0.952442 0.123168
Si Si5 0.521413 0.794379 0.623944
Si Si6 0.882129 0.797461 0.499757
Si Si7 0.427525 0.598525 0.516050
O O1 0.305023 0.766513 0.611624
O O2 0.360809 0.640784 0.743231
O O3 0.183193 0.669231 0.833101
O O4 0.917078 0.224153 0.013969
O O5 0.013648 0.333145 0.081918
O O6 0.305358 0.412274 0.608177
O O7 0.367856 0.313067 0.898379
O O8 0.194319 0.356785 0.015228
O O9 0.335400 0.438729 0.094748
O O10 0.519120 0.923663 0.150025
O O11 0.629173 0.033152 0.069951
O O12 0.498310 0.770870 0.327907
O O13 0.458023 0.858677 0.738670
O O14 0.869810 0.733983 0.301089
#
# Coordination Sequence:
#
# PCOD8123494 Si02
#       7
#     4   4   4   4   4   4   4
#     4  10  20  34  55  81 105 130 165 214 263 304
#     4   8  16  30  49  77 105 129 161 200 255 317
#     4  11  21  36  52  74 105 135 172 210 249 300
#     4  10  24  37  52  72 100 144 182 209 239 300
#     4  11  21  32  50  76 101 124 159 209 256 299
#     4  10  18  31  54  79 105 134 162 206 264 311
#     4  10  22  38  54  72 103 140 177 210 254 299
#
# _framework density 20.498819000000001
#
# number of rings (size 3 to 8) (size 9 to 14) (size 15 to 20)
#    0.000    2.000    0.000    4.286    0.000    9.714 
#    0.000    0.000    0.000    1.714    0.000    0.000 
#    0.000    0.000    0.000    0.000    0.000    0.000 
#
# Total GULP energy -347189.810198 kJ/mol
# GULP energy per Si atom -12399.636078 kJ/mol
# Density = 2.045216 g / cm^3
# Si number density = 20.498819 Si / 1000 Ang^3
#
#
#
# Elastic Constant Matrix: (Units=GPa)
#
#
# Indices 1 2 3 4 5 6 
#
# 1 83.2765 33.4340 18.8735 0.0000 -25.1020 0.0000
# 2 33.4340 75.0736 10.6829 0.0000 -13.9993 0.0000
# 3 18.8735 10.6829 76.5935 0.0000 -3.2581 0.0000
# 4 0.0000 0.0000 0.0000 17.1296 0.0000 1.9821
# 5 -25.1020 -13.9993 -3.2581 0.0000 38.2109 0.0000
# 6 0.0000 0.0000 0.0000 1.9821 0.0000 20.3529
#
#
#
# Elastic Compliance Matrix: (Units=1/GPa)
#
#
# Indices 1 2 3 4 5 6 
#
# 1 0.017864 -0.005756 -0.003201 0.000000 0.009354 0.000000
# 2 -0.005756 0.016397 -0.000777 0.000000 0.002160 0.000000
# 3 -0.003201 -0.000777 0.013902 0.000000 -0.001202 0.000000
# 4 0.000000 0.000000 0.000000 0.059044 0.000000 -0.005750
# 5 0.009354 0.002160 -0.001202 0.000000 0.033004 0.000000
# 6 0.000000 0.000000 0.000000 -0.005750 0.000000 0.049693
#
#
# Mechanical properties :
#
#
# Convention : Reuss Voigt Hill
#
# Bulk Modulus (GPa) = 34.84913 40.10270 37.47592
# Shear Modulus (GPa) = 22.83759 26.60222 24.71991
#
# Velocity S-wave (km/s) = 3.34142 3.60633 3.47640
# Velocity P-wave (km/s) = 5.65016 6.07838 5.86818
#
# Compressibility (1/GPa) = 0.02869512
#
# Stress axis : x y z
#
# Youngs Moduli (GPa) = 55.97807 60.98677 71.93232
#
# Poissons Ratio (x) = 0.35104 0.23027
# Poissons Ratio (y) = 0.32221 0.05587
# Poissons Ratio (z) = 0.17920 0.04737
#
# Static dielectric constant tensor:
#      x y z
#    x 4.006280 0.000000 -0.188160 
#    y 0.000000 3.363780 0.000000 
#    z -0.188160 0.000000 3.845350 
# 
# 
# High freq. dielectric constant tensor:
#      x y z
#    x 1.805890 0.000000 -0.001620 
#    y 0.000000 1.750840 0.000000 
#    z -0.001620 0.000000 1.823380 
# 
# From -- ./inp_files/3721.got.cif
#   From: 2010.03.12/outbox.cif.g09.slc.cpg/sg14_2_cif.got.tgz:3721.got - 2010.03.31 13:35:05.
