data_PCOD8123331
_publ_section_title
;
Structure prediction by ZEFSAII (Michael W. Deem and Ramdas Pophale) SiO2 
 PCOD8123331
Probable space group: P 21/C
;
_chemical_formula_sum "Si O2"
_cell_formula_units_Z 20
_cell_length_a 9.024435
_cell_length_b 5.057087
_cell_length_c 27.688652
_cell_angle_alpha 90.000000
_cell_angle_beta 61.443518
_cell_angle_gamma 90.000000
_cell_volume 1109.910698
_symmetry_space_group_name_H-M "P 21/C"
_symmetry_group_IT_number 14
_symmetry_cell_setting 'monoclinic'
loop_
_space_group_symop_operation_xyz
x,y,z
-x,1/2+y,1/2-z
-x,-y,-z
x,1/2-y,1/2+z
loop_
_atom_site_type_symbol
_atom_site_label
_atom_site_fract_x
_atom_site_fract_y
_atom_site_fract_z
Si Si1 0.348633 0.999529 0.486518
Si Si2 0.411174 0.063207 0.746567
Si Si3 0.885565 0.999648 0.970429
Si Si4 0.607095 0.541821 0.129646
Si Si5 0.203207 0.958093 0.862995
O O1 0.232201 0.248791 0.512885
O O2 0.500000 0.000000 0.500000
O O3 0.232218 0.750361 0.513313
O O4 0.429716 0.996198 0.420665
O O5 0.452000 0.372111 0.748092
O O6 0.428963 0.996354 0.686626
O O7 0.232078 0.996559 0.800346
O O8 0.006649 0.001028 0.904735
O O9 0.000000 0.000000 0.000000
O O10 0.680654 0.834660 0.125766
O O11 0.744928 0.334718 0.128175
#
# Coordination Sequence:
#
# PCOD8123331 Si02
#       5
#     4   4   4   4   4
#     4  12  24  36  52  79 112 144 170 209 269 321
#     4   8  16  27  46  74 100 126 163 215 259 292
#     4  12  21  36  57  78 106 138 178 223 257 300
#     4  10  17  32  50  74 105 134 168 211 256 309
#     4  10  18  30  53  78  99 127 175 221 255 292
#
# _framework density 18.019468
#
# number of rings (size 3 to 8) (size 9 to 14) (size 15 to 20)
#    0.000    1.600    4.000    2.400    0.000    0.000 
#    0.000    0.000    0.000    2.400    0.000    0.000 
#    0.000    0.000    0.000    0.000    0.000    0.000 
#
# Total GULP energy -247879.643717 kJ/mol
# GULP energy per Si atom -12393.982186 kJ/mol
# Density = 1.797846 g / cm^3
# Si number density = 18.019468 Si / 1000 Ang^3
#
#
#
# Elastic Constant Matrix: (Units=GPa)
#
#
# Indices 1 2 3 4 5 6 
#
# 1 96.2608 40.0553 59.5367 0.0000 -5.9468 0.0000
# 2 40.0553 118.2986 33.7458 0.0000 -7.2978 0.0000
# 3 59.5367 33.7458 212.7827 0.0000 -15.1756 0.0000
# 4 0.0000 0.0000 0.0000 28.0306 0.0000 -7.3260
# 5 -5.9468 -7.2978 -15.1756 0.0000 16.3428 0.0000
# 6 0.0000 0.0000 0.0000 -7.3260 0.0000 23.2766
#
#
#
# Elastic Compliance Matrix: (Units=1/GPa)
#
#
# Indices 1 2 3 4 5 6 
#
# 1 0.014026 -0.003787 -0.003299 0.000000 0.000350 0.000000
# 2 -0.003787 0.010001 -0.000328 0.000000 0.002783 0.000000
# 3 -0.003299 -0.000328 0.005974 0.000000 0.004201 0.000000
# 4 0.000000 0.000000 0.000000 0.038873 0.000000 0.012235
# 5 0.000350 0.002783 0.004201 0.000000 0.066460 0.000000
# 6 0.000000 0.000000 0.000000 0.012235 0.000000 0.046812
#
#
# Mechanical properties :
#
#
# Convention : Reuss Voigt Hill
#
# Bulk Modulus (GPa) = 65.90337 77.11307 71.50822
# Shear Modulus (GPa) = 24.74867 33.13030 28.93948
#
# Velocity S-wave (km/s) = 3.71002 4.29252 4.01186
# Velocity P-wave (km/s) = 7.41654 8.21309 7.82496
#
# Compressibility (1/GPa) = 0.01517373
#
# Stress axis : x y z
#
# Youngs Moduli (GPa) = 71.29562 99.99453 167.38271
#
# Poissons Ratio (x) = 0.37863 0.55221
# Poissons Ratio (y) = 0.26996 0.05491
# Poissons Ratio (z) = 0.23521 0.03280
#
# Static dielectric constant tensor:
#      x y z
#    x 3.095800 0.000000 -0.346360 
#    y 0.000000 3.572490 0.000000 
#    z -0.346360 0.000000 4.175550 
# 
# 
# High freq. dielectric constant tensor:
#      x y z
#    x 1.616100 0.000000 -0.016940 
#    y 0.000000 1.728680 0.000000 
#    z -0.016940 0.000000 1.731770 
# 
# From -- ./inp_files/71479.got.cif
#   From: 2010.03.12/outbox.cif.g09.slc.cpg/sg14_36_cif.got.tgz:71479.got - 2010.03.31 13:35:05.
