data_PCOD8123907
_publ_section_title
;
Structure prediction by ZEFSAII (Michael W. Deem and Ramdas Pophale) SiO2 
 PCOD8123907
Probable space group: P 21/C
;
_chemical_formula_sum "Si O2"
_cell_formula_units_Z 28
_cell_length_a 10.238014
_cell_length_b 12.027931
_cell_length_c 17.292845
_cell_angle_alpha 90.000000
_cell_angle_beta 133.228555
_cell_angle_gamma 90.000000
_cell_volume 1551.595741
_symmetry_space_group_name_H-M "P 21/C"
_symmetry_group_IT_number 14
_symmetry_cell_setting 'monoclinic'
loop_
_space_group_symop_operation_xyz
x,y,z
-x,1/2+y,1/2-z
-x,-y,-z
x,1/2-y,1/2+z
loop_
_atom_site_type_symbol
_atom_site_label
_atom_site_fract_x
_atom_site_fract_y
_atom_site_fract_z
Si Si1 0.811450 0.024305 0.002715
Si Si2 0.500726 0.596443 0.112057
Si Si3 0.382242 0.793181 0.985713
Si Si4 0.770755 0.806488 0.072746
Si Si5 0.122623 0.867805 0.290472
Si Si6 0.791121 0.004601 0.823246
Si Si7 0.736488 0.562636 0.058592
O O1 0.699352 0.090177 0.020873
O O2 0.743305 0.052221 0.888586
O O3 0.795844 0.891861 0.011970
O O4 0.019441 0.059738 0.095614
O O5 0.406769 0.717434 0.073421
O O6 0.638784 0.584984 0.238290
O O7 0.590877 0.594724 0.063948
O O8 0.356262 0.495898 0.053423
O O9 0.569415 0.820867 0.021022
O O10 0.244461 0.731879 0.871878
O O11 0.817834 0.680458 0.063204
O O12 0.914867 0.832992 0.198982
O O13 0.205053 0.898332 0.239596
O O14 0.122430 0.976665 0.345951
#
# Coordination Sequence:
#
# PCOD8123907 Si02
#       7
#     4   4   4   4   4   4   4
#     4  10  21  33  50  80 111 132 170 216 261 314
#     4   8  15  31  52  70  93 136 172 211 242 296
#     4  10  20  33  52  83 106 127 179 222 251 307
#     4  10  19  31  53  77 105 137 162 221 270 289
#     4   9  19  32  57  77  98 141 176 215 254 303
#     4   9  18  36  52  71 105 146 175 199 256 319
#     4   8  15  30  50  75  96 123 183 210 237 307
#
# _framework density 18.045938
#
# number of rings (size 3 to 8) (size 9 to 14) (size 15 to 20)
#    0.000    2.857    0.000    3.000    8.000    0.000 
#    5.143    0.000    0.000    0.000    0.000   20.000 
#    0.000    0.000    0.000    0.000    0.000    0.000 
#
# Total GULP energy -346950.768783 kJ/mol
# GULP energy per Si atom -12391.098885 kJ/mol
# Density = 1.800486 g / cm^3
# Si number density = 18.045938 Si / 1000 Ang^3
#
#
#
# Elastic Constant Matrix: (Units=GPa)
#
#
# Indices 1 2 3 4 5 6 
#
# 1 43.3731 17.8170 35.1399 0.0000 3.1317 0.0000
# 2 17.8170 96.1037 38.4380 0.0000 0.2520 0.0000
# 3 35.1399 38.4380 122.0584 0.0000 -0.3654 0.0000
# 4 0.0000 0.0000 0.0000 19.9048 0.0000 5.7257
# 5 3.1317 0.2520 -0.3654 0.0000 23.0263 0.0000
# 6 0.0000 0.0000 0.0000 5.7257 0.0000 17.8122
#
#
#
# Elastic Compliance Matrix: (Units=1/GPa)
#
#
# Indices 1 2 3 4 5 6 
#
# 1 0.030991 -0.002472 -0.008157 0.000000 -0.004317 0.000000
# 2 -0.002472 0.012103 -0.003099 0.000000 0.000155 0.000000
# 3 -0.008157 -0.003099 0.011521 0.000000 0.001326 0.000000
# 4 0.000000 0.000000 0.000000 0.055358 0.000000 -0.017795
# 5 -0.004317 0.000155 0.001326 0.000000 0.044035 0.000000
# 6 0.000000 0.000000 0.000000 -0.017795 0.000000 0.061861
#
#
# Mechanical properties :
#
#
# Convention : Reuss Voigt Hill
#
# Bulk Modulus (GPa) = 36.81952 49.36945 43.09449
# Shear Modulus (GPa) = 19.81152 23.49135 21.65143
#
# Velocity S-wave (km/s) = 3.31696 3.61190 3.46756
# Velocity P-wave (km/s) = 5.92597 6.69413 6.32173
#
# Compressibility (1/GPa) = 0.02715951
#
# Stress axis : x y z
#
# Youngs Moduli (GPa) = 32.26710 82.62493 86.79759
#
# Poissons Ratio (x) = 0.20424 0.70798
# Poissons Ratio (y) = 0.07976 0.26901
# Poissons Ratio (z) = 0.26319 0.25608
#
# Static dielectric constant tensor:
#      x y z
#    x 2.886960 0.000000 0.194150 
#    y 0.000000 3.568720 0.000000 
#    z 0.194150 0.000000 3.498870 
# 
# 
# High freq. dielectric constant tensor:
#      x y z
#    x 1.645300 0.000000 0.020830 
#    y 0.000000 1.700380 0.000000 
#    z 0.020830 0.000000 1.710200 
# 
# From -- ./inp_files/44083.got.cif
#   From: 2010.03.12/outbox.cif.g09.slc.cpg/sg14_23_cif.got.tgz:44083.got - 2010.03.31 13:35:05.
