data_PCOD8123158
_publ_section_title
;
Structure prediction by ZEFSAII (Michael W. Deem and Ramdas Pophale) SiO2 
 PCOD8123158
Probable space group: P 2/C
;
_chemical_formula_sum "Si O2"
_cell_formula_units_Z 14
_cell_length_a 8.097213
_cell_length_b 10.296305
_cell_length_c 9.273498
_cell_angle_alpha 90.000000
_cell_angle_beta 130.237362
_cell_angle_gamma 90.000000
_cell_volume 590.198989
_symmetry_space_group_name_H-M "P 2/C"
_symmetry_group_IT_number 13
_symmetry_cell_setting 'monoclinic'
loop_
_space_group_symop_operation_xyz
x,y,z
-x,y,1/2-z
-x,-y,-z
x,-y,1/2+z
loop_
_atom_site_type_symbol
_atom_site_label
_atom_site_fract_x
_atom_site_fract_y
_atom_site_fract_z
Si Si1 0.727569 0.339818 0.881864
Si Si2 0.066184 0.128595 0.119544
Si Si3 0.237603 0.572209 0.397234
Si Si4 0.500000 0.758164 0.750000
O O1 0.500000 0.259774 0.750000
O O2 0.690047 0.441649 0.728517
O O3 0.767292 0.426181 0.045515
O O4 0.929066 0.245860 0.973202
O O5 0.321219 0.154688 0.234591
O O6 0.000000 0.115594 0.250000
O O7 0.000000 0.000000 0.000000
O O8 0.387366 0.671659 0.565892
O O9 0.000000 0.632992 0.250000
#
# Coordination Sequence:
#
# PCOD8123158 Si02
#       4
#     4   4   4   2
#     4  12  26  46  78 117 158 204 262 323 400 471
#     4  12  31  53  80 115 159 216 269 320 390 471
#     4  12  25  45  77 115 160 198 253 326 402 462
#     4  12  28  52  82 116 162 200 270 332 392 468
#
# _framework density 23.720814000000001
#
# number of rings (size 3 to 8) (size 9 to 14) (size 15 to 20)
#    0.000    0.000    4.286    4.286   10.000    1.143 
#    0.000    0.000    0.000    0.000    0.000    0.000 
#    0.000    0.000    0.000    0.000    0.000    0.000 
#
# Total GULP energy -173510.279645 kJ/mol
# GULP energy per Si atom -12393.591403 kJ/mol
# Density = 2.366682 g / cm^3
# Si number density = 23.720814 Si / 1000 Ang^3
#
#
#
# Elastic Constant Matrix: (Units=GPa)
#
#
# Indices 1 2 3 4 5 6 
#
# 1 178.1311 51.4150 66.6138 0.0000 28.6581 0.0000
# 2 51.4150 130.6371 59.0093 0.0000 12.7754 0.0000
# 3 66.6138 59.0093 145.4645 0.0000 14.1292 0.0000
# 4 0.0000 0.0000 0.0000 29.2657 0.0000 6.1244
# 5 28.6581 12.7754 14.1292 0.0000 54.5686 0.0000
# 6 0.0000 0.0000 0.0000 6.1244 0.0000 36.5150
#
#
#
# Elastic Compliance Matrix: (Units=1/GPa)
#
#
# Indices 1 2 3 4 5 6 
#
# 1 0.007462 -0.001514 -0.002520 0.000000 -0.002912 0.000000
# 2 -0.001514 0.009762 -0.003203 0.000000 -0.000661 0.000000
# 3 -0.002520 -0.003203 0.009362 0.000000 -0.000351 0.000000
# 4 0.000000 0.000000 0.000000 0.035413 0.000000 -0.005940
# 5 -0.002912 -0.000661 -0.000351 0.000000 0.020100 0.000000
# 6 0.000000 0.000000 0.000000 -0.005940 0.000000 0.028382
#
#
# Mechanical properties :
#
#
# Convention : Reuss Voigt Hill
#
# Bulk Modulus (GPa) = 82.55880 89.81210 86.18545
# Shear Modulus (GPa) = 38.76250 42.54948 40.65599
#
# Velocity S-wave (km/s) = 4.04680 4.23988 4.14446
# Velocity P-wave (km/s) = 7.53096 7.86849 7.70157
#
# Compressibility (1/GPa) = 0.01211258
#
# Stress axis : x y z
#
# Youngs Moduli (GPa) = 134.01967 102.44009 106.81660
#
# Poissons Ratio (x) = 0.15505 0.26919
# Poissons Ratio (y) = 0.20285 0.34209
# Poissons Ratio (z) = 0.33775 0.32808
#
# Static dielectric constant tensor:
#      x y z
#    x 5.006900 0.000000 0.126820 
#    y 0.000000 3.844440 0.000000 
#    z 0.126820 0.000000 4.667250 
# 
# 
# High freq. dielectric constant tensor:
#      x y z
#    x 1.975330 0.000000 0.006970 
#    y 0.000000 1.906000 0.000000 
#    z 0.006970 0.000000 1.967290 
# 
# From -- ./inp_files/11403.got.cif
#   From: 2010.06.25/outbox.cif.g09.slc.cpg/sg13_6_cif.got.tgz:11403.got - 2010.06.28 04:50:58.
