data_PCOD8123352
_publ_section_title
;
Structure prediction by ZEFSAII (Michael W. Deem and Ramdas Pophale) SiO2 
 PCOD8123352
Probable space group: P 21/C
;
_chemical_formula_sum "Si O2"
_cell_formula_units_Z 28
_cell_length_a 20.424134
_cell_length_b 4.965189
_cell_length_c 17.637225
_cell_angle_alpha 90.000000
_cell_angle_beta 126.716324
_cell_angle_gamma 90.000000
_cell_volume 1433.739646
_symmetry_space_group_name_H-M "P 21/C"
_symmetry_group_IT_number 14
_symmetry_cell_setting 'monoclinic'
loop_
_space_group_symop_operation_xyz
x,y,z
-x,1/2+y,1/2-z
-x,-y,-z
x,1/2-y,1/2+z
loop_
_atom_site_type_symbol
_atom_site_label
_atom_site_fract_x
_atom_site_fract_y
_atom_site_fract_z
Si Si1 0.347754 0.707436 0.601741
Si Si2 0.333434 0.199683 0.347311
Si Si3 0.586271 0.708348 0.935086
Si Si4 0.996364 0.314225 0.198175
Si Si5 0.822974 0.299225 0.585728
Si Si6 0.830817 0.701098 0.195422
Si Si7 0.604518 0.199486 0.193784
O O1 0.375045 0.407119 0.599892
O O2 0.251262 0.750267 0.522871
O O3 0.365517 0.753381 0.701154
O O4 0.399817 0.906680 0.584794
O O5 0.371002 0.255891 0.455357
O O6 0.235784 0.246651 0.284852
O O7 0.372995 0.396121 0.313123
O O8 0.350400 0.896102 0.333460
O O9 0.491306 0.759062 0.879416
O O10 0.908710 0.245998 0.098712
O O11 0.998277 0.627835 0.222214
O O12 0.077817 0.243903 0.205458
O O13 0.817993 0.598707 0.615644
O O14 0.819138 0.097992 0.654589
#
# Coordination Sequence:
#
# PCOD8123352 Si02
#       7
#     4   4   4   4   4   4   4
#     4  12  22  39  60  82 112 146 187 233 274 329
#     4  12  22  39  58  81 114 145 188 229 275 333
#     4  12  23  41  60  79 107 151 196 231 267 325
#     4   8  16  27  50  80 108 130 172 230 265 308
#     4  10  17  33  54  83 106 138 182 225 270 316
#     4  10  18  33  55  81 108 140 180 222 272 320
#     4  12  26  38  55  84 115 148 183 232 285 323
#
# _framework density 19.529347000000001
#
# number of rings (size 3 to 8) (size 9 to 14) (size 15 to 20)
#    0.000    1.143    2.857    5.143    0.000    0.000 
#    0.000    0.000    0.000    1.714    0.000    0.000 
#    0.000    0.000    0.000    0.000    0.000    0.000 
#
# Total GULP energy -347201.351188 kJ/mol
# GULP energy per Si atom -12400.048257 kJ/mol
# Density = 1.948490 g / cm^3
# Si number density = 19.529347 Si / 1000 Ang^3
#
#
#
# Elastic Constant Matrix: (Units=GPa)
#
#
# Indices 1 2 3 4 5 6 
#
# 1 140.6528 9.8122 48.9860 0.0000 39.1586 0.0000
# 2 9.8122 70.1061 8.9118 0.0000 2.1205 0.0000
# 3 48.9860 8.9118 73.5637 0.0000 15.8920 0.0000
# 4 0.0000 0.0000 0.0000 72.3594 0.0000 -74.8754
# 5 39.1586 2.1205 15.8920 0.0000 48.6194 0.0000
# 6 0.0000 0.0000 0.0000 -74.8754 0.0000 142.2347
#
#
#
# Elastic Compliance Matrix: (Units=1/GPa)
#
#
# Indices 1 2 3 4 5 6 
#
# 1 0.011141 -0.000606 -0.005824 0.000000 -0.007043 0.000000
# 2 -0.000606 0.014520 -0.001425 0.000000 0.000320 0.000000
# 3 -0.005824 -0.001425 0.017880 0.000000 -0.001092 0.000000
# 4 0.000000 0.000000 0.000000 0.030355 0.000000 0.015980
# 5 -0.007043 0.000320 -0.001092 0.000000 0.026583 0.000000
# 6 0.000000 0.000000 0.000000 0.015980 0.000000 0.015443
#
#
# Mechanical properties :
#
#
# Convention : Reuss Voigt Hill
#
# Bulk Modulus (GPa) = 35.92939 46.63806 41.28372
# Shear Modulus (GPa) = 35.48371 67.08353 51.28362
#
# Velocity S-wave (km/s) = 4.26719 5.86726 5.12999
# Velocity P-wave (km/s) = 6.53575 8.35658 7.50162
#
# Compressibility (1/GPa) = 0.02783237
#
# Stress axis : x y z
#
# Youngs Moduli (GPa) = 89.75717 68.86896 55.92766
#
# Poissons Ratio (x) = 0.04173 0.32572
# Poissons Ratio (y) = 0.05439 0.07968
# Poissons Ratio (z) = 0.52274 0.09812
#
# Static dielectric constant tensor:
#      x y z
#    x 3.452990 0.000000 0.417550 
#    y 0.000000 3.798640 0.000000 
#    z 0.417550 0.000000 3.325010 
# 
# 
# High freq. dielectric constant tensor:
#      x y z
#    x 1.769720 0.000000 0.038220 
#    y 0.000000 1.784910 0.000000 
#    z 0.038220 0.000000 1.720240 
# 
# From -- ./inp_files/48058.got.cif
#   From: 2010.03.12/outbox.cif.g09.slc.cpg/sg14_25_cif.got.tgz:48058.got - 2010.03.31 13:35:05.
