data_PCOD8123426
_publ_section_title
;
Structure prediction by ZEFSAII (Michael W. Deem and Ramdas Pophale) SiO2 
 PCOD8123426
Probable space group: P 21/C
;
_chemical_formula_sum "Si O2"
_cell_formula_units_Z 28
_cell_length_a 20.246586
_cell_length_b 9.032183
_cell_length_c 23.215922
_cell_angle_alpha 90.000000
_cell_angle_beta 18.506816
_cell_angle_gamma 90.000000
_cell_volume 1347.600893
_symmetry_space_group_name_H-M "P 21/C"
_symmetry_group_IT_number 14
_symmetry_cell_setting 'monoclinic'
loop_
_space_group_symop_operation_xyz
x,y,z
-x,1/2+y,1/2-z
-x,-y,-z
x,1/2-y,1/2+z
loop_
_atom_site_type_symbol
_atom_site_label
_atom_site_fract_x
_atom_site_fract_y
_atom_site_fract_z
Si Si1 0.606769 0.196586 0.131283
Si Si2 0.078285 0.254419 0.756522
Si Si3 0.643971 0.411715 0.836092
Si Si4 0.100535 0.581347 0.274772
Si Si5 0.295584 0.144353 0.960631
Si Si6 0.391106 0.155461 0.083989
Si Si7 0.478658 0.325012 0.121458
O O1 0.476960 0.238040 0.295997
O O2 0.470152 0.265502 0.192767
O O3 0.616226 0.022145 0.112744
O O4 0.831570 0.275271 0.951692
O O5 0.198959 0.314595 0.601460
O O6 0.165148 0.349463 0.739275
O O7 0.123864 0.082659 0.729684
O O8 0.872371 0.412054 0.677530
O O9 0.628906 0.509409 0.790123
O O10 0.500000 0.500000 0.000000
O O11 0.543916 0.249080 0.914387
O O12 0.881895 0.655463 0.441262
O O13 0.280397 0.678910 0.096937
O O14 0.356503 0.222313 0.176426
O O15 0.500000 0.000000 0.000000
#
# Coordination Sequence:
#
# PCOD8123426 Si02
#       7
#     4   4   4   4   4   4   4
#     4  11  26  40  61  93 125 161 207 256 297 370
#     4  11  20  39  66  87 119 165 201 248 309 357
#     4   8  15  31  58  84 111 146 201 248 289 360
#     4   9  17  37  62  88 112 158 206 245 298 362
#     4  11  25  39  60  91 128 160 206 247 311 361
#     4  10  18  31  59  92 118 153 203 248 305 363
#     4  10  17  38  61  87 115 156 207 252 296 360
#
# _framework density 20.777664000000001
#
# number of rings (size 3 to 8) (size 9 to 14) (size 15 to 20)
#    0.000    2.286    5.714    0.857    2.000    0.000 
#    5.143    0.714    6.286    1.714    0.000    0.000 
#    0.000    0.000    0.000    0.000    0.000    0.000 
#
# Total GULP energy -346945.497064 kJ/mol
# GULP energy per Si atom -12390.910609 kJ/mol
# Density = 2.073037 g / cm^3
# Si number density = 20.777664 Si / 1000 Ang^3
#
#
#
# Elastic Constant Matrix: (Units=GPa)
#
#
# Indices 1 2 3 4 5 6 
#
# 1 99.7921 15.1275 35.8924 0.0000 -27.0739 0.0000
# 2 15.1275 89.8443 26.4156 0.0000 -3.4661 0.0000
# 3 35.8924 26.4156 81.5361 0.0000 -1.7881 0.0000
# 4 0.0000 0.0000 0.0000 23.6617 0.0000 -4.1795
# 5 -27.0739 -3.4661 -1.7881 0.0000 21.3046 0.0000
# 6 0.0000 0.0000 0.0000 -4.1795 0.0000 27.5112
#
#
#
# Elastic Compliance Matrix: (Units=1/GPa)
#
#
# Indices 1 2 3 4 5 6 
#
# 1 0.019418 0.000017 -0.008027 0.000000 0.024005 0.000000
# 2 0.000017 0.012362 -0.003975 0.000000 0.001699 0.000000
# 3 -0.008027 -0.003975 0.016879 0.000000 -0.009430 0.000000
# 4 0.000000 0.000000 0.000000 0.043428 0.000000 0.006597
# 5 0.024005 0.001699 -0.009430 0.000000 0.076929 0.000000
# 6 0.000000 0.000000 0.000000 0.006597 0.000000 0.037351
#
#
# Mechanical properties :
#
#
# Convention : Reuss Voigt Hill
#
# Bulk Modulus (GPa) = 40.50477 47.33817 43.92147
# Shear Modulus (GPa) = 20.95852 27.41131 24.18491
#
# Velocity S-wave (km/s) = 3.17946 3.63611 3.41543
# Velocity P-wave (km/s) = 5.74589 6.36090 6.06120
#
# Compressibility (1/GPa) = 0.02468845
#
# Stress axis : x y z
#
# Youngs Moduli (GPa) = 51.49841 80.89430 59.24561
#
# Poissons Ratio (x) = -0.00134 0.47555
# Poissons Ratio (y) = -0.00086 0.23550
# Poissons Ratio (z) = 0.41337 0.32155
#
# Static dielectric constant tensor:
#      x y z
#    x 4.449410 0.000000 -0.486740 
#    y 0.000000 3.900640 0.000000 
#    z -0.486740 0.000000 3.519080 
# 
# 
# High freq. dielectric constant tensor:
#      x y z
#    x 1.826630 0.000000 -0.030130 
#    y 0.000000 1.804410 0.000000 
#    z -0.030130 0.000000 1.777610 
# 
# From -- ./inp_files/74622.got.cif
#   From: 2010.03.12/outbox.cif.g09.slc.cpg/sg14_38_cif.got.tgz:74622.got - 2010.03.31 13:35:05.
