data_PCOD8123878
_publ_section_title
;
Structure prediction by ZEFSAII (Michael W. Deem and Ramdas Pophale) SiO2 
 PCOD8123878
Probable space group: P 21/C
;
_chemical_formula_sum "Si O2"
_cell_formula_units_Z 32
_cell_length_a 12.129099
_cell_length_b 7.812272
_cell_length_c 28.770303
_cell_angle_alpha 90.000000
_cell_angle_beta 41.069427
_cell_angle_gamma 90.000000
_cell_volume 1791.009492
_symmetry_space_group_name_H-M "P 21/C"
_symmetry_group_IT_number 14
_symmetry_cell_setting 'monoclinic'
loop_
_space_group_symop_operation_xyz
x,y,z
-x,1/2+y,1/2-z
-x,-y,-z
x,1/2-y,1/2+z
loop_
_atom_site_type_symbol
_atom_site_label
_atom_site_fract_x
_atom_site_fract_y
_atom_site_fract_z
Si Si1 0.665844 0.601425 0.304006
Si Si2 0.774374 0.151249 0.299543
Si Si3 0.358208 0.249271 0.282131
Si Si4 0.864955 0.448038 0.670593
Si Si5 0.699415 0.119417 0.711229
Si Si6 0.117596 0.304708 0.197768
Si Si7 0.235987 0.424091 0.579705
Si Si8 0.538295 0.391452 0.421632
O O1 0.584501 0.725346 0.290429
O O2 0.722492 0.424804 0.259270
O O3 0.825590 0.695139 0.275408
O O4 0.535845 0.552617 0.386445
O O5 0.763967 0.074335 0.251013
O O6 0.597908 0.223890 0.374496
O O7 0.916180 0.298042 0.259554
O O8 0.826366 0.998669 0.317116
O O9 0.215945 0.395035 0.332250
O O10 0.514954 0.300737 0.263306
O O11 0.284795 0.061802 0.322044
O O12 0.836214 0.264296 0.653123
O O13 0.059996 0.493137 0.615323
O O14 0.198874 0.235036 0.124620
O O15 0.351890 0.361739 0.500168
O O16 0.331405 0.574179 0.577414
#
# Coordination Sequence:
#
# PCOD8123878 Si02
#       8
#     4   4   4   4   4   4   4   4
#     4   9  18  31  51  74  99 136 167 212 263 315
#     4  11  18  29  51  74 102 134 171 217 257 309
#     4  10  19  31  52  83 104 127 169 228 274 305
#     4  11  18  34  53  80 104 138 171 220 266 307
#     4  10  19  30  52  81 103 126 169 228 267 307
#     4  10  19  29  48  78 103 130 174 217 255 308
#     4   9  22  34  49  73 109 143 175 206 257 319
#     4  10  19  36  50  72 108 146 172 207 257 317
#
# _framework density 17.867018000000002
#
# number of rings (size 3 to 8) (size 9 to 14) (size 15 to 20)
#    0.750    1.250    3.750    2.250    1.750    0.500 
#    0.000    0.000    0.000    3.000    0.000    2.625 
#    0.000    0.000    0.000    0.000    0.000    0.000 
#
# Total GULP energy -396477.593691 kJ/mol
# GULP energy per Si atom -12389.924803 kJ/mol
# Density = 1.782635 g / cm^3
# Si number density = 17.867018 Si / 1000 Ang^3
#
#
#
# Elastic Constant Matrix: (Units=GPa)
#
#
# Indices 1 2 3 4 5 6 
#
# 1 71.6499 20.3687 13.7191 0.0000 -12.8001 0.0000
# 2 20.3687 97.9040 16.4117 0.0000 -10.4083 0.0000
# 3 13.7191 16.4117 65.4330 0.0000 -9.9946 0.0000
# 4 0.0000 0.0000 0.0000 13.5104 0.0000 -2.9826
# 5 -12.8001 -10.4083 -9.9946 0.0000 16.5857 0.0000
# 6 0.0000 0.0000 0.0000 -2.9826 0.0000 30.8604
#
#
#
# Elastic Compliance Matrix: (Units=1/GPa)
#
#
# Indices 1 2 3 4 5 6 
#
# 1 0.016740 -0.002112 -0.001332 0.000000 0.010791 0.000000
# 2 -0.002112 0.011422 -0.001736 0.000000 0.004492 0.000000
# 3 -0.001332 -0.001736 0.017263 0.000000 0.008286 0.000000
# 4 0.000000 0.000000 0.000000 0.075631 0.000000 0.007310
# 5 0.010791 0.004492 0.008286 0.000000 0.076433 0.000000
# 6 0.000000 0.000000 0.000000 0.007310 0.000000 0.033110
#
#
# Mechanical properties :
#
#
# Convention : Reuss Voigt Hill
#
# Bulk Modulus (GPa) = 28.51818 37.33175 32.92496
# Shear Modulus (GPa) = 19.79043 24.49045 22.14044
#
# Velocity S-wave (km/s) = 3.33175 3.70632 3.52402
# Velocity P-wave (km/s) = 5.54948 6.26541 5.91828
#
# Compressibility (1/GPa) = 0.03506535
#
# Stress axis : x y z
#
# Youngs Moduli (GPa) = 59.73700 87.55000 57.92733
#
# Poissons Ratio (x) = 0.18493 0.07714
# Poissons Ratio (y) = 0.12618 0.10056
# Poissons Ratio (z) = 0.07955 0.15198
#
# Static dielectric constant tensor:
#      x y z
#    x 3.321380 0.000000 0.035000 
#    y 0.000000 3.509520 0.000000 
#    z 0.035000 0.000000 2.940920 
# 
# 
# High freq. dielectric constant tensor:
#      x y z
#    x 1.694090 0.000000 -0.000550 
#    y 0.000000 1.702960 0.000000 
#    z -0.000550 0.000000 1.632780 
# 
# From -- ./inp_files/77041.got.cif
#   From: 2010.03.12/outbox.cif.g09.slc.cpg/sg14_39_cif.got.tgz:77041.got - 2010.03.31 13:35:05.
