data_PCOD8123139
_publ_section_title
;
Structure prediction by ZEFSAII (Michael W. Deem and Ramdas Pophale) SiO2 
 PCOD8123139
Probable space group: P 2/C
;
_chemical_formula_sum "Si O2"
_cell_formula_units_Z 18
_cell_length_a 7.876617
_cell_length_b 5.278958
_cell_length_c 23.889592
_cell_angle_alpha 90.000000
_cell_angle_beta 129.919226
_cell_angle_gamma 90.000000
_cell_volume 761.839776
_symmetry_space_group_name_H-M "P 2/C"
_symmetry_group_IT_number 13
_symmetry_cell_setting 'monoclinic'
loop_
_space_group_symop_operation_xyz
x,y,z
-x,y,1/2-z
-x,-y,-z
x,-y,1/2+z
loop_
_atom_site_type_symbol
_atom_site_label
_atom_site_fract_x
_atom_site_fract_y
_atom_site_fract_z
Si Si1 0.708135 0.038214 0.759937
Si Si2 0.868401 0.050793 0.088514
Si Si3 0.367541 0.252657 0.364683
Si Si4 0.000000 0.592195 0.250000
Si Si5 0.187609 0.545178 0.494478
O O1 0.500000 0.151192 0.750000
O O2 0.607048 0.847249 0.692926
O O3 0.879894 0.899085 0.837768
O O4 0.841597 0.255402 0.757291
O O5 0.692304 0.029903 0.103124
O O6 0.787299 0.290296 0.035630
O O7 0.865828 0.790579 0.053787
O O8 0.583796 0.410709 0.424944
O O9 0.150910 0.428267 0.323215
O O10 0.000000 0.500000 0.500000
#
# Coordination Sequence:
#
# PCOD8123139 Si02
#       5
#     4   4   4   2   4
#     4  12  27  46  78 111 156 203 262 322 386 465
#     4  12  25  50  73 115 150 209 255 318 391 460
#     4  12  26  49  75 110 155 206 259 322 387 470
#     4  12  24  48  74 110 156 196 264 310 398 444
#     4  12  29  47  77 113 157 202 262 318 391 462
#
# _framework density 23.627013999999999
#
# number of rings (size 3 to 8) (size 9 to 14) (size 15 to 20)
#    0.000    0.000    4.444    4.667    6.222    0.889 
#    0.000    0.000    0.000    0.000    0.000    0.000 
#    0.000    0.000    0.000    0.000    0.000    0.000 
#
# Total GULP energy -223235.516726 kJ/mol
# GULP energy per Si atom -12401.973151 kJ/mol
# Density = 2.357324 g / cm^3
# Si number density = 23.627014 Si / 1000 Ang^3
#
#
#
# Elastic Constant Matrix: (Units=GPa)
#
#
# Indices 1 2 3 4 5 6 
#
# 1 174.7639 49.5792 59.3004 0.0000 19.0697 0.0000
# 2 49.5792 125.7148 51.5158 0.0000 -7.5508 0.0000
# 3 59.3004 51.5158 149.0372 0.0000 6.0657 0.0000
# 4 0.0000 0.0000 0.0000 59.5716 0.0000 27.0188
# 5 19.0697 -7.5508 6.0657 0.0000 25.6764 0.0000
# 6 0.0000 0.0000 0.0000 27.0188 0.0000 41.3924
#
#
#
# Elastic Compliance Matrix: (Units=1/GPa)
#
#
# Indices 1 2 3 4 5 6 
#
# 1 0.007798 -0.002648 -0.001939 0.000000 -0.006112 0.000000
# 2 -0.002648 0.010492 -0.002806 0.000000 0.005715 0.000000
# 3 -0.001939 -0.002806 0.008508 0.000000 -0.001395 0.000000
# 4 0.000000 0.000000 0.000000 0.023846 0.000000 -0.015566
# 5 -0.006112 0.005715 -0.001395 0.000000 0.045496 0.000000
# 6 0.000000 0.000000 0.000000 -0.015566 0.000000 0.034319
#
#
# Mechanical properties :
#
#
# Convention : Reuss Voigt Hill
#
# Bulk Modulus (GPa) = 83.24360 85.58964 84.41662
# Shear Modulus (GPa) = 33.50130 44.60279 39.05204
#
# Velocity S-wave (km/s) = 3.76962 4.34958 4.06994
# Velocity P-wave (km/s) = 7.36584 7.84405 7.60870
#
# Compressibility (1/GPa) = 0.01201294
#
# Stress axis : x y z
#
# Youngs Moduli (GPa) = 128.23779 95.31304 117.54164
#
# Poissons Ratio (x) = 0.25239 0.22787
# Poissons Ratio (y) = 0.33958 0.32976
# Poissons Ratio (z) = 0.24861 0.26740
#
# Static dielectric constant tensor:
#      x y z
#    x 4.093630 0.000000 0.374950 
#    y 0.000000 4.213100 0.000000 
#    z 0.374950 0.000000 3.938450 
# 
# 
# High freq. dielectric constant tensor:
#      x y z
#    x 1.944840 0.000000 0.000310 
#    y 0.000000 1.932930 0.000000 
#    z 0.000310 0.000000 1.961550 
# 
# From -- ./inp_files/84235.got.cif
#   From: 2010.06.25/outbox.cif.g09.slc.cpg/sg13_43_cif.got.tgz:84235.got - 2010.06.28 04:50:58.
