data_PCOD8123041
_publ_section_title
;
Structure prediction by ZEFSAII (Michael W. Deem and Ramdas Pophale) SiO2 
 PCOD8123041
Probable space group: P 2/C
;
_chemical_formula_sum "Si O2"
_cell_formula_units_Z 22
_cell_length_a 4.924231
_cell_length_b 12.274774
_cell_length_c 14.973887
_cell_angle_alpha 90.000000
_cell_angle_beta 85.163899
_cell_angle_gamma 90.000000
_cell_volume 901.856833
_symmetry_space_group_name_H-M "P 2/C"
_symmetry_group_IT_number 13
_symmetry_cell_setting 'monoclinic'
loop_
_space_group_symop_operation_xyz
x,y,z
-x,y,1/2-z
-x,-y,-z
x,-y,1/2+z
loop_
_atom_site_type_symbol
_atom_site_label
_atom_site_fract_x
_atom_site_fract_y
_atom_site_fract_z
Si Si1 0.500000 0.447247 0.250000
Si Si2 0.001808 0.730766 0.082150
Si Si3 0.058660 0.861261 0.908639
Si Si4 0.000000 0.869594 0.250000
Si Si5 0.431464 0.961284 0.661864
Si Si6 0.485514 0.583477 0.420412
Si Si7 0.000000 0.699659 0.750000
O O1 0.392503 0.522497 0.333270
O O2 0.254867 0.375650 0.216836
O O3 0.897920 0.795723 0.171559
O O4 0.742630 0.671149 0.047291
O O5 0.229436 0.643808 0.103005
O O6 0.116245 0.813291 0.004319
O O7 0.265661 0.966384 0.891523
O O8 0.751075 0.903382 0.907226
O O9 0.097051 0.770103 0.831983
O O10 0.732182 0.935218 0.292506
O O11 0.500000 0.890070 0.750000
O O12 0.500000 0.500000 0.500000
#
# Coordination Sequence:
#
# PCOD8123041 Si02
#       7
#     2   4   4   2   4   4   2
#     4  12  24  38  70  98 134 188 226 292 364 414
#     4  12  28  46  73 103 139 191 237 286 347 427
#     4  12  24  44  71 103 139 183 232 291 350 405
#     4  12  29  47  74 102 150 188 238 281 347 416
#     4  12  23  46  69 100 143 180 224 299 340 409
#     4  12  25  48  68 102 144 180 236 295 349 411
#     4  12  21  39  68 104 132 176 240 291 353 418
#
# _framework density 24.394117000000001
#
# number of rings (size 3 to 8) (size 9 to 14) (size 15 to 20)
#    0.000    0.000    3.636    7.091    2.545    1.455 
#    0.000    0.000    0.000    0.000    0.000    0.000 
#    0.000    0.000    0.000    0.000    0.000    0.000 
#
# Total GULP energy -272661.817455 kJ/mol
# GULP energy per Si atom -12393.718975 kJ/mol
# Density = 2.433859 g / cm^3
# Si number density = 24.394117 Si / 1000 Ang^3
#
#
#
# Elastic Constant Matrix: (Units=GPa)
#
#
# Indices 1 2 3 4 5 6 
#
# 1 148.7917 43.4903 22.7641 0.0000 0.0894 0.0000
# 2 43.4903 100.7971 55.9801 0.0000 -0.1134 0.0000
# 3 22.7641 55.9801 140.1152 0.0000 8.1915 0.0000
# 4 0.0000 0.0000 0.0000 63.3776 0.0000 -51.7360
# 5 0.0894 -0.1134 8.1915 0.0000 30.0874 0.0000
# 6 0.0000 0.0000 0.0000 -51.7360 0.0000 99.0464
#
#
#
# Elastic Compliance Matrix: (Units=1/GPa)
#
#
# Indices 1 2 3 4 5 6 
#
# 1 0.007692 -0.003376 0.000103 0.000000 -0.000064 0.000000
# 2 -0.003376 0.014295 -0.005250 0.000000 0.001493 0.000000
# 3 0.000103 -0.005250 0.009368 0.000000 -0.002571 0.000000
# 4 0.000000 0.000000 0.000000 0.027507 0.000000 0.014368
# 5 -0.000064 0.001493 -0.002571 0.000000 0.033942 0.000000
# 6 0.000000 0.000000 0.000000 0.014368 0.000000 0.017601
#
#
# Mechanical properties :
#
#
# Convention : Reuss Voigt Hill
#
# Bulk Modulus (GPa) = 69.88820 70.46367 70.17593
# Shear Modulus (GPa) = 37.81523 56.33359 47.07441
#
# Velocity S-wave (km/s) = 3.94150 4.81074 4.39765
# Velocity P-wave (km/s) = 7.03034 7.73343 7.39025
#
# Compressibility (1/GPa) = 0.01430857
#
# Stress axis : x y z
#
# Youngs Moduli (GPa) = 130.00757 69.95482 106.74501
#
# Poissons Ratio (x) = 0.23616 -0.01098
# Poissons Ratio (y) = 0.43890 0.56042
# Poissons Ratio (z) = -0.01337 0.36727
#
# Static dielectric constant tensor:
#      x y z
#    x 4.582890 0.000000 0.202130 
#    y 0.000000 5.064590 0.000000 
#    z 0.202130 0.000000 4.719140 
# 
# 
# High freq. dielectric constant tensor:
#      x y z
#    x 1.988310 0.000000 0.006200 
#    y 0.000000 1.961520 0.000000 
#    z 0.006200 0.000000 1.975910 
# 
# From -- ./inp_files/43646.got.cif
#   From: 2010.06.25/outbox.cif.g09.slc.cpg/sg13_22_cif.got.tgz:43646.got - 2010.06.28 04:50:58.
