data_PCOD8123719
_publ_section_title
;
Structure prediction by ZEFSAII (Michael W. Deem and Ramdas Pophale) SiO2 
 PCOD8123719
Probable space group: P 21/C
;
_chemical_formula_sum "Si O2"
_cell_formula_units_Z 32
_cell_length_a 9.915817
_cell_length_b 18.188037
_cell_length_c 19.860027
_cell_angle_alpha 90.000000
_cell_angle_beta 151.203698
_cell_angle_gamma 90.000000
_cell_volume 1725.314258
_symmetry_space_group_name_H-M "P 21/C"
_symmetry_group_IT_number 14
_symmetry_cell_setting 'monoclinic'
loop_
_space_group_symop_operation_xyz
x,y,z
-x,1/2+y,1/2-z
-x,-y,-z
x,1/2-y,1/2+z
loop_
_atom_site_type_symbol
_atom_site_label
_atom_site_fract_x
_atom_site_fract_y
_atom_site_fract_z
Si Si1 0.299115 0.670381 0.742647
Si Si2 0.725328 0.546789 0.183527
Si Si3 0.820824 0.040916 0.366514
Si Si4 0.129780 0.822219 0.317174
Si Si5 0.922814 0.692157 0.056105
Si Si6 0.890080 0.027371 0.626800
Si Si7 0.727143 0.802345 0.617568
Si Si8 0.237713 0.988167 0.158059
O O1 0.172480 0.647406 0.759942
O O2 0.297770 0.598469 0.694858
O O3 0.100741 0.733173 0.623615
O O4 0.617136 0.700463 0.888103
O O5 0.920325 0.513017 0.211205
O O6 0.725155 0.634189 0.172696
O O7 0.851963 0.526303 0.311086
O O8 0.413063 0.511967 0.040048
O O9 0.499219 0.032984 0.243975
O O10 0.904727 0.126426 0.402556
O O11 0.000000 0.000000 0.500000
O O12 0.868848 0.002912 0.315522
O O13 0.067576 0.886620 0.342349
O O14 0.411423 0.779352 0.461197
O O15 0.869884 0.768462 0.211822
O O16 0.889705 0.672907 0.120846
O O17 0.000000 0.000000 0.000000
#
# Coordination Sequence:
#
# PCOD8123719 Si02
#       8
#     4   4   4   4   4   4   4   4
#     4  10  20  38  61  88 120 161 203 246 303 371
#     4  10  18  37  63  86 114 154 202 246 297 353
#     4  12  22  40  64  92 120 160 213 251 297 372
#     4   9  18  34  59  88 117 149 196 252 301 351
#     4  10  20  36  62  91 119 156 204 250 302 370
#     4  10  18  35  66  88 109 151 209 247 287 357
#     4   9  18  34  59  88 116 150 197 251 300 356
#     4  12  26  42  60  90 131 164 202 259 313 358
#
# _framework density 18.547346000000001
#
# number of rings (size 3 to 8) (size 9 to 14) (size 15 to 20)
#    0.000    1.750    5.000    0.000    1.750    0.000 
#    2.250    3.125    0.000    0.000    0.000    0.000 
#    0.000    0.000    0.000    0.000    0.000    0.000 
#
# Total GULP energy -396832.711655 kJ/mol
# GULP energy per Si atom -12401.022239 kJ/mol
# Density = 1.850513 g / cm^3
# Si number density = 18.547346 Si / 1000 Ang^3
#
#
#
# Elastic Constant Matrix: (Units=GPa)
#
#
# Indices 1 2 3 4 5 6 
#
# 1 82.2571 26.5418 32.6884 0.0000 -8.3519 0.0000
# 2 26.5418 82.2966 38.0170 0.0000 -3.4599 0.0000
# 3 32.6884 38.0170 106.2229 0.0000 -10.9595 0.0000
# 4 0.0000 0.0000 0.0000 31.6824 0.0000 2.3828
# 5 -8.3519 -3.4599 -10.9595 0.0000 26.3015 0.0000
# 6 0.0000 0.0000 0.0000 2.3828 0.0000 29.6776
#
#
#
# Elastic Compliance Matrix: (Units=1/GPa)
#
#
# Indices 1 2 3 4 5 6 
#
# 1 0.014713 -0.003199 -0.003076 0.000000 0.002969 0.000000
# 2 -0.003199 0.015256 -0.004570 0.000000 -0.000913 0.000000
# 3 -0.003076 -0.004570 0.012365 0.000000 0.003574 0.000000
# 4 0.000000 0.000000 0.000000 0.031755 0.000000 -0.002550
# 5 0.002969 -0.000913 0.003574 0.000000 0.040333 0.000000
# 6 0.000000 0.000000 0.000000 -0.002550 0.000000 0.033900
#
#
# Mechanical properties :
#
#
# Convention : Reuss Voigt Hill
#
# Bulk Modulus (GPa) = 48.44164 51.69676 50.06920
# Shear Modulus (GPa) = 28.26556 29.10094 28.68325
#
# Velocity S-wave (km/s) = 3.90804 3.96537 3.93681
# Velocity P-wave (km/s) = 6.82189 6.99277 6.90786
#
# Compressibility (1/GPa) = 0.02064340
#
# Stress axis : x y z
#
# Youngs Moduli (GPa) = 67.96549 65.55004 80.87267
#
# Poissons Ratio (x) = 0.20971 0.24880
# Poissons Ratio (y) = 0.21744 0.36956
# Poissons Ratio (z) = 0.20909 0.29954
#
# Static dielectric constant tensor:
#      x y z
#    x 3.365190 0.000000 -0.077380 
#    y 0.000000 3.376260 0.000000 
#    z -0.077380 0.000000 3.242770 
# 
# 
# High freq. dielectric constant tensor:
#      x y z
#    x 1.708030 0.000000 -0.000240 
#    y 0.000000 1.723020 0.000000 
#    z -0.000240 0.000000 1.705360 
# 
# From -- ./inp_files/56239.got.cif
#   From: 2010.03.12/outbox.cif.g09.slc.cpg/sg14_29_cif.got.tgz:56239.got - 2010.03.31 13:35:05.
