data_PCOD8123802
_publ_section_title
;
Structure prediction by ZEFSAII (Michael W. Deem and Ramdas Pophale) SiO2 
 PCOD8123802
Probable space group: P 21/C
;
_chemical_formula_sum "Si O2"
_cell_formula_units_Z 24
_cell_length_a 13.897532
_cell_length_b 17.354471
_cell_length_c 8.916001
_cell_angle_alpha 90.000000
_cell_angle_beta 151.897661
_cell_angle_gamma 90.000000
_cell_volume 1012.941200
_symmetry_space_group_name_H-M "P 21/C"
_symmetry_group_IT_number 14
_symmetry_cell_setting 'monoclinic'
loop_
_space_group_symop_operation_xyz
x,y,z
-x,1/2+y,1/2-z
-x,-y,-z
x,1/2-y,1/2+z
loop_
_atom_site_type_symbol
_atom_site_label
_atom_site_fract_x
_atom_site_fract_y
_atom_site_fract_z
Si Si1 0.014549 0.951201 0.170601
Si Si2 0.312520 0.193013 0.728485
Si Si3 0.928343 0.703003 0.399695
Si Si4 0.336983 0.968323 0.159595
Si Si5 0.639705 0.178546 0.635662
Si Si6 0.527785 0.427474 0.707080
O O1 0.247501 0.946243 0.546041
O O2 0.925307 0.866587 0.014815
O O3 0.883329 0.991902 0.118791
O O4 0.000000 0.000000 0.000000
O O5 0.235751 0.184167 0.454233
O O6 0.132266 0.220346 0.592636
O O7 0.495932 0.253862 0.994137
O O8 0.393865 0.109809 0.891365
O O9 0.149342 0.715813 0.630424
O O10 0.417034 0.992488 0.104695
O O11 0.500000 0.000000 0.500000
O O12 0.317329 0.876633 0.160700
O O13 0.536052 0.130965 0.358912
#
# Coordination Sequence:
#
# PCOD8123802 Si02
#       6
#     4   4   4   4   4   4
#     4  11  20  39  68  91 119 166 222 255 313 390
#     4  12  25  42  61  97 135 165 213 269 329 379
#     4  11  25  39  66  91 128 171 212 265 324 380
#     4  10  18  37  67  88 117 163 220 251 310 382
#     4  10  22  40  64  92 122 170 216 256 318 392
#     4  10  22  38  61  93 122 165 211 263 313 380
#
# _framework density 23.693379
#
# number of rings (size 3 to 8) (size 9 to 14) (size 15 to 20)
#    0.000    1.333    6.667    2.000    4.667    0.000 
#    0.000    1.667    0.000    0.000    0.000    0.000 
#    0.000    0.000    0.000    0.000    0.000    0.000 
#
# Total GULP energy -297664.275979 kJ/mol
# GULP energy per Si atom -12402.678166 kJ/mol
# Density = 2.363945 g / cm^3
# Si number density = 23.693379 Si / 1000 Ang^3
#
#
#
# Elastic Constant Matrix: (Units=GPa)
#
#
# Indices 1 2 3 4 5 6 
#
# 1 76.9392 36.1383 44.7031 0.0000 26.0568 0.0000
# 2 36.1383 44.8739 19.0896 0.0000 17.0159 0.0000
# 3 44.7031 19.0896 52.0133 0.0000 10.8757 0.0000
# 4 0.0000 0.0000 0.0000 32.5533 0.0000 7.3161
# 5 26.0568 17.0159 10.8757 0.0000 37.7342 0.0000
# 6 0.0000 0.0000 0.0000 7.3161 0.0000 37.6208
#
#
#
# Elastic Compliance Matrix: (Units=1/GPa)
#
#
# Indices 1 2 3 4 5 6 
#
# 1 0.039906 -0.016397 -0.025607 0.000000 -0.012782 0.000000
# 2 -0.016397 0.036964 0.001750 0.000000 -0.005850 0.000000
# 3 -0.025607 0.001750 0.039436 0.000000 0.005527 0.000000
# 4 0.000000 0.000000 0.000000 0.032123 0.000000 -0.006247
# 5 -0.012782 -0.005850 0.005527 0.000000 0.036372 0.000000
# 6 0.000000 0.000000 0.000000 -0.006247 0.000000 0.027796
#
#
# Mechanical properties :
#
#
# Convention : Reuss Voigt Hill
#
# Bulk Modulus (GPa) = 27.93534 41.52091 34.72812
# Shear Modulus (GPa) = 16.39146 26.50802 21.44974
#
# Velocity S-wave (km/s) = 2.63309 3.34847 3.01209
# Velocity P-wave (km/s) = 4.58914 5.70193 5.17553
#
# Compressibility (1/GPa) = 0.03579696
#
# Stress axis : x y z
#
# Youngs Moduli (GPa) = 25.05905 27.05349 25.35777
#
# Poissons Ratio (x) = 0.44361 0.64932
# Poissons Ratio (y) = 0.41090 -0.04437
# Poissons Ratio (z) = 0.64167 -0.04734
#
# Static dielectric constant tensor:
#      x y z
#    x 4.450010 0.000000 0.390970 
#    y 0.000000 4.558090 0.000000 
#    z 0.390970 0.000000 4.173720 
# 
# 
# High freq. dielectric constant tensor:
#      x y z
#    x 1.935910 0.000000 0.022310 
#    y 0.000000 1.933200 0.000000 
#    z 0.022310 0.000000 1.927150 
# 
# From -- ./inp_files/16715.got.cif
#   From: 2010.03.12/outbox.cif.g09.slc.cpg/sg14_9_cif.got.tgz:16715.got - 2010.03.31 13:35:05.
