data_PCOD8123303
_publ_section_title
;
Structure prediction by ZEFSAII (Michael W. Deem and Ramdas Pophale) SiO2 
 PCOD8123303
Probable space group: P 21/C
;
_chemical_formula_sum "Si O2"
_cell_formula_units_Z 32
_cell_length_a 23.387610
_cell_length_b 12.704574
_cell_length_c 22.814365
_cell_angle_alpha 90.000000
_cell_angle_beta 17.015590
_cell_angle_gamma 90.000000
_cell_volume 1983.700053
_symmetry_space_group_name_H-M "P 21/C"
_symmetry_group_IT_number 14
_symmetry_cell_setting 'monoclinic'
loop_
_space_group_symop_operation_xyz
x,y,z
-x,1/2+y,1/2-z
-x,-y,-z
x,1/2-y,1/2+z
loop_
_atom_site_type_symbol
_atom_site_label
_atom_site_fract_x
_atom_site_fract_y
_atom_site_fract_z
Si Si1 0.865049 0.596218 0.198848
Si Si2 0.562093 0.034605 0.058247
Si Si3 0.653807 0.583243 0.582697
Si Si4 0.965160 0.781857 0.711777
Si Si5 0.752880 0.125571 0.476521
Si Si6 0.855685 0.897861 0.576057
Si Si7 0.888846 0.311726 0.266417
Si Si8 0.988139 0.435735 0.283568
O O1 0.652933 0.552312 0.425299
O O2 0.936273 0.688313 0.172444
O O3 0.853310 0.643530 0.145185
O O4 0.018217 0.502562 0.053733
O O5 0.357894 0.072510 0.234857
O O6 0.545477 0.984116 0.138855
O O7 0.694025 0.138531 0.930802
O O8 0.781502 0.678390 0.430685
O O9 0.794375 0.507181 0.483381
O O10 0.483069 0.631568 0.790764
O O11 0.991043 0.656013 0.688816
O O12 0.160996 0.835329 0.545584
O O13 0.837879 0.196997 0.340777
O O14 0.818382 0.006282 0.400414
O O15 0.947531 0.805835 0.445281
O O16 0.978396 0.386964 0.228414
#
# Coordination Sequence:
#
# PCOD8123303 Si02
#       8
#     4   4   4   4   4   4   4   4
#     4   9  18  29  45  70  91 116 152 180 220 275
#     4   9  16  28  44  66  92 116 146 181 221 269
#     4   9  17  28  45  66  90 119 146 180 227 268
#     4   9  18  31  45  68  94 115 147 187 222 267
#     4  10  18  30  46  66  92 119 149 184 221 267
#     4  10  17  29  47  65  93 122 143 183 227 261
#     4   9  19  29  43  69  91 115 151 180 218 273
#     4   9  18  30  45  65  91 117 147 183 222 266
#
# _framework density 16.131471000000001
#
# number of rings (size 3 to 8) (size 9 to 14) (size 15 to 20)
#    0.000    2.750    0.000    4.125    0.000    6.000 
#    0.000    0.000    0.000    0.750    0.000    1.750 
#    0.000    0.000    0.000    0.000    0.000    0.000 
#
# Total GULP energy -396728.438332 kJ/mol
# GULP energy per Si atom -12397.763698 kJ/mol
# Density = 1.609476 g / cm^3
# Si number density = 16.131471 Si / 1000 Ang^3
#
#
#
# Elastic Constant Matrix: (Units=GPa)
#
#
# Indices 1 2 3 4 5 6 
#
# 1 72.1597 27.0688 41.8611 0.0000 6.6880 0.0000
# 2 27.0688 73.0538 33.3560 0.0000 5.9042 0.0000
# 3 41.8611 33.3560 99.0410 0.0000 -0.8671 0.0000
# 4 0.0000 0.0000 0.0000 13.6071 0.0000 -0.1914
# 5 6.6880 5.9042 -0.8671 0.0000 20.9030 0.0000
# 6 0.0000 0.0000 0.0000 -0.1914 0.0000 17.7799
#
#
#
# Elastic Compliance Matrix: (Units=1/GPa)
#
#
# Indices 1 2 3 4 5 6 
#
# 1 0.019955 -0.003619 -0.007265 0.000000 -0.005664 0.000000
# 2 -0.003619 0.017328 -0.004340 0.000000 -0.003916 0.000000
# 3 -0.007265 -0.004340 0.014666 0.000000 0.004159 0.000000
# 4 0.000000 0.000000 0.000000 0.073502 0.000000 0.000791
# 5 -0.005664 -0.003916 0.004159 0.000000 0.050931 0.000000
# 6 0.000000 0.000000 0.000000 0.000791 0.000000 0.056252
#
#
# Mechanical properties :
#
#
# Convention : Reuss Voigt Hill
#
# Bulk Modulus (GPa) = 46.51253 49.86960 48.19106
# Shear Modulus (GPa) = 18.50140 19.92258 19.21199
#
# Velocity S-wave (km/s) = 3.39029 3.51809 3.45478
# Velocity P-wave (km/s) = 6.64992 6.89088 6.77147
#
# Compressibility (1/GPa) = 0.02149958
#
# Stress axis : x y z
#
# Youngs Moduli (GPa) = 50.11187 57.71040 68.18597
#
# Poissons Ratio (x) = 0.20886 0.49538
# Poissons Ratio (y) = 0.18136 0.29596
# Poissons Ratio (z) = 0.36407 0.25049
#
# Static dielectric constant tensor:
#      x y z
#    x 3.016810 0.000000 0.015870 
#    y 0.000000 2.940390 0.000000 
#    z 0.015870 0.000000 3.093210 
# 
# 
# High freq. dielectric constant tensor:
#      x y z
#    x 1.598570 0.000000 -0.009930 
#    y 0.000000 1.597010 0.000000 
#    z -0.009930 0.000000 1.626560 
# 
# From -- ./inp_files/69907.got.cif
#   From: 2010.03.12/outbox.cif.g09.slc.cpg/sg14_35_cif.got.tgz:69907.got - 2010.03.31 13:35:05.
