data_PCOD8123626
_publ_section_title
;
Structure prediction by ZEFSAII (Michael W. Deem and Ramdas Pophale) SiO2 
 PCOD8123626
Probable space group: P 21/C
;
_chemical_formula_sum "Si O2"
_cell_formula_units_Z 32
_cell_length_a 9.167534
_cell_length_b 8.466431
_cell_length_c 20.741490
_cell_angle_alpha 90.000000
_cell_angle_beta 82.176655
_cell_angle_gamma 90.000000
_cell_volume 1594.893589
_symmetry_space_group_name_H-M "P 21/C"
_symmetry_group_IT_number 14
_symmetry_cell_setting 'monoclinic'
loop_
_space_group_symop_operation_xyz
x,y,z
-x,1/2+y,1/2-z
-x,-y,-z
x,1/2-y,1/2+z
loop_
_atom_site_type_symbol
_atom_site_label
_atom_site_fract_x
_atom_site_fract_y
_atom_site_fract_z
Si Si1 0.397372 0.154422 0.619455
Si Si2 0.149400 0.567309 0.184816
Si Si3 0.799803 0.946818 0.873460
Si Si4 0.832419 0.255132 0.439631
Si Si5 0.876424 0.114621 0.740859
Si Si6 0.724188 0.546813 0.997022
Si Si7 0.999172 0.249117 0.550649
Si Si8 0.281358 0.584578 0.874561
O O1 0.328011 0.325211 0.634789
O O2 0.400022 0.124523 0.541174
O O3 0.560985 0.170080 0.636556
O O4 0.308776 0.013365 0.661588
O O5 0.094025 0.660191 0.124610
O O6 0.152319 0.698593 0.242403
O O7 0.041149 0.418712 0.204171
O O8 0.932922 0.881567 0.908291
O O9 0.739006 0.096731 0.917871
O O10 0.866093 0.005248 0.803163
O O11 0.960783 0.312499 0.481177
O O12 0.720855 0.141878 0.484931
O O13 0.757599 0.044029 0.696945
O O14 0.883879 0.607306 0.964238
O O15 0.701340 0.565489 0.076123
O O16 0.850816 0.195534 0.594463
#
# Coordination Sequence:
#
# PCOD8123626 Si02
#       8
#     4   4   4   4   4   4   4   4
#     4  10  21  36  53  75 108 142 175 216 267 314
#     4  10  20  36  54  78 104 137 176 222 263 313
#     4  10  21  35  53  78 110 141 172 218 266 311
#     4   9  17  31  56  80 104 134 176 220 263 307
#     4  11  21  35  57  79 103 138 180 217 261 315
#     4   9  18  35  57  80 105 137 180 224 264 310
#     4  10  18  34  57  82 106 137 179 224 262 309
#     4  11  20  32  55  80 104 138 178 217 262 319
#
# _framework density 20.064033999999999
#
# number of rings (size 3 to 8) (size 9 to 14) (size 15 to 20)
#    0.000    2.000    0.000    6.750    0.000    1.000 
#    0.000    2.500    0.000   22.500    0.000    0.000 
#    0.000    0.000    0.000    0.000    0.000    0.000 
#
# Total GULP energy -396430.962913 kJ/mol
# GULP energy per Si atom -12388.467591 kJ/mol
# Density = 2.001837 g / cm^3
# Si number density = 20.064034 Si / 1000 Ang^3
#
#
#
# Elastic Constant Matrix: (Units=GPa)
#
#
# Indices 1 2 3 4 5 6 
#
# 1 97.2025 27.8279 29.4668 0.0000 8.5298 0.0000
# 2 27.8279 89.3563 30.4857 0.0000 -3.9624 0.0000
# 3 29.4668 30.4857 89.2265 0.0000 13.6920 0.0000
# 4 0.0000 0.0000 0.0000 23.8581 0.0000 2.4986
# 5 8.5298 -3.9624 13.6920 0.0000 21.7500 0.0000
# 6 0.0000 0.0000 0.0000 2.4986 0.0000 13.3578
#
#
#
# Elastic Compliance Matrix: (Units=1/GPa)
#
#
# Indices 1 2 3 4 5 6 
#
# 1 0.012258 -0.003185 -0.002361 0.000000 -0.003901 0.000000
# 2 -0.003185 0.014136 -0.004832 0.000000 0.006866 0.000000
# 3 -0.002361 -0.004832 0.015089 0.000000 -0.009453 0.000000
# 4 0.000000 0.000000 0.000000 0.042752 0.000000 -0.007997
# 5 -0.003901 0.006866 -0.009453 0.000000 0.054708 0.000000
# 6 0.000000 0.000000 0.000000 -0.007997 0.000000 0.076358
#
#
# Mechanical properties :
#
#
# Convention : Reuss Voigt Hill
#
# Bulk Modulus (GPa) = 48.24672 50.14958 49.19815
# Shear Modulus (GPa) = 20.57913 24.32686 22.45300
#
# Velocity S-wave (km/s) = 3.20609 3.48582 3.34887
# Velocity P-wave (km/s) = 6.14849 6.42264 6.28706
#
# Compressibility (1/GPa) = 0.02072680
#
# Stress axis : x y z
#
# Youngs Moduli (GPa) = 81.58140 70.74244 66.27529
#
# Poissons Ratio (x) = 0.22529 0.15650
# Poissons Ratio (y) = 0.25981 0.32021
# Poissons Ratio (z) = 0.19264 0.34180
#
# Static dielectric constant tensor:
#      x y z
#    x 3.368650 0.000000 0.227330 
#    y 0.000000 3.600260 0.000000 
#    z 0.227330 0.000000 4.196950 
# 
# 
# High freq. dielectric constant tensor:
#      x y z
#    x 1.757030 0.000000 0.010760 
#    y 0.000000 1.766570 0.000000 
#    z 0.010760 0.000000 1.801730 
# 
# From -- ./inp_files/64839.got.cif
#   From: 2010.03.12/outbox.cif.g09.slc.cpg/sg14_33_cif.got.tgz:64839.got - 2010.03.31 13:35:05.
