data_PCOD8123947
_publ_section_title
;
Structure prediction by ZEFSAII (Michael W. Deem and Ramdas Pophale) SiO2 
 PCOD8123947
Probable space group: P 21/C
;
_chemical_formula_sum "Si O2"
_cell_formula_units_Z 28
_cell_length_a 10.045648
_cell_length_b 7.006139
_cell_length_c 25.646322
_cell_angle_alpha 90.000000
_cell_angle_beta 123.794818
_cell_angle_gamma 90.000000
_cell_volume 1500.033630
_symmetry_space_group_name_H-M "P 21/C"
_symmetry_group_IT_number 14
_symmetry_cell_setting 'monoclinic'
loop_
_space_group_symop_operation_xyz
x,y,z
-x,1/2+y,1/2-z
-x,-y,-z
x,1/2-y,1/2+z
loop_
_atom_site_type_symbol
_atom_site_label
_atom_site_fract_x
_atom_site_fract_y
_atom_site_fract_z
Si Si1 0.123651 0.136083 0.716706
Si Si2 0.237807 0.641640 0.052513
Si Si3 0.499992 0.626465 0.866329
Si Si4 0.682975 0.989414 0.763905
Si Si5 0.273230 0.043398 0.110825
Si Si6 0.958243 0.627886 0.916600
Si Si7 0.167668 0.753561 0.278276
O O1 0.276021 0.268482 0.737870
O O2 0.036134 0.082320 0.643534
O O3 0.995476 0.240280 0.725641
O O4 0.195518 0.958327 0.763155
O O5 0.412866 0.543218 0.082167
O O6 0.152507 0.532350 0.081376
O O7 0.246794 0.865026 0.067288
O O8 0.138395 0.615909 0.977671
O O9 0.480085 0.550610 0.801864
O O10 0.603222 0.817996 0.891074
O O11 0.320407 0.678947 0.847691
O O12 0.656484 0.031119 0.818928
O O13 0.833606 0.110989 0.773445
O O14 0.109137 0.159513 0.086019
#
# Coordination Sequence:
#
# PCOD8123947 Si02
#       7
#     4   4   4   4   4   4   4
#     4  11  19  37  56  76 104 139 176 223 252 309
#     4  10  19  37  53  77 113 138 168 218 258 308
#     4   9  22  30  50  83 104 139 168 209 269 316
#     4   9  21  31  50  81 103 135 173 208 267 310
#     4  10  19  32  54  77 107 135 174 212 262 309
#     4   9  21  35  55  79 102 141 183 205 256 317
#     4  10  20  34  53  77 106 133 174 215 266 304
#
# _framework density 18.666249000000001
#
# number of rings (size 3 to 8) (size 9 to 14) (size 15 to 20)
#    0.857    1.429    1.429    1.286    4.000    1.143 
#    0.000    0.714    0.000    0.857    0.000    0.000 
#    0.000    0.000    0.000    0.000    0.000    0.000 
#
# Total GULP energy -346989.386608 kJ/mol
# GULP energy per Si atom -12392.478093 kJ/mol
# Density = 1.862376 g / cm^3
# Si number density = 18.666249 Si / 1000 Ang^3
#
#
#
# Elastic Constant Matrix: (Units=GPa)
#
#
# Indices 1 2 3 4 5 6 
#
# 1 28.1056 16.7102 4.3040 0.0000 8.2549 0.0000
# 2 16.7102 98.3773 29.7931 0.0000 8.8434 0.0000
# 3 4.3040 29.7931 62.9968 0.0000 18.1689 0.0000
# 4 0.0000 0.0000 0.0000 23.7795 0.0000 3.6619
# 5 8.2549 8.8434 18.1689 0.0000 26.4241 0.0000
# 6 0.0000 0.0000 0.0000 3.6619 0.0000 16.5102
#
#
#
# Elastic Compliance Matrix: (Units=1/GPa)
#
#
# Indices 1 2 3 4 5 6 
#
# 1 0.043548 -0.007539 0.004723 0.000000 -0.014328 0.000000
# 2 -0.007539 0.013170 -0.006388 0.000000 0.002340 0.000000
# 3 0.004723 -0.006388 0.022928 0.000000 -0.015103 0.000000
# 4 0.000000 0.000000 0.000000 0.043540 0.000000 -0.009657
# 5 -0.014328 0.002340 -0.015103 0.000000 0.051921 0.000000
# 6 0.000000 0.000000 0.000000 -0.009657 0.000000 0.062711
#
#
# Mechanical properties :
#
#
# Convention : Reuss Voigt Hill
#
# Bulk Modulus (GPa) = 16.33019 32.34380 24.33700
# Shear Modulus (GPa) = 18.07408 22.58759 20.33084
#
# Velocity S-wave (km/s) = 3.11509 3.48239 3.30385
# Velocity P-wave (km/s) = 4.65896 5.79089 5.25549
#
# Compressibility (1/GPa) = 0.06123626
#
# Stress axis : x y z
#
# Youngs Moduli (GPa) = 22.96331 75.93119 43.61467
#
# Poissons Ratio (x) = 0.57246 -0.20598
# Poissons Ratio (y) = 0.17312 0.27862
# Poissons Ratio (z) = -0.10845 0.48507
#
# Static dielectric constant tensor:
#      x y z
#    x 3.085480 0.000000 0.162810 
#    y 0.000000 3.466530 0.000000 
#    z 0.162810 0.000000 3.313160 
# 
# 
# High freq. dielectric constant tensor:
#      x y z
#    x 1.693890 0.000000 0.018260 
#    y 0.000000 1.737530 0.000000 
#    z 0.018260 0.000000 1.706600 
# 
# From -- ./inp_files/79735.got.cif
#   From: 2010.03.12/outbox.cif.g09.slc.cpg/sg14_40_cif.got.tgz:79735.got - 2010.03.31 13:35:05.
