data_PCOD8123150
_publ_section_title
;
Structure prediction by ZEFSAII (Michael W. Deem and Ramdas Pophale) SiO2 
 PCOD8123150
Probable space group: P 2/C
;
_chemical_formula_sum "Si O2"
_cell_formula_units_Z 22
_cell_length_a 14.746800
_cell_length_b 10.863009
_cell_length_c 11.714710
_cell_angle_alpha 90.000000
_cell_angle_beta 149.780674
_cell_angle_gamma 90.000000
_cell_volume 944.531124
_symmetry_space_group_name_H-M "P 2/C"
_symmetry_group_IT_number 13
_symmetry_cell_setting 'monoclinic'
loop_
_space_group_symop_operation_xyz
x,y,z
-x,y,1/2-z
-x,-y,-z
x,-y,1/2+z
loop_
_atom_site_type_symbol
_atom_site_label
_atom_site_fract_x
_atom_site_fract_y
_atom_site_fract_z
Si Si1 0.703086 0.629042 0.954847
Si Si2 0.925688 0.206966 0.310103
Si Si3 0.747292 0.825825 0.181671
Si Si4 0.299908 0.030315 0.559714
Si Si5 0.000000 0.432885 0.250000
Si Si6 0.344897 0.168258 0.285229
O O1 0.500000 0.580324 0.750000
O O2 0.712066 0.729897 0.866751
O O3 0.775368 0.693358 0.149695
O O4 0.823388 0.515651 0.045491
O O5 0.754380 0.194944 0.205860
O O6 0.098085 0.147298 0.558339
O O7 0.972466 0.347907 0.331521
O O8 0.852339 0.138036 0.114224
O O9 0.557740 0.826400 0.042224
O O10 0.751950 0.931507 0.092912
O O11 0.500000 0.080450 0.750000
O O12 0.292648 0.965772 0.676293
#
# Coordination Sequence:
#
# PCOD8123150 Si02
#       6
#     4   4   4   4   2   4
#     4   9  20  43  68  89 122 164 206 254 303 358
#     4  12  25  38  61  93 130 164 199 253 310 364
#     4   9  20  41  68  94 117 157 211 253 302 367
#     4   9  21  41  64  92 126 161 201 251 308 371
#     4  12  28  40  54  92 130 160 210 262 306 358
#     4   9  21  43  68  90 119 164 209 249 304 370
#
# _framework density 23.291979000000001
#
# number of rings (size 3 to 8) (size 9 to 14) (size 15 to 20)
#    0.000    2.182    0.000    3.818    0.000   14.545 
#    0.000    5.455    0.000    0.000    0.000    0.000 
#    0.000    0.000    0.000    0.000    0.000    0.000 
#
# Total GULP energy -272814.910460 kJ/mol
# GULP energy per Si atom -12400.677748 kJ/mol
# Density = 2.323897 g / cm^3
# Si number density = 23.291979 Si / 1000 Ang^3
#
#
#
# Elastic Constant Matrix: (Units=GPa)
#
#
# Indices 1 2 3 4 5 6 
#
# 1 80.8571 24.7701 28.8749 0.0000 14.0165 0.0000
# 2 24.7701 114.6259 50.2160 0.0000 28.0415 0.0000
# 3 28.8749 50.2160 128.5117 0.0000 22.8684 0.0000
# 4 0.0000 0.0000 0.0000 27.2315 0.0000 11.2837
# 5 14.0165 28.0415 22.8684 0.0000 29.2119 0.0000
# 6 0.0000 0.0000 0.0000 11.2837 0.0000 24.3515
#
#
#
# Elastic Compliance Matrix: (Units=1/GPa)
#
#
# Indices 1 2 3 4 5 6 
#
# 1 0.014150 -0.001185 -0.001987 0.000000 -0.004096 0.000000
# 2 -0.001185 0.012524 -0.003008 0.000000 -0.009098 0.000000
# 3 -0.001987 -0.003008 0.010131 0.000000 -0.004090 0.000000
# 4 0.000000 0.000000 0.000000 0.045448 0.000000 -0.021059
# 5 -0.004096 -0.009098 -0.004090 0.000000 0.048133 0.000000
# 6 0.000000 0.000000 0.000000 -0.021059 0.000000 0.050823
#
#
# Mechanical properties :
#
#
# Convention : Reuss Voigt Hill
#
# Bulk Modulus (GPa) = 40.91051 59.07964 49.99508
# Shear Modulus (GPa) = 24.78679 30.83455 27.81067
#
# Velocity S-wave (km/s) = 3.26571 3.64239 3.45918
# Velocity P-wave (km/s) = 5.64111 6.56576 6.12092
#
# Compressibility (1/GPa) = 0.02444359
#
# Stress axis : x y z
#
# Youngs Moduli (GPa) = 70.66974 79.84784 98.70468
#
# Poissons Ratio (x) = 0.09463 0.19617
# Poissons Ratio (y) = 0.08375 0.29694
# Poissons Ratio (z) = 0.14045 0.24021
#
# Static dielectric constant tensor:
#      x y z
#    x 4.395920 0.000000 0.046840 
#    y 0.000000 4.124590 0.000000 
#    z 0.046840 0.000000 4.345030 
# 
# 
# High freq. dielectric constant tensor:
#      x y z
#    x 1.938430 0.000000 0.009410 
#    y 0.000000 1.904090 0.000000 
#    z 0.009410 0.000000 1.931720 
# 
# From -- ./inp_files/37253.got.cif
#   From: 2010.06.25/outbox.cif.g09.slc.cpg/sg13_19_cif.got.tgz:37253.got - 2010.06.28 04:50:58.
