data_PCOD8123584
_publ_section_title
;
Structure prediction by ZEFSAII (Michael W. Deem and Ramdas Pophale) SiO2 
 PCOD8123584
Probable space group: P 21/C
;
_chemical_formula_sum "Si O2"
_cell_formula_units_Z 32
_cell_length_a 10.352127
_cell_length_b 12.312252
_cell_length_c 13.368337
_cell_angle_alpha 90.000000
_cell_angle_beta 62.402127
_cell_angle_gamma 90.000000
_cell_volume 1510.032867
_symmetry_space_group_name_H-M "P 21/C"
_symmetry_group_IT_number 14
_symmetry_cell_setting 'monoclinic'
loop_
_space_group_symop_operation_xyz
x,y,z
-x,1/2+y,1/2-z
-x,-y,-z
x,1/2-y,1/2+z
loop_
_atom_site_type_symbol
_atom_site_label
_atom_site_fract_x
_atom_site_fract_y
_atom_site_fract_z
Si Si1 0.416770 0.992647 0.742626
Si Si2 0.870638 0.343056 0.854209
Si Si3 0.345588 0.742126 0.215740
Si Si4 0.112535 0.248766 0.132675
Si Si5 0.717586 0.924291 0.626402
Si Si6 0.325356 0.307398 0.394478
Si Si7 0.118533 0.867688 0.420528
Si Si8 0.287447 0.438710 0.100533
O O1 0.579323 0.980853 0.730681
O O2 0.319755 0.078845 0.838429
O O3 0.423144 0.037530 0.625296
O O4 0.339748 0.875450 0.771915
O O5 0.744092 0.263500 0.856668
O O6 0.830696 0.466595 0.849498
O O7 0.018161 0.326017 0.738263
O O8 0.894241 0.320874 0.962840
O O9 0.508164 0.781859 0.133348
O O10 0.268137 0.823330 0.320232
O O11 0.207387 0.329227 0.167313
O O12 0.021139 0.328488 0.090674
O O13 0.220996 0.174274 0.027743
O O14 0.863116 0.998303 0.589220
O O15 0.735967 0.796832 0.649155
O O16 0.661861 0.920190 0.531068
#
# Coordination Sequence:
#
# PCOD8123584 Si02
#       8
#     4   4   4   4   4   4   4   4
#     4  10  18  33  57  82 108 139 182 227 275 317
#     4   9  20  37  57  75 108 151 183 216 268 326
#     4   9  19  38  56  82 107 141 187 224 266 329
#     4  10  22  36  51  85 114 139 181 227 269 326
#     4   9  18  33  57  79 105 143 181 227 268 319
#     4  10  20  34  55  82 112 136 177 235 271 308
#     4  10  19  37  59  77 109 148 182 217 277 328
#     4   9  19  34  53  81 107 141 187 225 261 318
#
# _framework density 21.191590999999999
#
# number of rings (size 3 to 8) (size 9 to 14) (size 15 to 20)
#    0.000    2.500    1.250    0.375    1.750    7.500 
#    2.250    1.875    0.000    0.750    0.000    0.000 
#    0.000    0.000    0.000    0.000    0.000    0.000 
#
# Total GULP energy -396514.525521 kJ/mol
# GULP energy per Si atom -12391.078923 kJ/mol
# Density = 2.114336 g / cm^3
# Si number density = 21.191591 Si / 1000 Ang^3
#
#
#
# Elastic Constant Matrix: (Units=GPa)
#
#
# Indices 1 2 3 4 5 6 
#
# 1 42.1497 -4.0980 8.1297 0.0000 -12.5110 0.0000
# 2 -4.0980 53.3573 4.3059 0.0000 2.6008 0.0000
# 3 8.1297 4.3059 64.4089 0.0000 -9.0617 0.0000
# 4 0.0000 0.0000 0.0000 25.8680 0.0000 -2.8096
# 5 -12.5110 2.6008 -9.0617 0.0000 28.3635 0.0000
# 6 0.0000 0.0000 0.0000 -2.8096 0.0000 19.2149
#
#
#
# Elastic Compliance Matrix: (Units=1/GPa)
#
#
# Indices 1 2 3 4 5 6 
#
# 1 0.027665 0.001731 -0.002003 0.000000 0.011404 0.000000
# 2 0.001731 0.019087 -0.001710 0.000000 -0.001533 0.000000
# 3 -0.002003 -0.001710 0.016534 0.000000 0.004556 0.000000
# 4 0.000000 0.000000 0.000000 0.039282 0.000000 0.005744
# 5 0.011404 -0.001533 0.004556 0.000000 0.041883 0.000000
# 6 0.000000 0.000000 0.000000 0.005744 0.000000 0.052883
#
#
# Mechanical properties :
#
#
# Convention : Reuss Voigt Hill
#
# Bulk Modulus (GPa) = 16.85767 19.62123 18.23945
# Shear Modulus (GPa) = 22.61710 24.79451 23.70580
#
# Velocity S-wave (km/s) = 3.27045 3.42426 3.34824
# Velocity P-wave (km/s) = 4.71522 4.99131 4.85523
#
# Compressibility (1/GPa) = 0.05932018
#
# Stress axis : x y z
#
# Youngs Moduli (GPa) = 36.14739 52.39104 60.48182
#
# Poissons Ratio (x) = -0.09066 0.12115
# Poissons Ratio (y) = -0.06255 0.10343
# Poissons Ratio (z) = 0.07241 0.08960
#
# Static dielectric constant tensor:
#      x y z
#    x 3.855800 0.000000 -0.055270 
#    y 0.000000 3.966030 0.000000 
#    z -0.055270 0.000000 3.686730 
# 
# 
# High freq. dielectric constant tensor:
#      x y z
#    x 1.831210 0.000000 -0.019210 
#    y 0.000000 1.829860 0.000000 
#    z -0.019210 0.000000 1.809410 
# 
# From -- ./inp_files/44382.got.cif
#   From: 2010.03.12/outbox.cif.g09.slc.cpg/sg14_23_cif.got.tgz:44382.got - 2010.03.31 13:35:05.
