data_PCOD8123893
_publ_section_title
;
Structure prediction by ZEFSAII (Michael W. Deem and Ramdas Pophale) SiO2 
 PCOD8123893
Probable space group: P 21/C
;
_chemical_formula_sum "Si O2"
_cell_formula_units_Z 24
_cell_length_a 10.712428
_cell_length_b 7.633239
_cell_length_c 15.079880
_cell_angle_alpha 90.000000
_cell_angle_beta 104.369445
_cell_angle_gamma 90.000000
_cell_volume 1194.513263
_symmetry_space_group_name_H-M "P 21/C"
_symmetry_group_IT_number 14
_symmetry_cell_setting 'monoclinic'
loop_
_space_group_symop_operation_xyz
x,y,z
-x,1/2+y,1/2-z
-x,-y,-z
x,1/2-y,1/2+z
loop_
_atom_site_type_symbol
_atom_site_label
_atom_site_fract_x
_atom_site_fract_y
_atom_site_fract_z
Si Si1 0.320387 0.859354 0.497151
Si Si2 0.867462 0.545364 0.903119
Si Si3 0.784124 0.500479 0.483768
Si Si4 0.551306 0.997110 0.646342
Si Si5 0.645697 0.732178 0.320639
Si Si6 0.000892 0.721009 0.558628
O O1 0.289677 0.653393 0.478255
O O2 0.341453 0.938520 0.403812
O O3 0.205302 0.962642 0.523974
O O4 0.448945 0.873218 0.579132
O O5 0.762252 0.631234 0.819108
O O6 0.947299 0.383763 0.871006
O O7 0.965818 0.692762 0.955954
O O8 0.681306 0.619695 0.413965
O O9 0.869545 0.621657 0.567273
O O10 0.884790 0.419567 0.430395
O O11 0.484633 0.164009 0.680600
O O12 0.626991 0.888051 0.732867
#
# Coordination Sequence:
#
# PCOD8123893 Si02
#       6
#     4   4   4   4   4   4
#     4   9  18  32  50  73 101 130 166 209 255 301
#     4   8  15  29  51  76  98 127 163 203 247 296
#     4   9  16  28  50  76  98 127 168 206 246 300
#     4  10  20  33  48  70 102 135 169 211 253 301
#     4  10  19  31  49  72  99 133 171 207 252 302
#     4   8  14  27  50  76  98 122 163 201 239 299
#
# _framework density 20.091864999999999
#
# number of rings (size 3 to 8) (size 9 to 14) (size 15 to 20)
#    0.000    3.000    0.000    1.000    0.000    0.667 
#    0.000    3.333    0.000   12.000    0.000    0.000 
#    0.000    0.000    0.000    0.000    0.000    1.167 
#
# Total GULP energy -297336.546464 kJ/mol
# GULP energy per Si atom -12389.022769 kJ/mol
# Density = 2.004613 g / cm^3
# Si number density = 20.091865 Si / 1000 Ang^3
#
#
#
# Elastic Constant Matrix: (Units=GPa)
#
#
# Indices 1 2 3 4 5 6 
#
# 1 68.5342 53.1516 44.0441 0.0000 13.5458 0.0000
# 2 53.1516 142.3198 42.0425 0.0000 9.8740 0.0000
# 3 44.0441 42.0425 66.1776 0.0000 6.2613 0.0000
# 4 0.0000 0.0000 0.0000 36.5770 0.0000 18.9017
# 5 13.5458 9.8740 6.2613 0.0000 16.7161 0.0000
# 6 0.0000 0.0000 0.0000 18.9017 0.0000 46.7321
#
#
#
# Elastic Compliance Matrix: (Units=1/GPa)
#
#
# Indices 1 2 3 4 5 6 
#
# 1 0.033784 -0.006474 -0.016737 0.000000 -0.017284 0.000000
# 2 -0.006474 0.010055 -0.002087 0.000000 0.000089 0.000000
# 3 -0.016737 -0.002087 0.027138 0.000000 0.004631 0.000000
# 4 0.000000 0.000000 0.000000 0.034564 0.000000 -0.013980
# 5 -0.017284 0.000089 0.004631 0.000000 0.072042 0.000000
# 6 0.000000 0.000000 0.000000 -0.013980 0.000000 0.027053
#
#
# Mechanical properties :
#
#
# Convention : Reuss Voigt Hill
#
# Bulk Modulus (GPa) = 49.06621 61.72309 55.39465
# Shear Modulus (GPa) = 19.08212 29.19127 24.13670
#
# Velocity S-wave (km/s) = 3.08513 3.81581 3.46976
# Velocity P-wave (km/s) = 6.09629 7.08527 6.60930
#
# Compressibility (1/GPa) = 0.02038062
#
# Stress axis : x y z
#
# Youngs Moduli (GPa) = 29.59958 99.45578 36.84882
#
# Poissons Ratio (x) = 0.64387 0.61673
# Poissons Ratio (y) = 0.19163 0.07692
# Poissons Ratio (z) = 0.49540 0.20761
#
# Static dielectric constant tensor:
#      x y z
#    x 3.757700 0.000000 0.398080 
#    y 0.000000 4.176370 0.000000 
#    z 0.398080 0.000000 3.071450 
# 
# 
# High freq. dielectric constant tensor:
#      x y z
#    x 1.781720 0.000000 0.045160 
#    y 0.000000 1.813770 0.000000 
#    z 0.045160 0.000000 1.715420 
# 
# From -- ./inp_files/43203.got.cif
#   From: 2010.03.12/outbox.cif.g09.slc.cpg/sg14_22_cif.got.tgz:43203.got - 2010.03.31 13:35:05.
