data_PCOD8123836
_publ_section_title
;
Structure prediction by ZEFSAII (Michael W. Deem and Ramdas Pophale) SiO2 
 PCOD8123836
Probable space group: P 21/C
;
_chemical_formula_sum "Si O2"
_cell_formula_units_Z 28
_cell_length_a 9.160119
_cell_length_b 15.740040
_cell_length_c 11.150464
_cell_angle_alpha 90.000000
_cell_angle_beta 113.694835
_cell_angle_gamma 90.000000
_cell_volume 1472.151628
_symmetry_space_group_name_H-M "P 21/C"
_symmetry_group_IT_number 14
_symmetry_cell_setting 'monoclinic'
loop_
_space_group_symop_operation_xyz
x,y,z
-x,1/2+y,1/2-z
-x,-y,-z
x,1/2-y,1/2+z
loop_
_atom_site_type_symbol
_atom_site_label
_atom_site_fract_x
_atom_site_fract_y
_atom_site_fract_z
Si Si1 0.521178 0.570071 0.352573
Si Si2 0.472122 0.682931 0.561263
Si Si3 0.255970 0.032428 0.478566
Si Si4 0.790012 0.062122 0.948279
Si Si5 0.733857 0.575872 0.752251
Si Si6 0.983510 0.010727 0.795417
Si Si7 0.471433 0.620266 0.073036
O O1 0.493230 0.645794 0.435488
O O2 0.683588 0.521397 0.437318
O O3 0.373832 0.505734 0.314750
O O4 0.542010 0.609060 0.228568
O O5 0.315248 0.646151 0.573994
O O6 0.629708 0.660611 0.692003
O O7 0.439352 0.781852 0.537586
O O8 0.208128 0.071545 0.591059
O O9 0.403344 0.087978 0.482675
O O10 0.106720 0.039744 0.340087
O O11 0.308226 0.933477 0.506082
O O12 0.859573 0.063654 0.836150
O O13 0.931923 0.060047 0.092677
O O14 0.890287 0.575858 0.720971
#
# Coordination Sequence:
#
# PCOD8123836 Si02
#       7
#     4   4   4   4   4   4   4
#     4  10  18  39  58  84 116 145 201 235 280 347
#     4  11  21  37  62  88 113 147 201 245 283 331
#     4  10  22  39  58  84 120 156 194 230 294 349
#     4  10  20  35  63  86 112 153 194 236 286 346
#     4  10  20  36  62  87 111 152 191 239 291 344
#     4  11  19  36  62  85 117 155 190 231 292 356
#     4  10  23  37  60  86 113 157 195 241 282 346
#
# _framework density 19.019781999999999
#
# number of rings (size 3 to 8) (size 9 to 14) (size 15 to 20)
#    0.000    1.714    4.286    1.286    4.000    0.000 
#    0.000    1.429    9.429    0.000    0.000    0.000 
#    0.000    0.000    0.000    0.000    0.000    0.000 
#
# Total GULP energy -347261.171594 kJ/mol
# GULP energy per Si atom -12402.184700 kJ/mol
# Density = 1.897649 g / cm^3
# Si number density = 19.019782 Si / 1000 Ang^3
#
#
#
# Elastic Constant Matrix: (Units=GPa)
#
#
# Indices 1 2 3 4 5 6 
#
# 1 98.8850 26.4479 19.0413 0.0000 -14.8562 0.0000
# 2 26.4479 101.2776 14.8831 0.0000 -7.5110 0.0000
# 3 19.0413 14.8831 113.4524 0.0000 -5.4724 0.0000
# 4 0.0000 0.0000 0.0000 12.6440 0.0000 -3.4456
# 5 -14.8562 -7.5110 -5.4724 0.0000 34.8742 0.0000
# 6 0.0000 0.0000 0.0000 -3.4456 0.0000 9.7490
#
#
#
# Elastic Compliance Matrix: (Units=1/GPa)
#
#
# Indices 1 2 3 4 5 6 
#
# 1 0.011698 -0.002533 -0.001428 0.000000 0.004214 0.000000
# 2 -0.002533 0.010753 -0.000933 0.000000 0.001091 0.000000
# 3 -0.001428 -0.000933 0.009207 0.000000 0.000636 0.000000
# 4 0.000000 0.000000 0.000000 0.087518 0.000000 0.030931
# 5 0.004214 0.001091 0.000636 0.000000 0.030804 0.000000
# 6 0.000000 0.000000 0.000000 0.030931 0.000000 0.113506
#
#
# Mechanical properties :
#
#
# Convention : Reuss Voigt Hill
#
# Bulk Modulus (GPa) = 45.72158 48.26217 46.99188
# Shear Modulus (GPa) = 17.82125 28.33630 23.07877
#
# Velocity S-wave (km/s) = 3.06434 3.86402 3.48718
# Velocity P-wave (km/s) = 6.05074 6.73330 6.40112
#
# Compressibility (1/GPa) = 0.02187151
#
# Stress axis : x y z
#
# Youngs Moduli (GPa) = 85.48370 92.99551 108.61344
#
# Poissons Ratio (x) = 0.23552 0.15509
# Poissons Ratio (y) = 0.21649 0.10133
# Poissons Ratio (z) = 0.12206 0.08676
#
# Static dielectric constant tensor:
#      x y z
#    x 3.602940 0.000000 -0.112630 
#    y 0.000000 3.085120 0.000000 
#    z -0.112630 0.000000 3.671300 
# 
# 
# High freq. dielectric constant tensor:
#      x y z
#    x 1.748260 0.000000 -0.013310 
#    y 0.000000 1.694160 0.000000 
#    z -0.013310 0.000000 1.757230 
# 
# From -- ./inp_files/25576.got.cif
#   From: 2010.03.12/outbox.cif.g09.slc.cpg/sg14_13_cif.got.tgz:25576.got - 2010.03.31 13:35:05.
