data_PCOD8123182
_publ_section_title
;
Structure prediction by ZEFSAII (Michael W. Deem and Ramdas Pophale) SiO2 
 PCOD8123182
Probable space group: P 2/C
;
_chemical_formula_sum "Si O2"
_cell_formula_units_Z 14
_cell_length_a 4.965094
_cell_length_b 11.219963
_cell_length_c 9.960341
_cell_angle_alpha 90.000000
_cell_angle_beta 92.811211
_cell_angle_gamma 90.000000
_cell_volume 554.204624
_symmetry_space_group_name_H-M "P 2/C"
_symmetry_group_IT_number 13
_symmetry_cell_setting 'monoclinic'
loop_
_space_group_symop_operation_xyz
x,y,z
-x,y,1/2-z
-x,-y,-z
x,-y,1/2+z
loop_
_atom_site_type_symbol
_atom_site_label
_atom_site_fract_x
_atom_site_fract_y
_atom_site_fract_z
Si Si1 0.474725 0.607686 0.398289
Si Si2 0.000000 0.168540 0.250000
Si Si3 0.668265 0.038110 0.633734
Si Si4 0.007708 0.753756 0.035162
O O1 0.500000 0.555688 0.250000
O O2 0.500000 0.500000 0.500000
O O3 0.172322 0.655516 0.397774
O O4 0.679828 0.717793 0.434560
O O5 0.928665 0.250437 0.375809
O O6 0.247203 0.086769 0.300350
O O7 0.500000 0.104326 0.750000
O O8 0.930816 0.116833 0.597233
O O9 0.500000 0.000000 0.500000
#
# Coordination Sequence:
#
# PCOD8123182 Si02
#       4
#     4   2   4   4
#     4  12  30  53  83 113 150 201 270 339 397 461
#     4  12  28  44  76 116 164 210 254 314 386 488
#     4  12  26  47  73 115 165 209 260 309 386 477
#     4  12  28  48  81 113 158 208 260 320 400 466
#
# _framework density 25.261427999999999
#
# number of rings (size 3 to 8) (size 9 to 14) (size 15 to 20)
#    0.000    0.000    2.857    5.143   12.000    0.000 
#    0.000    0.000    0.000    0.000    0.000    0.000 
#    0.000    0.000    0.000    0.000    0.000    0.000 
#
# Total GULP energy -173618.588348 kJ/mol
# GULP energy per Si atom -12401.327739 kJ/mol
# Density = 2.520393 g / cm^3
# Si number density = 25.261428 Si / 1000 Ang^3
#
#
#
# Elastic Constant Matrix: (Units=GPa)
#
#
# Indices 1 2 3 4 5 6 
#
# 1 87.2704 11.7245 27.7086 0.0000 -0.2169 0.0000
# 2 11.7245 84.6060 36.8181 0.0000 -3.6884 0.0000
# 3 27.7086 36.8181 219.1043 0.0000 -16.7415 0.0000
# 4 0.0000 0.0000 0.0000 51.6459 0.0000 3.9199
# 5 -0.2169 -3.6884 -16.7415 0.0000 47.4551 0.0000
# 6 0.0000 0.0000 0.0000 3.9199 0.0000 24.8702
#
#
#
# Elastic Compliance Matrix: (Units=1/GPa)
#
#
# Indices 1 2 3 4 5 6 
#
# 1 0.012042 -0.001091 -0.001379 0.000000 -0.000516 0.000000
# 2 -0.001091 0.012854 -0.002000 0.000000 0.000289 0.000000
# 3 -0.001379 -0.002000 0.005202 0.000000 0.001674 0.000000
# 4 0.000000 0.000000 0.000000 0.019597 0.000000 -0.003089
# 5 -0.000516 0.000289 0.001674 0.000000 0.021683 0.000000
# 6 0.000000 0.000000 0.000000 -0.003089 0.000000 0.040696
#
#
# Mechanical properties :
#
#
# Convention : Reuss Voigt Hill
#
# Bulk Modulus (GPa) = 47.26394 60.38701 53.82548
# Shear Modulus (GPa) = 39.04240 45.77619 42.40929
#
# Velocity S-wave (km/s) = 3.93559 4.26149 4.10178
# Velocity P-wave (km/s) = 6.27713 6.94050 6.61713
#
# Compressibility (1/GPa) = 0.02115778
#
# Stress axis : x y z
#
# Youngs Moduli (GPa) = 83.04430 77.79940 192.22072
#
# Poissons Ratio (x) = 0.08489 0.26506
# Poissons Ratio (y) = 0.09061 0.38442
# Poissons Ratio (z) = 0.11451 0.15559
#
# Static dielectric constant tensor:
#      x y z
#    x 4.635400 0.000000 -0.238450 
#    y 0.000000 4.394760 0.000000 
#    z -0.238450 0.000000 6.313920 
# 
# 
# High freq. dielectric constant tensor:
#      x y z
#    x 2.015550 0.000000 -0.005880 
#    y 0.000000 1.984150 0.000000 
#    z -0.005880 0.000000 2.042810 
# 
# From -- ./inp_files/8489.got.cif
#   From: 2010.06.25/outbox.cif.g09.slc.cpg/sg13_5_cif.got.tgz:8489.got - 2010.06.28 04:50:58.
