data_PCOD8123193
_publ_section_title
;
Structure prediction by ZEFSAII (Michael W. Deem and Ramdas Pophale) SiO2 
 PCOD8123193
Probable space group: P 2/C
;
_chemical_formula_sum "Si O2"
_cell_formula_units_Z 22
_cell_length_a 11.416677
_cell_length_b 5.453014
_cell_length_c 23.144783
_cell_angle_alpha 90.000000
_cell_angle_beta 142.904276
_cell_angle_gamma 90.000000
_cell_volume 869.067812
_symmetry_space_group_name_H-M "P 2/C"
_symmetry_group_IT_number 13
_symmetry_cell_setting 'monoclinic'
loop_
_space_group_symop_operation_xyz
x,y,z
-x,y,1/2-z
-x,-y,-z
x,-y,1/2+z
loop_
_atom_site_type_symbol
_atom_site_label
_atom_site_fract_x
_atom_site_fract_y
_atom_site_fract_z
Si Si1 0.787436 0.429671 0.302126
Si Si2 0.626446 0.564726 0.615268
Si Si3 0.500000 0.212180 0.750000
Si Si4 0.799562 0.351503 0.534990
Si Si5 0.198516 0.050675 0.859636
Si Si6 0.209206 0.113584 0.087307
O O1 0.688975 0.355023 0.203786
O O2 0.672488 0.651658 0.285369
O O3 0.767390 0.209944 0.338714
O O4 0.014265 0.480774 0.380575
O O5 0.395344 0.514650 0.518573
O O6 0.730966 0.313428 0.638387
O O7 0.664916 0.812273 0.592849
O O8 0.609073 0.070326 0.845308
O O9 0.830913 0.097221 0.583030
O O10 0.770616 0.312690 0.455155
O O11 0.000000 0.979478 0.750000
O O12 0.000000 0.000000 0.000000
#
# Coordination Sequence:
#
# PCOD8123193 Si02
#       6
#     4   4   2   4   4   4
#     4  12  28  50  76 119 154 206 263 332 397 474
#     4  12  29  51  83 113 160 205 264 326 397 461
#     4  12  26  52  74 114 162 196 266 324 406 470
#     4  12  27  50  78 112 158 205 264 324 391 480
#     4  12  28  53  78 118 155 210 262 327 388 471
#     4  12  28  46  79 115 150 210 259 326 395 479
#
# _framework density 25.314478999999999
#
# number of rings (size 3 to 8) (size 9 to 14) (size 15 to 20)
#    0.000    0.000    3.636    4.909   10.182    0.000 
#    0.000    0.000    0.000    0.000    0.000    0.000 
#    0.000    0.000    0.000    0.000    0.000    0.000 
#
# Total GULP energy -272751.116854 kJ/mol
# GULP energy per Si atom -12397.778039 kJ/mol
# Density = 2.525686 g / cm^3
# Si number density = 25.314479 Si / 1000 Ang^3
#
#
#
# Elastic Constant Matrix: (Units=GPa)
#
#
# Indices 1 2 3 4 5 6 
#
# 1 90.2899 26.4735 24.0509 0.0000 15.5460 0.0000
# 2 26.4735 103.2816 18.8233 0.0000 8.9037 0.0000
# 3 24.0509 18.8233 133.7305 0.0000 8.5710 0.0000
# 4 0.0000 0.0000 0.0000 -11.8969 0.0000 23.5511
# 5 15.5460 8.9037 8.5710 0.0000 66.5091 0.0000
# 6 0.0000 0.0000 0.0000 23.5511 0.0000 -1.3215
#
#
#
# Elastic Compliance Matrix: (Units=1/GPa)
#
#
# Indices 1 2 3 4 5 6 
#
# 1 0.012759 -0.002745 -0.001755 0.000000 -0.002389 0.000000
# 2 -0.002745 0.010617 -0.000959 0.000000 -0.000656 0.000000
# 3 -0.001755 -0.000959 0.007960 0.000000 -0.000487 0.000000
# 4 0.000000 0.000000 0.000000 0.002452 0.000000 0.043699
# 5 -0.002389 -0.000656 -0.000487 0.000000 0.015745 0.000000
# 6 0.000000 0.000000 0.000000 0.043699 0.000000 0.022075
#
#
# Mechanical properties :
#
#
# Convention : Reuss Voigt Hill
#
# Bulk Modulus (GPa) = 48.97529 51.77749 50.37639
# Shear Modulus (GPa) = 55.97198 27.85509 41.91353
#
# Velocity S-wave (km/s) = 4.70730 3.32077 4.07346
# Velocity P-wave (km/s) = 6.99526 5.93308 6.48595
#
# Compressibility (1/GPa) = 0.02041846
#
# Stress axis : x y z
#
# Youngs Moduli (GPa) = 78.37599 94.18781 125.63494
#
# Poissons Ratio (x) = 0.25851 0.22052
# Poissons Ratio (y) = 0.21511 0.12045
# Poissons Ratio (z) = 0.13757 0.09030
#
# Static dielectric constant tensor:
#      x y z
#    x 4.159830 0.000000 -0.107800 
#    y 0.000000 4.311070 0.000000 
#    z -0.107800 0.000000 4.821180 
# 
# 
# High freq. dielectric constant tensor:
#      x y z
#    x 2.020280 0.000000 0.002050 
#    y 0.000000 1.999560 0.000000 
#    z 0.002050 0.000000 2.047910 
# 
# From -- ./inp_files/85918.got.cif
#   From: 2010.06.25/outbox.cif.g09.slc.cpg/sg13_43_cif.got.tgz:85918.got - 2010.06.28 04:50:58.
