data_PCOD8123602
_publ_section_title
;
Structure prediction by ZEFSAII (Michael W. Deem and Ramdas Pophale) SiO2 
 PCOD8123602
Probable space group: P 21/C
;
_chemical_formula_sum "Si O2"
_cell_formula_units_Z 32
_cell_length_a 22.225776
_cell_length_b 16.370936
_cell_length_c 13.518925
_cell_angle_alpha 90.000000
_cell_angle_beta 158.321519
_cell_angle_gamma 90.000000
_cell_volume 1817.049974
_symmetry_space_group_name_H-M "P 21/C"
_symmetry_group_IT_number 14
_symmetry_cell_setting 'monoclinic'
loop_
_space_group_symop_operation_xyz
x,y,z
-x,1/2+y,1/2-z
-x,-y,-z
x,1/2-y,1/2+z
loop_
_atom_site_type_symbol
_atom_site_label
_atom_site_fract_x
_atom_site_fract_y
_atom_site_fract_z
Si Si1 0.985293 0.200914 0.268026
Si Si2 0.407411 0.089481 0.179703
Si Si3 0.697673 0.188897 0.689898
Si Si4 0.874454 0.291473 0.808547
Si Si5 0.826891 0.708392 0.599528
Si Si6 0.458469 0.172381 0.861537
Si Si7 0.339483 0.939355 0.962803
Si Si8 0.704093 0.899514 0.200686
O O1 0.886004 0.231150 0.211232
O O2 0.072155 0.279055 0.348359
O O3 0.117153 0.133828 0.501206
O O4 0.852922 0.160914 0.991498
O O5 0.585466 0.111234 0.493584
O O6 0.271940 0.122535 0.051159
O O7 0.367774 0.134917 0.013663
O O8 0.399256 0.991590 0.150577
O O9 0.757206 0.224207 0.676271
O O10 0.598413 0.260095 0.595889
O O11 0.806375 0.382387 0.723554
O O12 0.054816 0.288661 0.126976
O O13 0.703545 0.783731 0.424660
O O14 0.424666 0.123204 0.910768
O O15 0.511151 0.111340 0.854575
O O16 0.276679 0.002104 0.781610
#
# Coordination Sequence:
#
# PCOD8123602 Si02
#       8
#     4   4   4   4   4   4   4   4
#     4  10  19  31  51  74  99 141 166 214 258 306
#     4   9  18  33  51  77 101 138 164 219 259 298
#     4   9  20  32  51  76 110 132 175 223 252 304
#     4  10  18  34  52  79 102 136 175 212 263 304
#     4   9  18  33  50  74 107 126 175 214 250 303
#     4   9  17  33  51  81 101 136 179 216 250 308
#     4   9  19  31  55  77 105 133 173 219 255 305
#     4   9  18  30  54  75 101 138 173 209 261 304
#
# _framework density 17.610963000000002
#
# number of rings (size 3 to 8) (size 9 to 14) (size 15 to 20)
#    0.750    2.000    1.250    0.375    1.750    2.000 
#    0.000    0.625    0.000   11.250    0.000    0.000 
#    0.000    0.000    0.000    0.000    0.000    0.000 
#
# Total GULP energy -396543.913319 kJ/mol
# GULP energy per Si atom -12391.997291 kJ/mol
# Density = 1.757088 g / cm^3
# Si number density = 17.610963 Si / 1000 Ang^3
#
#
#
# Elastic Constant Matrix: (Units=GPa)
#
#
# Indices 1 2 3 4 5 6 
#
# 1 107.0380 29.5071 36.1402 0.0000 7.6416 0.0000
# 2 29.5071 45.8749 13.6513 0.0000 0.7706 0.0000
# 3 36.1402 13.6513 87.3211 0.0000 4.5162 0.0000
# 4 0.0000 0.0000 0.0000 16.7017 0.0000 -3.2550
# 5 7.6416 0.7706 4.5162 0.0000 20.5920 0.0000
# 6 0.0000 0.0000 0.0000 -3.2550 0.0000 23.3300
#
#
#
# Elastic Compliance Matrix: (Units=1/GPa)
#
#
# Indices 1 2 3 4 5 6 
#
# 1 0.012911 -0.007037 -0.004055 0.000000 -0.003639 0.000000
# 2 -0.007037 0.026697 -0.001360 0.000000 0.001911 0.000000
# 3 -0.004055 -0.001360 0.013415 0.000000 -0.001386 0.000000
# 4 0.000000 0.000000 0.000000 0.061548 0.000000 0.008587
# 5 -0.003639 0.001911 -0.001386 0.000000 0.050145 0.000000
# 6 0.000000 0.000000 0.000000 0.008587 0.000000 0.044061
#
#
# Mechanical properties :
#
#
# Convention : Reuss Voigt Hill
#
# Bulk Modulus (GPa) = 35.56367 44.31459 39.93913
# Shear Modulus (GPa) = 20.57146 22.85376 21.71261
#
# Velocity S-wave (km/s) = 3.42146 3.60627 3.51508
# Velocity P-wave (km/s) = 5.98719 6.52364 6.26117
#
# Compressibility (1/GPa) = 0.02811858
#
# Stress axis : x y z
#
# Youngs Moduli (GPa) = 77.45134 37.45718 74.54466
#
# Poissons Ratio (x) = 0.26358 0.30231
# Poissons Ratio (y) = 0.54501 0.10139
# Poissons Ratio (z) = 0.31410 0.05095
#
# Static dielectric constant tensor:
#      x y z
#    x 3.355870 0.000000 0.176040 
#    y 0.000000 3.037000 0.000000 
#    z 0.176040 0.000000 3.206580 
# 
# 
# High freq. dielectric constant tensor:
#      x y z
#    x 1.681730 0.000000 0.015950 
#    y 0.000000 1.654070 0.000000 
#    z 0.015950 0.000000 1.681920 
# 
# From -- ./inp_files/51596.got.cif
#   From: 2010.03.12/outbox.cif.g09.slc.cpg/sg14_26_cif.got.tgz:51596.got - 2010.03.31 13:35:05.
