data_PCOD8123894
_publ_section_title
;
Structure prediction by ZEFSAII (Michael W. Deem and Ramdas Pophale) SiO2 
 PCOD8123894
Probable space group: P 21/C
;
_chemical_formula_sum "Si O2"
_cell_formula_units_Z 28
_cell_length_a 11.657944
_cell_length_b 12.873766
_cell_length_c 12.042630
_cell_angle_alpha 90.000000
_cell_angle_beta 131.949059
_cell_angle_gamma 90.000000
_cell_volume 1344.218091
_symmetry_space_group_name_H-M "P 21/C"
_symmetry_group_IT_number 14
_symmetry_cell_setting 'monoclinic'
loop_
_space_group_symop_operation_xyz
x,y,z
-x,1/2+y,1/2-z
-x,-y,-z
x,1/2-y,1/2+z
loop_
_atom_site_type_symbol
_atom_site_label
_atom_site_fract_x
_atom_site_fract_y
_atom_site_fract_z
Si Si1 0.726979 0.115523 0.190249
Si Si2 0.738372 0.312743 0.455734
Si Si3 1.000000 0.206140 0.500000
Si Si4 0.273021 0.115523 0.809750
Si Si5 0.529168 0.311071 0.134708
Si Si6 0.738372 0.812744 0.955735
Si Si7 0.529168 0.688929 0.134708
O O1 0.601609 0.198589 0.148147
O O2 0.889240 0.134367 0.355502
O O3 0.667600 1.000000 0.181933
O O4 0.755178 0.118065 0.075584
O O5 0.646355 0.370720 0.293962
O O6 0.635227 0.209027 0.412840
O O7 0.906870 0.279897 0.524272
O O8 0.110759 0.134367 0.644498
O O9 0.093130 0.279897 0.475727
O O10 0.398390 0.198589 0.851853
O O11 0.244822 0.118065 0.924415
O O12 0.364772 0.290973 0.087160
O O13 0.500000 0.373729 1.000000
O O14 0.646355 0.870721 0.793963
#
# Coordination Sequence:
#
# PCOD8123894 Si02
#       7
#     4   4   4   4   4   4   4
#     4  10  19  31  50  74  97 121 156 202 239 269
#     4   9  17  30  48  70  96 126 158 190 231 284
#     4  10  19  32  49  70  98 130 158 186 231 290
#     4  10  19  31  50  74  97 121 156 202 239 269
#     4   8  16  30  49  71  93 122 160 196 230 275
#     4   9  17  30  48  70  96 126 158 190 231 284
#     4   8  16  30  49  71  93 122 160 196 230 275
#
# _framework density 20.829953
#
# number of rings (size 3 to 8) (size 9 to 14) (size 15 to 20)
#    0.000    2.857    0.000    1.286    0.000    5.143 
#    0.000    0.714    0.000    0.857    0.000   10.000 
#    0.000    0.000    0.000    0.000    0.000    0.000 
#
# Total GULP energy -346896.340550 kJ/mol
# GULP energy per Si atom -12389.155020 kJ/mol
# Density = 2.078254 g / cm^3
# Si number density = 20.829953 Si / 1000 Ang^3
#
#
#
# Elastic Constant Matrix: (Units=GPa)
#
#
# Indices 1 2 3 4 5 6 
#
# 1 110.3678 6.0890 17.9675 0.0000 3.9558 0.0000
# 2 6.0890 36.5111 4.2166 0.0000 3.0011 0.0000
# 3 17.9675 4.2166 152.5197 0.0000 -22.2274 0.0000
# 4 0.0000 0.0000 0.0000 -3.9222 0.0000 -3.3786
# 5 3.9558 3.0011 -22.2274 0.0000 41.6332 0.0000
# 6 0.0000 0.0000 0.0000 -3.3786 0.0000 7.0704
#
#
#
# Elastic Compliance Matrix: (Units=1/GPa)
#
#
# Indices 1 2 3 4 5 6 
#
# 1 0.009395 -0.001296 -0.001288 0.000000 -0.001487 0.000000
# 2 -0.001296 0.027915 -0.000970 0.000000 -0.002407 0.000000
# 3 -0.001288 -0.000970 0.007334 0.000000 0.004108 0.000000
# 4 0.000000 0.000000 0.000000 -0.180614 0.000000 -0.086306
# 5 -0.001487 -0.002407 0.004108 0.000000 0.026527 0.000000
# 6 0.000000 0.000000 0.000000 -0.086306 0.000000 0.100193
#
#
# Mechanical properties :
#
#
# Convention : Reuss Voigt Hill
#
# Bulk Modulus (GPa) = 26.64052 39.54943 33.09497
# Shear Modulus (GPa) = 482.19683 27.03131 254.61407
#
# Velocity S-wave (km/s) = 15.23137 3.60629 11.06797
# Velocity P-wave (km/s) = 17.94835 6.03062 13.38865
#
# Compressibility (1/GPa) = 0.03753681
#
# Stress axis : x y z
#
# Youngs Moduli (GPa) = 106.43942 35.82320 136.35777
#
# Poissons Ratio (x) = 0.04642 0.17558
# Poissons Ratio (y) = 0.13793 0.13225
# Poissons Ratio (z) = 0.13705 0.03474
#
# Static dielectric constant tensor:
#      x y z
#    x 3.821880 0.000000 -0.309730 
#    y 0.000000 2.929280 0.000000 
#    z -0.309730 0.000000 4.676040 
# 
# 
# High freq. dielectric constant tensor:
#      x y z
#    x 1.821140 0.000000 -0.012520 
#    y 0.000000 1.733340 0.000000 
#    z -0.012520 0.000000 1.856300 
# 
# From -- ./inp_files/29846.got.cif
#   From: 2010.03.12/outbox.cif.g09.slc.cpg/sg14_15_cif.got.tgz:29846.got - 2010.03.31 13:35:05.
