data_PCOD8123174
_publ_section_title
;
Structure prediction by ZEFSAII (Michael W. Deem and Ramdas Pophale) SiO2 
 PCOD8123174
Probable space group: P 2/C
;
_chemical_formula_sum "Si O2"
_cell_formula_units_Z 24
_cell_length_a 14.496227
_cell_length_b 6.515193
_cell_length_c 13.812386
_cell_angle_alpha 90.000000
_cell_angle_beta 52.994412
_cell_angle_gamma 90.000000
_cell_volume 1041.759977
_symmetry_space_group_name_H-M "P 2/C"
_symmetry_group_IT_number 13
_symmetry_cell_setting 'monoclinic'
loop_
_space_group_symop_operation_xyz
x,y,z
-x,y,1/2-z
-x,-y,-z
x,-y,1/2+z
loop_
_atom_site_type_symbol
_atom_site_label
_atom_site_fract_x
_atom_site_fract_y
_atom_site_fract_z
Si Si1 0.751693 0.706539 0.703359
Si Si2 0.207540 0.615224 0.174067
Si Si3 0.110371 0.033212 0.996547
Si Si4 0.719559 0.598442 0.069419
Si Si5 0.500000 0.193894 0.750000
Si Si6 0.389638 0.948036 0.131620
Si Si7 0.000000 0.881486 0.250000
O O1 0.825178 0.563347 0.729390
O O2 0.816578 0.838143 0.581811
O O3 0.679364 0.552760 0.681472
O O4 0.685458 0.846213 0.822697
O O5 0.091934 0.747963 0.250781
O O6 0.318737 0.752565 0.135623
O O7 0.228884 0.520088 0.054769
O O8 0.072176 0.023028 0.131904
O O9 0.185981 0.242237 0.943235
O O10 0.000000 0.000000 0.000000
O O11 0.594606 0.692725 0.121765
O O12 0.577072 0.068532 0.776627
O O13 0.500000 0.000000 0.000000
#
# Coordination Sequence:
#
# PCOD8123174 Si02
#       7
#     4   4   4   4   2   4   2
#     4  12  25  51  76 106 157 193 257 317 384 462
#     4  12  29  50  74 120 149 200 262 314 387 463
#     4  12  28  50  77 111 155 203 255 321 383 456
#     4  12  28  48  79 115 148 202 258 309 390 460
#     4  12  26  50  74 110 156 198 254 314 388 454
#     4  12  29  48  78 113 152 202 256 322 386 457
#     4  12  28  48  78 112 160 198 258 322 384 458
#
# _framework density 23.037935000000001
#
# number of rings (size 3 to 8) (size 9 to 14) (size 15 to 20)
#    0.000    0.000    5.000    3.000   14.000    2.667 
#    0.000    0.000    0.000    0.000    0.000    0.000 
#    0.000    0.000    0.000    0.000    0.000    0.000 
#
# Total GULP energy -297335.642071 kJ/mol
# GULP energy per Si atom -12388.985086 kJ/mol
# Density = 2.298550 g / cm^3
# Si number density = 23.037935 Si / 1000 Ang^3
#
#
#
# Elastic Constant Matrix: (Units=GPa)
#
#
# Indices 1 2 3 4 5 6 
#
# 1 113.0528 42.6040 14.3456 0.0000 -2.0094 0.0000
# 2 42.6040 117.0449 42.3286 0.0000 1.7753 0.0000
# 3 14.3456 42.3286 124.7013 0.0000 -5.7077 0.0000
# 4 0.0000 0.0000 0.0000 31.9623 0.0000 11.5215
# 5 -2.0094 1.7753 -5.7077 0.0000 43.8096 0.0000
# 6 0.0000 0.0000 0.0000 11.5215 0.0000 29.3071
#
#
#
# Elastic Compliance Matrix: (Units=1/GPa)
#
#
# Indices 1 2 3 4 5 6 
#
# 1 0.010271 -0.003798 0.000137 0.000000 0.000643 0.000000
# 2 -0.003798 0.011174 -0.003405 0.000000 -0.001071 0.000000
# 3 0.000137 -0.003405 0.009221 0.000000 0.001346 0.000000
# 4 0.000000 0.000000 0.000000 0.036453 0.000000 -0.014331
# 5 0.000643 -0.001071 0.001346 0.000000 0.023074 0.000000
# 6 0.000000 0.000000 0.000000 -0.014331 0.000000 0.039755
#
#
# Mechanical properties :
#
#
# Convention : Reuss Voigt Hill
#
# Bulk Modulus (GPa) = 60.48236 61.48395 60.98315
# Shear Modulus (GPa) = 33.42475 38.05053 35.73764
#
# Velocity S-wave (km/s) = 3.81314 4.06845 3.94287
# Velocity P-wave (km/s) = 6.75997 6.98683 6.87433
#
# Compressibility (1/GPa) = 0.01653375
#
# Stress axis : x y z
#
# Youngs Moduli (GPa) = 97.36470 89.49575 108.45109
#
# Poissons Ratio (x) = 0.33989 -0.01486
# Poissons Ratio (y) = 0.36977 0.36927
# Poissons Ratio (z) = -0.01334 0.30472
#
# Static dielectric constant tensor:
#      x y z
#    x 3.489950 0.000000 0.616930 
#    y 0.000000 4.356340 0.000000 
#    z 0.616930 0.000000 3.571820 
# 
# 
# High freq. dielectric constant tensor:
#      x y z
#    x 1.913460 0.000000 0.007450 
#    y 0.000000 1.919360 0.000000 
#    z 0.007450 0.000000 1.928990 
# 
# From -- ./inp_files/52119.got.cif
#   From: 2010.06.25/outbox.cif.g09.slc.cpg/sg13_27_cif.got.tgz:52119.got - 2010.06.28 04:50:58.
