data_PCOD8123758
_publ_section_title
;
Structure prediction by ZEFSAII (Michael W. Deem and Ramdas Pophale) SiO2 
 PCOD8123758
Probable space group: P 21/C
;
_chemical_formula_sum "Si O2"
_cell_formula_units_Z 24
_cell_length_a 6.626771
_cell_length_b 8.871949
_cell_length_c 26.171525
_cell_angle_alpha 90.000000
_cell_angle_beta 136.157822
_cell_angle_gamma 90.000000
_cell_volume 1065.808324
_symmetry_space_group_name_H-M "P 21/C"
_symmetry_group_IT_number 14
_symmetry_cell_setting 'monoclinic'
loop_
_space_group_symop_operation_xyz
x,y,z
-x,1/2+y,1/2-z
-x,-y,-z
x,1/2-y,1/2+z
loop_
_atom_site_type_symbol
_atom_site_label
_atom_site_fract_x
_atom_site_fract_y
_atom_site_fract_z
Si Si1 0.901413 0.206433 0.691694
Si Si2 0.186693 0.611742 0.228255
Si Si3 0.130850 0.384911 0.639690
Si Si4 0.704136 0.191174 0.508879
Si Si5 0.625119 0.610617 0.956500
Si Si6 0.096490 0.215812 0.911034
O O1 0.967385 0.279491 0.758681
O O2 0.551544 0.165438 0.625896
O O3 0.979785 0.333331 0.664408
O O4 0.104883 0.061005 0.722933
O O5 0.528565 0.635239 0.295555
O O6 0.090894 0.662289 0.154427
O O7 0.997648 0.289727 0.567501
O O8 0.061394 0.558215 0.617353
O O9 0.646327 0.103361 0.552029
O O10 0.421691 0.296069 0.445171
O O11 0.752403 0.060876 0.474529
O O12 0.870105 0.724953 0.023810
#
# Coordination Sequence:
#
# PCOD8123758 Si02
#       6
#     4   4   4   4   4   4
#     4  11  23  42  61  88 127 162 201 251 311 362
#     4  12  24  40  63  91 124 163 205 253 307 360
#     4  11  22  37  65  96 122 154 207 258 303 361
#     4   8  15  33  61  85 116 162 196 239 298 362
#     4   8  16  35  62  83 113 169 200 232 303 369
#     4  10  18  36  64  89 119 163 201 246 306 359
#
# _framework density 22.51812
#
# number of rings (size 3 to 8) (size 9 to 14) (size 15 to 20)
#    1.000    1.000    1.667    3.500    0.000    0.000 
#    0.000    3.333    3.667    0.000    0.000    0.000 
#    0.000    0.000    0.000    0.000    0.000    0.000 
#
# Total GULP energy -297399.862886 kJ/mol
# GULP energy per Si atom -12391.660954 kJ/mol
# Density = 2.246687 g / cm^3
# Si number density = 22.518120 Si / 1000 Ang^3
#
#
#
# Elastic Constant Matrix: (Units=GPa)
#
#
# Indices 1 2 3 4 5 6 
#
# 1 27.9459 15.1434 24.9336 0.0000 16.0580 0.0000
# 2 15.1434 77.8971 13.7429 0.0000 7.0939 0.0000
# 3 24.9336 13.7429 98.5567 0.0000 30.2470 0.0000
# 4 0.0000 0.0000 0.0000 56.6185 0.0000 -15.3523
# 5 16.0580 7.0939 30.2470 0.0000 34.0884 0.0000
# 6 0.0000 0.0000 0.0000 -15.3523 0.0000 74.8147
#
#
#
# Elastic Compliance Matrix: (Units=1/GPa)
#
#
# Indices 1 2 3 4 5 6 
#
# 1 0.057876 -0.008180 -0.007773 0.000000 -0.018664 0.000000
# 2 -0.008180 0.014375 -0.000274 0.000000 0.001105 0.000000
# 3 -0.007773 -0.000274 0.015130 0.000000 -0.009706 0.000000
# 4 0.000000 0.000000 0.000000 0.018703 0.000000 0.003838
# 5 -0.018664 0.001105 -0.009706 0.000000 0.046510 0.000000
# 6 0.000000 0.000000 0.000000 0.003838 0.000000 0.014154
#
#
# Mechanical properties :
#
#
# Convention : Reuss Voigt Hill
#
# Bulk Modulus (GPa) = 18.20621 34.67106 26.43864
# Shear Modulus (GPa) = 22.98718 43.14298 33.06508
#
# Velocity S-wave (km/s) = 3.19851 4.38187 3.83610
# Velocity P-wave (km/s) = 4.66297 6.40558 5.60245
#
# Compressibility (1/GPa) = 0.05492631
#
# Stress axis : x y z
#
# Youngs Moduli (GPa) = 17.27826 69.56314 66.09352
#
# Poissons Ratio (x) = 0.56904 0.51376
# Poissons Ratio (y) = 0.14134 0.01813
# Poissons Ratio (z) = 0.13431 0.01908
#
# Static dielectric constant tensor:
#      x y z
#    x 3.515130 0.000000 0.100340 
#    y 0.000000 4.017510 0.000000 
#    z 0.100340 0.000000 4.300200 
# 
# 
# High freq. dielectric constant tensor:
#      x y z
#    x 1.846410 0.000000 0.016460 
#    y 0.000000 1.890750 0.000000 
#    z 0.016460 0.000000 1.900850 
# 
# From -- ./inp_files/79370.got.cif
#   From: 2010.03.12/outbox.cif.g09.slc.cpg/sg14_40_cif.got.tgz:79370.got - 2010.03.31 13:35:05.
