data_PCOD8123269
_publ_section_title
;
Structure prediction by ZEFSAII (Michael W. Deem and Ramdas Pophale) SiO2 
 PCOD8123269
Probable space group: P 21/C
;
_chemical_formula_sum "Si O2"
_cell_formula_units_Z 28
_cell_length_a 25.350309
_cell_length_b 12.374528
_cell_length_c 13.637871
_cell_angle_alpha 90.000000
_cell_angle_beta 22.409860
_cell_angle_gamma 90.000000
_cell_volume 1630.966158
_symmetry_space_group_name_H-M "P 21/C"
_symmetry_group_IT_number 14
_symmetry_cell_setting 'monoclinic'
loop_
_space_group_symop_operation_xyz
x,y,z
-x,1/2+y,1/2-z
-x,-y,-z
x,1/2-y,1/2+z
loop_
_atom_site_type_symbol
_atom_site_label
_atom_site_fract_x
_atom_site_fract_y
_atom_site_fract_z
Si Si1 0.328302 0.779945 0.990229
Si Si2 0.652190 0.538340 0.765691
Si Si3 0.571857 0.845987 0.710616
Si Si4 0.160384 0.979339 0.235531
Si Si5 0.635874 0.445257 0.997886
Si Si6 0.659419 0.638399 0.468643
Si Si7 0.560044 0.728784 0.446105
O O1 0.193761 0.855200 0.208030
O O2 0.429387 0.837634 0.894563
O O3 0.280890 0.661228 0.109056
O O4 0.411577 0.766032 0.744735
O O5 0.764813 0.501954 0.494656
O O6 0.656270 0.667665 0.763729
O O7 0.500000 0.500000 0.000000
O O8 0.700763 0.488849 0.785851
O O9 0.641401 0.962509 0.572023
O O10 0.678675 0.754761 0.488148
O O11 0.538058 0.835850 0.883432
O O12 0.211397 0.061407 0.232404
O O13 0.000000 0.000000 0.500000
O O14 0.477187 0.413489 0.247730
O O15 0.638053 0.650170 0.388701
#
# Coordination Sequence:
#
# PCOD8123269 Si02
#       7
#     4   4   4   4   4   4   4
#     4  10  21  33  51  89 117 139 193 229 286 338
#     4  12  16  34  61  83 103 149 196 221 279 335
#     4  10  16  31  57  90 114 135 179 253 284 316
#     4  12  24  39  56  81 118 151 190 234 276 340
#     4  10  18  32  57  86 114 135 185 249 275 332
#     4  10  19  33  52  86 115 136 189 233 275 332
#     4  10  18  29  60  88 111 144 185 236 290 327
#
# _framework density 17.167738
#
# number of rings (size 3 to 8) (size 9 to 14) (size 15 to 20)
#    0.000    1.714    8.571    0.857    0.000    2.286 
#    0.000    1.429    0.000    0.857    0.000    0.000 
#    0.000    0.000    0.000    0.000    0.000    0.000 
#
# Total GULP energy -347136.890362 kJ/mol
# GULP energy per Si atom -12397.746084 kJ/mol
# Density = 1.712866 g / cm^3
# Si number density = 17.167738 Si / 1000 Ang^3
#
#
#
# Elastic Constant Matrix: (Units=GPa)
#
#
# Indices 1 2 3 4 5 6 
#
# 1 110.9660 47.1420 46.5550 0.0000 18.9532 0.0000
# 2 47.1420 129.9734 40.2855 0.0000 -4.0775 0.0000
# 3 46.5550 40.2855 78.4737 0.0000 -2.0305 0.0000
# 4 0.0000 0.0000 0.0000 17.2707 0.0000 0.4208
# 5 18.9532 -4.0775 -2.0305 0.0000 23.8242 0.0000
# 6 0.0000 0.0000 0.0000 0.4208 0.0000 34.0041
#
#
#
# Elastic Compliance Matrix: (Units=1/GPa)
#
#
# Indices 1 2 3 4 5 6 
#
# 1 0.016630 -0.003942 -0.008220 0.000000 -0.014605 0.000000
# 2 -0.003942 0.010117 -0.002735 0.000000 0.004635 0.000000
# 3 -0.008220 -0.002735 0.019223 0.000000 0.007709 0.000000
# 4 0.000000 0.000000 0.000000 0.057919 0.000000 -0.000717
# 5 -0.014605 0.004635 0.007709 0.000000 0.055043 0.000000
# 6 0.000000 0.000000 0.000000 -0.000717 0.000000 0.029417
#
#
# Mechanical properties :
#
#
# Convention : Reuss Voigt Hill
#
# Bulk Modulus (GPa) = 61.82098 65.26423 63.54261
# Shear Modulus (GPa) = 22.36789 27.38182 24.87486
#
# Velocity S-wave (km/s) = 3.61349 3.99802 3.81061
# Velocity P-wave (km/s) = 7.31423 7.70782 7.51360
#
# Compressibility (1/GPa) = 0.01617574
#
# Stress axis : x y z
#
# Youngs Moduli (GPa) = 60.13377 98.84535 52.02073
#
# Poissons Ratio (x) = 0.38966 0.42760
# Poissons Ratio (y) = 0.23705 0.14228
# Poissons Ratio (z) = 0.49429 0.27034
#
# Static dielectric constant tensor:
#      x y z
#    x 2.386260 0.000000 -2.666480 
#    y 0.000000 3.561760 0.000000 
#    z -2.666480 0.000000 -7.058220 
# 
# 
# High freq. dielectric constant tensor:
#      x y z
#    x 1.663910 0.000000 0.029330 
#    y 0.000000 1.684640 0.000000 
#    z 0.029330 0.000000 1.595800 
# 
# From -- ./inp_files/51984.got.cif
#   From: 2010.03.12/outbox.cif.g09.slc.cpg/sg14_26_cif.got.tgz:51984.got - 2010.03.31 13:35:05.
