data_PCOD8123342
_publ_section_title
;
Structure prediction by ZEFSAII (Michael W. Deem and Ramdas Pophale) SiO2 
 PCOD8123342
Probable space group: P 21/C
;
_chemical_formula_sum "Si O2"
_cell_formula_units_Z 24
_cell_length_a 16.793935
_cell_length_b 7.923226
_cell_length_c 17.795817
_cell_angle_alpha 90.000000
_cell_angle_beta 147.886130
_cell_angle_gamma 90.000000
_cell_volume 1258.810576
_symmetry_space_group_name_H-M "P 21/C"
_symmetry_group_IT_number 14
_symmetry_cell_setting 'monoclinic'
loop_
_space_group_symop_operation_xyz
x,y,z
-x,1/2+y,1/2-z
-x,-y,-z
x,1/2-y,1/2+z
loop_
_atom_site_type_symbol
_atom_site_label
_atom_site_fract_x
_atom_site_fract_y
_atom_site_fract_z
Si Si1 0.089964 0.841614 0.096682
Si Si2 0.113769 0.713072 0.955011
Si Si3 0.064691 0.340553 0.901018
Si Si4 0.347281 0.552713 0.916186
Si Si5 0.745055 0.361601 0.570504
Si Si6 0.791971 0.772517 0.125017
O O1 0.227604 0.900143 0.257349
O O2 0.965875 0.728364 0.040271
O O3 0.149235 0.747066 0.070421
O O4 0.000000 0.000000 0.000000
O O5 0.150622 0.517606 0.971324
O O6 0.228610 0.826207 0.997322
O O7 0.938243 0.739733 0.795255
O O8 0.165515 0.220648 0.929410
O O9 0.907116 0.345760 0.734801
O O10 0.366560 0.719904 0.984113
O O11 0.302899 0.392492 0.931350
O O12 0.500000 0.500000 0.000000
O O13 0.694565 0.552972 0.553215
#
# Coordination Sequence:
#
# PCOD8123342 Si02
#       6
#     4   4   4   4   4   4
#     4  11  20  33  56  88 112 141 184 238 281 317
#     4  10  17  32  57  86 117 135 184 242 282 321
#     4   9  18  30  55  89 114 140 183 235 284 328
#     4  11  23  39  57  79 117 153 188 224 275 341
#     4   9  19  33  58  84 109 152 187 224 279 337
#     4  10  18  34  57  84 111 147 187 228 277 335
#
# _framework density 19.065617
#
# number of rings (size 3 to 8) (size 9 to 14) (size 15 to 20)
#    0.000    2.000    3.333    1.500    4.667    0.667 
#    0.000    0.000    7.333    0.000    0.000    0.000 
#    0.000    0.000    0.000    0.000    0.000    0.000 
#
# Total GULP energy -297340.715357 kJ/mol
# GULP energy per Si atom -12389.196473 kJ/mol
# Density = 1.902222 g / cm^3
# Si number density = 19.065617 Si / 1000 Ang^3
#
#
#
# Elastic Constant Matrix: (Units=GPa)
#
#
# Indices 1 2 3 4 5 6 
#
# 1 113.6139 50.8956 32.8039 0.0000 -23.4327 0.0000
# 2 50.8956 132.5152 15.8023 0.0000 -0.6851 0.0000
# 3 32.8039 15.8023 27.4218 0.0000 -9.2521 0.0000
# 4 0.0000 0.0000 0.0000 17.1518 0.0000 -5.9347
# 5 -23.4327 -0.6851 -9.2521 0.0000 27.9243 0.0000
# 6 0.0000 0.0000 0.0000 -5.9347 0.0000 31.8090
#
#
#
# Elastic Compliance Matrix: (Units=1/GPa)
#
#
# Indices 1 2 3 4 5 6 
#
# 1 0.017064 -0.004778 -0.014488 0.000000 0.009402 0.000000
# 2 -0.004778 0.009498 -0.001162 0.000000 -0.004161 0.000000
# 3 -0.014488 -0.001162 0.056695 0.000000 0.006598 0.000000
# 4 0.000000 0.000000 0.000000 0.062327 0.000000 0.011628
# 5 0.009402 -0.004161 0.006598 0.000000 0.045785 0.000000
# 6 0.000000 0.000000 0.000000 0.011628 0.000000 0.033607
#
#
# Mechanical properties :
#
#
# Convention : Reuss Voigt Hill
#
# Bulk Modulus (GPa) = 23.58393 52.50606 38.04499
# Shear Modulus (GPa) = 17.85931 26.98030 22.41980
#
# Velocity S-wave (km/s) = 3.06392 3.76590 3.43290
# Velocity P-wave (km/s) = 4.99135 6.81974 5.97588
#
# Compressibility (1/GPa) = 0.04240176
#
# Stress axis : x y z
#
# Youngs Moduli (GPa) = 58.60195 105.28134 17.63826
#
# Poissons Ratio (x) = 0.50300 0.25554
# Poissons Ratio (y) = 0.27998 0.02050
# Poissons Ratio (z) = 0.84903 0.12236
#
# Static dielectric constant tensor:
#      x y z
#    x 3.104340 0.000000 0.053190 
#    y 0.000000 4.125080 0.000000 
#    z 0.053190 0.000000 2.686710 
# 
# 
# High freq. dielectric constant tensor:
#      x y z
#    x 1.741400 0.000000 -0.032340 
#    y 0.000000 1.764750 0.000000 
#    z -0.032340 0.000000 1.683310 
# 
# From -- ./inp_files/46596.got.cif
#   From: 2010.03.12/outbox.cif.g09.slc.cpg/sg14_24_cif.got.tgz:46596.got - 2010.03.31 13:35:05.
