data_PCOD8123539
_publ_section_title
;
Structure prediction by ZEFSAII (Michael W. Deem and Ramdas Pophale) SiO2 
 PCOD8123539
Probable space group: P 21/C
;
_chemical_formula_sum "Si O2"
_cell_formula_units_Z 20
_cell_length_a 22.901118
_cell_length_b 8.604553
_cell_length_c 5.298462
_cell_angle_alpha 90.000000
_cell_angle_beta 76.241800
_cell_angle_gamma 90.000000
_cell_volume 1014.125744
_symmetry_space_group_name_H-M "P 21/C"
_symmetry_group_IT_number 14
_symmetry_cell_setting 'monoclinic'
loop_
_space_group_symop_operation_xyz
x,y,z
-x,1/2+y,1/2-z
-x,-y,-z
x,1/2-y,1/2+z
loop_
_atom_site_type_symbol
_atom_site_label
_atom_site_fract_x
_atom_site_fract_y
_atom_site_fract_z
Si Si1 0.754971 0.662752 0.739371
Si Si2 0.822397 0.344620 0.690468
Si Si3 0.566879 0.562856 0.431246
Si Si4 0.038740 0.653646 0.464467
Si Si5 0.615757 0.900071 0.381008
O O1 0.778606 0.744731 0.969740
O O2 0.780194 0.491097 0.699531
O O3 0.683275 0.660136 0.811568
O O4 0.807178 0.270561 0.976555
O O5 0.891703 0.395828 0.607485
O O6 0.500000 0.500000 0.500000
O O7 0.571225 0.750611 0.426737
O O8 0.601103 0.498838 0.646282
O O9 0.601098 0.498808 0.145838
O O10 0.022389 0.753272 0.234635
O O11 0.000000 0.500000 0.500000
#
# Coordination Sequence:
#
# PCOD8123539 Si02
#       5
#     4   4   4   4   4
#     4  12  21  38  66  89 115 159 209 256 292 359
#     4  10  23  41  60  88 129 167 197 250 315 358
#     4  10  18  32  56  73 104 138 174 225 302 350
#     4  10  21  38  61  89 127 165 204 254 303 356
#     4  10  19  35  53  79 105 140 182 245 291 338
#
# _framework density 19.721420999999999
#
# number of rings (size 3 to 8) (size 9 to 14) (size 15 to 20)
#    0.000    1.600    4.000    2.400    0.000    1.600 
#    0.000    0.000   26.400    0.000    0.000    0.000 
#    0.000    0.000    0.000    0.000    0.000    0.000 
#
# Total GULP energy -247937.076504 kJ/mol
# GULP energy per Si atom -12396.853825 kJ/mol
# Density = 1.967653 g / cm^3
# Si number density = 19.721421 Si / 1000 Ang^3
#
#
#
# Elastic Constant Matrix: (Units=GPa)
#
#
# Indices 1 2 3 4 5 6 
#
# 1 64.2056 53.8128 36.4044 0.0000 5.0869 0.0000
# 2 53.8128 77.1306 23.9183 0.0000 -0.9058 0.0000
# 3 36.4044 23.9183 176.9652 0.0000 34.1719 0.0000
# 4 0.0000 0.0000 0.0000 22.0696 0.0000 -0.9664
# 5 5.0869 -0.9058 34.1719 0.0000 24.3435 0.0000
# 6 0.0000 0.0000 0.0000 -0.9664 0.0000 41.3704
#
#
#
# Elastic Compliance Matrix: (Units=1/GPa)
#
#
# Indices 1 2 3 4 5 6 
#
# 1 0.041324 -0.027646 -0.003976 0.000000 -0.004083 0.000000
# 2 -0.027646 0.032350 -0.000046 0.000000 0.007045 0.000000
# 3 -0.003976 -0.000046 0.008663 0.000000 -0.011331 0.000000
# 4 0.000000 0.000000 0.000000 0.045358 0.000000 0.001060
# 5 -0.004083 0.007045 -0.011331 0.000000 0.058100 0.000000
# 6 0.000000 0.000000 0.000000 0.001060 0.000000 0.024197
#
#
# Mechanical properties :
#
#
# Convention : Reuss Voigt Hill
#
# Bulk Modulus (GPa) = 52.62623 60.73024 56.67824
# Shear Modulus (GPa) = 17.87885 31.16776 24.52330
#
# Velocity S-wave (km/s) = 3.01420 3.97974 3.53013
# Velocity P-wave (km/s) = 6.23350 7.20962 6.73926
#
# Compressibility (1/GPa) = 0.01900193
#
# Stress axis : x y z
#
# Youngs Moduli (GPa) = 24.19917 30.91190 115.43368
#
# Poissons Ratio (x) = 0.85459 0.45896
# Poissons Ratio (y) = 0.66901 0.00525
# Poissons Ratio (z) = 0.09622 0.00141
#
# Static dielectric constant tensor:
#      x y z
#    x 3.519360 0.000000 0.288640 
#    y 0.000000 3.153760 0.000000 
#    z 0.288640 0.000000 4.655590 
# 
# 
# High freq. dielectric constant tensor:
#      x y z
#    x 1.762060 0.000000 0.012840 
#    y 0.000000 1.732680 0.000000 
#    z 0.012840 0.000000 1.809780 
# 
# From -- ./inp_files/4312.got.cif
#   From: 2010.03.12/outbox.cif.g09.slc.cpg/sg14_3_cif.got.tgz:4312.got - 2010.03.31 13:35:05.
