data_PCOD8123687
_publ_section_title
;
Structure prediction by ZEFSAII (Michael W. Deem and Ramdas Pophale) SiO2 
 PCOD8123687
Probable space group: P 21/C
;
_chemical_formula_sum "Si O2"
_cell_formula_units_Z 28
_cell_length_a 7.642768
_cell_length_b 20.486485
_cell_length_c 11.130977
_cell_angle_alpha 90.000000
_cell_angle_beta 125.020764
_cell_angle_gamma 90.000000
_cell_volume 1427.268511
_symmetry_space_group_name_H-M "P 21/C"
_symmetry_group_IT_number 14
_symmetry_cell_setting 'monoclinic'
loop_
_space_group_symop_operation_xyz
x,y,z
-x,1/2+y,1/2-z
-x,-y,-z
x,1/2-y,1/2+z
loop_
_atom_site_type_symbol
_atom_site_label
_atom_site_fract_x
_atom_site_fract_y
_atom_site_fract_z
Si Si1 0.648303 0.924937 0.953418
Si Si2 0.935472 0.228645 0.530329
Si Si3 0.259940 0.304611 0.981554
Si Si4 0.730548 0.426466 0.520718
Si Si5 0.556197 0.187754 0.805115
Si Si6 0.161479 0.138986 0.194596
Si Si7 0.162376 0.177732 0.819541
O O1 0.413691 0.912281 0.917790
O O2 0.665296 0.892025 0.828970
O O3 0.822609 0.893932 0.115302
O O4 0.697867 0.000796 0.960544
O O5 0.699517 0.248214 0.391956
O O6 0.052413 0.178777 0.483078
O O7 0.066246 0.295602 0.601451
O O8 0.935931 0.190898 0.661168
O O9 0.488529 0.313353 0.138278
O O10 0.273724 0.347229 0.866496
O O11 0.210245 0.228189 0.943705
O O12 0.672067 0.379261 0.386440
O O13 0.976349 0.413985 0.649229
O O14 0.337715 0.194233 0.789265
#
# Coordination Sequence:
#
# PCOD8123687 Si02
#       7
#     4   4   4   4   4   4   4
#     4  10  18  35  59  78 111 139 189 227 262 326
#     4   9  18  33  52  76 106 137 178 215 273 329
#     4  10  19  33  52  78 110 139 172 224 279 318
#     4   9  20  35  57  81 101 150 187 219 270 319
#     4   9  19  34  53  76 108 140 177 226 267 324
#     4  10  19  34  54  78 108 140 180 224 269 320
#     4   9  18  32  52  78 102 140 176 221 275 314
#
# _framework density 19.617894
#
# number of rings (size 3 to 8) (size 9 to 14) (size 15 to 20)
#    0.000    2.571    1.429    0.429    0.000    4.571 
#    0.000    0.714    0.000   15.429    0.000    0.000 
#    0.000    0.000    0.000    0.000    0.000    0.000 
#
# Total GULP energy -346889.663300 kJ/mol
# GULP energy per Si atom -12388.916546 kJ/mol
# Density = 1.957324 g / cm^3
# Si number density = 19.617894 Si / 1000 Ang^3
#
#
#
# Elastic Constant Matrix: (Units=GPa)
#
#
# Indices 1 2 3 4 5 6 
#
# 1 60.1303 15.6830 42.1471 0.0000 -10.2606 0.0000
# 2 15.6830 39.9550 29.8341 0.0000 -6.6854 0.0000
# 3 42.1471 29.8341 144.9565 0.0000 -7.1744 0.0000
# 4 0.0000 0.0000 0.0000 23.0316 0.0000 -4.8910
# 5 -10.2606 -6.6854 -7.1744 0.0000 22.2329 0.0000
# 6 0.0000 0.0000 0.0000 -4.8910 0.0000 26.6140
#
#
#
# Elastic Compliance Matrix: (Units=1/GPa)
#
#
# Indices 1 2 3 4 5 6 
#
# 1 0.022709 -0.003529 -0.005498 0.000000 0.007645 0.000000
# 2 -0.003529 0.031247 -0.005102 0.000000 0.006121 0.000000
# 3 -0.005498 -0.005102 0.009497 0.000000 -0.001007 0.000000
# 4 0.000000 0.000000 0.000000 0.045182 0.000000 0.008303
# 5 0.007645 0.006121 -0.001007 0.000000 0.050022 0.000000
# 6 0.000000 0.000000 0.000000 0.008303 0.000000 0.039100
#
#
# Mechanical properties :
#
#
# Convention : Reuss Voigt Hill
#
# Bulk Modulus (GPa) = 28.41287 46.70779 37.56033
# Shear Modulus (GPa) = 21.03059 24.86755 22.94907
#
# Velocity S-wave (km/s) = 3.27771 3.56419 3.42395
# Velocity P-wave (km/s) = 5.37020 6.38736 5.90074
#
# Compressibility (1/GPa) = 0.03519532
#
# Stress axis : x y z
#
# Youngs Moduli (GPa) = 44.03467 32.00281 105.29096
#
# Poissons Ratio (x) = 0.11294 0.57891
# Poissons Ratio (y) = 0.15541 0.53720
# Poissons Ratio (z) = 0.24211 0.16328
#
# Static dielectric constant tensor:
#      x y z
#    x 3.697740 0.000000 -0.157040 
#    y 0.000000 3.405030 0.000000 
#    z -0.157040 0.000000 3.917260 
# 
# 
# High freq. dielectric constant tensor:
#      x y z
#    x 1.766240 0.000000 -0.014720 
#    y 0.000000 1.736770 0.000000 
#    z -0.014720 0.000000 1.756240 
# 
# From -- ./inp_files/26582.got.cif
#   From: 2010.03.12/outbox.cif.g09.slc.cpg/sg14_14_cif.got.tgz:26582.got - 2010.03.31 13:35:05.
