data_PCOD8123266
_publ_section_title
;
Structure prediction by ZEFSAII (Michael W. Deem and Ramdas Pophale) SiO2 
 PCOD8123266
Probable space group: P 21/C
;
_chemical_formula_sum "Si O2"
_cell_formula_units_Z 32
_cell_length_a 12.812991
_cell_length_b 14.565454
_cell_length_c 12.627831
_cell_angle_alpha 90.000000
_cell_angle_beta 35.460374
_cell_angle_gamma 90.000000
_cell_volume 1367.212270
_symmetry_space_group_name_H-M "P 21/C"
_symmetry_group_IT_number 14
_symmetry_cell_setting 'monoclinic'
loop_
_space_group_symop_operation_xyz
x,y,z
-x,1/2+y,1/2-z
-x,-y,-z
x,1/2-y,1/2+z
loop_
_atom_site_type_symbol
_atom_site_label
_atom_site_fract_x
_atom_site_fract_y
_atom_site_fract_z
Si Si1 0.654218 0.796689 0.596746
Si Si2 0.337048 0.480518 0.315877
Si Si3 0.307255 0.336017 0.705817
Si Si4 0.966956 0.656393 0.363801
Si Si5 0.715121 0.624004 0.834732
Si Si6 0.919619 0.152822 0.454829
Si Si7 0.105612 0.646098 0.470185
Si Si8 0.462585 0.619577 0.680507
O O1 0.621073 0.850179 0.734245
O O2 0.644474 0.876746 0.514378
O O3 0.505777 0.717977 0.698940
O O4 0.850974 0.747978 0.431990
O O5 0.400712 0.442159 0.147189
O O6 0.283182 0.587364 0.351438
O O7 0.482755 0.464045 0.287267
O O8 0.162621 0.423726 0.492427
O O9 0.300589 0.227812 0.692889
O O10 0.439046 0.387664 0.514681
O O11 0.104539 0.374821 0.861012
O O12 0.105957 0.673911 0.344810
O O13 0.073487 0.620451 0.172967
O O14 0.923588 0.591809 0.654463
O O15 0.885135 0.261014 0.472180
O O16 0.752114 0.107879 0.656108
#
# Coordination Sequence:
#
# PCOD8123266 Si02
#       8
#     4   4   4   4   4   4   4   4
#     4  10  16  32  54  79 115 148 200 241 279 333
#     4  10  18  35  56  85 126 150 181 244 309 335
#     4  10  17  34  54  81 112 148 200 242 275 338
#     4  10  16  31  54  84 114 153 189 235 281 348
#     4   9  15  28  53  82 111 152 186 231 284 346
#     4  11  20  34  57  86 116 152 201 236 287 346
#     4  10  19  31  57  89 117 152 188 243 300 341
#     4  10  21  33  56  83 117 155 192 244 290 347
#
# _framework density 23.405290999999998
#
# number of rings (size 3 to 8) (size 9 to 14) (size 15 to 20)
#    0.000    2.000   10.000    1.500    0.000    1.000 
#    0.000    0.625    8.250    0.750    3.250    4.375 
#    0.000    0.000    0.000    0.000    0.000    0.000 
#
# Total GULP energy -396650.301021 kJ/mol
# GULP energy per Si atom -12395.321907 kJ/mol
# Density = 2.335202 g / cm^3
# Si number density = 23.405291 Si / 1000 Ang^3
#
#
#
# Elastic Constant Matrix: (Units=GPa)
#
#
# Indices 1 2 3 4 5 6 
#
# 1 81.7767 -1.8145 43.4907 0.0000 39.9674 0.0000
# 2 -1.8145 23.8731 -5.5449 0.0000 9.2175 0.0000
# 3 43.4907 -5.5449 114.6936 0.0000 12.5488 0.0000
# 4 0.0000 0.0000 0.0000 12.2868 0.0000 3.6210
# 5 39.9674 9.2175 12.5488 0.0000 34.8207 0.0000
# 6 0.0000 0.0000 0.0000 3.6210 0.0000 12.4817
#
#
#
# Elastic Compliance Matrix: (Units=1/GPa)
#
#
# Indices 1 2 3 4 5 6 
#
# 1 0.042837 0.020785 -0.009637 0.000000 -0.051198 0.000000
# 2 0.020785 0.058349 -0.000792 0.000000 -0.039018 0.000000
# 3 -0.009637 -0.000792 0.011557 0.000000 0.007106 0.000000
# 4 0.000000 0.000000 0.000000 0.088997 0.000000 -0.025818
# 5 -0.051198 -0.039018 0.007106 0.000000 0.095252 0.000000
# 6 0.000000 0.000000 0.000000 -0.025818 0.000000 0.087607
#
#
# Mechanical properties :
#
#
# Convention : Reuss Voigt Hill
#
# Bulk Modulus (GPa) = 7.49302 32.51175 20.00239
# Shear Modulus (GPa) = 12.24372 24.19864 18.22118
#
# Velocity S-wave (km/s) = 2.28966 3.21891 2.79320
# Velocity P-wave (km/s) = 3.19350 5.26651 4.35514
#
# Compressibility (1/GPa) = 0.13345750
#
# Stress axis : x y z
#
# Youngs Moduli (GPa) = 23.34412 17.13822 86.52483
#
# Poissons Ratio (x) = -0.35623 0.83383
# Poissons Ratio (y) = -0.48522 0.06850
# Poissons Ratio (z) = 0.22497 0.01357
#
# Static dielectric constant tensor:
#      x y z
#    x 4.536890 0.000000 0.304770 
#    y 0.000000 3.701600 0.000000 
#    z 0.304770 0.000000 4.260700 
# 
# 
# High freq. dielectric constant tensor:
#      x y z
#    x 1.924200 0.000000 0.012420 
#    y 0.000000 1.887060 0.000000 
#    z 0.012420 0.000000 1.917130 
# 
# From -- ./inp_files/47536.got.cif
#   From: 2010.03.12/outbox.cif.g09.slc.cpg/sg14_24_cif.got.tgz:47536.got - 2010.03.31 13:35:05.
