data_PCOD8123835
_publ_section_title
;
Structure prediction by ZEFSAII (Michael W. Deem and Ramdas Pophale) SiO2 
 PCOD8123835
Probable space group: P 21/C
;
_chemical_formula_sum "Si O2"
_cell_formula_units_Z 32
_cell_length_a 11.706073
_cell_length_b 8.791420
_cell_length_c 19.111676
_cell_angle_alpha 90.000000
_cell_angle_beta 132.192324
_cell_angle_gamma 90.000000
_cell_volume 1457.221094
_symmetry_space_group_name_H-M "P 21/C"
_symmetry_group_IT_number 14
_symmetry_cell_setting 'monoclinic'
loop_
_space_group_symop_operation_xyz
x,y,z
-x,1/2+y,1/2-z
-x,-y,-z
x,1/2-y,1/2+z
loop_
_atom_site_type_symbol
_atom_site_label
_atom_site_fract_x
_atom_site_fract_y
_atom_site_fract_z
Si Si1 0.088855 0.824220 0.335633
Si Si2 0.269911 0.333625 0.339040
Si Si3 0.697750 0.340738 0.679655
Si Si4 0.978728 0.771260 0.432376
Si Si5 0.083993 0.876973 0.611332
Si Si6 0.343233 0.331910 0.727869
Si Si7 0.227038 0.381010 0.944326
Si Si8 0.524350 0.868177 0.341108
O O1 0.160391 0.714681 0.308595
O O2 0.912540 0.866063 0.245009
O O3 0.086972 0.739048 0.410075
O O4 0.198798 0.971316 0.384567
O O5 0.355293 0.497198 0.373952
O O6 0.341153 0.242045 0.303686
O O7 0.303642 0.246508 0.425632
O O8 0.557431 0.224772 0.629305
O O9 0.757024 0.352045 0.783574
O O10 0.084250 0.762833 0.544826
O O11 0.833663 0.655154 0.372964
O O12 0.915114 0.944338 0.405727
O O13 0.938601 0.824767 0.597625
O O14 0.437532 0.235063 0.710030
O O15 0.420939 0.495701 0.768726
O O16 0.324297 0.423958 0.054200
#
# Coordination Sequence:
#
# PCOD8123835 Si02
#       8
#     4   4   4   4   4   4   4   4
#     4  10  20  37  66  97 125 166 222 268 328 380
#     4  11  21  40  69  93 129 167 221 277 318 379
#     4  12  23  40  63 101 128 174 214 272 332 385
#     4   9  19  37  67  96 121 168 218 273 313 380
#     4  10  18  38  70  95 123 166 226 267 321 380
#     4  11  23  43  63  95 129 177 215 268 328 389
#     4  11  22  43  66  96 127 177 218 266 325 396
#     4  12  28  42  67  93 138 174 217 263 333 407
#
# _framework density 21.959603999999999
#
# number of rings (size 3 to 8) (size 9 to 14) (size 15 to 20)
#    0.000    1.250    6.250    1.500    0.000    3.500 
#    0.000    3.125    0.000    0.000    0.000    0.000 
#    0.000    0.000    0.000    0.000    0.000    0.000 
#
# Total GULP energy -396632.215363 kJ/mol
# GULP energy per Si atom -12394.756730 kJ/mol
# Density = 2.190962 g / cm^3
# Si number density = 21.959604 Si / 1000 Ang^3
#
#
#
# Elastic Constant Matrix: (Units=GPa)
#
#
# Indices 1 2 3 4 5 6 
#
# 1 92.9072 42.4744 13.8271 0.0000 -9.2939 0.0000
# 2 42.4744 104.6700 29.3885 0.0000 -5.0272 0.0000
# 3 13.8271 29.3885 85.7305 0.0000 -15.3339 0.0000
# 4 0.0000 0.0000 0.0000 26.7885 0.0000 1.5183
# 5 -9.2939 -5.0272 -15.3339 0.0000 26.9724 0.0000
# 6 0.0000 0.0000 0.0000 1.5183 0.0000 31.8563
#
#
#
# Elastic Compliance Matrix: (Units=1/GPa)
#
#
# Indices 1 2 3 4 5 6 
#
# 1 0.013577 -0.005425 0.000363 0.000000 0.003873 0.000000
# 2 -0.005425 0.012739 -0.003787 0.000000 -0.001648 0.000000
# 3 0.000363 -0.003787 0.014249 0.000000 0.007520 0.000000
# 4 0.000000 0.000000 0.000000 0.037431 0.000000 -0.001784
# 5 0.003873 -0.001648 0.007520 0.000000 0.042378 0.000000
# 6 0.000000 0.000000 0.000000 -0.001784 0.000000 0.031476
#
#
# Mechanical properties :
#
#
# Convention : Reuss Voigt Hill
#
# Bulk Modulus (GPa) = 43.73101 50.52083 47.12592
# Shear Modulus (GPa) = 28.22132 30.29795 29.25964
#
# Velocity S-wave (km/s) = 3.58878 3.71848 3.65421
# Velocity P-wave (km/s) = 6.09344 6.44145 6.26986
#
# Compressibility (1/GPa) = 0.02286707
#
# Stress axis : x y z
#
# Youngs Moduli (GPa) = 73.65277 78.49603 70.17998
#
# Poissons Ratio (x) = 0.42587 -0.02546
# Poissons Ratio (y) = 0.39959 0.26576
# Poissons Ratio (z) = -0.02672 0.29725
#
# Static dielectric constant tensor:
#      x y z
#    x 4.032170 0.000000 -0.250410 
#    y 0.000000 3.731860 0.000000 
#    z -0.250410 0.000000 4.017040 
# 
# 
# High freq. dielectric constant tensor:
#      x y z
#    x 1.872290 0.000000 -0.016940 
#    y 0.000000 1.840340 0.000000 
#    z -0.016940 0.000000 1.859030 
# 
# From -- ./inp_files/67042.got.cif
#   From: 2010.03.12/outbox.cif.g09.slc.cpg/sg14_34_cif.got.tgz:67042.got - 2010.03.31 13:35:05.
