data_PCOD8123727
_publ_section_title
;
Structure prediction by ZEFSAII (Michael W. Deem and Ramdas Pophale) SiO2 
 PCOD8123727
Probable space group: P 21/C
;
_chemical_formula_sum "Si O2"
_cell_formula_units_Z 28
_cell_length_a 15.014569
_cell_length_b 11.425374
_cell_length_c 26.960929
_cell_angle_alpha 90.000000
_cell_angle_beta 162.361500
_cell_angle_gamma 90.000000
_cell_volume 1401.443420
_symmetry_space_group_name_H-M "P 21/C"
_symmetry_group_IT_number 14
_symmetry_cell_setting 'monoclinic'
loop_
_space_group_symop_operation_xyz
x,y,z
-x,1/2+y,1/2-z
-x,-y,-z
x,1/2-y,1/2+z
loop_
_atom_site_type_symbol
_atom_site_label
_atom_site_fract_x
_atom_site_fract_y
_atom_site_fract_z
Si Si1 0.075710 0.506080 0.965598
Si Si2 0.960600 0.591363 0.703687
Si Si3 0.796619 0.610771 0.230381
Si Si4 0.459669 0.222162 0.501983
Si Si5 0.779544 0.978861 0.563483
Si Si6 0.930520 0.235668 0.031277
Si Si7 0.644919 0.623613 0.800891
O O1 0.280485 0.413166 0.103260
O O2 0.032841 0.460216 0.886996
O O3 0.219524 0.636682 0.039787
O O4 0.757883 0.517645 0.824617
O O5 0.995991 0.496211 0.678690
O O6 0.014972 0.530538 0.785034
O O7 0.629975 0.644959 0.530165
O O8 0.192542 0.699924 0.820252
O O9 0.716188 0.692915 0.141552
O O10 0.961165 0.687839 0.358387
O O11 0.496955 0.562524 0.094788
O O12 0.349867 0.144079 0.488906
O O13 0.193009 0.255504 0.130473
O O14 0.702633 0.142546 0.887650
#
# Coordination Sequence:
#
# PCOD8123727 Si02
#       7
#     4   4   4   4   4   4   4
#     4   9  19  37  57  78 110 137 184 224 277 307
#     4   9  18  34  50  79 110 144 181 221 261 328
#     4   9  18  32  57  80 106 144 188 213 263 332
#     4   9  18  33  50  76 113 142 176 221 271 308
#     4   9  17  34  55  74 106 147 177 221 268 325
#     4  10  18  36  57  80 104 141 176 219 278 313
#     4   9  21  36  57  81 108 135 181 236 264 325
#
# _framework density 19.979400999999999
#
# number of rings (size 3 to 8) (size 9 to 14) (size 15 to 20)
#    0.857    2.000    0.000    3.429    0.000    1.143 
#    2.571    8.571    0.000    0.000    0.000    0.000 
#    0.000    0.000    0.000    0.000    0.000    0.000 
#
# Total GULP energy -346874.194526 kJ/mol
# GULP energy per Si atom -12388.364090 kJ/mol
# Density = 1.993393 g / cm^3
# Si number density = 19.979401 Si / 1000 Ang^3
#
#
#
# Elastic Constant Matrix: (Units=GPa)
#
#
# Indices 1 2 3 4 5 6 
#
# 1 102.0716 30.7010 17.4010 0.0000 -11.8609 0.0000
# 2 30.7010 52.1764 22.2248 0.0000 -13.5061 0.0000
# 3 17.4010 22.2248 49.3756 0.0000 -10.4573 0.0000
# 4 0.0000 0.0000 0.0000 25.9053 0.0000 3.9088
# 5 -11.8609 -13.5061 -10.4573 0.0000 15.6691 0.0000
# 6 0.0000 0.0000 0.0000 3.9088 0.0000 34.9975
#
#
#
# Elastic Compliance Matrix: (Units=1/GPa)
#
#
# Indices 1 2 3 4 5 6 
#
# 1 0.012115 -0.005829 -0.000894 0.000000 0.003550 0.000000
# 2 -0.005829 0.030263 -0.008126 0.000000 0.016250 0.000000
# 3 -0.000894 -0.008126 0.026319 0.000000 0.009884 0.000000
# 4 0.000000 0.000000 0.000000 0.039264 0.000000 -0.004385
# 5 0.003550 0.016250 0.009884 0.000000 0.087110 0.000000
# 6 0.000000 0.000000 0.000000 -0.004385 0.000000 0.029063
#
#
# Mechanical properties :
#
#
# Convention : Reuss Voigt Hill
#
# Bulk Modulus (GPa) = 25.64163 38.25303 31.94733
# Shear Modulus (GPa) = 18.73831 24.20083 21.46957
#
# Velocity S-wave (km/s) = 3.06581 3.48413 3.28164
# Velocity P-wave (km/s) = 5.03926 5.94755 5.51215
#
# Compressibility (1/GPa) = 0.03899908
#
# Stress axis : x y z
#
# Youngs Moduli (GPa) = 82.54108 33.04321 37.99530
#
# Poissons Ratio (x) = 0.19261 0.03397
# Poissons Ratio (y) = 0.48113 0.30876
# Poissons Ratio (z) = 0.07380 0.26852
#
# Static dielectric constant tensor:
#      x y z
#    x 3.547410 0.000000 0.107090 
#    y 0.000000 3.464220 0.000000 
#    z 0.107090 0.000000 3.299850 
# 
# 
# High freq. dielectric constant tensor:
#      x y z
#    x 1.778600 0.000000 0.005960 
#    y 0.000000 1.764120 0.000000 
#    z 0.005960 0.000000 1.747990 
# 
# From -- ./inp_files/77566.got.cif
#   From: 2010.03.12/outbox.cif.g09.slc.cpg/sg14_39_cif.got.tgz:77566.got - 2010.03.31 13:35:05.
