data_PCOD8123739
_publ_section_title
;
Structure prediction by ZEFSAII (Michael W. Deem and Ramdas Pophale) SiO2 
 PCOD8123739
Probable space group: P 21/C
;
_chemical_formula_sum "Si O2"
_cell_formula_units_Z 32
_cell_length_a 9.135418
_cell_length_b 12.485283
_cell_length_c 11.675747
_cell_angle_alpha 90.000000
_cell_angle_beta 63.203369
_cell_angle_gamma 90.000000
_cell_volume 1188.705771
_symmetry_space_group_name_H-M "P 21/C"
_symmetry_group_IT_number 14
_symmetry_cell_setting 'monoclinic'
loop_
_space_group_symop_operation_xyz
x,y,z
-x,1/2+y,1/2-z
-x,-y,-z
x,1/2-y,1/2+z
loop_
_atom_site_type_symbol
_atom_site_label
_atom_site_fract_x
_atom_site_fract_y
_atom_site_fract_z
Si Si1 0.417944 0.963580 0.702686
Si Si2 0.823123 0.355788 0.563712
Si Si3 0.141548 0.273600 0.963669
Si Si4 0.356301 0.342311 0.699743
Si Si5 0.314106 0.629160 0.862226
Si Si6 0.128160 0.019439 0.593524
Si Si7 0.411758 0.164242 0.530104
Si Si8 0.195826 0.533105 0.671935
O O1 0.240078 0.949632 0.826306
O O2 0.557428 0.909800 0.732691
O O3 0.428582 0.889604 0.584209
O O4 0.499845 0.085082 0.663748
O O5 0.011161 0.323235 0.524661
O O6 0.699140 0.256924 0.622364
O O7 0.806159 0.398503 0.441687
O O8 0.060868 0.386030 0.033884
O O9 0.194654 0.285473 0.812276
O O10 0.304455 0.258254 0.983684
O O11 0.469069 0.248642 0.606613
O O12 0.301543 0.425076 0.619342
O O13 0.277523 0.603360 0.743453
O O14 0.180939 0.579103 0.995880
O O15 0.287101 0.064006 0.612738
O O16 0.986190 0.991123 0.731888
#
# Coordination Sequence:
#
# PCOD8123739 Si02
#       8
#     4   4   4   4   4   4   4   4
#     4   9  22  37  54  84 111 155 194 225 288 342
#     4  12  23  32  56  92 117 139 193 255 282 322
#     4   9  18  34  58  86 112 139 188 237 287 338
#     4  10  18  36  60  80 111 149 194 230 276 355
#     4  10  19  40  61  75 117 158 192 235 279 351
#     4   9  16  35  59  85 107 142 193 227 284 341
#     4   8  17  35  59  77 106 154 189 224 278 344
#     4  11  20  31  55  90 109 145 193 238 284 333
#
# _framework density 26.920031999999999
#
# number of rings (size 3 to 8) (size 9 to 14) (size 15 to 20)
#    0.750    1.500    3.750    1.875    0.000    4.000 
#    0.000    0.625    0.000   14.250    0.000    0.000 
#    0.000    0.000    0.000    0.000    0.000    0.000 
#
# Total GULP energy -396526.712788 kJ/mol
# GULP energy per Si atom -12391.459775 kJ/mol
# Density = 2.685876 g / cm^3
# Si number density = 26.920032 Si / 1000 Ang^3
#
#
#
# Elastic Constant Matrix: (Units=GPa)
#
#
# Indices 1 2 3 4 5 6 
#
# 1 94.9035 10.4609 21.2531 0.0000 0.1055 0.0000
# 2 10.4609 100.9045 54.6285 0.0000 14.9893 0.0000
# 3 21.2531 54.6285 105.2147 0.0000 1.3115 0.0000
# 4 0.0000 0.0000 0.0000 41.8485 0.0000 2.9818
# 5 0.1055 14.9893 1.3115 0.0000 19.3550 0.0000
# 6 0.0000 0.0000 0.0000 2.9818 0.0000 37.4361
#
#
#
# Elastic Compliance Matrix: (Units=1/GPa)
#
#
# Indices 1 2 3 4 5 6 
#
# 1 0.011037 0.000081 -0.002272 0.000000 0.000031 0.000000
# 2 0.000081 0.016142 -0.008248 0.000000 -0.011942 0.000000
# 3 -0.002272 -0.008248 0.014178 0.000000 0.005440 0.000000
# 4 0.000000 0.000000 0.000000 0.024032 0.000000 -0.001914
# 5 0.000031 -0.011942 0.005440 0.000000 0.060546 0.000000
# 6 0.000000 0.000000 0.000000 -0.001914 0.000000 0.026865
#
#
# Mechanical properties :
#
#
# Convention : Reuss Voigt Hill
#
# Bulk Modulus (GPa) = 48.83229 52.63418 50.73324
# Shear Modulus (GPa) = 27.70027 34.03991 30.87009
#
# Velocity S-wave (km/s) = 3.21126 3.55981 3.39002
# Velocity P-wave (km/s) = 5.65055 6.04077 5.84891
#
# Compressibility (1/GPa) = 0.02047825
#
# Stress axis : x y z
#
# Youngs Moduli (GPa) = 90.60570 61.95201 70.53100
#
# Poissons Ratio (x) = -0.00503 0.16025
# Poissons Ratio (y) = -0.00736 0.58177
# Poissons Ratio (z) = 0.20585 0.51100
#
# Static dielectric constant tensor:
#      x y z
#    x 5.122850 0.000000 0.142610 
#    y 0.000000 4.952810 0.000000 
#    z 0.142610 0.000000 4.777900 
# 
# 
# High freq. dielectric constant tensor:
#      x y z
#    x 2.111320 0.000000 0.016730 
#    y 0.000000 2.083790 0.000000 
#    z 0.016730 0.000000 2.066570 
# 
# From -- ./inp_files/29799.got.cif
#   From: 2010.03.12/outbox.cif.g09.slc.cpg/sg14_15_cif.got.tgz:29799.got - 2010.03.31 13:35:05.
