data_PCOD8123262
_publ_section_title
;
Structure prediction by ZEFSAII (Michael W. Deem and Ramdas Pophale) SiO2 
 PCOD8123262
Probable space group: P 21/C
;
_chemical_formula_sum "Si O2"
_cell_formula_units_Z 24
_cell_length_a 29.892188
_cell_length_b 7.134893
_cell_length_c 5.240182
_cell_angle_alpha 90.000000
_cell_angle_beta 100.009639
_cell_angle_gamma 90.000000
_cell_volume 1100.601525
_symmetry_space_group_name_H-M "P 21/C"
_symmetry_group_IT_number 14
_symmetry_cell_setting 'monoclinic'
loop_
_space_group_symop_operation_xyz
x,y,z
-x,1/2+y,1/2-z
-x,-y,-z
x,1/2-y,1/2+z
loop_
_atom_site_type_symbol
_atom_site_label
_atom_site_fract_x
_atom_site_fract_y
_atom_site_fract_z
Si Si1 0.290119 0.626379 0.773260
Si Si2 0.053099 0.535647 0.042530
Si Si3 0.374017 0.130515 0.397471
Si Si4 0.809322 0.137366 0.755887
Si Si5 0.457861 0.866314 0.417308
Si Si6 0.091976 0.962114 0.081076
O O1 0.298153 0.726296 0.509644
O O2 0.323695 0.452521 0.829177
O O3 0.239200 0.537773 0.739979
O O4 0.071185 0.750503 0.054478
O O5 0.071456 0.433663 0.806787
O O6 0.074847 0.434096 0.310012
O O7 0.000000 0.500000 0.000000
O O8 0.381515 0.220183 0.681612
O O9 0.500000 0.000000 0.500000
O O10 0.410040 0.966253 0.406032
O O11 0.811675 0.191300 0.460047
O O12 0.853549 0.014936 0.858845
O O13 0.460807 0.703667 0.629921
#
# Coordination Sequence:
#
# PCOD8123262 Si02
#       6
#     4   4   4   4   4   4
#     4  10  21  36  60  91 116 149 202 262 308 357
#     4  10  18  27  44  69  94 127 156 206 265 322
#     4  12  24  41  62  91 128 170 211 254 318 377
#     4  10  16  30  52  77 101 125 171 236 289 341
#     4  12  24  42  66  95 133 173 220 267 314 367
#     4  10  17  30  45  69  98 120 173 212 267 321
#
# _framework density 21.806258
#
# number of rings (size 3 to 8) (size 9 to 14) (size 15 to 20)
#    0.000    1.333    3.333    5.000    0.000    0.000 
#    0.000    0.000    0.000    0.000   26.000    0.000 
#    0.000    0.000    0.000    0.000    0.000    0.000 
#
# Total GULP energy -297425.146665 kJ/mol
# GULP energy per Si atom -12392.714444 kJ/mol
# Density = 2.175663 g / cm^3
# Si number density = 21.806258 Si / 1000 Ang^3
#
#
#
# Elastic Constant Matrix: (Units=GPa)
#
#
# Indices 1 2 3 4 5 6 
#
# 1 146.7696 24.8002 32.2520 0.0000 15.2022 0.0000
# 2 24.8002 39.2147 3.4684 0.0000 5.4544 0.0000
# 3 32.2520 3.4684 149.3185 0.0000 -8.8944 0.0000
# 4 0.0000 0.0000 0.0000 24.4594 0.0000 4.0693
# 5 15.2022 5.4544 -8.8944 0.0000 42.5870 0.0000
# 6 0.0000 0.0000 0.0000 4.0693 0.0000 31.2106
#
#
#
# Elastic Compliance Matrix: (Units=1/GPa)
#
#
# Indices 1 2 3 4 5 6 
#
# 1 0.008298 -0.004703 -0.001847 0.000000 -0.002746 0.000000
# 2 -0.004703 0.028726 0.000232 0.000000 -0.001952 0.000000
# 3 -0.001847 0.000232 0.007218 0.000000 0.002137 0.000000
# 4 0.000000 0.000000 0.000000 0.041791 0.000000 -0.005449
# 5 -0.002746 -0.001952 0.002137 0.000000 0.025158 0.000000
# 6 0.000000 0.000000 0.000000 -0.005449 0.000000 0.032751
#
#
# Mechanical properties :
#
#
# Convention : Reuss Voigt Hill
#
# Bulk Modulus (GPa) = 31.63812 50.70489 41.17150
# Shear Modulus (GPa) = 29.92024 37.97022 33.94523
#
# Velocity S-wave (km/s) = 3.70820 4.17736 3.94975
# Velocity P-wave (km/s) = 5.73363 6.82422 6.30256
#
# Compressibility (1/GPa) = 0.03160744
#
# Stress axis : x y z
#
# Youngs Moduli (GPa) = 120.50762 34.81202 138.54515
#
# Poissons Ratio (x) = 0.16371 0.25585
# Poissons Ratio (y) = 0.56672 -0.03218
# Poissons Ratio (z) = 0.22254 -0.00809
#
# Static dielectric constant tensor:
#      x y z
#    x 4.243000 0.000000 0.121550 
#    y 0.000000 3.346170 0.000000 
#    z 0.121550 0.000000 3.800410 
# 
# 
# High freq. dielectric constant tensor:
#      x y z
#    x 1.880530 0.000000 -0.002810 
#    y 0.000000 1.802860 0.000000 
#    z -0.002810 0.000000 1.896770 
# 
# From -- ./inp_files/4338.got.cif
#   From: 2010.03.12/outbox.cif.g09.slc.cpg/sg14_3_cif.got.tgz:4338.got - 2010.03.31 13:35:05.
