data_PCOD8123752
_publ_section_title
;
Structure prediction by ZEFSAII (Michael W. Deem and Ramdas Pophale) SiO2 
 PCOD8123752
Probable space group: P 21/C
;
_chemical_formula_sum "Si O2"
_cell_formula_units_Z 28
_cell_length_a 15.389462
_cell_length_b 13.382114
_cell_length_c 7.877627
_cell_angle_alpha 90.000000
_cell_angle_beta 54.140661
_cell_angle_gamma 90.000000
_cell_volume 1314.842875
_symmetry_space_group_name_H-M "P 21/C"
_symmetry_group_IT_number 14
_symmetry_cell_setting 'monoclinic'
loop_
_space_group_symop_operation_xyz
x,y,z
-x,1/2+y,1/2-z
-x,-y,-z
x,1/2-y,1/2+z
loop_
_atom_site_type_symbol
_atom_site_label
_atom_site_fract_x
_atom_site_fract_y
_atom_site_fract_z
Si Si1 0.652602 0.823142 0.710252
Si Si2 0.715771 0.505291 0.679493
Si Si3 0.662499 0.043164 0.594461
Si Si4 0.440345 0.361567 0.328304
Si Si5 0.174251 0.953266 0.293563
Si Si6 0.850366 0.688946 0.533812
Si Si7 0.042667 0.357329 0.909933
O O1 0.557275 0.746539 0.766949
O O2 0.765405 0.766543 0.544778
O O3 0.640199 0.924285 0.617360
O O4 0.642204 0.853375 0.919447
O O5 0.603145 0.551603 0.745609
O O6 0.770593 0.451128 0.455055
O O7 0.785634 0.595222 0.681140
O O8 0.698863 0.429977 0.858531
O O9 0.557394 0.107520 0.757948
O O10 0.745853 0.074297 0.645061
O O11 0.080133 0.871200 0.396020
O O12 0.120656 0.059552 0.405095
O O13 0.920775 0.745400 0.590406
O O14 0.938745 0.638382 0.311095
#
# Coordination Sequence:
#
# PCOD8123752 Si02
#       7
#     4   4   4   4   4   4   4
#     4  11  20  38  63  94 126 158 215 263 301 376
#     4  10  21  38  63  93 122 157 212 258 310 376
#     4  12  22  40  67  90 129 169 209 260 319 378
#     4  11  23  38  63  98 124 167 212 258 321 367
#     4  10  22  40  59  90 125 162 200 258 322 374
#     4  10  18  36  63  90 114 158 207 262 309 355
#     4  10  20  38  61  89 123 154 208 265 311 365
#
# _framework density 21.295321999999999
#
# number of rings (size 3 to 8) (size 9 to 14) (size 15 to 20)
#    0.000    1.429    2.857    5.143    0.000    0.000 
#    2.571    3.571    0.000    0.000    0.000    0.000 
#    0.000    0.000    0.000    0.000    0.000    0.000 
#
# Total GULP energy -347057.513166 kJ/mol
# GULP energy per Si atom -12394.911185 kJ/mol
# Density = 2.124685 g / cm^3
# Si number density = 21.295322 Si / 1000 Ang^3
#
#
#
# Elastic Constant Matrix: (Units=GPa)
#
#
# Indices 1 2 3 4 5 6 
#
# 1 95.1529 12.3071 51.9503 0.0000 -0.0801 0.0000
# 2 12.3071 32.0525 26.6432 0.0000 -6.0989 0.0000
# 3 51.9503 26.6432 106.5533 0.0000 2.3213 0.0000
# 4 0.0000 0.0000 0.0000 27.2612 0.0000 -4.9005
# 5 -0.0801 -6.0989 2.3213 0.0000 31.5364 0.0000
# 6 0.0000 0.0000 0.0000 -4.9005 0.0000 23.2717
#
#
#
# Elastic Compliance Matrix: (Units=1/GPa)
#
#
# Indices 1 2 3 4 5 6 
#
# 1 0.014339 0.000562 -0.007146 0.000000 0.000671 0.000000
# 2 0.000562 0.041735 -0.010903 0.000000 0.008875 0.000000
# 3 -0.007146 -0.010903 0.015667 0.000000 -0.003280 0.000000
# 4 0.000000 0.000000 0.000000 0.038125 0.000000 0.008028
# 5 0.000671 0.008875 -0.003280 0.000000 0.033669 0.000000
# 6 0.000000 0.000000 0.000000 0.008028 0.000000 0.044661
#
#
# Mechanical properties :
#
#
# Convention : Reuss Voigt Hill
#
# Bulk Modulus (GPa) = 27.19877 46.17333 36.68605
# Shear Modulus (GPa) = 21.23816 25.93772 23.58794
#
# Velocity S-wave (km/s) = 3.16146 3.49377 3.33176
# Velocity P-wave (km/s) = 5.11139 6.16480 5.66264
#
# Compressibility (1/GPa) = 0.03676636
#
# Stress axis : x y z
#
# Youngs Moduli (GPa) = 69.74088 23.96088 63.82928
#
# Poissons Ratio (x) = -0.01347 0.45613
# Poissons Ratio (y) = -0.03921 0.69593
# Poissons Ratio (z) = 0.49838 0.26125
#
# Static dielectric constant tensor:
#      x y z
#    x 3.615050 0.000000 0.032180 
#    y 0.000000 3.675710 0.000000 
#    z 0.032180 0.000000 3.808180 
# 
# 
# High freq. dielectric constant tensor:
#      x y z
#    x 1.821870 0.000000 0.007010 
#    y 0.000000 1.805770 0.000000 
#    z 0.007010 0.000000 1.840120 
# 
# From -- ./inp_files/16205.got.cif
#   From: 2010.03.12/outbox.cif.g09.slc.cpg/sg14_9_cif.got.tgz:16205.got - 2010.03.31 13:35:05.
