data_PCOD8123000
_publ_section_title
;
Structure prediction by ZEFSAII (Michael W. Deem and Ramdas Pophale) SiO2 
 PCOD8123000
Probable space group: P 2/C
;
_chemical_formula_sum "Si O2"
_cell_formula_units_Z 28
_cell_length_a 19.659420
_cell_length_b 9.026628
_cell_length_c 13.330241
_cell_angle_alpha 90.000000
_cell_angle_beta 30.230630
_cell_angle_gamma 90.000000
_cell_volume 1191.017435
_symmetry_space_group_name_H-M "P 2/C"
_symmetry_group_IT_number 13
_symmetry_cell_setting 'monoclinic'
loop_
_space_group_symop_operation_xyz
x,y,z
-x,y,1/2-z
-x,-y,-z
x,-y,1/2+z
loop_
_atom_site_type_symbol
_atom_site_label
_atom_site_fract_x
_atom_site_fract_y
_atom_site_fract_z
Si Si1 0.162706 0.186062 0.038317
Si Si2 0.247810 0.519716 0.530881
Si Si3 0.389590 0.893184 0.089241
Si Si4 0.949565 0.745505 0.206932
Si Si5 0.793595 0.310699 0.216000
Si Si6 0.431610 0.379122 0.151824
Si Si7 0.205487 0.984425 0.673893
O O1 0.183076 0.359118 0.038280
O O2 0.000000 0.154701 0.250000
O O3 0.235735 0.083943 0.027034
O O4 0.247717 0.141149 0.830410
O O5 0.260907 0.582770 0.626696
O O6 0.391140 0.466296 0.304884
O O7 0.170820 0.366171 0.623639
O O8 0.347774 0.960379 0.036002
O O9 0.457466 0.742769 0.967622
O O10 0.500000 0.000000 0.000000
O O11 0.000000 0.809418 0.250000
O O12 0.904298 0.883987 0.195055
O O13 0.062185 0.639513 0.011477
O O14 0.689554 0.303575 0.256989
O O15 0.836987 0.146843 0.197006
O O16 0.500000 0.500000 0.000000
#
# Coordination Sequence:
#
# PCOD8123000 Si02
#       7
#     4   4   4   4   4   4   4
#     4  11  27  48  77 110 152 198 253 318 390 457
#     4  11  26  47  75 110 146 202 249 313 383 454
#     4  12  28  51  75 107 154 201 257 318 383 455
#     4  12  25  45  78 114 154 191 255 316 383 453
#     4  11  26  49  73 109 155 195 251 318 385 453
#     4  12  26  50  73 106 150 198 254 313 376 457
#     4  11  28  46  74 111 147 202 248 310 385 457
#
# _framework density 23.509312999999999
#
# number of rings (size 3 to 8) (size 9 to 14) (size 15 to 20)
#    0.000    0.571    4.286    1.714   12.000    1.143 
#    0.000    0.000    0.000    0.000    0.000    0.000 
#    0.000    0.000    0.000    0.000    0.000    0.000 
#
# Total GULP energy -346934.184064 kJ/mol
# GULP energy per Si atom -12390.506574 kJ/mol
# Density = 2.345580 g / cm^3
# Si number density = 23.509313 Si / 1000 Ang^3
#
#
#
# Elastic Constant Matrix: (Units=GPa)
#
#
# Indices 1 2 3 4 5 6 
#
# 1 122.2243 38.0633 37.6469 0.0000 -5.5361 0.0000
# 2 38.0633 109.7740 41.4233 0.0000 -2.6495 0.0000
# 3 37.6469 41.4233 150.7504 0.0000 5.6911 0.0000
# 4 0.0000 0.0000 0.0000 31.7327 0.0000 -3.8790
# 5 -5.5361 -2.6495 5.6911 0.0000 30.4239 0.0000
# 6 0.0000 0.0000 0.0000 -3.8790 0.0000 38.7090
#
#
#
# Elastic Compliance Matrix: (Units=1/GPa)
#
#
# Indices 1 2 3 4 5 6 
#
# 1 0.009624 -0.002632 -0.001750 0.000000 0.001849 0.000000
# 2 -0.002632 0.010944 -0.002385 0.000000 0.000920 0.000000
# 3 -0.001750 -0.002385 0.007801 0.000000 -0.001985 0.000000
# 4 0.000000 0.000000 0.000000 0.031904 0.000000 0.003197
# 5 0.001849 0.000920 -0.001985 0.000000 0.033657 0.000000
# 6 0.000000 0.000000 0.000000 0.003197 0.000000 0.026154
#
#
# Mechanical properties :
#
#
# Convention : Reuss Voigt Hill
#
# Bulk Modulus (GPa) = 67.40543 68.55730 67.98136
# Shear Modulus (GPa) = 36.08459 37.88081 36.98270
#
# Velocity S-wave (km/s) = 3.92204 4.01847 3.97055
# Velocity P-wave (km/s) = 7.01740 7.12431 7.07106
#
# Compressibility (1/GPa) = 0.01483560
#
# Stress axis : x y z
#
# Youngs Moduli (GPa) = 103.90505 91.37116 128.19297
#
# Poissons Ratio (x) = 0.24050 0.22434
# Poissons Ratio (y) = 0.27349 0.30571
# Poissons Ratio (z) = 0.18184 0.21790
#
# Static dielectric constant tensor:
#      x y z
#    x 3.502050 0.000000 0.486250 
#    y 0.000000 4.257230 0.000000 
#    z 0.486250 0.000000 4.091630 
# 
# 
# High freq. dielectric constant tensor:
#      x y z
#    x 1.930850 0.000000 0.001650 
#    y 0.000000 1.945940 0.000000 
#    z 0.001650 0.000000 1.934850 
# 
# From -- ./inp_files/57461.got.cif
#   From: 2010.06.25/outbox.cif.g09.slc.cpg/sg13_29_cif.got.tgz:57461.got - 2010.06.28 04:50:58.
