data_PCOD8123483
_publ_section_title
;
Structure prediction by ZEFSAII (Michael W. Deem and Ramdas Pophale) SiO2 
 PCOD8123483
Probable space group: P 21/C
;
_chemical_formula_sum "Si O2"
_cell_formula_units_Z 24
_cell_length_a 16.291295
_cell_length_b 9.550049
_cell_length_c 31.441997
_cell_angle_alpha 90.000000
_cell_angle_beta 15.207511
_cell_angle_gamma 90.000000
_cell_volume 1283.203645
_symmetry_space_group_name_H-M "P 21/C"
_symmetry_group_IT_number 14
_symmetry_cell_setting 'monoclinic'
loop_
_space_group_symop_operation_xyz
x,y,z
-x,1/2+y,1/2-z
-x,-y,-z
x,1/2-y,1/2+z
loop_
_atom_site_type_symbol
_atom_site_label
_atom_site_fract_x
_atom_site_fract_y
_atom_site_fract_z
Si Si1 0.368452 0.596080 0.855148
Si Si2 0.631142 0.595750 0.223813
Si Si3 0.629791 0.594301 0.810768
Si Si4 0.630108 0.593951 0.397574
Si Si5 0.629738 0.405933 0.559461
Si Si6 0.630109 0.406028 0.972316
O O1 0.466307 0.500223 0.766839
O O2 0.499390 0.750232 0.781059
O O3 0.517804 0.522972 0.822722
O O4 0.999788 0.605487 0.045812
O O5 0.482062 0.522612 0.340612
O O6 0.500328 0.750160 0.872740
O O7 0.000017 0.591585 0.629735
O O8 0.481724 0.524491 0.927048
O O9 0.500000 0.500000 0.500000
O O10 0.518153 0.524317 0.408861
O O11 0.499957 0.749978 0.467530
O O12 0.999991 0.598378 0.214436
O O13 0.500000 0.500000 0.000000
#
# Coordination Sequence:
#
# PCOD8123483 Si02
#       6
#     4   4   4   4   4   4
#     4  10  20  34  53  77 104 135 172 213 258 307
#     4  10  20  34  53  77 104 135 172 213 258 307
#     4  10  18  31  52  76 102 136 175 212 255 308
#     4  11  21  36  56  80 108 139 176 217 262 311
#     4  10  18  31  52  76 102 136 175 212 255 308
#     4  11  21  36  56  80 108 139 176 217 262 311
#
# _framework density 18.703188999999998
#
# number of rings (size 3 to 8) (size 9 to 14) (size 15 to 20)
#    0.000    1.667    0.000   11.000    0.000    2.667 
#    0.000    1.667    0.000    4.000    0.000    0.000 
#    0.000    0.000    0.000    0.000    0.000    0.000 
#
# Total GULP energy -297522.807198 kJ/mol
# GULP energy per Si atom -12396.783633 kJ/mol
# Density = 1.866062 g / cm^3
# Si number density = 18.703189 Si / 1000 Ang^3
#
#
#
# Elastic Constant Matrix: (Units=GPa)
#
#
# Indices 1 2 3 4 5 6 
#
# 1 212.6687 63.5317 94.3716 -0.0045 12.0295 -0.0159
# 2 63.5317 53.7464 38.8534 -0.0019 6.8256 -0.0039
# 3 94.3716 38.8534 179.9514 -0.0031 -2.8765 -0.0094
# 4 -0.0045 -0.0019 -0.0031 26.5381 -0.0006 8.5710
# 5 12.0295 6.8256 -2.8765 -0.0006 41.4353 -0.0047
# 6 -0.0159 -0.0039 -0.0094 8.5710 -0.0047 56.8102
#
#
#
# Elastic Compliance Matrix: (Units=1/GPa)
#
#
# Indices 1 2 3 4 5 6 
#
# 1 0.008259 -0.007640 -0.002703 0.000000 -0.001327 0.000001
# 2 -0.007640 0.029786 -0.002470 0.000001 -0.002860 -0.000001
# 3 -0.002703 -0.002470 0.007535 0.000000 0.001715 0.000000
# 4 0.000000 0.000001 0.000000 0.039612 0.000000 -0.005976
# 5 -0.001327 -0.002860 0.001715 0.000000 0.025109 0.000002
# 6 0.000001 -0.000001 0.000000 -0.005976 0.000002 0.018504
#
#
# Mechanical properties :
#
#
# Convention : Reuss Voigt Hill
#
# Bulk Modulus (GPa) = 50.11558 93.31999 71.71779
# Shear Modulus (GPa) = 31.03986 41.59737 36.31861
#
# Velocity S-wave (km/s) = 4.07824 4.72113 4.41141
# Velocity P-wave (km/s) = 7.00210 8.92874 8.02346
#
# Compressibility (1/GPa) = 0.01995387
#
# Stress axis : x y z
#
# Youngs Moduli (GPa) = 121.07983 33.57284 132.70999
#
# Poissons Ratio (x) = 0.25651 0.35870
# Poissons Ratio (y) = 0.92508 0.32780
# Poissons Ratio (z) = 0.32726 0.08293
#
# Static dielectric constant tensor:
#      x y z
#    x 4.817730 -0.000020 0.323360 
#    y -0.000020 3.015100 -0.000010 
#    z 0.323360 -0.000010 3.668050 
# 
# 
# High freq. dielectric constant tensor:
#      x y z
#    x 1.758970 0.000000 0.001760 
#    y 0.000000 1.672090 0.000000 
#    z 0.001760 0.000000 1.752570 
# 
# From -- ./inp_files/17745.got.cif
#   From: 2010.03.12/outbox.cif.g09.slc.cpg/sg14_9_cif.got.tgz:17745.got - 2010.03.31 13:35:05.
