data_PCOD8123959
_publ_section_title
;
Structure prediction by ZEFSAII (Michael W. Deem and Ramdas Pophale) SiO2 
 PCOD8123959
Probable space group: P 21/C
;
_chemical_formula_sum "Si O2"
_cell_formula_units_Z 28
_cell_length_a 9.433128
_cell_length_b 11.220647
_cell_length_c 15.272285
_cell_angle_alpha 90.000000
_cell_angle_beta 75.982819
_cell_angle_gamma 90.000000
_cell_volume 1568.372703
_symmetry_space_group_name_H-M "P 21/C"
_symmetry_group_IT_number 14
_symmetry_cell_setting 'monoclinic'
loop_
_space_group_symop_operation_xyz
x,y,z
-x,1/2+y,1/2-z
-x,-y,-z
x,1/2-y,1/2+z
loop_
_atom_site_type_symbol
_atom_site_label
_atom_site_fract_x
_atom_site_fract_y
_atom_site_fract_z
Si Si1 0.666423 0.798028 0.850602
Si Si2 0.451355 0.428935 0.884521
Si Si3 0.395543 0.666938 0.976077
Si Si4 0.805667 0.372564 0.542980
Si Si5 0.548084 0.480908 0.685531
Si Si6 0.707776 0.711409 0.656800
Si Si7 0.872016 0.622059 0.472462
O O1 0.533361 0.720362 0.904869
O O2 0.601306 0.928762 0.834460
O O3 0.740340 0.730300 0.755941
O O4 0.782641 0.808950 0.911243
O O5 0.361316 0.540231 0.936645
O O6 0.549772 0.467891 0.788871
O O7 0.325422 0.339546 0.876262
O O8 0.563483 0.361708 0.930967
O O9 0.254784 0.754122 0.996670
O O10 0.687373 0.406778 0.632979
O O11 0.833011 0.481219 0.470420
O O12 0.958405 0.348156 0.569712
O O13 0.570149 0.621194 0.661360
O O14 0.841038 0.662120 0.578135
#
# Coordination Sequence:
#
# PCOD8123959 Si02
#       7
#     4   4   4   4   4   4   4
#     4  10  19  33  58  81 105 141 184 226 275 321
#     4  10  19  32  55  83 110 138 179 231 276 324
#     4  10  19  34  56  81 108 141 179 224 280 323
#     4   9  21  37  56  79 109 145 183 228 272 327
#     4   9  19  33  56  82 108 135 187 229 269 319
#     4  10  19  33  56  81 109 140 179 229 271 321
#     4  10  20  38  57  77 113 147 182 225 274 326
#
# _framework density 17.852899000000001
#
# number of rings (size 3 to 8) (size 9 to 14) (size 15 to 20)
#    0.000    2.286    2.857    0.000    2.000    1.714 
#    2.571    0.714   12.571    0.000    0.000    0.000 
#    0.000    0.000    0.000    0.000    0.000    0.000 
#
# Total GULP energy -346952.376311 kJ/mol
# GULP energy per Si atom -12391.156297 kJ/mol
# Density = 1.781227 g / cm^3
# Si number density = 17.852899 Si / 1000 Ang^3
#
#
#
# Elastic Constant Matrix: (Units=GPa)
#
#
# Indices 1 2 3 4 5 6 
#
# 1 76.8776 17.1312 35.8752 0.0000 1.2270 0.0000
# 2 17.1312 66.2161 19.7916 0.0000 4.7317 0.0000
# 3 35.8752 19.7916 74.8498 0.0000 11.6962 0.0000
# 4 0.0000 0.0000 0.0000 15.5796 0.0000 -3.8530
# 5 1.2270 4.7317 11.6962 0.0000 19.1085 0.0000
# 6 0.0000 0.0000 0.0000 -3.8530 0.0000 12.1317
#
#
#
# Elastic Compliance Matrix: (Units=1/GPa)
#
#
# Indices 1 2 3 4 5 6 
#
# 1 0.017390 -0.002304 -0.008448 0.000000 0.004625 0.000000
# 2 -0.002304 0.016745 -0.002984 0.000000 -0.002172 0.000000
# 3 -0.008448 -0.002984 0.019902 0.000000 -0.010900 0.000000
# 4 0.000000 0.000000 0.000000 0.069658 0.000000 0.022123
# 5 0.004625 -0.002172 -0.010900 0.000000 0.059246 0.000000
# 6 0.000000 0.000000 0.000000 0.022123 0.000000 0.089455
#
#
# Mechanical properties :
#
#
# Convention : Reuss Voigt Hill
#
# Bulk Modulus (GPa) = 37.64534 40.39327 39.01930
# Shear Modulus (GPa) = 16.19575 19.04031 17.61803
#
# Velocity S-wave (km/s) = 3.01521 3.26929 3.14482
# Velocity P-wave (km/s) = 5.76664 6.07666 5.92368
#
# Compressibility (1/GPa) = 0.02656371
#
# Stress axis : x y z
#
# Youngs Moduli (GPa) = 57.50497 59.71811 50.24723
#
# Poissons Ratio (x) = 0.13762 0.42450
# Poissons Ratio (y) = 0.13252 0.14993
# Poissons Ratio (z) = 0.48582 0.17819
#
# Static dielectric constant tensor:
#      x y z
#    x 3.004900 0.000000 0.050690 
#    y 0.000000 3.642570 0.000000 
#    z 0.050690 0.000000 3.448210 
# 
# 
# High freq. dielectric constant tensor:
#      x y z
#    x 1.653390 0.000000 0.004490 
#    y 0.000000 1.704650 0.000000 
#    z 0.004490 0.000000 1.693640 
# 
# From -- ./inp_files/39662.got.cif
#   From: 2010.03.12/outbox.cif.g09.slc.cpg/sg14_20_cif.got.tgz:39662.got - 2010.03.31 13:35:05.
