data_PCOD8123348
_publ_section_title
;
Structure prediction by ZEFSAII (Michael W. Deem and Ramdas Pophale) SiO2 
 PCOD8123348
Probable space group: P 21/C
;
_chemical_formula_sum "Si O2"
_cell_formula_units_Z 28
_cell_length_a 9.207171
_cell_length_b 8.389232
_cell_length_c 30.372239
_cell_angle_alpha 90.000000
_cell_angle_beta 35.783979
_cell_angle_gamma 90.000000
_cell_volume 1371.769808
_symmetry_space_group_name_H-M "P 21/C"
_symmetry_group_IT_number 14
_symmetry_cell_setting 'monoclinic'
loop_
_space_group_symop_operation_xyz
x,y,z
-x,1/2+y,1/2-z
-x,-y,-z
x,1/2-y,1/2+z
loop_
_atom_site_type_symbol
_atom_site_label
_atom_site_fract_x
_atom_site_fract_y
_atom_site_fract_z
Si Si1 0.275275 0.826106 0.316796
Si Si2 0.456462 0.679828 0.050708
Si Si3 0.088521 0.905196 0.044678
Si Si4 0.825133 0.624440 0.399939
Si Si5 0.136449 0.942893 0.555901
Si Si6 0.427573 0.527743 0.615057
Si Si7 0.554843 0.472633 0.677309
O O1 0.434905 0.712698 0.310182
O O2 0.084181 0.718275 0.335883
O O3 0.467773 0.914845 0.238215
O O4 0.118229 0.956696 0.382434
O O5 0.214836 0.600013 0.087248
O O6 0.381989 0.789423 0.110623
O O7 0.602504 0.776972 0.976808
O O8 0.642063 0.541314 0.022104
O O9 0.088754 0.715266 0.039593
O O10 0.147901 0.957355 0.080509
O O11 0.825105 0.973480 0.095011
O O12 0.286798 0.983318 0.963553
O O13 0.755254 0.588338 0.366903
O O14 0.372425 0.498917 0.680295
#
# Coordination Sequence:
#
# PCOD8123348 Si02
#       7
#     4   4   4   4   4   4   4
#     4  10  23  41  56  77 110 166 198 231 295 357
#     4   9  17  31  59  91 115 142 179 237 294 339
#     4  10  18  34  62  87 117 154 183 233 296 353
#     4   9  17  35  60  84 114 146 190 233 296 344
#     4  10  17  32  61  84 114 153 189 225 275 363
#     4  11  19  37  59  93 114 145 191 251 293 333
#     4  11  24  41  58  78 117 156 201 241 288 357
#
# _framework density 20.411587999999998
#
# number of rings (size 3 to 8) (size 9 to 14) (size 15 to 20)
#    0.000    2.000    2.857    3.000    0.000    0.000 
#    2.571    4.286    0.000    0.000    0.000    0.000 
#    0.000    0.000    0.000    0.000    0.000    0.000 
#
# Total GULP energy -347176.780489 kJ/mol
# GULP energy per Si atom -12399.170732 kJ/mol
# Density = 2.036513 g / cm^3
# Si number density = 20.411588 Si / 1000 Ang^3
#
#
#
# Elastic Constant Matrix: (Units=GPa)
#
#
# Indices 1 2 3 4 5 6 
#
# 1 79.4177 23.0628 6.3617 0.0000 16.7991 0.0000
# 2 23.0628 122.5595 12.0557 0.0000 8.6608 0.0000
# 3 6.3617 12.0557 28.2733 0.0000 -0.4279 0.0000
# 4 0.0000 0.0000 0.0000 31.2519 0.0000 -7.5999
# 5 16.7991 8.6608 -0.4279 0.0000 20.9416 0.0000
# 6 0.0000 0.0000 0.0000 -7.5999 0.0000 30.2085
#
#
#
# Elastic Compliance Matrix: (Units=1/GPa)
#
#
# Indices 1 2 3 4 5 6 
#
# 1 0.015920 -0.001850 -0.002976 0.000000 -0.012066 0.000000
# 2 -0.001850 0.009011 -0.003461 0.000000 -0.002313 0.000000
# 3 -0.002976 -0.003461 0.037584 0.000000 0.004586 0.000000
# 4 0.000000 0.000000 0.000000 0.034083 0.000000 0.008575
# 5 -0.012066 -0.002313 0.004586 0.000000 0.058482 0.000000
# 6 0.000000 0.000000 0.000000 0.008575 0.000000 0.035260
#
#
# Mechanical properties :
#
#
# Convention : Reuss Voigt Hill
#
# Bulk Modulus (GPa) = 21.76721 34.80122 28.28421
# Shear Modulus (GPa) = 22.49940 29.06508 25.78224
#
# Velocity S-wave (km/s) = 3.32367 3.77762 3.55789
# Velocity P-wave (km/s) = 5.04146 6.00949 5.54663
#
# Compressibility (1/GPa) = 0.04594067
#
# Stress axis : x y z
#
# Youngs Moduli (GPa) = 62.81530 110.97029 26.60715
#
# Poissons Ratio (x) = 0.20533 0.07917
# Poissons Ratio (y) = 0.11623 0.09209
# Poissons Ratio (z) = 0.18692 0.38408
#
# Static dielectric constant tensor:
#      x y z
#    x 3.536020 0.000000 -0.225910 
#    y 0.000000 3.970010 0.000000 
#    z -0.225910 0.000000 3.281390 
# 
# 
# High freq. dielectric constant tensor:
#      x y z
#    x 1.783300 0.000000 -0.022700 
#    y 0.000000 1.813970 0.000000 
#    z -0.022700 0.000000 1.755090 
# 
# From -- ./inp_files/79452.got.cif
#   From: 2010.03.12/outbox.cif.g09.slc.cpg/sg14_40_cif.got.tgz:79452.got - 2010.03.31 13:35:05.
