data_PCOD8123240
_publ_section_title
;
Structure prediction by ZEFSAII (Michael W. Deem and Ramdas Pophale) SiO2 
 PCOD8123240
Probable space group: P 21/C
;
_chemical_formula_sum "Si O2"
_cell_formula_units_Z 32
_cell_length_a 11.903909
_cell_length_b 15.454702
_cell_length_c 20.007476
_cell_angle_alpha 90.000000
_cell_angle_beta 27.766082
_cell_angle_gamma 90.000000
_cell_volume 1714.749431
_symmetry_space_group_name_H-M "P 21/C"
_symmetry_group_IT_number 14
_symmetry_cell_setting 'monoclinic'
loop_
_space_group_symop_operation_xyz
x,y,z
-x,1/2+y,1/2-z
-x,-y,-z
x,1/2-y,1/2+z
loop_
_atom_site_type_symbol
_atom_site_label
_atom_site_fract_x
_atom_site_fract_y
_atom_site_fract_z
Si Si1 0.568521 0.826290 0.165933
Si Si2 0.047676 0.048143 0.075604
Si Si3 0.245876 0.903073 0.896950
Si Si4 0.928657 0.097603 0.551806
Si Si5 0.411369 0.506249 0.121376
Si Si6 0.635739 0.862383 0.601965
Si Si7 0.422775 0.317540 0.180598
Si Si8 0.068529 0.737989 0.056800
O O1 0.342903 0.890578 0.279421
O O2 0.528276 0.734461 0.150391
O O3 0.630651 0.816374 0.211770
O O4 0.785119 0.868124 0.009055
O O5 0.870960 0.052323 0.105722
O O6 0.869561 0.037471 0.232772
O O7 0.210310 0.961763 0.981449
O O8 0.526573 0.899146 0.729532
O O9 0.135131 0.808768 0.966098
O O10 0.971900 0.147918 0.459628
O O11 0.080380 0.137356 0.533636
O O12 0.000000 0.000000 0.500000
O O13 0.575234 0.579242 0.070065
O O14 0.431222 0.414904 0.148964
O O15 0.500000 0.500000 0.000000
O O16 0.186704 0.266613 0.273038
O O17 0.686344 0.272867 0.025865
#
# Coordination Sequence:
#
# PCOD8123240 Si02
#       8
#     4   4   4   4   4   4   4   4
#     4  11  20  32  58  96 120 146 188 245 325 360
#     4  10  18  31  58  79 111 146 201 234 284 343
#     4  10  15  29  53  85 110 144 181 242 293 343
#     4  11  20  31  50  89 133 149 172 237 325 375
#     4  11  25  42  60  79 113 172 215 238 279 357
#     4  11  20  34  57  85 123 152 191 250 297 366
#     4  11  20  36  59  92 124 151 199 247 305 370
#     4  11  18  32  55  91 128 148 184 241 314 369
#
# _framework density 18.661619999999999
#
# number of rings (size 3 to 8) (size 9 to 14) (size 15 to 20)
#    0.000    1.250    6.250    3.750    1.750    0.000 
#    0.000    1.250    0.000    0.750    0.000    0.000 
#    0.000    0.000    0.000    0.000    0.000    0.000 
#
# Total GULP energy -396418.079863 kJ/mol
# GULP energy per Si atom -12388.064996 kJ/mol
# Density = 1.861914 g / cm^3
# Si number density = 18.661620 Si / 1000 Ang^3
#
#
#
# Elastic Constant Matrix: (Units=GPa)
#
#
# Indices 1 2 3 4 5 6 
#
# 1 38.1744 23.6629 42.4344 0.0000 -6.4526 0.0000
# 2 23.6629 112.1997 40.2800 0.0000 0.4405 0.0000
# 3 42.4344 40.2800 116.8091 0.0000 -17.0216 0.0000
# 4 0.0000 0.0000 0.0000 29.5743 0.0000 -12.1041
# 5 -6.4526 0.4405 -17.0216 0.0000 31.9016 0.0000
# 6 0.0000 0.0000 0.0000 -12.1041 0.0000 18.6628
#
#
#
# Elastic Compliance Matrix: (Units=1/GPa)
#
#
# Indices 1 2 3 4 5 6 
#
# 1 0.045652 -0.004279 -0.014915 0.000000 0.001335 0.000000
# 2 -0.004279 0.010715 -0.002481 0.000000 -0.002337 0.000000
# 3 -0.014915 -0.002481 0.015614 0.000000 0.005349 0.000000
# 4 0.000000 0.000000 0.000000 0.046032 0.000000 0.029855
# 5 0.001335 -0.002337 0.005349 0.000000 0.034503 0.000000
# 6 0.000000 0.000000 0.000000 0.029855 0.000000 0.072946
#
#
# Mechanical properties :
#
#
# Convention : Reuss Voigt Hill
#
# Bulk Modulus (GPa) = 34.92540 53.32642 44.12591
# Shear Modulus (GPa) = 17.96267 26.74813 22.35540
#
# Velocity S-wave (km/s) = 3.10586 3.79003 3.46487
# Velocity P-wave (km/s) = 5.62295 6.91303 6.30109
#
# Compressibility (1/GPa) = 0.02863246
#
# Stress axis : x y z
#
# Youngs Moduli (GPa) = 21.90466 93.32720 64.04467
#
# Poissons Ratio (x) = 0.39934 0.95519
# Poissons Ratio (y) = 0.09373 0.15890
# Poissons Ratio (z) = 0.32670 0.23155
#
# Static dielectric constant tensor:
#      x y z
#    x 2.932460 0.000000 -0.460490 
#    y 0.000000 3.629790 0.000000 
#    z -0.460490 0.000000 3.909880 
# 
# 
# High freq. dielectric constant tensor:
#      x y z
#    x 1.649090 0.000000 -0.044220 
#    y 0.000000 1.745030 0.000000 
#    z -0.044220 0.000000 1.730510 
# 
# From -- ./inp_files/67482.got.cif
#   From: 2010.03.12/outbox.cif.g09.slc.cpg/sg14_34_cif.got.tgz:67482.got - 2010.03.31 13:35:05.
