data_PCOD8123492
_publ_section_title
;
Structure prediction by ZEFSAII (Michael W. Deem and Ramdas Pophale) SiO2 
 PCOD8123492
Probable space group: P 21/C
;
_chemical_formula_sum "Si O2"
_cell_formula_units_Z 28
_cell_length_a 8.918030
_cell_length_b 9.699181
_cell_length_c 28.412154
_cell_angle_alpha 90.000000
_cell_angle_beta 139.305327
_cell_angle_gamma 90.000000
_cell_volume 1602.412566
_symmetry_space_group_name_H-M "P 21/C"
_symmetry_group_IT_number 14
_symmetry_cell_setting 'monoclinic'
loop_
_space_group_symop_operation_xyz
x,y,z
-x,1/2+y,1/2-z
-x,-y,-z
x,1/2-y,1/2+z
loop_
_atom_site_type_symbol
_atom_site_label
_atom_site_fract_x
_atom_site_fract_y
_atom_site_fract_z
Si Si1 0.922818 0.110192 0.051475
Si Si2 0.996611 0.681630 0.531547
Si Si3 0.180991 0.417506 0.949393
Si Si4 0.321681 0.302619 0.708812
Si Si5 0.477376 0.699022 0.149246
Si Si6 0.473879 0.818630 0.543027
Si Si7 0.315315 0.002695 0.678725
O O1 0.080268 0.134297 0.134764
O O2 0.047919 0.173979 0.035119
O O3 0.678807 0.183074 0.003842
O O4 0.889503 0.947831 0.034151
O O5 0.272961 0.687407 0.605218
O O6 0.870677 0.817870 0.519395
O O7 0.314981 0.327859 0.942355
O O8 0.950100 0.477127 0.870542
O O9 0.322525 0.544478 0.003330
O O10 0.318531 0.266844 0.764580
O O11 0.525055 0.413439 0.747297
O O12 0.378541 0.162740 0.694773
O O13 0.576221 0.691665 0.120197
O O14 0.365250 0.551180 0.137455
#
# Coordination Sequence:
#
# PCOD8123492 Si02
#       7
#     4   4   4   4   4   4   4
#     4  10  19  32  56  77 106 131 174 214 265 301
#     4   9  19  33  51  81 101 132 172 222 252 306
#     4  10  20  34  55  76 106 135 183 208 259 303
#     4  10  18  31  54  77  99 130 171 212 262 305
#     4   8  19  31  54  75 105 129 175 213 262 299
#     4  10  20  35  54  77 103 144 173 216 250 314
#     4   9  19  32  55  74 101 133 167 221 252 305
#
# _framework density 17.473654
#
# number of rings (size 3 to 8) (size 9 to 14) (size 15 to 20)
#    0.857    1.714    1.429    0.857    2.000    2.286 
#    0.000    0.000    9.429    0.000    0.000    0.000 
#    0.000    0.000    0.000    0.000    0.000    0.000 
#
# Total GULP energy -346949.861328 kJ/mol
# GULP energy per Si atom -12391.066476 kJ/mol
# Density = 1.743388 g / cm^3
# Si number density = 17.473654 Si / 1000 Ang^3
#
#
#
# Elastic Constant Matrix: (Units=GPa)
#
#
# Indices 1 2 3 4 5 6 
#
# 1 38.8031 -4.2364 11.9647 0.0000 -3.3679 0.0000
# 2 -4.2364 50.9436 -8.3134 0.0000 2.1387 0.0000
# 3 11.9647 -8.3134 87.2546 0.0000 -12.2416 0.0000
# 4 0.0000 0.0000 0.0000 25.5179 0.0000 0.2134
# 5 -3.3679 2.1387 -12.2416 0.0000 19.1305 0.0000
# 6 0.0000 0.0000 0.0000 0.2134 0.0000 22.3321
#
#
#
# Elastic Compliance Matrix: (Units=1/GPa)
#
#
# Indices 1 2 3 4 5 6 
#
# 1 0.027160 0.001628 -0.003212 0.000000 0.002544 0.000000
# 2 0.001628 0.020059 0.001553 0.000000 -0.000962 0.000000
# 3 -0.003212 0.001553 0.013124 0.000000 0.007659 0.000000
# 4 0.000000 0.000000 0.000000 0.039191 0.000000 -0.000375
# 5 0.002544 -0.000962 0.007659 0.000000 0.057729 0.000000
# 6 0.000000 0.000000 0.000000 -0.000375 0.000000 0.044782
#
#
# Mechanical properties :
#
#
# Convention : Reuss Voigt Hill
#
# Bulk Modulus (GPa) = 16.58955 19.53681 18.06318
# Shear Modulus (GPa) = 22.50212 25.23519 23.86866
#
# Velocity S-wave (km/s) = 3.59245 3.80437 3.69993
# Velocity P-wave (km/s) = 5.16936 5.52292 5.34906
#
# Compressibility (1/GPa) = 0.06027892
#
# Stress axis : x y z
#
# Youngs Moduli (GPa) = 36.81870 49.85363 76.19822
#
# Poissons Ratio (x) = -0.08114 0.24477
# Poissons Ratio (y) = -0.05993 -0.11833
# Poissons Ratio (z) = 0.11827 -0.07742
#
# Static dielectric constant tensor:
#      x y z
#    x 2.964360 0.000000 -0.076180 
#    y 0.000000 3.246950 0.000000 
#    z -0.076180 0.000000 3.241110 
# 
# 
# High freq. dielectric constant tensor:
#      x y z
#    x 1.637880 0.000000 -0.010180 
#    y 0.000000 1.682460 0.000000 
#    z -0.010180 0.000000 1.672210 
# 
# From -- ./inp_files/79503.got.cif
#   From: 2010.03.12/outbox.cif.g09.slc.cpg/sg14_40_cif.got.tgz:79503.got - 2010.03.31 13:35:05.
