data_PCOD8123463
_publ_section_title
;
Structure prediction by ZEFSAII (Michael W. Deem and Ramdas Pophale) SiO2 
 PCOD8123463
Probable space group: P 21/C
;
_chemical_formula_sum "Si O2"
_cell_formula_units_Z 32
_cell_length_a 11.485440
_cell_length_b 9.406111
_cell_length_c 22.295735
_cell_angle_alpha 90.000000
_cell_angle_beta 133.253698
_cell_angle_gamma 90.000000
_cell_volume 1754.307778
_symmetry_space_group_name_H-M "P 21/C"
_symmetry_group_IT_number 14
_symmetry_cell_setting 'monoclinic'
loop_
_space_group_symop_operation_xyz
x,y,z
-x,1/2+y,1/2-z
-x,-y,-z
x,1/2-y,1/2+z
loop_
_atom_site_type_symbol
_atom_site_label
_atom_site_fract_x
_atom_site_fract_y
_atom_site_fract_z
Si Si1 0.678703 0.775103 0.723690
Si Si2 0.284575 0.158261 0.579786
Si Si3 0.541834 0.284129 0.749192
Si Si4 0.942550 0.781715 0.601935
Si Si5 0.349924 0.314908 0.918796
Si Si6 0.198852 0.486833 0.166120
Si Si7 0.769601 0.094434 0.768511
Si Si8 0.558509 0.116941 0.590186
O O1 0.512345 0.787724 0.700806
O O2 0.634777 0.735517 0.639416
O O3 0.794064 0.654341 0.790914
O O4 0.771889 0.925332 0.760154
O O5 0.383263 0.276538 0.651969
O O6 0.152969 0.240789 0.493780
O O7 0.407040 0.072504 0.579381
O O8 0.195008 0.051601 0.594011
O O9 0.640952 0.422640 0.765548
O O10 0.650275 0.141887 0.780003
O O11 0.825629 0.789015 0.617162
O O12 0.043087 0.927008 0.630993
O O13 0.053238 0.645659 0.653417
O O14 0.369880 0.482899 0.918600
O O15 0.490391 0.269829 0.016499
O O16 0.699927 0.174791 0.683661
#
# Coordination Sequence:
#
# PCOD8123463 Si02
#       8
#     4   4   4   4   4   4   4   4
#     4  10  18  30  50  74  98 125 162 205 244 286
#     4   9  17  32  54  75  98 125 163 203 243 287
#     4   9  17  32  53  73  92 123 164 206 246 287
#     4  10  20  32  49  72 102 135 161 192 238 296
#     4   9  17  29  49  72  97 126 164 201 236 282
#     4  10  19  31  51  77  99 123 162 208 245 280
#     4   9  18  32  51  70  96 131 161 196 248 294
#     4   8  15  30  51  71  90 126 167 199 233 285
#
# _framework density 18.240811999999998
#
# number of rings (size 3 to 8) (size 9 to 14) (size 15 to 20)
#    0.000    2.750    0.000    3.375    0.000    2.000 
#    0.000    2.500    0.000   27.000    0.000    0.000 
#    0.000    0.000    0.000    0.000    0.000    0.000 
#
# Total GULP energy -396494.740880 kJ/mol
# GULP energy per Si atom -12390.460653 kJ/mol
# Density = 1.819930 g / cm^3
# Si number density = 18.240812 Si / 1000 Ang^3
#
#
#
# Elastic Constant Matrix: (Units=GPa)
#
#
# Indices 1 2 3 4 5 6 
#
# 1 88.1454 20.9997 56.2261 0.0000 -10.5667 0.0000
# 2 20.9997 51.3002 28.6515 0.0000 -4.2819 0.0000
# 3 56.2261 28.6515 105.6690 0.0000 -2.3407 0.0000
# 4 0.0000 0.0000 0.0000 21.1988 0.0000 1.2286
# 5 -10.5667 -4.2819 -2.3407 0.0000 30.7066 0.0000
# 6 0.0000 0.0000 0.0000 1.2286 0.0000 22.1973
#
#
#
# Elastic Compliance Matrix: (Units=1/GPa)
#
#
# Indices 1 2 3 4 5 6 
#
# 1 0.018217 -0.001964 -0.009043 0.000000 0.005306 0.000000
# 2 -0.001964 0.023415 -0.005256 0.000000 0.002189 0.000000
# 3 -0.009043 -0.005256 0.015642 0.000000 -0.002653 0.000000
# 4 0.000000 0.000000 0.000000 0.047324 0.000000 -0.002619
# 5 0.005306 0.002189 -0.002653 0.000000 0.034495 0.000000
# 6 0.000000 0.000000 0.000000 -0.002619 0.000000 0.045195
#
#
# Mechanical properties :
#
#
# Convention : Reuss Voigt Hill
#
# Bulk Modulus (GPa) = 40.40585 50.76323 45.58454
# Shear Modulus (GPa) = 22.21594 24.10301 23.15948
#
# Velocity S-wave (km/s) = 3.49366 3.63902 3.56708
# Velocity P-wave (km/s) = 6.20272 6.74882 6.48152
#
# Compressibility (1/GPa) = 0.02474889
#
# Stress axis : x y z
#
# Youngs Moduli (GPa) = 54.89262 42.70800 63.93141
#
# Poissons Ratio (x) = 0.08386 0.57816
# Poissons Ratio (y) = 0.10778 0.33599
# Poissons Ratio (z) = 0.49642 0.22445
#
# Static dielectric constant tensor:
#      x y z
#    x 3.445670 0.000000 -0.213960 
#    y 0.000000 3.050690 0.000000 
#    z -0.213960 0.000000 3.703810 
# 
# 
# High freq. dielectric constant tensor:
#      x y z
#    x 1.708880 0.000000 -0.011060 
#    y 0.000000 1.667320 0.000000 
#    z -0.011060 0.000000 1.712890 
# 
# From -- ./inp_files/73001.got.cif
#   From: 2010.03.12/outbox.cif.g09.slc.cpg/sg14_37_cif.got.tgz:73001.got - 2010.03.31 13:35:05.
