data_PCOD8123208
_publ_section_title
;
Structure prediction by ZEFSAII (Michael W. Deem and Ramdas Pophale) SiO2 
 PCOD8123208
Probable space group: P 2/C
;
_chemical_formula_sum "Si O2"
_cell_formula_units_Z 10
_cell_length_a 11.141572
_cell_length_b 7.865548
_cell_length_c 10.149196
_cell_angle_alpha 90.000000
_cell_angle_beta 28.161525
_cell_angle_gamma 90.000000
_cell_volume 419.769839
_symmetry_space_group_name_H-M "P 2/C"
_symmetry_group_IT_number 13
_symmetry_cell_setting 'monoclinic'
loop_
_space_group_symop_operation_xyz
x,y,z
-x,y,1/2-z
-x,-y,-z
x,-y,1/2+z
loop_
_atom_site_type_symbol
_atom_site_label
_atom_site_fract_x
_atom_site_fract_y
_atom_site_fract_z
Si Si1 0.500000 0.197738 0.750000
Si Si2 0.166801 0.943592 0.216653
Si Si3 0.743819 0.390675 0.733605
O O1 0.716563 0.313248 0.611342
O O2 0.610585 0.080778 0.524884
O O3 0.270546 0.756129 0.142918
O O4 0.000000 0.935234 0.250000
O O5 0.000000 0.000000 0.500000
O O6 0.000000 0.500000 0.500000
O O7 0.500000 0.500000 0.000000
#
# Coordination Sequence:
#
# PCOD8123208 Si02
#       3
#     2   4   4
#     4  12  28  52  82 114 162 214 276 320 402 488
#     4  12  27  52  82 114 159 214 274 324 396 492
#     4  12  30  49  79 120 162 208 265 340 403 467
#
# _framework density 23.822576999999999
#
# number of rings (size 3 to 8) (size 9 to 14) (size 15 to 20)
#    0.000    0.000    4.000    3.600   11.200    0.000 
#    0.000    0.000    0.000    0.000    0.000    0.000 
#    0.000    0.000    0.000    0.000    0.000    0.000 
#
# Total GULP energy -124029.779783 kJ/mol
# GULP energy per Si atom -12402.977978 kJ/mol
# Density = 2.376836 g / cm^3
# Si number density = 23.822577 Si / 1000 Ang^3
#
#
#
# Elastic Constant Matrix: (Units=GPa)
#
#
# Indices 1 2 3 4 5 6 
#
# 1 158.1168 81.5649 63.1722 0.0000 0.1888 0.0000
# 2 81.5649 189.1949 98.5705 0.0000 -8.0922 0.0000
# 3 63.1722 98.5705 182.5157 0.0000 1.5314 0.0000
# 4 0.0000 0.0000 0.0000 46.5574 0.0000 -11.7120
# 5 0.1888 -8.0922 1.5314 0.0000 50.2125 0.0000
# 6 0.0000 0.0000 0.0000 -11.7120 0.0000 66.5942
#
#
#
# Elastic Compliance Matrix: (Units=1/GPa)
#
#
# Indices 1 2 3 4 5 6 
#
# 1 0.008366 -0.002950 -0.001298 0.000000 -0.000467 0.000000
# 2 -0.002950 0.008482 -0.003572 0.000000 0.001487 0.000000
# 3 -0.001298 -0.003572 0.007864 0.000000 -0.000811 0.000000
# 4 0.000000 0.000000 0.000000 0.022473 0.000000 0.003952
# 5 -0.000467 0.001487 -0.000811 0.000000 0.020181 0.000000
# 6 0.000000 0.000000 0.000000 0.003952 0.000000 0.015711
#
#
# Mechanical properties :
#
#
# Convention : Reuss Voigt Hill
#
# Bulk Modulus (GPa) = 110.24506 112.93805 111.59156
# Shear Modulus (GPa) = 49.14336 51.77413 50.45874
#
# Velocity S-wave (km/s) = 4.54683 4.66695 4.60728
# Velocity P-wave (km/s) = 8.59901 8.74937 8.67451
#
# Compressibility (1/GPa) = 0.00907070
#
# Stress axis : x y z
#
# Youngs Moduli (GPa) = 119.53846 117.89454 127.15457
#
# Poissons Ratio (x) = 0.34780 0.16509
# Poissons Ratio (y) = 0.35265 0.45424
# Poissons Ratio (z) = 0.15520 0.42116
#
# Static dielectric constant tensor:
#      x y z
#    x 4.757150 0.000000 -0.307120 
#    y 0.000000 5.030760 0.000000 
#    z -0.307120 0.000000 4.263150 
# 
# 
# High freq. dielectric constant tensor:
#      x y z
#    x 1.970730 0.000000 -0.015680 
#    y 0.000000 1.966040 0.000000 
#    z -0.015680 0.000000 1.941410 
# 
# From -- ./inp_files/8275.got.cif
#   From: 2010.06.25/outbox.cif.g09.slc.cpg/sg13_5_cif.got.tgz:8275.got - 2010.06.28 04:50:58.
