data_PCOD8123082
_publ_section_title
;
Structure prediction by ZEFSAII (Michael W. Deem and Ramdas Pophale) SiO2 
 PCOD8123082
Probable space group: P 2/C
;
_chemical_formula_sum "Si O2"
_cell_formula_units_Z 28
_cell_length_a 16.060859
_cell_length_b 6.521567
_cell_length_c 14.200012
_cell_angle_alpha 90.000000
_cell_angle_beta 122.815974
_cell_angle_gamma 90.000000
_cell_volume 1249.981303
_symmetry_space_group_name_H-M "P 2/C"
_symmetry_group_IT_number 13
_symmetry_cell_setting 'monoclinic'
loop_
_space_group_symop_operation_xyz
x,y,z
-x,y,1/2-z
-x,-y,-z
x,-y,1/2+z
loop_
_atom_site_type_symbol
_atom_site_label
_atom_site_fract_x
_atom_site_fract_y
_atom_site_fract_z
Si Si1 0.501298 0.471090 0.611155
Si Si2 0.000000 0.267775 0.250000
Si Si3 0.980145 0.925771 0.092475
Si Si4 0.282416 0.535775 0.174124
Si Si5 0.351976 0.132258 0.602426
Si Si6 0.500000 0.824590 0.750000
Si Si7 0.229327 0.225609 0.986184
Si Si8 0.857784 0.401831 0.744205
O O1 0.500000 0.500000 0.500000
O O2 0.611613 0.426690 0.712887
O O3 0.427031 0.286071 0.593890
O O4 0.471977 0.686518 0.641938
O O5 0.911882 0.405648 0.233404
O O6 0.962243 0.128052 0.142203
O O7 0.880956 0.793204 0.038979
O O8 0.070152 0.788257 0.188156
O O9 0.000000 0.000000 0.000000
O O10 0.267082 0.744110 0.106186
O O11 0.194969 0.512924 0.194939
O O12 0.287897 0.348958 0.103705
O O13 0.408689 0.980865 0.709773
O O14 0.286350 0.985369 0.495144
O O15 0.224890 0.338384 0.882882
#
# Coordination Sequence:
#
# PCOD8123082 Si02
#       8
#     4   2   4   4   4   2   4   4
#     4  12  27  47  74 107 149 193 247 309 375 438
#     4  12  24  50  74 100 156 194 242 310 374 440
#     4  12  26  49  75 108 147 198 247 309 379 445
#     4  12  27  45  71 111 143 194 250 305 375 444
#     4  12  25  48  75 102 151 194 242 310 369 441
#     4  12  22  52  72  98 150 192 244 302 380 436
#     4  12  26  47  74 108 150 191 252 304 368 455
#     4  12  28  47  74 112 148 193 252 305 379 446
#
# _framework density 22.400334000000001
#
# number of rings (size 3 to 8) (size 9 to 14) (size 15 to 20)
#    0.000    0.000    7.143    1.714    8.000    2.857 
#    2.571    0.000    0.000    0.000    0.000    0.000 
#    0.000    0.000    0.000    0.000    0.000    0.000 
#
# Total GULP energy -347063.066340 kJ/mol
# GULP energy per Si atom -12395.109512 kJ/mol
# Density = 2.234935 g / cm^3
# Si number density = 22.400334 Si / 1000 Ang^3
#
#
#
# Elastic Constant Matrix: (Units=GPa)
#
#
# Indices 1 2 3 4 5 6 
#
# 1 114.6208 64.4043 44.9385 0.0000 -11.7976 0.0000
# 2 64.4043 138.2438 55.6899 0.0000 -20.9154 0.0000
# 3 44.9385 55.6899 127.9466 0.0000 -24.7128 0.0000
# 4 0.0000 0.0000 0.0000 24.6619 0.0000 0.5926
# 5 -11.7976 -20.9154 -24.7128 0.0000 35.7627 0.0000
# 6 0.0000 0.0000 0.0000 0.5926 0.0000 32.5843
#
#
#
# Elastic Compliance Matrix: (Units=1/GPa)
#
#
# Indices 1 2 3 4 5 6 
#
# 1 0.012320 -0.004878 -0.002273 0.000000 -0.000360 0.000000
# 2 -0.004878 0.010967 -0.002461 0.000000 0.003104 0.000000
# 3 -0.002273 -0.002461 0.010689 0.000000 0.005197 0.000000
# 4 0.000000 0.000000 0.000000 0.040566 0.000000 -0.000738
# 5 -0.000360 0.003104 0.005197 0.000000 0.033251 0.000000
# 6 0.000000 0.000000 0.000000 -0.000738 0.000000 0.030703
#
#
# Mechanical properties :
#
#
# Convention : Reuss Voigt Hill
#
# Bulk Modulus (GPa) = 67.78764 78.98628 73.38696
# Shear Modulus (GPa) = 30.74341 32.98702 31.86522
#
# Velocity S-wave (km/s) = 3.70868 3.84163 3.77574
# Velocity P-wave (km/s) = 6.97615 7.41722 7.20007
#
# Compressibility (1/GPa) = 0.01475195
#
# Stress axis : x y z
#
# Youngs Moduli (GPa) = 81.17164 91.18212 93.55368
#
# Poissons Ratio (x) = 0.44479 0.21267
# Poissons Ratio (y) = 0.39596 0.23020
# Poissons Ratio (z) = 0.18452 0.22436
#
# Static dielectric constant tensor:
#      x y z
#    x 4.156410 0.000000 -0.041730 
#    y 0.000000 4.385080 0.000000 
#    z -0.041730 0.000000 4.283830 
# 
# 
# High freq. dielectric constant tensor:
#      x y z
#    x 1.888150 0.000000 0.013170 
#    y 0.000000 1.902110 0.000000 
#    z 0.013170 0.000000 1.884240 
# 
# From -- ./inp_files/54624.got.cif
#   From: 2010.06.25/outbox.cif.g09.slc.cpg/sg13_28_cif.got.tgz:54624.got - 2010.06.28 04:50:58.
