data_PCOD8123858
_publ_section_title
;
Structure prediction by ZEFSAII (Michael W. Deem and Ramdas Pophale) SiO2 
 PCOD8123858
Probable space group: P 21/C
;
_chemical_formula_sum "Si O2"
_cell_formula_units_Z 24
_cell_length_a 9.484702
_cell_length_b 9.451606
_cell_length_c 31.091739
_cell_angle_alpha 90.000000
_cell_angle_beta 154.141980
_cell_angle_gamma 90.000000
_cell_volume 1215.633882
_symmetry_space_group_name_H-M "P 21/C"
_symmetry_group_IT_number 14
_symmetry_cell_setting 'monoclinic'
loop_
_space_group_symop_operation_xyz
x,y,z
-x,1/2+y,1/2-z
-x,-y,-z
x,1/2-y,1/2+z
loop_
_atom_site_type_symbol
_atom_site_label
_atom_site_fract_x
_atom_site_fract_y
_atom_site_fract_z
Si Si1 0.428412 0.841730 0.679815
Si Si2 0.085077 0.547384 0.974831
Si Si3 0.345160 0.816014 0.825329
Si Si4 0.748324 0.994638 0.688536
Si Si5 0.772199 0.830163 0.861251
Si Si6 0.024425 0.407552 0.464523
O O1 0.658945 0.914829 0.708137
O O2 0.638321 0.791260 0.777802
O O3 0.261931 0.705665 0.613284
O O4 0.144143 0.949349 0.617976
O O5 0.011675 0.710202 0.944922
O O6 0.468655 0.523806 0.075302
O O7 0.000000 0.500000 0.000000
O O8 0.195197 0.659802 0.786616
O O9 0.477735 0.844429 0.813925
O O10 0.075175 0.932917 0.759303
O O11 0.625494 0.831689 0.938969
O O12 0.969861 0.978945 0.911028
O O13 0.000000 0.500000 0.500000
#
# Coordination Sequence:
#
# PCOD8123858 Si02
#       6
#     4   4   4   4   4   4
#     4  11  21  40  64  87 119 156 200 249 297 343
#     4  10  18  40  63  83 116 165 199 237 290 357
#     4  11  23  40  59  90 121 156 203 241 293 356
#     4  11  23  39  62  86 120 161 199 243 293 357
#     4  11  22  38  65  92 117 153 201 252 294 347
#     4  10  21  37  62  90 116 157 206 240 285 365
#
# _framework density 19.742787
#
# number of rings (size 3 to 8) (size 9 to 14) (size 15 to 20)
#    0.000    1.333    5.000    4.000    7.000    0.000 
#    0.000    3.333    0.000    0.000    0.000    0.000 
#    0.000    0.000    0.000    0.000    0.000    0.000 
#
# Total GULP energy -297504.828487 kJ/mol
# GULP energy per Si atom -12396.034520 kJ/mol
# Density = 1.969785 g / cm^3
# Si number density = 19.742787 Si / 1000 Ang^3
#
#
#
# Elastic Constant Matrix: (Units=GPa)
#
#
# Indices 1 2 3 4 5 6 
#
# 1 42.2909 19.2758 28.6207 0.0000 -1.4739 0.0000
# 2 19.2758 131.7596 23.6773 0.0001 -0.0568 0.0000
# 3 28.6207 23.6773 84.2558 0.0005 -5.4813 -0.0002
# 4 0.0000 0.0001 0.0005 47.9155 0.0000 6.1944
# 5 -1.4739 -0.0568 -5.4813 0.0000 23.2538 0.0000
# 6 0.0000 0.0000 -0.0002 6.1944 0.0000 22.9127
#
#
#
# Elastic Compliance Matrix: (Units=1/GPa)
#
#
# Indices 1 2 3 4 5 6 
#
# 1 0.031688 -0.002841 -0.009989 0.000000 -0.000353 0.000000
# 2 -0.002841 0.008254 -0.001386 0.000000 -0.000487 0.000000
# 3 -0.009989 -0.001386 0.015853 0.000000 0.003100 0.000000
# 4 0.000000 0.000000 0.000000 0.021626 0.000000 -0.005847
# 5 -0.000353 -0.000487 0.003100 0.000000 0.043711 0.000000
# 6 0.000000 0.000000 0.000000 -0.005847 0.000000 0.045224
#
#
# Mechanical properties :
#
#
# Convention : Reuss Voigt Hill
#
# Bulk Modulus (GPa) = 36.54501 44.60597 40.57549
# Shear Modulus (GPa) = 24.52069 31.26525 27.89297
#
# Velocity S-wave (km/s) = 3.52804 3.98380 3.76283
# Velocity P-wave (km/s) = 5.92847 6.61842 6.28293
#
# Compressibility (1/GPa) = 0.02736352
#
# Stress axis : x y z
#
# Youngs Moduli (GPa) = 31.55742 121.15206 63.08009
#
# Poissons Ratio (x) = 0.34420 0.63009
# Poissons Ratio (y) = 0.08966 0.08744
# Poissons Ratio (z) = 0.31522 0.16793
#
# Static dielectric constant tensor:
#      x y z
#    x 3.103480 0.000000 -0.045930 
#    y 0.000000 4.235510 0.000010 
#    z -0.045930 0.000010 4.315990 
# 
# 
# High freq. dielectric constant tensor:
#      x y z
#    x 1.710910 0.000000 -0.002850 
#    y 0.000000 1.798730 0.000000 
#    z -0.002850 0.000000 1.781470 
# 
# From -- ./inp_files/57112.got.cif
#   From: 2010.03.12/outbox.cif.g09.slc.cpg/sg14_29_cif.got.tgz:57112.got - 2010.03.31 13:35:05.
