data_PCOD8123610
_publ_section_title
;
Structure prediction by ZEFSAII (Michael W. Deem and Ramdas Pophale) SiO2 
 PCOD8123610
Probable space group: P 21/C
;
_chemical_formula_sum "Si O2"
_cell_formula_units_Z 20
_cell_length_a 11.004059
_cell_length_b 8.299515
_cell_length_c 8.995442
_cell_angle_alpha 90.000000
_cell_angle_beta 99.441530
_cell_angle_gamma 90.000000
_cell_volume 810.409938
_symmetry_space_group_name_H-M "P 21/C"
_symmetry_group_IT_number 14
_symmetry_cell_setting 'monoclinic'
loop_
_space_group_symop_operation_xyz
x,y,z
-x,1/2+y,1/2-z
-x,-y,-z
x,1/2-y,1/2+z
loop_
_atom_site_type_symbol
_atom_site_label
_atom_site_fract_x
_atom_site_fract_y
_atom_site_fract_z
Si Si1 0.921656 0.405677 0.677875
Si Si2 0.501263 0.772545 0.724579
Si Si3 0.938170 0.751694 0.055209
Si Si4 0.651927 0.412755 0.547659
Si Si5 0.335215 0.206700 0.496779
O O1 0.926470 0.596994 0.663657
O O2 0.786513 0.340257 0.609304
O O3 0.023163 0.316105 0.597464
O O4 0.958697 0.367166 0.855656
O O5 0.433399 0.891786 0.824799
O O6 0.401067 0.678689 0.606567
O O7 0.596225 0.869421 0.633824
O O8 0.589495 0.652662 0.840639
O O9 0.807704 0.656083 0.019480
O O10 0.656245 0.599731 0.511648
#
# Coordination Sequence:
#
# PCOD8123610 Si02
#       5
#     4   4   4   4   4
#     4  10  21  38  59  84 115 150 189 234 285 337
#     4  10  18  34  56  76 106 146 182 216 274 334
#     4  10  21  38  59  84 115 150 189 234 285 337
#     4  10  21  37  55  80 114 145 181 233 281 329
#     4  10  21  37  55  80 114 145 181 233 281 329
#
# _framework density 24.678868000000001
#
# number of rings (size 3 to 8) (size 9 to 14) (size 15 to 20)
#    0.000    2.000    0.000    4.800    0.000    0.800 
#    0.000   22.000    0.000    0.000    0.000    0.000 
#    0.000    0.000    0.000    0.000    0.000    0.000 
#
# Total GULP energy -247922.617156 kJ/mol
# GULP energy per Si atom -12396.130858 kJ/mol
# Density = 2.462270 g / cm^3
# Si number density = 24.678868 Si / 1000 Ang^3
#
#
#
# Elastic Constant Matrix: (Units=GPa)
#
#
# Indices 1 2 3 4 5 6 
#
# 1 165.1577 1.6855 46.5299 0.0000 33.4065 0.0000
# 2 1.6855 11.0167 -0.2987 0.0000 9.6363 0.0000
# 3 46.5299 -0.2987 116.3630 0.0000 27.7706 0.0000
# 4 0.0000 0.0000 0.0000 27.2790 0.0000 2.0107
# 5 33.4065 9.6363 27.7706 0.0000 44.4235 0.0000
# 6 0.0000 0.0000 0.0000 2.0107 0.0000 29.7379
#
#
#
# Elastic Compliance Matrix: (Units=1/GPa)
#
#
# Indices 1 2 3 4 5 6 
#
# 1 0.007600 0.003498 -0.001745 0.000000 -0.005383 0.000000
# 2 0.003498 0.118945 0.006690 0.000000 -0.032614 0.000000
# 3 -0.001745 0.006690 0.010980 0.000000 -0.007003 0.000000
# 4 0.000000 0.000000 0.000000 0.036842 0.000000 -0.002491
# 5 -0.005383 -0.032614 -0.007003 0.000000 0.038011 0.000000
# 6 0.000000 0.000000 0.000000 -0.002491 0.000000 0.033796
#
#
# Mechanical properties :
#
#
# Convention : Reuss Voigt Hill
#
# Bulk Modulus (GPa) = 6.47622 43.15230 24.81426
# Shear Modulus (GPa) = 17.80898 36.59611 27.20255
#
# Velocity S-wave (km/s) = 2.68923 3.85501 3.32363
# Velocity P-wave (km/s) = 3.50321 6.11051 4.98050
#
# Compressibility (1/GPa) = 0.15441098
#
# Stress axis : x y z
#
# Youngs Moduli (GPa) = 131.58636 8.40724 91.07388
#
# Poissons Ratio (x) = -0.02941 0.15894
# Poissons Ratio (y) = -0.46033 -0.60929
# Poissons Ratio (z) = 0.22965 -0.05625
#
# Static dielectric constant tensor:
#      x y z
#    x 4.990000 0.000000 0.230600 
#    y 0.000000 3.845650 0.000000 
#    z 0.230600 0.000000 4.624850 
# 
# 
# High freq. dielectric constant tensor:
#      x y z
#    x 1.996810 0.000000 0.010650 
#    y 0.000000 1.941770 0.000000 
#    z 0.010650 0.000000 1.999730 
# 
# From -- ./inp_files/11766.got.cif
#   From: 2010.03.12/outbox.cif.g09.slc.cpg/sg14_6_cif.got.tgz:11766.got - 2010.03.31 13:35:05.
