data_PCOD8123712
_publ_section_title
;
Structure prediction by ZEFSAII (Michael W. Deem and Ramdas Pophale) SiO2 
 PCOD8123712
Probable space group: P 21/C
;
_chemical_formula_sum "Si O2"
_cell_formula_units_Z 16
_cell_length_a 11.982737
_cell_length_b 7.328288
_cell_length_c 13.628332
_cell_angle_alpha 90.000000
_cell_angle_beta 46.532458
_cell_angle_gamma 90.000000
_cell_volume 868.553964
_symmetry_space_group_name_H-M "P 21/C"
_symmetry_group_IT_number 14
_symmetry_cell_setting 'monoclinic'
loop_
_space_group_symop_operation_xyz
x,y,z
-x,1/2+y,1/2-z
-x,-y,-z
x,1/2-y,1/2+z
loop_
_atom_site_type_symbol
_atom_site_label
_atom_site_fract_x
_atom_site_fract_y
_atom_site_fract_z
Si Si1 0.821787 0.979479 0.589675
Si Si2 0.392904 0.350948 0.613228
Si Si3 0.610981 0.288639 0.642550
Si Si4 0.338316 0.204196 0.937110
O O1 0.737754 0.951173 0.744202
O O2 0.801061 0.802216 0.534190
O O3 0.753762 0.154219 0.572704
O O4 0.000000 0.000000 0.500000
O O5 0.500000 0.500000 0.500000
O O6 0.500223 0.224526 0.618523
O O7 0.317351 0.248652 0.565836
O O8 0.502204 0.288518 0.804340
O O9 0.673076 0.490535 0.582894
#
# Coordination Sequence:
#
# PCOD8123712 Si02
#       4
#     4   4   4   4
#     4  11  23  39  55  86 121 146 184 242 286 325
#     4   9  18  37  61  81 109 147 196 232 265 348
#     4  10  18  35  63  82 110 150 190 234 276 332
#     4  10  19  38  60  87 110 150 196 230 277 341
#
# _framework density 18.421422
#
# number of rings (size 3 to 8) (size 9 to 14) (size 15 to 20)
#    0.000    2.000    7.500    0.000    0.000    2.000 
#    9.000    0.000    0.000    0.000    0.000    0.000 
#    0.000    0.000    0.000    0.000    0.000    0.000 
#
# Total GULP energy -198258.207359 kJ/mol
# GULP energy per Si atom -12391.137960 kJ/mol
# Density = 1.837949 g / cm^3
# Si number density = 18.421422 Si / 1000 Ang^3
#
#
#
# Elastic Constant Matrix: (Units=GPa)
#
#
# Indices 1 2 3 4 5 6 
#
# 1 149.6230 73.5568 86.2891 0.0000 -2.0529 0.0000
# 2 73.5568 96.5092 35.9674 0.0000 5.4644 0.0000
# 3 86.2891 35.9674 109.2891 0.0000 13.8862 0.0000
# 4 0.0000 0.0000 0.0000 19.0840 0.0000 1.5786
# 5 -2.0529 5.4644 13.8862 0.0000 36.9969 0.0000
# 6 0.0000 0.0000 0.0000 1.5786 0.0000 35.9363
#
#
#
# Elastic Compliance Matrix: (Units=1/GPa)
#
#
# Indices 1 2 3 4 5 6 
#
# 1 0.019143 -0.010287 -0.012660 0.000000 0.007333 0.000000
# 2 -0.010287 0.017341 0.002954 0.000000 -0.004241 0.000000
# 3 -0.012660 0.002954 0.019236 0.000000 -0.008359 0.000000
# 4 0.000000 0.000000 0.000000 0.052591 0.000000 -0.002310
# 5 0.007333 -0.004241 -0.008359 0.000000 0.031200 0.000000
# 6 0.000000 0.000000 0.000000 -0.002310 0.000000 0.027929
#
#
# Mechanical properties :
#
#
# Convention : Reuss Voigt Hill
#
# Bulk Modulus (GPa) = 63.56087 83.00533 73.28310
# Shear Modulus (GPa) = 23.51051 29.04397 26.27724
#
# Velocity S-wave (km/s) = 3.57635 3.97500 3.78093
# Velocity P-wave (km/s) = 7.18557 8.13784 7.67649
#
# Compressibility (1/GPa) = 0.01573295
#
# Stress axis : x y z
#
# Youngs Moduli (GPa) = 52.23934 57.66530 51.98587
#
# Poissons Ratio (x) = 0.59320 0.65816
# Poissons Ratio (y) = 0.53738 -0.15355
# Poissons Ratio (z) = 0.66137 -0.17033
#
# Static dielectric constant tensor:
#      x y z
#    x -0.848090 0.000000 -5.373180 
#    y 0.000000 3.522790 0.000000 
#    z -5.373180 0.000000 -4.180010 
# 
# 
# High freq. dielectric constant tensor:
#      x y z
#    x 1.711850 0.000000 0.026910 
#    y 0.000000 1.703350 0.000000 
#    z 0.026910 0.000000 1.704250 
# 
# From -- ./inp_files/22681.got.cif
#   From: 2010.03.12/outbox.cif.g09.slc.cpg/sg14_12_cif.got.tgz:22681.got - 2010.03.31 13:35:05.
