data_PCOD8123504
_publ_section_title
;
Structure prediction by ZEFSAII (Michael W. Deem and Ramdas Pophale) SiO2 
 PCOD8123504
Probable space group: P 21/C
;
_chemical_formula_sum "Si O2"
_cell_formula_units_Z 32
_cell_length_a 7.158603
_cell_length_b 15.662098
_cell_length_c 12.675641
_cell_angle_alpha 90.000000
_cell_angle_beta 111.844633
_cell_angle_gamma 90.000000
_cell_volume 1319.131091
_symmetry_space_group_name_H-M "P 21/C"
_symmetry_group_IT_number 14
_symmetry_cell_setting 'monoclinic'
loop_
_space_group_symop_operation_xyz
x,y,z
-x,1/2+y,1/2-z
-x,-y,-z
x,1/2-y,1/2+z
loop_
_atom_site_type_symbol
_atom_site_label
_atom_site_fract_x
_atom_site_fract_y
_atom_site_fract_z
Si Si1 0.645475 0.243693 0.941991
Si Si2 0.075655 0.066203 0.181199
Si Si3 0.109094 0.607481 0.046082
Si Si4 0.364434 0.293567 0.700236
Si Si5 0.525638 0.152936 0.610238
Si Si6 0.328440 0.572913 0.652190
Si Si7 0.741347 0.970434 0.559374
Si Si8 0.664591 0.438825 0.707184
O O1 0.836779 0.293265 0.932106
O O2 0.443918 0.269251 0.834415
O O3 0.697348 0.143138 0.945911
O O4 0.627104 0.275402 0.057863
O O5 0.145560 0.160710 0.158286
O O6 0.226421 0.047750 0.311371
O O7 0.838164 0.065120 0.153369
O O8 0.137835 0.991964 0.110778
O O9 0.224060 0.551611 0.158508
O O10 0.874722 0.594299 0.015704
O O11 0.190628 0.567797 0.952478
O O12 0.343418 0.206041 0.628479
O O13 0.523192 0.355954 0.674546
O O14 0.669882 0.122115 0.734953
O O15 0.474869 0.065553 0.531355
O O16 0.534408 0.524325 0.666812
#
# Coordination Sequence:
#
# PCOD8123504 Si02
#       8
#     4   4   4   4   4   4   4   4
#     4  10  20  36  52  79 118 148 173 230 282 324
#     4  10  19  36  59  79 109 152 183 227 278 323
#     4   9  18  32  53  84 115 134 180 232 278 334
#     4   9  20  36  55  80 113 145 183 225 277 332
#     4  11  20  35  54  85 115 143 178 230 283 328
#     4  10  21  36  57  85 111 144 189 225 273 331
#     4  10  18  31  58  87 108 143 179 231 288 325
#     4   9  18  36  57  78 109 146 187 228 267 328
#
# _framework density 24.258393999999999
#
# number of rings (size 3 to 8) (size 9 to 14) (size 15 to 20)
#    0.000    2.250    2.500    0.750    0.000    1.000 
#    4.500    5.000    0.000    1.500    0.000    0.000 
#    0.000    0.000    0.000    0.000    0.000    0.000 
#
# Total GULP energy -396596.520604 kJ/mol
# GULP energy per Si atom -12393.641269 kJ/mol
# Density = 2.420318 g / cm^3
# Si number density = 24.258394 Si / 1000 Ang^3
#
#
#
# Elastic Constant Matrix: (Units=GPa)
#
#
# Indices 1 2 3 4 5 6 
#
# 1 88.4062 1.2523 2.7319 0.0000 -18.7247 0.0000
# 2 1.2523 103.3510 25.6253 0.0000 -17.6135 0.0000
# 3 2.7319 25.6253 34.7494 0.0000 -6.5488 0.0000
# 4 0.0000 0.0000 0.0000 36.2431 0.0000 -8.3136
# 5 -18.7247 -17.6135 -6.5488 0.0000 19.7874 0.0000
# 6 0.0000 0.0000 0.0000 -8.3136 0.0000 26.1972
#
#
#
# Elastic Compliance Matrix: (Units=1/GPa)
#
#
# Indices 1 2 3 4 5 6 
#
# 1 0.014711 0.002588 -0.000008 0.000000 0.016222 0.000000
# 2 0.002588 0.013675 -0.008033 0.000000 0.011963 0.000000
# 3 -0.000008 -0.008033 0.035572 0.000000 0.004614 0.000000
# 4 0.000000 0.000000 0.000000 0.029758 0.000000 0.009443
# 5 0.016222 0.011963 0.004614 0.000000 0.078065 0.000000
# 6 0.000000 0.000000 0.000000 0.009443 0.000000 0.041169
#
#
# Mechanical properties :
#
#
# Convention : Reuss Voigt Hill
#
# Bulk Modulus (GPa) = 18.84952 31.74728 25.29840
# Shear Modulus (GPa) = 20.70061 29.57201 25.13631
#
# Velocity S-wave (km/s) = 2.92436 3.49527 3.22248
# Velocity P-wave (km/s) = 4.38061 5.42261 4.92922
#
# Compressibility (1/GPa) = 0.05305174
#
# Stress axis : x y z
#
# Youngs Moduli (GPa) = 67.97666 73.12570 28.11224
#
# Poissons Ratio (x) = -0.18928 0.00023
# Poissons Ratio (y) = -0.17595 0.22583
# Poissons Ratio (z) = 0.00055 0.58744
#
# Static dielectric constant tensor:
#      x y z
#    x 4.297480 0.000000 -0.219810 
#    y 0.000000 4.579680 0.000000 
#    z -0.219810 0.000000 4.005490 
# 
# 
# High freq. dielectric constant tensor:
#      x y z
#    x 1.957050 0.000000 -0.016150 
#    y 0.000000 1.977060 0.000000 
#    z -0.016150 0.000000 1.939390 
# 
# From -- ./inp_files/40987.got.cif
#   From: 2010.03.12/outbox.cif.g09.slc.cpg/sg14_21_cif.got.tgz:40987.got - 2010.03.31 13:35:05.
