data_PCOD8123092
_publ_section_title
;
Structure prediction by ZEFSAII (Michael W. Deem and Ramdas Pophale) SiO2 
 PCOD8123092
Probable space group: P 2/C
;
_chemical_formula_sum "Si O2"
_cell_formula_units_Z 26
_cell_length_a 18.276868
_cell_length_b 9.077327
_cell_length_c 6.886745
_cell_angle_alpha 90.000000
_cell_angle_beta 123.202784
_cell_angle_gamma 90.000000
_cell_volume 956.011461
_symmetry_space_group_name_H-M "P 2/C"
_symmetry_group_IT_number 13
_symmetry_cell_setting 'monoclinic'
loop_
_space_group_symop_operation_xyz
x,y,z
-x,y,1/2-z
-x,-y,-z
x,-y,1/2+z
loop_
_atom_site_type_symbol
_atom_site_label
_atom_site_fract_x
_atom_site_fract_y
_atom_site_fract_z
Si Si1 0.898645 0.510455 0.310131
Si Si2 0.898093 0.990531 0.814171
Si Si3 0.361807 0.712896 0.268683
Si Si4 0.823741 0.751278 0.988738
Si Si5 0.637903 0.617683 0.654836
Si Si6 0.828988 0.249918 0.993766
Si Si7 0.500000 0.281377 0.250000
O O1 0.886067 0.599935 0.079024
O O2 0.850184 0.351730 0.219904
O O3 0.847060 0.634062 0.351861
O O4 0.000000 0.500000 0.500000
O O5 0.889546 0.902296 0.585672
O O6 0.849454 0.149116 0.720968
O O7 0.843868 0.865738 0.847120
O O8 0.000000 0.000000 0.000000
O O9 0.341710 0.555019 0.343378
O O10 0.433441 0.803732 0.505211
O O11 0.393113 0.689905 0.093363
O O12 0.271361 0.802027 0.142544
O O13 0.722310 0.707233 0.854875
O O14 0.558380 0.621118 0.690650
#
# Coordination Sequence:
#
# PCOD8123092 Si02
#       7
#     4   4   4   4   4   4   2
#     4  12  25  42  69 106 146 195 246 311 381 440
#     4  12  27  48  74 103 142 202 262 305 365 445
#     4  12  23  43  72 113 153 199 243 305 389 463
#     4  12  26  49  70 103 148 197 252 314 375 453
#     4  12  24  44  72 113 156 195 249 304 393 463
#     4  12  24  46  70 105 150 193 244 312 373 447
#     4  12  26  40  76 118 158 190 242 314 390 468
#
# _framework density 27.196325999999999
#
# number of rings (size 3 to 8) (size 9 to 14) (size 15 to 20)
#    0.000    0.000    4.615    6.462    0.000    2.462 
#    0.000    0.000    0.000    3.692    0.000    0.000 
#    0.000    0.000    0.000    0.000    0.000    0.000 
#
# Total GULP energy -322245.370595 kJ/mol
# GULP energy per Si atom -12394.052715 kJ/mol
# Density = 2.713443 g / cm^3
# Si number density = 27.196326 Si / 1000 Ang^3
#
#
#
# Elastic Constant Matrix: (Units=GPa)
#
#
# Indices 1 2 3 4 5 6 
#
# 1 145.7527 38.8530 62.2111 0.0000 27.4758 0.0000
# 2 38.8530 162.4627 53.5700 0.0000 10.8685 0.0000
# 3 62.2111 53.5700 219.6421 0.0000 34.4851 0.0000
# 4 0.0000 0.0000 0.0000 39.0102 0.0000 -4.1202
# 5 27.4758 10.8685 34.4851 0.0000 46.9309 0.0000
# 6 0.0000 0.0000 0.0000 -4.1202 0.0000 26.4826
#
#
#
# Elastic Compliance Matrix: (Units=1/GPa)
#
#
# Indices 1 2 3 4 5 6 
#
# 1 0.008536 -0.001294 -0.001542 0.000000 -0.003564 0.000000
# 2 -0.001294 0.006896 -0.001338 0.000000 0.000144 0.000000
# 3 -0.001542 -0.001338 0.005794 0.000000 -0.003045 0.000000
# 4 0.000000 0.000000 0.000000 0.026063 0.000000 0.004055
# 5 -0.003564 0.000144 -0.003045 0.000000 0.025599 0.000000
# 6 0.000000 0.000000 0.000000 0.004055 0.000000 0.038392
#
#
# Mechanical properties :
#
#
# Convention : Reuss Voigt Hill
#
# Bulk Modulus (GPa) = 77.65732 93.01395 85.33563
# Shear Modulus (GPa) = 40.34813 47.36629 43.85721
#
# Velocity S-wave (km/s) = 3.85592 4.17783 4.02009
# Velocity P-wave (km/s) = 6.95992 7.58601 7.27970
#
# Compressibility (1/GPa) = 0.01287709
#
# Stress axis : x y z
#
# Youngs Moduli (GPa) = 117.14717 145.00391 172.58932
#
# Poissons Ratio (x) = 0.18769 0.26621
# Poissons Ratio (y) = 0.15163 0.23092
# Poissons Ratio (z) = 0.18070 0.19401
#
# Static dielectric constant tensor:
#      x y z
#    x 5.699730 0.000000 -1.894680 
#    y 0.000000 5.450540 0.000000 
#    z -1.894680 0.000000 7.524270 
# 
# 
# High freq. dielectric constant tensor:
#      x y z
#    x 2.115060 0.000000 -0.059160 
#    y 0.000000 2.084320 0.000000 
#    z -0.059160 0.000000 2.172580 
# 
# From -- ./inp_files/23001.got.cif
#   From: 2010.06.25/outbox.cif.g09.slc.cpg/sg13_12_cif.got.tgz:23001.got - 2010.06.28 04:50:58.
