data_PCOD8123849
_publ_section_title
;
Structure prediction by ZEFSAII (Michael W. Deem and Ramdas Pophale) SiO2 
 PCOD8123849
Probable space group: P 21/C
;
_chemical_formula_sum "Si O2"
_cell_formula_units_Z 32
_cell_length_a 11.553098
_cell_length_b 8.876299
_cell_length_c 27.979879
_cell_angle_alpha 90.000000
_cell_angle_beta 147.044490
_cell_angle_gamma 90.000000
_cell_volume 1560.864665
_symmetry_space_group_name_H-M "P 21/C"
_symmetry_group_IT_number 14
_symmetry_cell_setting 'monoclinic'
loop_
_space_group_symop_operation_xyz
x,y,z
-x,1/2+y,1/2-z
-x,-y,-z
x,1/2-y,1/2+z
loop_
_atom_site_type_symbol
_atom_site_label
_atom_site_fract_x
_atom_site_fract_y
_atom_site_fract_z
Si Si1 0.318482 0.006412 0.898279
Si Si2 0.512673 0.388988 0.811310
Si Si3 0.302225 0.467834 0.989954
Si Si4 0.144892 0.494957 0.747808
Si Si5 0.078789 0.873970 0.492141
Si Si6 0.303303 0.346146 0.892571
Si Si7 0.366489 0.231050 0.666080
Si Si8 0.418777 0.762536 0.853407
O O1 0.293481 0.175590 0.870561
O O2 0.371581 0.900320 0.871952
O O3 0.100365 0.962788 0.850216
O O4 0.500000 0.000000 0.000000
O O5 0.295853 0.393737 0.766852
O O6 0.697524 0.311737 0.908385
O O7 0.474808 0.290558 0.751487
O O8 0.578121 0.555577 0.818389
O O9 0.212158 0.367866 0.914909
O O10 0.110738 0.549398 0.951331
O O11 0.451455 0.600999 0.021586
O O12 0.427765 0.362215 0.070250
O O13 0.163917 0.448680 0.809740
O O14 0.201354 0.673756 0.763999
O O15 0.891990 0.748076 0.422682
O O16 0.000000 0.000000 0.500000
O O17 0.464818 0.320491 0.654559
#
# Coordination Sequence:
#
# PCOD8123849 Si02
#       8
#     4   4   4   4   4   4   4   4
#     4  12  24  38  60  94 126 158 204 256 315 366
#     4  10  21  43  64  89 128 163 207 266 310 367
#     4  10  18  39  67  87 117 165 202 250 305 374
#     4  10  22  44  61  83 129 168 199 255 313 373
#     4  10  18  40  68  87 117 168 214 246 302 387
#     4  10  21  38  63  90 120 161 207 248 309 376
#     4  10  22  41  66  95 121 167 217 257 313 375
#     4  10  20  43  62  86 131 158 203 261 307 369
#
# _framework density 20.501456000000001
#
# number of rings (size 3 to 8) (size 9 to 14) (size 15 to 20)
#    0.000    1.750    6.250    0.750    0.000    2.000 
#   20.250    0.625    0.000    0.000    0.000    0.000 
#    0.000    0.000    0.000    0.000    0.000    0.000 
#
# Total GULP energy -396690.132792 kJ/mol
# GULP energy per Si atom -12396.566650 kJ/mol
# Density = 2.045479 g / cm^3
# Si number density = 20.501456 Si / 1000 Ang^3
#
#
#
# Elastic Constant Matrix: (Units=GPa)
#
#
# Indices 1 2 3 4 5 6 
#
# 1 148.9141 41.0208 64.7170 0.0000 0.2330 0.0000
# 2 41.0208 59.4395 27.4624 0.0000 3.7655 0.0000
# 3 64.7170 27.4624 119.7987 0.0000 12.9042 0.0000
# 4 0.0000 0.0000 0.0000 21.4517 0.0000 -11.5249
# 5 0.2330 3.7655 12.9042 0.0000 35.2017 0.0000
# 6 0.0000 0.0000 0.0000 -11.5249 0.0000 26.6049
#
#
#
# Elastic Compliance Matrix: (Units=1/GPa)
#
#
# Indices 1 2 3 4 5 6 
#
# 1 0.010046 -0.004982 -0.004513 0.000000 0.002121 0.000000
# 2 -0.004982 0.021294 -0.002028 0.000000 -0.001501 0.000000
# 3 -0.004513 -0.002028 0.011685 0.000000 -0.004037 0.000000
# 4 0.000000 0.000000 0.000000 0.060756 0.000000 0.026319
# 5 0.002121 -0.001501 -0.004037 0.000000 0.030034 0.000000
# 6 0.000000 0.000000 0.000000 0.026319 0.000000 0.048988
#
#
# Mechanical properties :
#
#
# Convention : Reuss Voigt Hill
#
# Bulk Modulus (GPa) = 50.05497 66.06140 58.05818
# Shear Modulus (GPa) = 23.52828 29.64846 26.58837
#
# Velocity S-wave (km/s) = 3.39136 3.80697 3.60516
# Velocity P-wave (km/s) = 6.30899 7.18448 6.76092
#
# Compressibility (1/GPa) = 0.01997804
#
# Stress axis : x y z
#
# Youngs Moduli (GPa) = 99.54455 46.96091 85.57784
#
# Poissons Ratio (x) = 0.23396 0.38623
# Poissons Ratio (y) = 0.49593 0.17359
# Poissons Ratio (z) = 0.44927 0.09526
#
# Static dielectric constant tensor:
#      x y z
#    x 3.822590 0.000000 0.105420 
#    y 0.000000 3.564540 0.000000 
#    z 0.105420 0.000000 4.030070 
# 
# 
# High freq. dielectric constant tensor:
#      x y z
#    x 1.814240 0.000000 0.002160 
#    y 0.000000 1.770890 0.000000 
#    z 0.002160 0.000000 1.799660 
# 
# From -- ./inp_files/80020.got.cif
#   From: 2010.03.12/outbox.cif.g09.slc.cpg/sg14_41_cif.got.tgz:80020.got - 2010.03.31 13:35:05.
