data_PCOD8123976
_publ_section_title
;
Structure prediction by ZEFSAII (Michael W. Deem and Ramdas Pophale) SiO2 
 PCOD8123976
Probable space group: P 21/C
;
_chemical_formula_sum "Si O2"
_cell_formula_units_Z 20
_cell_length_a 13.991033
_cell_length_b 8.985266
_cell_length_c 19.992437
_cell_angle_alpha 90.000000
_cell_angle_beta 156.072127
_cell_angle_gamma 90.000000
_cell_volume 1019.365037
_symmetry_space_group_name_H-M "P 21/C"
_symmetry_group_IT_number 14
_symmetry_cell_setting 'monoclinic'
loop_
_space_group_symop_operation_xyz
x,y,z
-x,1/2+y,1/2-z
-x,-y,-z
x,1/2-y,1/2+z
loop_
_atom_site_type_symbol
_atom_site_label
_atom_site_fract_x
_atom_site_fract_y
_atom_site_fract_z
Si Si1 0.780667 0.253343 0.589110
Si Si2 0.612375 0.512199 0.322147
Si Si3 0.993759 0.531861 0.667450
Si Si4 0.728821 0.836772 0.758144
Si Si5 0.809786 0.308264 0.962130
O O1 0.879622 0.421482 0.649856
O O2 0.496243 0.255273 0.411511
O O3 0.858401 0.164608 0.571947
O O4 0.887472 0.172356 0.721782
O O5 0.788769 0.592180 0.487196
O O6 0.672303 0.561933 0.285567
O O7 0.340123 0.556067 0.165171
O O8 0.638097 0.335776 0.346459
O O9 0.187952 0.443984 0.748375
O O10 0.939224 0.721026 0.912720
#
# Coordination Sequence:
#
# PCOD8123976 Si02
#       5
#     4   4   4   4   4
#     4   9  19  33  50  73 102 130 161 201 244 291
#     4   9  18  33  53  75  97 125 167 207 242 287
#     4  10  19  33  51  75 100 130 165 201 242 292
#     4   9  17  34  55  73  95 131 168 201 240 294
#     4   9  18  33  51  74 100 128 162 204 244 288
#
# _framework density 19.620058
#
# number of rings (size 3 to 8) (size 9 to 14) (size 15 to 20)
#    0.000    3.200    0.000    3.000    0.000    3.200 
#    0.000   17.000    0.000    9.600    0.000    1.400 
#    0.000    0.000    0.000    0.000    0.000    0.000 
#
# Total GULP energy -247847.385592 kJ/mol
# GULP energy per Si atom -12392.369280 kJ/mol
# Density = 1.957540 g / cm^3
# Si number density = 19.620058 Si / 1000 Ang^3
#
#
#
# Elastic Constant Matrix: (Units=GPa)
#
#
# Indices 1 2 3 4 5 6 
#
# 1 60.2067 20.9269 16.0572 0.0000 -0.7817 0.0000
# 2 20.9269 44.7110 35.6816 0.0000 -2.8629 0.0000
# 3 16.0572 35.6816 83.8299 0.0000 -5.4692 0.0000
# 4 0.0000 0.0000 0.0000 22.9826 0.0000 -0.9852
# 5 -0.7817 -2.8629 -5.4692 0.0000 20.0396 0.0000
# 6 0.0000 0.0000 0.0000 -0.9852 0.0000 21.1293
#
#
#
# Elastic Compliance Matrix: (Units=1/GPa)
#
#
# Indices 1 2 3 4 5 6 
#
# 1 0.019845 -0.009482 0.000200 0.000000 -0.000526 0.000000
# 2 -0.009482 0.038419 -0.014460 0.000000 0.001172 0.000000
# 3 0.000200 -0.014460 0.018236 0.000000 0.002919 0.000000
# 4 0.000000 0.000000 0.000000 0.043598 0.000000 0.002033
# 5 -0.000526 0.001172 0.002919 0.000000 0.050845 0.000000
# 6 0.000000 0.000000 0.000000 0.002033 0.000000 0.047422
#
#
# Mechanical properties :
#
#
# Convention : Reuss Voigt Hill
#
# Bulk Modulus (GPa) = 34.46328 37.11987 35.79158
# Shear Modulus (GPa) = 18.14749 20.56909 19.35829
#
# Velocity S-wave (km/s) = 3.04459 3.24137 3.14452
# Velocity P-wave (km/s) = 5.47383 5.74187 5.60945
#
# Compressibility (1/GPa) = 0.02901639
#
# Stress axis : x y z
#
# Youngs Moduli (GPa) = 50.39068 26.02900 54.83744
#
# Poissons Ratio (x) = 0.24681 -0.01099
# Poissons Ratio (y) = 0.47780 0.79295
# Poissons Ratio (z) = -0.01010 0.37638
#
# Static dielectric constant tensor:
#      x y z
#    x 3.505260 0.000000 0.108290 
#    y 0.000000 3.262630 0.000000 
#    z 0.108290 0.000000 3.837590 
# 
# 
# High freq. dielectric constant tensor:
#      x y z
#    x 1.752940 0.000000 0.004910 
#    y 0.000000 1.733210 0.000000 
#    z 0.004910 0.000000 1.777290 
# 
# From -- ./inp_files/23525.got.cif
#   From: 2010.03.12/outbox.cif.g09.slc.cpg/sg14_12_cif.got.tgz:23525.got - 2010.03.31 13:35:05.
