data_PCOD8123156
_publ_section_title
;
Structure prediction by ZEFSAII (Michael W. Deem and Ramdas Pophale) SiO2 
 PCOD8123156
Probable space group: P 2/C
;
_chemical_formula_sum "Si O2"
_cell_formula_units_Z 12
_cell_length_a 4.919805
_cell_length_b 13.165837
_cell_length_c 9.336045
_cell_angle_alpha 90.000000
_cell_angle_beta 121.937835
_cell_angle_gamma 90.000000
_cell_volume 513.184899
_symmetry_space_group_name_H-M "P 2/C"
_symmetry_group_IT_number 13
_symmetry_cell_setting 'monoclinic'
loop_
_space_group_symop_operation_xyz
x,y,z
-x,y,1/2-z
-x,-y,-z
x,-y,1/2+z
loop_
_atom_site_type_symbol
_atom_site_label
_atom_site_fract_x
_atom_site_fract_y
_atom_site_fract_z
Si Si1 0.091520 0.788167 0.434583
Si Si2 0.698310 0.103057 0.069194
Si Si3 0.703370 0.433037 0.447244
O O1 0.450066 0.822487 0.577524
O O2 0.120828 0.667247 0.445002
O O3 0.000000 0.824560 0.250000
O O4 0.823244 0.840769 0.460052
O O5 0.000000 0.078757 0.250000
O O6 0.500000 0.000000 0.000000
O O7 0.500000 0.405952 0.250000
O O8 0.500000 0.500000 0.500000
O O9 0.000000 0.500000 0.500000
#
# Coordination Sequence:
#
# PCOD8123156 Si02
#       3
#     4   4   4
#     4  12  26  46  71 103 140 184 233 289 349 416
#     4  12  26  47  71 101 138 183 233 290 351 417
#     4  12  25  45  71 104 142 185 231 285 347 417
#
# _framework density 23.383382999999998
#
# number of rings (size 3 to 8) (size 9 to 14) (size 15 to 20)
#    0.000    0.000    0.000   11.000    0.000    2.667 
#    0.000    0.000    0.000    0.000    0.000    0.000 
#    0.000    0.000    0.000    0.000    0.000    0.000 
#
# Total GULP energy -148685.992887 kJ/mol
# GULP energy per Si atom -12390.499407 kJ/mol
# Density = 2.333016 g / cm^3
# Si number density = 23.383383 Si / 1000 Ang^3
#
#
#
# Elastic Constant Matrix: (Units=GPa)
#
#
# Indices 1 2 3 4 5 6 
#
# 1 179.4409 90.6228 14.1284 0.0000 14.5464 0.0000
# 2 90.6228 190.6248 31.2270 0.0000 6.7173 0.0000
# 3 14.1284 31.2270 95.0466 0.0000 12.0436 0.0000
# 4 0.0000 0.0000 0.0000 20.7885 0.0000 1.9779
# 5 14.5464 6.7173 12.0436 0.0000 49.0935 0.0000
# 6 0.0000 0.0000 0.0000 1.9779 0.0000 60.3914
#
#
#
# Elastic Compliance Matrix: (Units=1/GPa)
#
#
# Indices 1 2 3 4 5 6 
#
# 1 0.007485 -0.003541 0.000279 0.000000 -0.001802 0.000000
# 2 -0.003541 0.007224 -0.001914 0.000000 0.000530 0.000000
# 3 0.000279 -0.001914 0.011442 0.000000 -0.002628 0.000000
# 4 0.000000 0.000000 0.000000 0.048254 0.000000 -0.001580
# 5 -0.001802 0.000530 -0.002628 0.000000 0.021475 0.000000
# 6 0.000000 0.000000 0.000000 -0.001580 0.000000 0.016610
#
#
# Mechanical properties :
#
#
# Convention : Reuss Voigt Hill
#
# Bulk Modulus (GPa) = 63.29638 81.89656 72.59647
# Shear Modulus (GPa) = 39.02950 47.99695 43.51323
#
# Velocity S-wave (km/s) = 4.08991 4.53549 4.31845
# Velocity P-wave (km/s) = 7.03071 7.90740 7.48191
#
# Compressibility (1/GPa) = 0.01579869
#
# Stress axis : x y z
#
# Youngs Moduli (GPa) = 133.59931 138.42737 87.40065
#
# Poissons Ratio (x) = 0.49011 -0.02438
# Poissons Ratio (y) = 0.47302 0.16731
# Poissons Ratio (z) = -0.03726 0.26499
#
# Static dielectric constant tensor:
#      x y z
#    x 6.021050 0.000000 1.234860 
#    y 0.000000 4.334650 0.000000 
#    z 1.234860 0.000000 5.220870 
# 
# 
# High freq. dielectric constant tensor:
#      x y z
#    x 1.948010 0.000000 0.014590 
#    y 0.000000 1.950990 0.000000 
#    z 0.014590 0.000000 1.935830 
# 
# From -- ./inp_files/25417.got.cif
#   From: 2010.06.25/outbox.cif.g09.slc.cpg/sg13_13_cif.got.tgz:25417.got - 2010.06.28 04:50:58.
