data_PCOD8123338
_publ_section_title
;
Structure prediction by ZEFSAII (Michael W. Deem and Ramdas Pophale) SiO2 
 PCOD8123338
Probable space group: P 21/C
;
_chemical_formula_sum "Si O2"
_cell_formula_units_Z 32
_cell_length_a 14.250371
_cell_length_b 14.647830
_cell_length_c 13.849289
_cell_angle_alpha 90.000000
_cell_angle_beta 145.273683
_cell_angle_gamma 90.000000
_cell_volume 1646.798438
_symmetry_space_group_name_H-M "P 21/C"
_symmetry_group_IT_number 14
_symmetry_cell_setting 'monoclinic'
loop_
_space_group_symop_operation_xyz
x,y,z
-x,1/2+y,1/2-z
-x,-y,-z
x,1/2-y,1/2+z
loop_
_atom_site_type_symbol
_atom_site_label
_atom_site_fract_x
_atom_site_fract_y
_atom_site_fract_z
Si Si1 0.615862 0.975841 0.510615
Si Si2 0.712186 0.331363 0.081784
Si Si3 0.681945 0.476980 0.612171
Si Si4 0.646750 0.316214 0.808105
Si Si5 0.877711 0.305260 0.840863
Si Si6 0.771925 0.633088 0.808240
Si Si7 0.465610 0.017456 0.769525
Si Si8 0.587037 0.781722 0.532381
O O1 0.507516 0.972960 0.321416
O O2 0.688583 0.873906 0.587936
O O3 0.500000 0.000000 0.500000
O O4 0.748319 0.058572 0.610427
O O5 0.871312 0.281788 0.263122
O O6 0.559482 0.310160 0.021328
O O7 0.668692 0.291712 0.939205
O O8 0.500000 0.500000 0.500000
O O9 0.743472 0.376372 0.686712
O O10 0.807689 0.551922 0.761063
O O11 0.651422 0.482969 0.470929
O O12 0.813497 0.282547 0.894634
O O13 0.630396 0.425167 0.781979
O O14 0.486156 0.267228 0.625463
O O15 0.061086 0.343207 0.994975
O O16 0.640776 0.602188 0.778147
O O17 0.712735 0.719335 0.696904
#
# Coordination Sequence:
#
# PCOD8123338 Si02
#       8
#     4   4   4   4   4   4   4   4
#     4   9  20  37  59  83 112 146 195 240 277 327
#     4   9  20  37  57  80 108 150 194 230 279 339
#     4  10  17  32  56  87 109 139 182 240 288 328
#     4  10  18  34  57  80 108 147 187 239 282 336
#     4  11  21  35  54  82 123 150 180 234 294 351
#     4  11  21  34  54  88 119 144 180 237 299 342
#     4  10  18  34  60  84 112 143 189 239 288 333
#     4  10  20  35  56  84 107 142 194 243 276 330
#
# _framework density 19.431643000000001
#
# number of rings (size 3 to 8) (size 9 to 14) (size 15 to 20)
#    0.000    2.000    3.750    2.625    3.500    0.000 
#    2.250    0.625    0.000    0.000    0.000    0.000 
#    0.000    0.000    0.000    0.000    0.000    0.000 
#
# Total GULP energy -396493.944812 kJ/mol
# GULP energy per Si atom -12390.435775 kJ/mol
# Density = 1.938742 g / cm^3
# Si number density = 19.431643 Si / 1000 Ang^3
#
#
#
# Elastic Constant Matrix: (Units=GPa)
#
#
# Indices 1 2 3 4 5 6 
#
# 1 53.1807 27.0530 46.8840 0.0000 -28.8733 0.0000
# 2 27.0530 130.8505 53.7771 0.0000 -15.9013 0.0000
# 3 46.8840 53.7771 115.9185 0.0000 -20.0477 0.0000
# 4 0.0000 0.0000 0.0000 37.2448 0.0000 -5.5362
# 5 -28.8733 -15.9013 -20.0477 0.0000 34.2702 0.0000
# 6 0.0000 0.0000 0.0000 -5.5362 0.0000 20.5446
#
#
#
# Elastic Compliance Matrix: (Units=1/GPa)
#
#
# Indices 1 2 3 4 5 6 
#
# 1 0.049473 -0.000404 -0.014069 0.000000 0.033264 0.000000
# 2 -0.000404 0.009574 -0.003970 0.000000 0.001779 0.000000
# 3 -0.014069 -0.003970 0.015343 0.000000 -0.004721 0.000000
# 4 0.000000 0.000000 0.000000 0.027970 0.000000 0.007537
# 5 0.033264 0.001779 -0.004721 0.000000 0.055270 0.000000
# 6 0.000000 0.000000 0.000000 0.007537 0.000000 0.050706
#
#
# Mechanical properties :
#
#
# Convention : Reuss Voigt Hill
#
# Bulk Modulus (GPa) = 26.66515 61.70866 44.18690
# Shear Modulus (GPa) = 19.40071 29.89427 24.64749
#
# Velocity S-wave (km/s) = 3.16319 3.92654 3.56535
# Velocity P-wave (km/s) = 5.20513 7.23759 6.30381
#
# Compressibility (1/GPa) = 0.03750214
#
# Stress axis : x y z
#
# Youngs Moduli (GPa) = 20.21309 104.45171 65.17721
#
# Poissons Ratio (x) = 0.04218 0.91701
# Poissons Ratio (y) = 0.00816 0.25878
# Poissons Ratio (z) = 0.28439 0.41472
#
# Static dielectric constant tensor:
#      x y z
#    x 3.291980 0.000000 -0.508980 
#    y 0.000000 4.149850 0.000000 
#    z -0.508980 0.000000 3.701700 
# 
# 
# High freq. dielectric constant tensor:
#      x y z
#    x 1.719110 0.000000 -0.042540 
#    y 0.000000 1.772590 0.000000 
#    z -0.042540 0.000000 1.745010 
# 
# From -- ./inp_files/49183.got.cif
#   From: 2010.03.12/outbox.cif.g09.slc.cpg/sg14_25_cif.got.tgz:49183.got - 2010.03.31 13:35:05.
