data_PCOD8123312
_publ_section_title
;
Structure prediction by ZEFSAII (Michael W. Deem and Ramdas Pophale) SiO2 
 PCOD8123312
Probable space group: P 21/C
;
_chemical_formula_sum "Si O2"
_cell_formula_units_Z 24
_cell_length_a 12.596113
_cell_length_b 4.925076
_cell_length_c 21.102892
_cell_angle_alpha 90.000000
_cell_angle_beta 104.866186
_cell_angle_gamma 90.000000
_cell_volume 1265.335664
_symmetry_space_group_name_H-M "P 21/C"
_symmetry_group_IT_number 14
_symmetry_cell_setting 'monoclinic'
loop_
_space_group_symop_operation_xyz
x,y,z
-x,1/2+y,1/2-z
-x,-y,-z
x,1/2-y,1/2+z
loop_
_atom_site_type_symbol
_atom_site_label
_atom_site_fract_x
_atom_site_fract_y
_atom_site_fract_z
Si Si1 0.754612 0.849736 0.203934
Si Si2 0.357909 0.746357 0.492607
Si Si3 0.475857 0.933792 0.785159
Si Si4 0.973510 0.963313 0.284151
Si Si5 0.442698 0.247228 0.069754
Si Si6 0.189119 0.650822 0.869106
O O1 0.750310 0.553569 0.170880
O O2 0.846984 0.866640 0.274723
O O3 0.638220 0.925250 0.214511
O O4 0.793315 0.047613 0.154100
O O5 0.439150 0.722259 0.445155
O O6 0.352666 0.451793 0.524111
O O7 0.241845 0.852349 0.447416
O O8 0.400072 0.947750 0.553926
O O9 0.453687 0.671781 0.737602
O O10 0.544929 0.824768 0.855090
O O11 0.058138 0.916245 0.355788
O O12 0.023614 0.779565 0.234377
#
# Coordination Sequence:
#
# PCOD8123312 Si02
#       6
#     4   4   4   4   4   4
#     4  10  19  32  48  72 105 130 167 208 242 299
#     4  10  19  31  53  74 102 129 155 210 262 306
#     4  12  24  36  51  71 101 145 178 202 237 291
#     4   8  16  28  46  72 100 126 156 199 256 311
#     4  10  21  33  47  75 100 132 169 202 249 300
#     4  10  17  30  52  77 101 130 154 201 272 309
#
# _framework density 18.967299000000001
#
# number of rings (size 3 to 8) (size 9 to 14) (size 15 to 20)
#    0.000    2.000    1.667    3.000    4.667    0.000 
#    0.000    0.000    0.000    0.000    0.000    7.000 
#    0.000    0.000    0.000    0.000    0.000    0.000 
#
# Total GULP energy -297432.999698 kJ/mol
# GULP energy per Si atom -12393.041654 kJ/mol
# Density = 1.892413 g / cm^3
# Si number density = 18.967299 Si / 1000 Ang^3
#
#
#
# Elastic Constant Matrix: (Units=GPa)
#
#
# Indices 1 2 3 4 5 6 
#
# 1 43.4465 1.8819 39.7695 0.0000 22.2759 0.0000
# 2 1.8819 85.6640 21.2536 0.0000 -0.9693 0.0000
# 3 39.7695 21.2536 94.0005 0.0000 22.7265 0.0000
# 4 0.0000 0.0000 0.0000 22.7528 0.0000 3.5529
# 5 22.2759 -0.9693 22.7265 0.0000 24.9783 0.0000
# 6 0.0000 0.0000 0.0000 3.5529 0.0000 20.7407
#
#
#
# Elastic Compliance Matrix: (Units=1/GPa)
#
#
# Indices 1 2 3 4 5 6 
#
# 1 0.054739 0.002178 -0.015216 0.000000 -0.034887 0.000000
# 2 0.002178 0.012754 -0.004430 0.000000 0.002583 0.000000
# 3 -0.015216 -0.004430 0.019023 0.000000 -0.003910 0.000000
# 4 0.000000 0.000000 0.000000 0.045159 0.000000 -0.007736
# 5 -0.034887 0.002583 -0.003910 0.000000 0.074805 0.000000
# 6 0.000000 0.000000 0.000000 -0.007736 0.000000 0.049539
#
#
# Mechanical properties :
#
#
# Convention : Reuss Voigt Hill
#
# Bulk Modulus (GPa) = 19.38769 38.76899 29.07834
# Shear Modulus (GPa) = 16.22602 24.37476 20.30039
#
# Velocity S-wave (km/s) = 2.92802 3.58871 3.27507
# Velocity P-wave (km/s) = 4.65563 6.13645 5.44660
#
# Compressibility (1/GPa) = 0.05157913
#
# Stress axis : x y z
#
# Youngs Moduli (GPa) = 18.26867 78.40752 52.56883
#
# Poissons Ratio (x) = -0.17077 0.79991
# Poissons Ratio (y) = -0.03979 0.23286
# Poissons Ratio (z) = 0.27798 0.34731
#
# Static dielectric constant tensor:
#      x y z
#    x 3.351250 0.000000 0.484890 
#    y 0.000000 3.722600 0.000000 
#    z 0.484890 0.000000 3.352440 
# 
# 
# High freq. dielectric constant tensor:
#      x y z
#    x 1.691130 0.000000 0.051100 
#    y 0.000000 1.767320 0.000000 
#    z 0.051100 0.000000 1.711360 
# 
# From -- ./inp_files/56620.got.cif
#   From: 2010.03.12/outbox.cif.g09.slc.cpg/sg14_29_cif.got.tgz:56620.got - 2010.03.31 13:35:05.
