data_PCOD8123109
_publ_section_title
;
Structure prediction by ZEFSAII (Michael W. Deem and Ramdas Pophale) SiO2 
 PCOD8123109
Probable space group: P 2/C
;
_chemical_formula_sum "Si O2"
_cell_formula_units_Z 26
_cell_length_a 20.161192
_cell_length_b 9.284107
_cell_length_c 8.886832
_cell_angle_alpha 90.000000
_cell_angle_beta 43.605297
_cell_angle_gamma 90.000000
_cell_volume 1147.241984
_symmetry_space_group_name_H-M "P 2/C"
_symmetry_group_IT_number 13
_symmetry_cell_setting 'monoclinic'
loop_
_space_group_symop_operation_xyz
x,y,z
-x,y,1/2-z
-x,-y,-z
x,-y,1/2+z
loop_
_atom_site_type_symbol
_atom_site_label
_atom_site_fract_x
_atom_site_fract_y
_atom_site_fract_z
Si Si1 0.500000 0.559463 0.750000
Si Si2 0.848199 0.352176 0.674152
Si Si3 0.570265 0.983604 0.248548
Si Si4 0.659684 0.264332 0.138521
Si Si5 0.996553 0.844923 0.435776
Si Si6 0.351688 0.686108 0.508600
Si Si7 0.155946 0.643763 0.676606
O O1 0.445763 0.661070 0.715810
O O2 0.581596 0.449822 0.557316
O O3 0.888190 0.499843 0.678679
O O4 0.860897 0.352887 0.474084
O O5 0.909859 0.229326 0.649611
O O6 0.736211 0.332111 0.898807
O O7 0.500000 0.060579 0.250000
O O8 0.661037 0.090500 0.111064
O O9 0.500000 0.000000 0.500000
O O10 0.594564 0.820491 0.158855
O O11 0.693872 0.276910 0.254988
O O12 0.897524 0.775348 0.656072
O O13 0.000000 0.846567 0.250000
O O14 0.000000 0.000000 0.500000
O O15 0.269266 0.645624 0.525729
#
# Coordination Sequence:
#
# PCOD8123109 Si02
#       7
#     2   4   4   4   4   4   4
#     4  12  24  42  74 102 148 186 250 298 364 416
#     4  12  27  48  76 110 147 191 242 296 367 431
#     4  12  25  45  66  94 138 193 243 299 365 421
#     4  12  26  43  70 103 144 192 246 301 360 434
#     4  12  27  52  81 112 148 188 238 299 366 437
#     4  12  26  45  69 104 144 191 247 301 359 431
#     4  12  27  48  76 109 147 191 241 299 363 435
#
# _framework density 22.663049000000001
#
# number of rings (size 3 to 8) (size 9 to 14) (size 15 to 20)
#    0.000    0.000    4.615    5.077    4.308    1.231 
#    0.000    0.000    0.000    0.000    0.000    0.000 
#    0.000    0.000    0.000    0.000    0.000    0.000 
#
# Total GULP energy -322133.114076 kJ/mol
# GULP energy per Si atom -12389.735157 kJ/mol
# Density = 2.261147 g / cm^3
# Si number density = 22.663049 Si / 1000 Ang^3
#
#
#
# Elastic Constant Matrix: (Units=GPa)
#
#
# Indices 1 2 3 4 5 6 
#
# 1 148.5639 51.0030 58.1533 0.0000 23.1909 0.0000
# 2 51.0030 157.0298 51.7638 0.0000 6.1544 0.0000
# 3 58.1533 51.7638 142.0323 0.0000 31.3627 0.0000
# 4 0.0000 0.0000 0.0000 16.9056 0.0000 7.5977
# 5 23.1909 6.1544 31.3627 0.0000 57.4093 0.0000
# 6 0.0000 0.0000 0.0000 7.5977 0.0000 34.2116
#
#
#
# Elastic Compliance Matrix: (Units=1/GPa)
#
#
# Indices 1 2 3 4 5 6 
#
# 1 0.008643 -0.001940 -0.002396 0.000000 -0.001975 0.000000
# 2 -0.001940 0.007702 -0.002278 0.000000 0.001203 0.000000
# 3 -0.002396 -0.002278 0.009762 0.000000 -0.004121 0.000000
# 4 0.000000 0.000000 0.000000 0.065710 0.000000 -0.014593
# 5 -0.001975 0.001203 -0.004121 0.000000 0.020339 0.000000
# 6 0.000000 0.000000 0.000000 -0.014593 0.000000 0.032471
#
#
# Mechanical properties :
#
#
# Convention : Reuss Voigt Hill
#
# Bulk Modulus (GPa) = 77.64604 85.49623 81.57114
# Shear Modulus (GPa) = 30.83597 40.81903 35.82750
#
# Velocity S-wave (km/s) = 3.69267 4.24857 3.98034
# Velocity P-wave (km/s) = 7.24683 7.86600 7.56276
#
# Compressibility (1/GPa) = 0.01287896
#
# Stress axis : x y z
#
# Youngs Moduli (GPa) = 115.69784 129.83181 102.43994
#
# Poissons Ratio (x) = 0.25190 0.24542
# Poissons Ratio (y) = 0.22447 0.23339
# Poissons Ratio (z) = 0.27718 0.29579
#
# Static dielectric constant tensor:
#      x y z
#    x 4.236330 0.000000 0.023800 
#    y 0.000000 4.489390 0.000000 
#    z 0.023800 0.000000 3.938930 
# 
# 
# High freq. dielectric constant tensor:
#      x y z
#    x 1.907640 0.000000 0.008260 
#    y 0.000000 1.914690 0.000000 
#    z 0.008260 0.000000 1.891620 
# 
# From -- ./inp_files/22954.got.cif
#   From: 2010.06.25/outbox.cif.g09.slc.cpg/sg13_12_cif.got.tgz:22954.got - 2010.06.28 04:50:58.
