data_PCOD8123663
_publ_section_title
;
Structure prediction by ZEFSAII (Michael W. Deem and Ramdas Pophale) SiO2 
 PCOD8123663
Probable space group: P 21/C
;
_chemical_formula_sum "Si O2"
_cell_formula_units_Z 28
_cell_length_a 8.472959
_cell_length_b 19.085925
_cell_length_c 10.304765
_cell_angle_alpha 90.000000
_cell_angle_beta 124.899776
_cell_angle_gamma 90.000000
_cell_volume 1366.727324
_symmetry_space_group_name_H-M "P 21/C"
_symmetry_group_IT_number 14
_symmetry_cell_setting 'monoclinic'
loop_
_space_group_symop_operation_xyz
x,y,z
-x,1/2+y,1/2-z
-x,-y,-z
x,1/2-y,1/2+z
loop_
_atom_site_type_symbol
_atom_site_label
_atom_site_fract_x
_atom_site_fract_y
_atom_site_fract_z
Si Si1 0.916151 0.471608 0.625194
Si Si2 0.381443 0.423400 0.205217
Si Si3 0.959790 0.680125 0.969956
Si Si4 0.755200 0.072030 0.311512
Si Si5 0.959141 0.702179 0.680139
Si Si6 0.799294 0.418898 0.311195
Si Si7 0.629626 0.903305 0.004179
O O1 0.893413 0.434747 0.751832
O O2 0.893420 0.414814 0.499846
O O3 0.753272 0.529880 0.520165
O O4 0.124410 0.509622 0.720845
O O5 0.239667 0.360504 0.102494
O O6 0.271852 0.497145 0.131537
O O7 0.568275 0.418961 0.202580
O O8 0.446213 0.416963 0.385792
O O9 0.960335 0.722243 0.833763
O O10 0.136567 0.625182 0.042038
O O11 0.989878 0.729945 0.106957
O O12 0.550074 0.104633 0.175781
O O13 0.133468 0.648891 0.736183
O O14 0.754509 0.666938 0.550511
#
# Coordination Sequence:
#
# PCOD8123663 Si02
#       7
#     4   4   4   4   4   4   4
#     4   9  17  31  61  98 120 156 190 245 302 369
#     4  10  19  37  62  96 125 159 201 258 307 365
#     4  11  26  43  61  84 127 167 207 255 305 368
#     4  11  19  37  65  93 122 161 200 251 320 362
#     4  10  25  43  59  85 122 165 210 248 307 369
#     4  10  18  34  63  91 127 151 203 244 296 366
#     4   9  17  36  62  91 121 157 202 246 302 375
#
# _framework density 20.486896000000002
#
# number of rings (size 3 to 8) (size 9 to 14) (size 15 to 20)
#    0.000    2.000    2.857    2.143    2.000    1.143 
#    0.000    7.143    0.000    0.000    0.000    0.000 
#    0.000    0.000    0.000    0.000    0.000    0.000 
#
# Total GULP energy -347236.496193 kJ/mol
# GULP energy per Si atom -12401.303435 kJ/mol
# Density = 2.044027 g / cm^3
# Si number density = 20.486896 Si / 1000 Ang^3
#
#
#
# Elastic Constant Matrix: (Units=GPa)
#
#
# Indices 1 2 3 4 5 6 
#
# 1 116.6818 29.9961 31.8629 0.0000 5.4685 0.0000
# 2 29.9961 78.7976 30.7074 0.0000 -7.2962 0.0000
# 3 31.8629 30.7074 69.9904 0.0000 -3.7064 0.0000
# 4 0.0000 0.0000 0.0000 25.1498 0.0000 -4.8467
# 5 5.4685 -7.2962 -3.7064 0.0000 23.1033 0.0000
# 6 0.0000 0.0000 0.0000 -4.8467 0.0000 24.1912
#
#
#
# Elastic Compliance Matrix: (Units=1/GPa)
#
#
# Indices 1 2 3 4 5 6 
#
# 1 0.010527 -0.002930 -0.003720 0.000000 -0.004014 0.000000
# 2 -0.002930 0.016459 -0.005623 0.000000 0.004989 0.000000
# 3 -0.003720 -0.005623 0.018559 0.000000 0.002082 0.000000
# 4 0.000000 0.000000 0.000000 0.041359 0.000000 0.008286
# 5 -0.004014 0.004989 0.002082 0.000000 0.046144 0.000000
# 6 0.000000 0.000000 0.000000 0.008286 0.000000 0.042997
#
#
# Mechanical properties :
#
#
# Convention : Reuss Voigt Hill
#
# Bulk Modulus (GPa) = 47.61974 50.06697 48.84335
# Shear Modulus (GPa) = 24.08591 26.01576 25.05083
#
# Velocity S-wave (km/s) = 3.43253 3.56739 3.50061
# Velocity P-wave (km/s) = 6.24533 6.43894 6.34287
#
# Compressibility (1/GPa) = 0.02099970
#
# Stress axis : x y z
#
# Youngs Moduli (GPa) = 94.99101 60.75564 53.88341
#
# Poissons Ratio (x) = 0.17798 0.20044
# Poissons Ratio (y) = 0.27828 0.30301
# Poissons Ratio (z) = 0.35335 0.34166
#
# Static dielectric constant tensor:
#      x y z
#    x 3.856680 0.000000 0.008800 
#    y 0.000000 3.453700 0.000000 
#    z 0.008800 0.000000 3.436950 
# 
# 
# High freq. dielectric constant tensor:
#      x y z
#    x 1.811220 0.000000 0.003450 
#    y 0.000000 1.777080 0.000000 
#    z 0.003450 0.000000 1.784130 
# 
# From -- ./inp_files/26674.got.cif
#   From: 2010.03.12/outbox.cif.g09.slc.cpg/sg14_14_cif.got.tgz:26674.got - 2010.03.31 13:35:05.
