data_PCOD8123248
_publ_section_title
;
Structure prediction by ZEFSAII (Michael W. Deem and Ramdas Pophale) SiO2 
 PCOD8123248
Probable space group: P 21/C
;
_chemical_formula_sum "Si O2"
_cell_formula_units_Z 32
_cell_length_a 13.334608
_cell_length_b 5.160872
_cell_length_c 29.168615
_cell_angle_alpha 90.000000
_cell_angle_beta 86.282702
_cell_angle_gamma 90.000000
_cell_volume 2003.108483
_symmetry_space_group_name_H-M "P 21/C"
_symmetry_group_IT_number 14
_symmetry_cell_setting 'monoclinic'
loop_
_space_group_symop_operation_xyz
x,y,z
-x,1/2+y,1/2-z
-x,-y,-z
x,1/2-y,1/2+z
loop_
_atom_site_type_symbol
_atom_site_label
_atom_site_fract_x
_atom_site_fract_y
_atom_site_fract_z
Si Si1 0.473226 0.483469 0.724835
Si Si2 0.334157 0.083077 0.823238
Si Si3 0.723072 0.083456 0.730147
Si Si4 0.120630 0.509339 0.501288
Si Si5 0.939840 0.521660 0.126430
Si Si6 0.953454 0.446993 0.230426
Si Si7 0.081010 0.490563 0.038676
Si Si8 0.176740 0.526346 0.397090
O O1 0.513445 0.680867 0.763220
O O2 0.543732 0.547816 0.678522
O O3 0.353867 0.544528 0.724180
O O4 0.287479 0.872563 0.789552
O O5 0.288203 0.037728 0.875104
O O6 0.303857 0.370453 0.807781
O O7 0.835128 0.041553 0.744631
O O8 0.149216 0.752819 0.532517
O O9 0.178589 0.530108 0.451735
O O10 0.000000 0.500000 0.500000
O O11 0.154536 0.252576 0.527467
O O12 0.978889 0.507703 0.176927
O O13 0.853953 0.306838 0.121441
O O14 0.031284 0.461958 0.089653
O O15 0.900427 0.809801 0.118269
O O16 0.993158 0.160789 0.240008
O O17 0.000000 0.500000 0.000000
#
# Coordination Sequence:
#
# PCOD8123248 Si02
#       8
#     4   4   4   4   4   4   4   4
#     4   8  16  27  44  63  81 103 139 179 220 271
#     4  10  17  28  44  67  85 108 145 174 219 280
#     4  10  18  32  46  58  81 115 145 189 227 247
#     4  10  16  24  38  60  86 106 142 161 197 266
#     4  12  20  30  45  57  85 120 149 180 220 246
#     4  12  24  35  44  62  86 120 165 197 210 241
#     4  10  16  28  40  61  81 107 146 168 206 271
#     4  12  17  26  43  64  86 115 140 170 214 261
#
# _framework density 15.975172000000001
#
# number of rings (size 3 to 8) (size 9 to 14) (size 15 to 20)
#    0.000    1.500    7.500    1.500    0.000    0.000 
#    0.000    0.000    0.000    0.000    0.000    0.000 
#    0.000    0.000    0.000    6.750    0.000    0.750 
#
# Total GULP energy -396500.880315 kJ/mol
# GULP energy per Si atom -12390.652510 kJ/mol
# Density = 1.593881 g / cm^3
# Si number density = 15.975172 Si / 1000 Ang^3
#
#
#
# Elastic Constant Matrix: (Units=GPa)
#
#
# Indices 1 2 3 4 5 6 
#
# 1 75.9546 6.7962 30.1974 0.0000 -22.0560 0.0000
# 2 6.7962 103.5734 7.9142 0.0000 -1.5969 0.0000
# 3 30.1974 7.9142 59.1964 0.0000 -18.3953 0.0000
# 4 0.0000 0.0000 0.0000 21.9722 0.0000 -4.6755
# 5 -22.0560 -1.5969 -18.3953 0.0000 21.1489 0.0000
# 6 0.0000 0.0000 0.0000 -4.6755 0.0000 15.5862
#
#
#
# Elastic Compliance Matrix: (Units=1/GPa)
#
#
# Indices 1 2 3 4 5 6 
#
# 1 0.019989 -0.000676 -0.004994 0.000000 0.016451 0.000000
# 2 -0.000676 0.009782 -0.001305 0.000000 -0.001102 0.000000
# 3 -0.004994 -0.001305 0.024621 0.000000 0.016108 0.000000
# 4 0.000000 0.000000 0.000000 0.048615 0.000000 0.014583
# 5 0.016451 -0.001102 0.016108 0.000000 0.078369 0.000000
# 6 0.000000 0.000000 0.000000 0.014583 0.000000 0.068534
#
#
# Mechanical properties :
#
#
# Convention : Reuss Voigt Hill
#
# Bulk Modulus (GPa) = 24.72775 36.50444 30.61609
# Shear Modulus (GPa) = 18.02835 24.66258 21.34546
#
# Velocity S-wave (km/s) = 3.36299 3.93339 3.65932
# Velocity P-wave (km/s) = 5.53101 6.59766 6.08774
#
# Compressibility (1/GPa) = 0.04044040
#
# Stress axis : x y z
#
# Youngs Moduli (GPa) = 50.02740 102.22743 40.61632
#
# Poissons Ratio (x) = 0.06914 0.20284
# Poissons Ratio (y) = 0.03384 0.05301
# Poissons Ratio (z) = 0.24984 0.13343
#
# Static dielectric constant tensor:
#      x y z
#    x 2.916230 0.000000 -0.562310 
#    y 0.000000 -0.513240 0.000000 
#    z -0.562310 0.000000 2.900120 
# 
# 
# High freq. dielectric constant tensor:
#      x y z
#    x 1.564230 0.000000 -0.058580 
#    y 0.000000 1.654300 0.000000 
#    z -0.058580 0.000000 1.579510 
# 
# From -- ./inp_files/76845.got.cif
#   From: 2010.03.12/outbox.cif.g09.slc.cpg/sg14_39_cif.got.tgz:76845.got - 2010.03.31 13:35:05.
