data_PCOD8123857
_publ_section_title
;
Structure prediction by ZEFSAII (Michael W. Deem and Ramdas Pophale) SiO2 
 PCOD8123857
Probable space group: P 21/C
;
_chemical_formula_sum "Si O2"
_cell_formula_units_Z 24
_cell_length_a 8.951783
_cell_length_b 16.244208
_cell_length_c 16.237123
_cell_angle_alpha 90.000000
_cell_angle_beta 148.675996
_cell_angle_gamma 90.000000
_cell_volume 1227.489558
_symmetry_space_group_name_H-M "P 21/C"
_symmetry_group_IT_number 14
_symmetry_cell_setting 'monoclinic'
loop_
_space_group_symop_operation_xyz
x,y,z
-x,1/2+y,1/2-z
-x,-y,-z
x,1/2-y,1/2+z
loop_
_atom_site_type_symbol
_atom_site_label
_atom_site_fract_x
_atom_site_fract_y
_atom_site_fract_z
Si Si1 0.129904 0.501388 0.971434
Si Si2 0.571278 0.671822 0.458681
Si Si3 0.107944 0.163059 0.372893
Si Si4 0.336479 0.451367 0.852329
Si Si5 0.850249 0.515260 0.515653
Si Si6 0.621157 0.936925 0.125170
O O1 0.191365 0.407058 0.977455
O O2 0.927807 0.538701 0.805293
O O3 0.423646 0.556603 0.107783
O O4 0.000000 0.500000 0.000000
O O5 0.724452 0.757929 0.514873
O O6 0.700534 0.604778 0.455110
O O7 0.637676 0.649993 0.586106
O O8 0.231315 0.680125 0.285743
O O9 0.216488 0.135094 0.332283
O O10 0.074388 0.506001 0.695824
O O11 0.500000 0.500000 0.000000
O O12 0.610235 0.442586 0.409591
O O13 0.000000 0.500000 0.500000
O O14 0.500000 0.000000 0.000000
#
# Coordination Sequence:
#
# PCOD8123857 Si02
#       6
#     4   4   4   4   4   4
#     4  11  22  39  65  93 124 157 202 255 304 360
#     4  11  23  39  62  88 123 159 208 252 304 353
#     4  11  23  40  59  91 122 161 204 256 297 359
#     4  10  21  37  62  89 115 155 210 241 289 361
#     4  11  21  39  66  88 116 162 203 248 303 365
#     4  10  18  40  63  83 115 162 203 243 287 361
#
# _framework density 19.552098999999998
#
# number of rings (size 3 to 8) (size 9 to 14) (size 15 to 20)
#    0.000    1.333    5.000    4.000    7.000    0.000 
#    0.000    3.333    0.000    0.000    0.000    0.000 
#    0.000    0.000    0.000    0.000    0.000    0.000 
#
# Total GULP energy -297407.651967 kJ/mol
# GULP energy per Si atom -12391.985499 kJ/mol
# Density = 1.950760 g / cm^3
# Si number density = 19.552099 Si / 1000 Ang^3
#
#
#
# Elastic Constant Matrix: (Units=GPa)
#
#
# Indices 1 2 3 4 5 6 
#
# 1 132.8781 58.9967 19.7225 0.0000 27.1765 0.0000
# 2 58.9967 91.6864 45.6637 0.0000 12.9408 0.0000
# 3 19.7225 45.6637 102.2166 0.0000 26.6223 0.0000
# 4 0.0000 0.0000 0.0000 31.4256 0.0000 8.7011
# 5 27.1765 12.9408 26.6223 0.0000 37.6177 0.0000
# 6 0.0000 0.0000 0.0000 8.7011 0.0000 21.8312
#
#
#
# Elastic Compliance Matrix: (Units=1/GPa)
#
#
# Indices 1 2 3 4 5 6 
#
# 1 0.012667 -0.008788 0.003774 0.000000 -0.008798 0.000000
# 2 -0.008788 0.020132 -0.008763 0.000000 0.005625 0.000000
# 3 0.003774 -0.008763 0.015809 0.000000 -0.010899 0.000000
# 4 0.000000 0.000000 0.000000 0.035768 0.000000 -0.014256
# 5 -0.008798 0.005625 -0.010899 0.000000 0.038718 0.000000
# 6 0.000000 0.000000 0.000000 -0.014256 0.000000 0.051488
#
#
# Mechanical properties :
#
#
# Convention : Reuss Voigt Hill
#
# Bulk Modulus (GPa) = 47.50138 63.94964 55.72551
# Shear Modulus (GPa) = 23.90572 31.66811 27.78691
#
# Velocity S-wave (km/s) = 3.50046 4.02889 3.77393
# Velocity P-wave (km/s) = 6.37849 7.37705 6.89587
#
# Compressibility (1/GPa) = 0.02105202
#
# Stress axis : x y z
#
# Youngs Moduli (GPa) = 78.94531 49.67196 63.25679
#
# Poissons Ratio (x) = 0.43653 -0.23870
# Poissons Ratio (y) = 0.69379 0.55432
# Poissons Ratio (z) = -0.29790 0.43528
#
# Static dielectric constant tensor:
#      x y z
#    x 4.813760 0.000000 -0.005550 
#    y 0.000000 3.495980 0.000000 
#    z -0.005550 0.000000 4.310510 
# 
# 
# High freq. dielectric constant tensor:
#      x y z
#    x 1.769770 0.000000 0.025630 
#    y 0.000000 1.723250 0.000000 
#    z 0.025630 0.000000 1.778920 
# 
# From -- ./inp_files/56116.got.cif
#   From: 2010.03.12/outbox.cif.g09.slc.cpg/sg14_29_cif.got.tgz:56116.got - 2010.03.31 13:35:05.
