data_PCOD8123228
_publ_section_title
;
Structure prediction by ZEFSAII (Michael W. Deem and Ramdas Pophale) SiO2 
 PCOD8123228
Probable space group: P 2/C
;
_chemical_formula_sum "Si O2"
_cell_formula_units_Z 28
_cell_length_a 30.000000
_cell_length_b 9.000000
_cell_length_c 30.000000
_cell_angle_alpha 90.000000
_cell_angle_beta 170.000000
_cell_angle_gamma 90.000000
_cell_volume 1406.550239
_symmetry_space_group_name_H-M "P 2/C"
_symmetry_group_IT_number 13
_symmetry_cell_setting 'monoclinic'
loop_
_space_group_symop_operation_xyz
x,y,z
-x,y,1/2-z
-x,-y,-z
x,-y,1/2+z
loop_
_atom_site_type_symbol
_atom_site_label
_atom_site_fract_x
_atom_site_fract_y
_atom_site_fract_z
Si Si1 0.993362 0.894175 0.652390
Si Si2 0.496540 0.414355 0.344580
Si Si3 0.997976 0.160307 0.522657
Si Si4 0.509592 0.247428 0.627169
Si Si5 0.487379 0.826640 0.002000
Si Si6 0.500000 0.533657 0.250000
Si Si7 0.000000 0.734876 0.750000
Si Si8 0.007407 0.777748 0.135241
O O1 0.780965 0.820952 0.410523
O O2 0.941212 0.843042 0.651062
O O3 0.984316 0.073969 0.642680
O O4 0.278052 0.835519 0.923249
O O5 0.498731 0.575633 0.371107
O O6 0.475604 0.431803 0.270261
O O7 0.745164 0.319244 0.605580
O O8 0.242267 0.325388 0.107978
O O9 0.248885 0.251189 0.753851
O O10 0.017339 0.155035 0.595060
O O11 0.000000 0.000000 0.500000
O O12 0.747222 0.246549 0.257056
O O13 0.460602 0.207099 0.527581
O O14 0.500000 0.000000 0.000000
O O15 0.749213 0.632259 0.506224
#
# Coordination Sequence:
#
# PCOD8123228 Si02
#       8
#     4   4   4   4   4   2   2   4
#     4  12  23  41  69  99 133 171 231 295 321 407
#     4  12  26  45  68  99 142 185 219 282 348 423
#     4  10  20  39  63  91 129 176 218 270 334 401
#     4  12  23  43  69 101 132 188 234 272 342 411
#     4  10  19  35  63  93 123 169 226 276 327 385
#     4  12  24  48  70  96 140 184 226 262 358 416
#     4  12  22  42  70 104 124 168 242 280 328 410
#     4  12  26  44  68 105 139 174 230 286 351 395
#
# _framework density 19.906860999999999
#
# number of rings (size 3 to 8) (size 9 to 14) (size 15 to 20)
#    0.000    0.571    2.857    7.714    0.000    1.143 
#    0.000    4.286    0.000    0.000    0.000    0.000 
#    0.000    0.000    0.000    0.000    0.000    0.000 
#
# Total GULP energy -346999.214633 kJ/mol
# GULP energy per Si atom -12392.829094 kJ/mol
# Density = 1.986155 g / cm^3
# Si number density = 19.906861 Si / 1000 Ang^3
#
#
#
# Elastic Constant Matrix: (Units=GPa)
#
#
# Indices 1 2 3 4 5 6 
#
# 1 128.0671 31.2975 16.3393 0.0000 -22.3376 0.0000
# 2 31.2975 135.9920 42.7898 0.0000 -5.0182 0.0000
# 3 16.3393 42.7898 172.8016 0.0000 -8.6437 0.0000
# 4 0.0000 0.0000 0.0000 37.6694 0.0000 -4.6435
# 5 -22.3376 -5.0182 -8.6437 0.0000 45.1453 0.0000
# 6 0.0000 0.0000 0.0000 -4.6435 0.0000 37.7633
#
#
#
# Elastic Compliance Matrix: (Units=1/GPa)
#
#
# Indices 1 2 3 4 5 6 
#
# 1 0.009024 -0.001864 -0.000180 0.000000 0.004223 0.000000
# 2 -0.001864 0.008372 -0.001915 0.000000 -0.000358 0.000000
# 3 -0.000180 -0.001915 0.006324 0.000000 0.000909 0.000000
# 4 0.000000 0.000000 0.000000 0.026955 0.000000 0.003314
# 5 0.004223 -0.000358 0.000909 0.000000 0.024374 0.000000
# 6 0.000000 0.000000 0.000000 0.003314 0.000000 0.026888
#
#
# Mechanical properties :
#
#
# Convention : Reuss Voigt Hill
#
# Bulk Modulus (GPa) = 63.28937 68.63488 65.96212
# Shear Modulus (GPa) = 43.43222 47.21122 45.32172
#
# Velocity S-wave (km/s) = 4.67601 4.87520 4.77664
# Velocity P-wave (km/s) = 7.81122 8.13897 7.97678
#
# Compressibility (1/GPa) = 0.01580044
#
# Stress axis : x y z
#
# Youngs Moduli (GPa) = 110.82085 119.45131 158.13753
#
# Poissons Ratio (x) = 0.22267 0.02853
# Poissons Ratio (y) = 0.20658 0.30278
# Poissons Ratio (z) = 0.01999 0.22871
#
# Static dielectric constant tensor:
#      x y z
#    x 3.935310 0.000000 -0.032630 
#    y 0.000000 3.736530 0.000000 
#    z -0.032630 0.000000 5.226100 
# 
# 
# High freq. dielectric constant tensor:
#      x y z
#    x 1.798420 0.000000 -0.010320 
#    y 0.000000 1.773420 0.000000 
#    z -0.010320 0.000000 1.826860 
# 
# From -- ./inp_files/98137.got.cif
#   From: 2010.06.25/outbox.ucp.g09.slc.cvg/sg13_50_cif.got.tgz:98137.got - 2010.06.28 14:22:30.
