data_PCOD8123090
_publ_section_title
;
Structure prediction by ZEFSAII (Michael W. Deem and Ramdas Pophale) SiO2 
 PCOD8123090
Probable space group: P 2/C
;
_chemical_formula_sum "Si O2"
_cell_formula_units_Z 16
_cell_length_a 9.147246
_cell_length_b 11.435102
_cell_length_c 9.607213
_cell_angle_alpha 90.000000
_cell_angle_beta 133.312599
_cell_angle_gamma 90.000000
_cell_volume 731.195656
_symmetry_space_group_name_H-M "P 2/C"
_symmetry_group_IT_number 13
_symmetry_cell_setting 'monoclinic'
loop_
_space_group_symop_operation_xyz
x,y,z
-x,y,1/2-z
-x,-y,-z
x,-y,1/2+z
loop_
_atom_site_type_symbol
_atom_site_label
_atom_site_fract_x
_atom_site_fract_y
_atom_site_fract_z
Si Si1 0.852225 0.998458 0.278111
Si Si2 0.357083 0.774061 0.776052
Si Si3 0.623701 0.230194 0.690574
Si Si4 0.008313 0.619436 0.421926
O O1 0.682797 0.899531 0.178113
O O2 0.000000 0.969728 0.250000
O O3 0.750074 0.124971 0.204293
O O4 0.000000 0.000000 0.500000
O O5 0.500000 0.829009 0.750000
O O6 0.209435 0.685159 0.601687
O O7 0.491746 0.708904 0.981702
O O8 0.500000 0.221180 0.750000
O O9 0.820484 0.305099 0.849112
O O10 0.000000 0.599795 0.250000
O O11 0.000000 0.500000 0.500000
#
# Coordination Sequence:
#
# PCOD8123090 Si02
#       4
#     4   4   4   4
#     4  12  23  42  74 106 150 190 229 288 356 423
#     4  12  25  46  74 104 147 189 232 292 361 425
#     4  12  26  46  72 110 146 189 238 289 358 428
#     4  12  29  51  75 103 141 187 244 303 356 422
#
# _framework density 21.881965999999998
#
# number of rings (size 3 to 8) (size 9 to 14) (size 15 to 20)
#    0.000    0.000    5.000    5.250    3.500    2.000 
#    0.000    0.000    0.000    0.000    0.000    0.000 
#    0.000    0.000    0.000    0.000    0.000    0.000 
#
# Total GULP energy -198404.534914 kJ/mol
# GULP energy per Si atom -12400.283432 kJ/mol
# Density = 2.183216 g / cm^3
# Si number density = 21.881966 Si / 1000 Ang^3
#
#
#
# Elastic Constant Matrix: (Units=GPa)
#
#
# Indices 1 2 3 4 5 6 
#
# 1 166.8245 33.3588 50.2600 0.0000 -23.5315 0.0000
# 2 33.3588 109.5578 34.4470 0.0000 -0.8894 0.0000
# 3 50.2600 34.4470 172.2044 0.0000 -6.1500 0.0000
# 4 0.0000 0.0000 0.0000 20.8005 0.0000 -14.9909
# 5 -23.5315 -0.8894 -6.1500 0.0000 42.4995 0.0000
# 6 0.0000 0.0000 0.0000 -14.9909 0.0000 14.8517
#
#
#
# Elastic Compliance Matrix: (Units=1/GPa)
#
#
# Indices 1 2 3 4 5 6 
#
# 1 0.007374 -0.001687 -0.001679 0.000000 0.003805 0.000000
# 2 -0.001687 0.010126 -0.001567 0.000000 -0.000949 0.000000
# 3 -0.001679 -0.001567 0.006610 0.000000 -0.000006 0.000000
# 4 0.000000 0.000000 0.000000 0.176394 0.000000 0.178048
# 5 0.003805 -0.000949 -0.000006 0.000000 0.025616 0.000000
# 6 0.000000 0.000000 0.000000 0.178048 0.000000 0.247049
#
#
# Mechanical properties :
#
#
# Convention : Reuss Voigt Hill
#
# Bulk Modulus (GPa) = 70.19923 76.07979 73.13951
# Shear Modulus (GPa) = 10.25046 37.66505 23.95775
#
# Velocity S-wave (km/s) = 2.16670 4.15334 3.31246
# Velocity P-wave (km/s) = 6.19758 7.60552 6.93736
#
# Compressibility (1/GPa) = 0.01424517
#
# Stress axis : x y z
#
# Youngs Moduli (GPa) = 135.61029 98.75379 151.27730
#
# Poissons Ratio (x) = 0.16655 0.25399
# Poissons Ratio (y) = 0.22871 0.23709
# Poissons Ratio (z) = 0.22769 0.15477
#
# Static dielectric constant tensor:
#      x y z
#    x 3.984890 0.000000 0.165500 
#    y 0.000000 3.040260 0.000000 
#    z 0.165500 0.000000 4.474090 
# 
# 
# High freq. dielectric constant tensor:
#      x y z
#    x 1.881020 0.000000 0.004590 
#    y 0.000000 1.838020 0.000000 
#    z 0.004590 0.000000 1.894820 
# 
# From -- ./inp_files/11466.got.cif
#   From: 2010.06.25/outbox.cif.g09.slc.cpg/sg13_6_cif.got.tgz:11466.got - 2010.06.28 04:50:58.
