data_PCOD8123642
_publ_section_title
;
Structure prediction by ZEFSAII (Michael W. Deem and Ramdas Pophale) SiO2 
 PCOD8123642
Probable space group: P 21/C
;
_chemical_formula_sum "Si O2"
_cell_formula_units_Z 32
_cell_length_a 9.034671
_cell_length_b 17.912152
_cell_length_c 21.368476
_cell_angle_alpha 90.000000
_cell_angle_beta 150.426231
_cell_angle_gamma 90.000000
_cell_volume 1706.708336
_symmetry_space_group_name_H-M "P 21/C"
_symmetry_group_IT_number 14
_symmetry_cell_setting 'monoclinic'
loop_
_space_group_symop_operation_xyz
x,y,z
-x,1/2+y,1/2-z
-x,-y,-z
x,1/2-y,1/2+z
loop_
_atom_site_type_symbol
_atom_site_label
_atom_site_fract_x
_atom_site_fract_y
_atom_site_fract_z
Si Si1 0.691636 0.601109 0.796198
Si Si2 0.643764 0.552668 0.103234
Si Si3 0.329303 0.521594 0.755892
Si Si4 0.229211 0.547608 0.243450
Si Si5 0.301096 0.679812 0.039926
Si Si6 0.688670 0.004391 0.007779
Si Si7 0.215177 0.845002 0.020114
Si Si8 0.551482 0.871472 0.764337
O O1 0.553101 0.586032 0.814499
O O2 0.852520 0.527622 0.825570
O O3 0.417481 0.632864 0.654113
O O4 0.951180 0.660770 0.903156
O O5 0.595137 0.504578 0.147318
O O6 0.492198 0.633139 0.059210
O O7 0.982145 0.567674 0.205022
O O8 0.500000 0.500000 0.000000
O O9 0.364588 0.456532 0.718386
O O10 0.983371 0.545890 0.626733
O O11 0.536344 0.530811 0.391758
O O12 0.292904 0.620289 0.222887
O O13 0.416336 0.668200 0.153395
O O14 0.340599 0.767064 0.038839
O O15 0.758829 0.092297 0.023843
O O16 0.500000 0.000000 0.000000
O O17 0.857959 0.833406 0.903471
#
# Coordination Sequence:
#
# PCOD8123642 Si02
#       8
#     4   4   4   4   4   4   4   4
#     4  10  20  35  58  83 106 146 188 238 276 327
#     4  11  21  33  55  87 115 147 185 229 280 339
#     4   9  19  33  56  86 107 133 184 238 277 321
#     4  10  19  34  58  84 113 137 186 238 283 320
#     4  11  22  36  58  79 114 156 190 229 284 345
#     4  10  18  34  59  87 108 142 188 238 279 334
#     4  10  21  38  58  79 111 152 196 228 285 344
#     4   9  20  35  58  81 107 142 185 235 275 327
#
# _framework density 18.749542000000002
#
# number of rings (size 3 to 8) (size 9 to 14) (size 15 to 20)
#    0.000    2.000    2.500    1.500    1.750    4.500 
#    0.000    0.000    8.250    0.000    0.000    0.000 
#    0.000    0.000    0.000    0.000    0.000    0.000 
#
# Total GULP energy -396552.891282 kJ/mol
# GULP energy per Si atom -12392.277853 kJ/mol
# Density = 1.870687 g / cm^3
# Si number density = 18.749542 Si / 1000 Ang^3
#
#
#
# Elastic Constant Matrix: (Units=GPa)
#
#
# Indices 1 2 3 4 5 6 
#
# 1 111.3989 40.2028 21.9263 0.0000 5.3986 0.0000
# 2 40.2028 84.5002 22.3048 0.0000 4.5143 0.0000
# 3 21.9263 22.3048 91.6158 0.0000 4.9842 0.0000
# 4 0.0000 0.0000 0.0000 20.5864 0.0000 2.7868
# 5 5.3986 4.5143 4.9842 0.0000 23.5403 0.0000
# 6 0.0000 0.0000 0.0000 2.7868 0.0000 21.1075
#
#
#
# Elastic Compliance Matrix: (Units=1/GPa)
#
#
# Indices 1 2 3 4 5 6 
#
# 1 0.011056 -0.004820 -0.001401 0.000000 -0.001315 0.000000
# 2 -0.004820 0.014824 -0.002388 0.000000 -0.001232 0.000000
# 3 -0.001401 -0.002388 0.011927 0.000000 -0.001746 0.000000
# 4 0.000000 0.000000 0.000000 0.049460 0.000000 -0.006530
# 5 -0.001315 -0.001232 -0.001746 0.000000 0.043388 0.000000
# 6 0.000000 0.000000 0.000000 -0.006530 0.000000 0.048239
#
#
# Mechanical properties :
#
#
# Convention : Reuss Voigt Hill
#
# Bulk Modulus (GPa) = 48.57283 50.70918 49.64101
# Shear Modulus (GPa) = 24.63371 26.58556 25.60963
#
# Velocity S-wave (km/s) = 3.62861 3.76963 3.69979
# Velocity P-wave (km/s) = 6.59683 6.78609 6.69213
#
# Compressibility (1/GPa) = 0.02058764
#
# Stress axis : x y z
#
# Youngs Moduli (GPa) = 90.45133 67.45935 83.84404
#
# Poissons Ratio (x) = 0.32515 0.11746
# Poissons Ratio (y) = 0.43597 0.20026
# Poissons Ratio (z) = 0.12672 0.16112
#
# Static dielectric constant tensor:
#      x y z
#    x 5.271290 0.000000 -0.085610 
#    y 0.000000 3.266070 0.000000 
#    z -0.085610 0.000000 3.709570 
# 
# 
# High freq. dielectric constant tensor:
#      x y z
#    x 1.723870 0.000000 0.005040 
#    y 0.000000 1.694940 0.000000 
#    z 0.005040 0.000000 1.745460 
# 
# From -- ./inp_files/66038.got.cif
#   From: 2010.03.12/outbox.cif.g09.slc.cpg/sg14_34_cif.got.tgz:66038.got - 2010.03.31 13:35:05.
