data_PCOD8123800
_publ_section_title
;
Structure prediction by ZEFSAII (Michael W. Deem and Ramdas Pophale) SiO2 
 PCOD8123800
Probable space group: P 21/C
;
_chemical_formula_sum "Si O2"
_cell_formula_units_Z 32
_cell_length_a 11.382253
_cell_length_b 9.555295
_cell_length_c 14.659548
_cell_angle_alpha 90.000000
_cell_angle_beta 93.283235
_cell_angle_gamma 90.000000
_cell_volume 1591.766957
_symmetry_space_group_name_H-M "P 21/C"
_symmetry_group_IT_number 14
_symmetry_cell_setting 'monoclinic'
loop_
_space_group_symop_operation_xyz
x,y,z
-x,1/2+y,1/2-z
-x,-y,-z
x,1/2-y,1/2+z
loop_
_atom_site_type_symbol
_atom_site_label
_atom_site_fract_x
_atom_site_fract_y
_atom_site_fract_z
Si Si1 0.365074 0.868781 0.226371
Si Si2 0.768051 0.711649 0.134469
Si Si3 0.581435 0.818783 0.773675
Si Si4 0.596464 0.694226 0.482562
Si Si5 0.134241 0.914107 0.317440
Si Si6 0.347733 0.621564 0.518360
Si Si7 0.903524 0.186472 0.045066
Si Si8 0.015874 0.097538 0.871268
O O1 0.455891 0.743791 0.242679
O O2 0.259524 0.849086 0.293152
O O3 0.312488 0.868253 0.122579
O O4 0.432072 0.015709 0.243807
O O5 0.686148 0.741863 0.217560
O O6 0.845775 0.572166 0.147867
O O7 0.853482 0.843222 0.131947
O O8 0.683248 0.702691 0.041800
O O9 0.617759 0.778451 0.877477
O O10 0.459485 0.721708 0.501779
O O11 0.624618 0.535596 0.511976
O O12 0.073233 0.828742 0.397351
O O13 0.047492 0.905367 0.228255
O O14 0.236533 0.668724 0.455202
O O15 0.946609 0.193834 0.942037
O O16 0.976104 0.062277 0.095711
#
# Coordination Sequence:
#
# PCOD8123800 Si02
#       8
#     4   4   4   4   4   4   4   4
#     4  10  20  39  61  91 124 155 201 245 306 363
#     4  11  23  41  61  90 125 158 201 253 309 358
#     4  10  22  37  61  90 123 159 195 251 300 366
#     4  10  20  36  64  90 119 158 199 246 300 366
#     4  11  24  41  61  92 128 156 198 263 308 351
#     4  10  18  37  65  88 117 156 206 246 291 363
#     4  11  23  41  66  90 117 162 209 254 296 363
#     4  11  24  42  67  86 116 167 217 247 296 360
#
# _framework density 20.103445000000001
#
# number of rings (size 3 to 8) (size 9 to 14) (size 15 to 20)
#    0.000    1.500    3.750    1.500    0.000    2.500 
#    2.250    3.125    0.000    0.000    0.000    0.000 
#    0.000    0.000    0.000    0.000    0.000    0.000 
#
# Total GULP energy -396848.650728 kJ/mol
# GULP energy per Si atom -12401.520335 kJ/mol
# Density = 2.005769 g / cm^3
# Si number density = 20.103445 Si / 1000 Ang^3
#
#
#
# Elastic Constant Matrix: (Units=GPa)
#
#
# Indices 1 2 3 4 5 6 
#
# 1 79.5816 18.2558 26.6161 0.0000 11.7905 0.0000
# 2 18.2558 39.8373 24.5482 0.0000 4.8879 0.0000
# 3 26.6161 24.5482 99.5227 0.0000 11.3675 0.0000
# 4 0.0000 0.0000 0.0000 26.9579 0.0000 -2.7711
# 5 11.7905 4.8879 11.3675 0.0000 28.0363 0.0000
# 6 0.0000 0.0000 0.0000 -2.7711 0.0000 27.0263
#
#
#
# Elastic Compliance Matrix: (Units=1/GPa)
#
#
# Indices 1 2 3 4 5 6 
#
# 1 0.015153 -0.004962 -0.002306 0.000000 -0.004572 0.000000
# 2 -0.004962 0.031369 -0.006317 0.000000 -0.000821 0.000000
# 3 -0.002306 -0.006317 0.012568 0.000000 -0.003025 0.000000
# 4 0.000000 0.000000 0.000000 0.037490 0.000000 0.003844
# 5 -0.004572 -0.000821 -0.003025 0.000000 0.038960 0.000000
# 6 0.000000 0.000000 0.000000 0.003844 0.000000 0.037395
#
#
# Mechanical properties :
#
#
# Convention : Reuss Voigt Hill
#
# Bulk Modulus (GPa) = 31.32776 39.75352 35.54064
# Shear Modulus (GPa) = 23.72532 26.37218 25.04875
#
# Velocity S-wave (km/s) = 3.43908 3.62584 3.53369
# Velocity P-wave (km/s) = 5.60239 6.11117 5.86230
#
# Compressibility (1/GPa) = 0.03192057
#
# Stress axis : x y z
#
# Youngs Moduli (GPa) = 65.99501 31.87860 79.56511
#
# Poissons Ratio (x) = 0.15817 0.18350
# Poissons Ratio (y) = 0.32745 0.50259
# Poissons Ratio (z) = 0.15220 0.20137
#
# Static dielectric constant tensor:
#      x y z
#    x 3.657090 0.000000 -0.062630 
#    y 0.000000 3.421370 0.000000 
#    z -0.062630 0.000000 3.711620 
# 
# 
# High freq. dielectric constant tensor:
#      x y z
#    x 1.792390 0.000000 -0.000360 
#    y 0.000000 1.759970 0.000000 
#    z -0.000360 0.000000 1.795190 
# 
# From -- ./inp_files/43754.got.cif
#   From: 2010.03.12/outbox.cif.g09.slc.cpg/sg14_22_cif.got.tgz:43754.got - 2010.03.31 13:35:05.
