data_PCOD8123517
_publ_section_title
;
Structure prediction by ZEFSAII (Michael W. Deem and Ramdas Pophale) SiO2 
 PCOD8123517
Probable space group: P 21/C
;
_chemical_formula_sum "Si O2"
_cell_formula_units_Z 32
_cell_length_a 12.974652
_cell_length_b 16.629408
_cell_length_c 13.198503
_cell_angle_alpha 90.000000
_cell_angle_beta 147.460115
_cell_angle_gamma 90.000000
_cell_volume 1531.750019
_symmetry_space_group_name_H-M "P 21/C"
_symmetry_group_IT_number 14
_symmetry_cell_setting 'monoclinic'
loop_
_space_group_symop_operation_xyz
x,y,z
-x,1/2+y,1/2-z
-x,-y,-z
x,1/2-y,1/2+z
loop_
_atom_site_type_symbol
_atom_site_label
_atom_site_fract_x
_atom_site_fract_y
_atom_site_fract_z
Si Si1 0.880489 0.525989 0.768577
Si Si2 0.235262 0.611978 0.998009
Si Si3 0.989476 0.250452 0.573395
Si Si4 0.563371 0.636038 0.401395
Si Si5 0.660931 0.133204 0.087022
Si Si6 0.247138 0.371832 0.167608
Si Si7 0.807925 0.720208 0.068237
Si Si8 0.135920 0.702562 0.735674
O O1 0.746700 0.585721 0.590831
O O2 0.819892 0.434896 0.698313
O O3 0.854225 0.549026 0.867507
O O4 0.099934 0.536219 0.913670
O O5 0.234727 0.627263 0.875112
O O6 0.155176 0.690156 0.991051
O O7 0.458053 0.598634 0.214503
O O8 0.161007 0.203222 0.658682
O O9 0.089959 0.306378 0.741855
O O10 0.874720 0.305227 0.395808
O O11 0.393219 0.629704 0.341103
O O12 0.611575 0.730939 0.427445
O O13 0.755518 0.217168 0.138473
O O14 0.474698 0.119972 0.864662
O O15 0.211614 0.359131 0.018203
O O16 0.923020 0.789772 0.103748
#
# Coordination Sequence:
#
# PCOD8123517 Si02
#       8
#     4   4   4   4   4   4   4   4
#     4  10  21  37  50  85 125 139 174 230 283 340
#     4  10  19  34  53  77 111 146 187 220 272 333
#     4   9  16  31  48  75 110 137 181 238 265 304
#     4  11  18  33  53  75 112 151 174 224 270 327
#     4  11  20  33  54  81 119 148 173 225 291 340
#     4   9  17  31  50  76 110 147 177 218 275 329
#     4  10  18  32  52  74 114 143 188 231 263 317
#     4  10  19  33  52  78 112 147 186 226 278 324
#
# _framework density 20.891137000000001
#
# number of rings (size 3 to 8) (size 9 to 14) (size 15 to 20)
#    0.000    2.000    6.250    2.250    0.000    0.500 
#    4.500    0.000    0.000    0.000    0.000    4.375 
#    0.000    0.125    0.000    0.000    0.000    0.000 
#
# Total GULP energy -396482.825222 kJ/mol
# GULP energy per Si atom -12390.088288 kJ/mol
# Density = 2.084359 g / cm^3
# Si number density = 20.891137 Si / 1000 Ang^3
#
#
#
# Elastic Constant Matrix: (Units=GPa)
#
#
# Indices 1 2 3 4 5 6 
#
# 1 43.4756 11.2670 23.6706 0.0000 -21.9555 0.0000
# 2 11.2670 38.3786 1.9835 0.0000 0.0353 0.0000
# 3 23.6706 1.9835 37.5297 0.0000 -10.4071 0.0000
# 4 0.0000 0.0000 0.0000 12.5663 0.0000 4.9971
# 5 -21.9555 0.0353 -10.4071 0.0000 31.9424 0.0000
# 6 0.0000 0.0000 0.0000 4.9971 0.0000 21.6448
#
#
#
# Elastic Compliance Matrix: (Units=1/GPa)
#
#
# Indices 1 2 3 4 5 6 
#
# 1 0.056798 -0.015328 -0.026584 0.000000 0.030395 0.000000
# 2 -0.015328 0.030272 0.005647 0.000000 -0.008729 0.000000
# 3 -0.026584 0.005647 0.041824 0.000000 -0.004652 0.000000
# 4 0.000000 0.000000 0.000000 0.087622 0.000000 -0.020229
# 5 0.030395 -0.008729 -0.004652 0.000000 0.050692 0.000000
# 6 0.000000 0.000000 0.000000 -0.020229 0.000000 0.050871
#
#
# Mechanical properties :
#
#
# Convention : Reuss Voigt Hill
#
# Bulk Modulus (GPa) = 17.74210 21.46959 19.60585
# Shear Modulus (GPa) = 12.21302 18.72820 15.47061
#
# Velocity S-wave (km/s) = 2.42048 2.99735 2.72423
# Velocity P-wave (km/s) = 4.04014 4.71996 4.39322
#
# Compressibility (1/GPa) = 0.05636311
#
# Stress axis : x y z
#
# Youngs Moduli (GPa) = 17.60634 33.03336 23.90955
#
# Poissons Ratio (x) = 0.50635 0.63562
# Poissons Ratio (y) = 0.26988 -0.13502
# Poissons Ratio (z) = 0.46806 -0.18655
#
# Static dielectric constant tensor:
#      x y z
#    x 3.781060 0.000000 -0.225260 
#    y 0.000000 3.346380 0.000000 
#    z -0.225260 0.000000 4.228990 
# 
# 
# High freq. dielectric constant tensor:
#      x y z
#    x 1.790120 0.000000 -0.005360 
#    y 0.000000 1.761200 0.000000 
#    z -0.005360 0.000000 1.845940 
# 
# From -- ./inp_files/47556.got.cif
#   From: 2010.03.12/outbox.cif.g09.slc.cpg/sg14_24_cif.got.tgz:47556.got - 2010.03.31 13:35:05.
