data_PCOD8123236
_publ_section_title
;
Structure prediction by ZEFSAII (Michael W. Deem and Ramdas Pophale) SiO2 
 PCOD8123236
Probable space group: P 21/C
;
_chemical_formula_sum "Si O2"
_cell_formula_units_Z 28
_cell_length_a 17.652358
_cell_length_b 20.087804
_cell_length_c 9.081498
_cell_angle_alpha 90.000000
_cell_angle_beta 20.469734
_cell_angle_gamma 90.000000
_cell_volume 1126.169835
_symmetry_space_group_name_H-M "P 21/C"
_symmetry_group_IT_number 14
_symmetry_cell_setting 'monoclinic'
loop_
_space_group_symop_operation_xyz
x,y,z
-x,1/2+y,1/2-z
-x,-y,-z
x,1/2-y,1/2+z
loop_
_atom_site_type_symbol
_atom_site_label
_atom_site_fract_x
_atom_site_fract_y
_atom_site_fract_z
Si Si1 0.392118 0.203512 0.661674
Si Si2 0.167353 0.388447 0.352988
Si Si3 0.627148 0.938062 0.819960
Si Si4 0.558180 0.678219 0.612302
Si Si5 0.918169 0.336495 0.349637
Si Si6 0.960066 0.226306 0.068916
Si Si7 0.011233 0.518047 0.809556
O O1 0.339234 0.139857 0.657208
O O2 0.524396 0.255136 0.319448
O O3 0.524024 0.177195 0.566681
O O4 0.187621 0.244187 0.097809
O O5 0.994454 0.328987 0.636859
O O6 0.086355 0.456660 0.572340
O O7 0.254998 0.403804 0.031606
O O8 0.465408 0.884532 0.189354
O O9 0.777118 0.963981 0.677358
O O10 0.500000 0.000000 0.000000
O O11 0.820515 0.671087 0.128283
O O12 0.831350 0.308450 0.666730
O O13 0.845844 0.413888 0.464108
O O14 0.829391 0.289158 0.378308
O O15 0.000000 0.500000 0.000000
#
# Coordination Sequence:
#
# PCOD8123236 Si02
#       7
#     4   4   4   4   4   4   4
#     4  10  15  28  54  89 111 139 205 261 277 333
#     4  12  19  33  59  91 114 160 194 260 301 348
#     4  11  23  39  55  85 123 162 198 237 308 372
#     4   9  15  29  49  82 108 143 193 248 277 334
#     4   9  17  28  47  81 114 138 187 249 287 330
#     4  10  15  26  50  83 110 139 199 247 283 328
#     4  11  23  37  57  91 128 152 200 253 308 359
#
# _framework density 24.863035
#
# number of rings (size 3 to 8) (size 9 to 14) (size 15 to 20)
#    0.000    1.714    8.571    3.000    0.000    0.000 
#    0.000    2.857    0.000    0.000   22.286    0.000 
#    0.000    0.000    0.000    0.000    0.000    0.000 
#
# Total GULP energy -347022.970930 kJ/mol
# GULP energy per Si atom -12393.677533 kJ/mol
# Density = 2.480645 g / cm^3
# Si number density = 24.863035 Si / 1000 Ang^3
#
#
#
# Elastic Constant Matrix: (Units=GPa)
#
#
# Indices 1 2 3 4 5 6 
#
# 1 181.9582 69.2487 19.2868 0.0000 31.2637 0.0000
# 2 69.2487 198.7932 30.9693 0.0000 20.2366 0.0000
# 3 19.2868 30.9693 63.9513 0.0000 31.0725 0.0000
# 4 0.0000 0.0000 0.0000 36.8171 0.0000 13.1520
# 5 31.2637 20.2366 31.0725 0.0000 35.5666 0.0000
# 6 0.0000 0.0000 0.0000 13.1520 0.0000 62.7412
#
#
#
# Elastic Compliance Matrix: (Units=1/GPa)
#
#
# Indices 1 2 3 4 5 6 
#
# 1 0.007324 -0.002182 0.002385 0.000000 -0.007280 0.000000
# 2 -0.002182 0.006130 -0.002689 0.000000 0.000779 0.000000
# 3 0.002385 -0.002689 0.028661 0.000000 -0.025606 0.000000
# 4 0.000000 0.000000 0.000000 0.029360 0.000000 -0.006155
# 5 -0.007280 0.000779 -0.025606 0.000000 0.056443 0.000000
# 6 0.000000 0.000000 0.000000 -0.006155 0.000000 0.017229
#
#
# Mechanical properties :
#
#
# Convention : Reuss Voigt Hill
#
# Bulk Modulus (GPa) = 26.92250 75.96803 51.44527
# Shear Modulus (GPa) = 30.76918 48.70483 39.73701
#
# Velocity S-wave (km/s) = 3.52170 4.43078 4.00213
# Velocity P-wave (km/s) = 5.23338 7.53636 6.48787
#
# Compressibility (1/GPa) = 0.03714366
#
# Stress axis : x y z
#
# Youngs Moduli (GPa) = 136.53371 163.13286 34.89012
#
# Poissons Ratio (x) = 0.35592 -0.08322
# Poissons Ratio (y) = 0.29789 0.09383
# Poissons Ratio (z) = -0.32564 0.43871
#
# Static dielectric constant tensor:
#      x y z
#    x 5.093080 0.000000 0.098940 
#    y 0.000000 5.392950 0.000000 
#    z 0.098940 0.000000 5.921590 
# 
# 
# High freq. dielectric constant tensor:
#      x y z
#    x 2.014760 0.000000 0.011380 
#    y 0.000000 2.013310 0.000000 
#    z 0.011380 0.000000 1.986790 
# 
# From -- ./inp_files/18208.got.cif
#   From: 2010.03.12/outbox.cif.g09.slc.cpg/sg14_10_cif.got.tgz:18208.got - 2010.03.31 13:35:05.
