data_PCOD8123778
_publ_section_title
;
Structure prediction by ZEFSAII (Michael W. Deem and Ramdas Pophale) SiO2 
 PCOD8123778
Probable space group: P 21/C
;
_chemical_formula_sum "Si O2"
_cell_formula_units_Z 32
_cell_length_a 12.092419
_cell_length_b 11.882291
_cell_length_c 22.311889
_cell_angle_alpha 90.000000
_cell_angle_beta 32.258821
_cell_angle_gamma 90.000000
_cell_volume 1711.131156
_symmetry_space_group_name_H-M "P 21/C"
_symmetry_group_IT_number 14
_symmetry_cell_setting 'monoclinic'
loop_
_space_group_symop_operation_xyz
x,y,z
-x,1/2+y,1/2-z
-x,-y,-z
x,1/2-y,1/2+z
loop_
_atom_site_type_symbol
_atom_site_label
_atom_site_fract_x
_atom_site_fract_y
_atom_site_fract_z
Si Si1 0.088123 0.110762 0.031913
Si Si2 0.640580 0.588776 0.370708
Si Si3 0.311918 0.401989 0.188440
Si Si4 0.017348 0.234232 0.269135
Si Si5 0.223114 0.841260 0.728974
Si Si6 0.532402 0.647895 0.554454
Si Si7 0.686264 0.250271 0.515933
Si Si8 0.028973 0.141476 0.927617
O O1 0.873696 0.156616 0.159764
O O2 0.282615 0.136213 0.983897
O O3 0.110721 0.169910 0.956696
O O4 0.086869 0.977419 0.022543
O O5 0.870609 0.629981 0.247020
O O6 0.615666 0.645028 0.448568
O O7 0.630837 0.455494 0.368775
O O8 0.468194 0.643762 0.407010
O O9 0.174150 0.341046 0.199995
O O10 0.302739 0.533379 0.177769
O O11 0.553552 0.364866 0.078566
O O12 0.221163 0.363118 0.294114
O O13 0.969243 0.197704 0.223674
O O14 0.798248 0.261033 0.400255
O O15 0.415828 0.759291 0.630142
O O16 0.862472 0.261209 0.486227
#
# Coordination Sequence:
#
# PCOD8123778 Si02
#       8
#     4   4   4   4   4   4   4   4
#     4  10  20  37  57  83 109 143 194 234 279 332
#     4  10  20  34  55  84 109 147 188 222 274 346
#     4   9  22  36  55  83 112 146 191 228 278 344
#     4  10  20  34  55  81 112 145 184 226 278 334
#     4  11  22  35  53  86 117 146 176 234 291 330
#     4  11  21  34  57  81 115 148 180 234 280 329
#     4  10  18  37  57  80 108 147 185 228 277 335
#     4   9  19  37  62  78 104 151 194 233 269 331
#
# _framework density 18.701080999999999
#
# number of rings (size 3 to 8) (size 9 to 14) (size 15 to 20)
#    0.000    2.000    3.750    0.000    1.750    1.500 
#    2.250    0.000    0.000    0.750    0.000    0.000 
#    0.000    0.000    0.000    0.000    0.000    0.000 
#
# Total GULP energy -396548.627446 kJ/mol
# GULP energy per Si atom -12392.144608 kJ/mol
# Density = 1.865852 g / cm^3
# Si number density = 18.701081 Si / 1000 Ang^3
#
#
#
# Elastic Constant Matrix: (Units=GPa)
#
#
# Indices 1 2 3 4 5 6 
#
# 1 89.0613 26.1736 21.3555 0.0000 0.5776 0.0000
# 2 26.1736 104.2482 31.0064 0.0000 -1.2822 0.0000
# 3 21.3555 31.0064 54.2486 0.0000 -12.6569 0.0000
# 4 0.0000 0.0000 0.0000 27.4505 0.0000 -1.8322
# 5 0.5776 -1.2822 -12.6569 0.0000 23.5383 0.0000
# 6 0.0000 0.0000 0.0000 -1.8322 0.0000 20.5904
#
#
#
# Elastic Compliance Matrix: (Units=1/GPa)
#
#
# Indices 1 2 3 4 5 6 
#
# 1 0.012928 -0.001884 -0.004700 0.000000 -0.002947 0.000000
# 2 -0.001884 0.012066 -0.006850 0.000000 -0.002980 0.000000
# 3 -0.004700 -0.006850 0.027602 0.000000 0.014584 0.000000
# 4 0.000000 0.000000 0.000000 0.036647 0.000000 0.003261
# 5 -0.002947 -0.002980 0.014584 0.000000 0.050236 0.000000
# 6 0.000000 0.000000 0.000000 0.003261 0.000000 0.048857
#
#
# Mechanical properties :
#
#
# Convention : Reuss Voigt Hill
#
# Bulk Modulus (GPa) = 38.86878 44.95879 41.91378
# Shear Modulus (GPa) = 22.34338 25.58401 23.96369
#
# Velocity S-wave (km/s) = 3.46029 3.70273 3.58356
# Velocity P-wave (km/s) = 6.06582 6.50947 6.29156
#
# Compressibility (1/GPa) = 0.02572759
#
# Stress axis : x y z
#
# Youngs Moduli (GPa) = 77.35133 82.87511 36.22955
#
# Poissons Ratio (x) = 0.15615 0.17028
# Poissons Ratio (y) = 0.14575 0.24818
# Poissons Ratio (z) = 0.36354 0.56771
#
# Static dielectric constant tensor:
#      x y z
#    x 3.445780 0.000000 -0.027140 
#    y 0.000000 3.377140 0.000000 
#    z -0.027140 0.000000 3.432360 
# 
# 
# High freq. dielectric constant tensor:
#      x y z
#    x 1.715100 0.000000 -0.014300 
#    y 0.000000 1.713710 0.000000 
#    z -0.014300 0.000000 1.724360 
# 
# From -- ./inp_files/73303.got.cif
#   From: 2010.03.12/outbox.cif.g09.slc.cpg/sg14_37_cif.got.tgz:73303.got - 2010.03.31 13:35:05.
