data_PCOD8123100
_publ_section_title
;
Structure prediction by ZEFSAII (Michael W. Deem and Ramdas Pophale) SiO2 
 PCOD8123100
Probable space group: P 2/C
;
_chemical_formula_sum "Si O2"
_cell_formula_units_Z 28
_cell_length_a 8.620411
_cell_length_b 10.797139
_cell_length_c 14.531690
_cell_angle_alpha 90.000000
_cell_angle_beta 63.519260
_cell_angle_gamma 90.000000
_cell_volume 1210.644768
_symmetry_space_group_name_H-M "P 2/C"
_symmetry_group_IT_number 13
_symmetry_cell_setting 'monoclinic'
loop_
_space_group_symop_operation_xyz
x,y,z
-x,y,1/2-z
-x,-y,-z
x,-y,1/2+z
loop_
_atom_site_type_symbol
_atom_site_label
_atom_site_fract_x
_atom_site_fract_y
_atom_site_fract_z
Si Si1 0.360764 0.729158 0.022625
Si Si2 0.883086 0.715043 0.698607
Si Si3 0.814430 0.062831 0.844550
Si Si4 0.581025 0.113874 0.327111
Si Si5 0.393307 0.280346 0.869770
Si Si6 0.890012 0.107767 0.480927
Si Si7 0.198551 0.532975 0.928389
O O1 0.196785 0.798044 0.113706
O O2 0.495038 0.696672 0.067474
O O3 0.441245 0.833170 0.934771
O O4 0.289372 0.608886 0.988230
O O5 0.751202 0.801881 0.787171
O O6 0.783642 0.605999 0.672451
O O7 0.000000 0.659100 0.750000
O O8 0.985277 0.786151 0.591045
O O9 0.000000 0.043871 0.750000
O O10 0.647521 0.028664 0.824739
O O11 0.785158 0.957264 0.928133
O O12 0.500000 0.120245 0.250000
O O13 0.500000 0.249787 0.750000
O O14 0.297595 0.408669 0.881360
O O15 0.252277 0.169772 0.914985
O O16 0.000000 0.000000 0.500000
O O17 0.000000 0.500000 0.000000
#
# Coordination Sequence:
#
# PCOD8123100 Si02
#       7
#     4   4   4   4   4   4   4
#     4  12  28  50  74 112 159 196 256 325 384 455
#     4  12  23  47  76 108 142 202 256 303 370 465
#     4  12  26  46  76 113 153 199 248 309 391 464
#     4  12  24  44  77 115 146 199 253 308 386 458
#     4  12  30  50  76 115 157 204 257 326 389 446
#     4  12  25  46  76 109 155 193 246 311 383 470
#     4  12  28  50  77 106 149 209 259 315 384 453
#
# _framework density 23.128170999999998
#
# number of rings (size 3 to 8) (size 9 to 14) (size 15 to 20)
#    0.000    0.000    7.143    1.714    4.000    1.714 
#    0.000    0.000    0.000    0.000    0.000    0.000 
#    0.000    0.000    0.000    0.000    0.000    0.000 
#
# Total GULP energy -347179.813827 kJ/mol
# GULP energy per Si atom -12399.279065 kJ/mol
# Density = 2.307553 g / cm^3
# Si number density = 23.128171 Si / 1000 Ang^3
#
#
#
# Elastic Constant Matrix: (Units=GPa)
#
#
# Indices 1 2 3 4 5 6 
#
# 1 124.2004 44.3792 51.7633 0.0000 12.9922 0.0000
# 2 44.3792 108.8700 60.4903 0.0000 -4.8121 0.0000
# 3 51.7633 60.4903 111.0132 0.0000 0.9765 0.0000
# 4 0.0000 0.0000 0.0000 32.0606 0.0000 24.5314
# 5 12.9922 -4.8121 0.9765 0.0000 46.2897 0.0000
# 6 0.0000 0.0000 0.0000 24.5314 0.0000 -696.3969
#
#
#
# Elastic Compliance Matrix: (Units=1/GPa)
#
#
# Indices 1 2 3 4 5 6 
#
# 1 0.010806 -0.002529 -0.003632 0.000000 -0.003219 0.000000
# 2 -0.002529 0.013873 -0.006400 0.000000 0.002287 0.000000
# 3 -0.003632 -0.006400 0.014189 0.000000 0.000055 0.000000
# 4 0.000000 0.000000 0.000000 0.030372 0.000000 0.001070
# 5 -0.003219 0.002287 0.000055 0.000000 0.022743 0.000000
# 6 0.000000 0.000000 0.000000 0.001070 0.000000 -0.001398
#
#
# Mechanical properties :
#
#
# Convention : Reuss Voigt Hill
#
# Bulk Modulus (GPa) = 72.75579 73.03883 72.89731
# Shear Modulus (GPa) = 41.56632 -111.11260 -34.77314
#
# Velocity S-wave (km/s) = 4.24396 -6.93876 -3.88170
# Velocity P-wave (km/s) = 7.45257 5.70496 3.39074
#
# Compressibility (1/GPa) = 0.01374461
#
# Stress axis : x y z
#
# Youngs Moduli (GPa) = 92.54401 72.08001 70.47900
#
# Poissons Ratio (x) = 0.18229 0.25599
# Poissons Ratio (y) = 0.23404 0.45110
# Poissons Ratio (z) = 0.33613 0.46135
#
# Static dielectric constant tensor:
#      x y z
#    x 4.488770 0.000000 0.117870 
#    y 0.000000 4.312630 0.000000 
#    z 0.117870 0.000000 4.512580 
# 
# 
# High freq. dielectric constant tensor:
#      x y z
#    x 1.933430 0.000000 0.004910 
#    y 0.000000 1.916130 0.000000 
#    z 0.004910 0.000000 1.921220 
# 
# From -- ./inp_files/47117.got.cif
#   From: 2010.06.25/outbox.cif.g09.slc.cpg/sg13_24_cif.got.tgz:47117.got - 2010.06.28 04:50:58.
