data_PCOD8123465
_publ_section_title
;
Structure prediction by ZEFSAII (Michael W. Deem and Ramdas Pophale) SiO2 
 PCOD8123465
Probable space group: P 21/C
;
_chemical_formula_sum "Si O2"
_cell_formula_units_Z 32
_cell_length_a 18.524786
_cell_length_b 13.250336
_cell_length_c 21.669336
_cell_angle_alpha 90.000000
_cell_angle_beta 159.751704
_cell_angle_gamma 90.000000
_cell_volume 1840.830006
_symmetry_space_group_name_H-M "P 21/C"
_symmetry_group_IT_number 14
_symmetry_cell_setting 'monoclinic'
loop_
_space_group_symop_operation_xyz
x,y,z
-x,1/2+y,1/2-z
-x,-y,-z
x,1/2-y,1/2+z
loop_
_atom_site_type_symbol
_atom_site_label
_atom_site_fract_x
_atom_site_fract_y
_atom_site_fract_z
Si Si1 0.687984 0.122311 0.843546
Si Si2 0.668289 0.883663 0.825997
Si Si3 0.145320 0.885654 0.889069
Si Si4 0.304356 0.692813 0.961966
Si Si5 0.959062 0.114753 0.952624
Si Si6 0.440569 0.883816 0.445833
Si Si7 0.850225 0.614753 0.604057
Si Si8 0.305398 0.193393 0.463232
O O1 0.869067 0.166050 0.942876
O O2 0.467162 0.170967 0.648214
O O3 0.663828 0.003448 0.813859
O O4 0.755236 0.149260 0.966271
O O5 0.440714 0.837690 0.631110
O O6 0.739517 0.854593 0.951524
O O7 0.829724 0.835834 0.904979
O O8 0.241743 0.811009 0.915041
O O9 0.895671 0.877653 0.690076
O O10 0.206169 0.000423 0.921856
O O11 0.447301 0.671915 0.016953
O O12 0.098737 0.623830 0.796142
O O13 0.793166 0.124155 0.765091
O O14 0.000000 0.000000 0.000000
O O15 0.598932 0.827099 0.527171
O O16 0.500000 0.000000 0.500000
O O17 0.764536 0.689509 0.588242
#
# Coordination Sequence:
#
# PCOD8123465 Si02
#       8
#     4   4   4   4   4   4   4   4
#     4   9  18  31  48  78 101 131 167 205 258 302
#     4  10  18  30  52  74 107 132 164 213 257 304
#     4  10  21  34  53  73 103 138 172 209 252 307
#     4  11  21  33  52  81 101 134 174 208 261 306
#     4   9  17  28  46  77 104 132 157 205 263 303
#     4  11  20  32  53  80 106 128 167 217 262 304
#     4  10  20  37  51  72 106 139 172 210 255 305
#     4  10  21  33  52  77 103 135 169 211 260 302
#
# _framework density 17.383462999999999
#
# number of rings (size 3 to 8) (size 9 to 14) (size 15 to 20)
#    0.000    2.000    1.250    4.500    5.250    0.000 
#    0.000    0.625    0.000    0.000    0.000    1.750 
#    0.000    0.000    0.000    0.000    0.000    0.000 
#
# Total GULP energy -396697.321749 kJ/mol
# GULP energy per Si atom -12396.791305 kJ/mol
# Density = 1.734390 g / cm^3
# Si number density = 17.383463 Si / 1000 Ang^3
#
#
#
# Elastic Constant Matrix: (Units=GPa)
#
#
# Indices 1 2 3 4 5 6 
#
# 1 84.9160 53.0154 32.1379 0.0000 7.2250 0.0000
# 2 53.0154 82.3525 25.9451 0.0000 2.9540 0.0000
# 3 32.1379 25.9451 96.0912 0.0000 -1.4254 0.0000
# 4 0.0000 0.0000 0.0000 13.3591 0.0000 -6.2379
# 5 7.2250 2.9540 -1.4254 0.0000 20.0654 0.0000
# 6 0.0000 0.0000 0.0000 -6.2379 0.0000 20.7339
#
#
#
# Elastic Compliance Matrix: (Units=1/GPa)
#
#
# Indices 1 2 3 4 5 6 
#
# 1 0.021541 -0.012401 -0.003948 0.000000 -0.006211 0.000000
# 2 -0.012401 0.020509 -0.001370 0.000000 0.001348 0.000000
# 3 -0.003948 -0.001370 0.012134 0.000000 0.002485 0.000000
# 4 0.000000 0.000000 0.000000 0.087090 0.000000 0.026201
# 5 -0.006211 0.001348 0.002485 0.000000 0.052052 0.000000
# 6 0.000000 0.000000 0.000000 0.026201 0.000000 0.056113
#
#
# Mechanical properties :
#
#
# Convention : Reuss Voigt Hill
#
# Bulk Modulus (GPa) = 53.34421 53.95072 53.64747
# Shear Modulus (GPa) = 17.17466 20.98244 19.07855
#
# Velocity S-wave (km/s) = 3.14664 3.47801 3.31647
# Velocity P-wave (km/s) = 6.62987 6.87254 6.75229
#
# Compressibility (1/GPa) = 0.01874618
#
# Stress axis : x y z
#
# Youngs Moduli (GPa) = 46.42251 48.75828 82.41205
#
# Poissons Ratio (x) = 0.60464 0.32540
# Poissons Ratio (y) = 0.57567 0.11292
# Poissons Ratio (z) = 0.18329 0.06681
#
# Static dielectric constant tensor:
#      x y z
#    x 3.282690 0.000000 0.009810 
#    y 0.000000 2.980060 0.000000 
#    z 0.009810 0.000000 3.462050 
# 
# 
# High freq. dielectric constant tensor:
#      x y z
#    x 1.660280 0.000000 -0.004280 
#    y 0.000000 1.640070 0.000000 
#    z -0.004280 0.000000 1.693710 
# 
# From -- ./inp_files/61444.got.cif
#   From: 2010.03.12/outbox.cif.g09.slc.cpg/sg14_31_cif.got.tgz:61444.got - 2010.03.31 13:35:05.
