data_PCOD8123442
_publ_section_title
;
Structure prediction by ZEFSAII (Michael W. Deem and Ramdas Pophale) SiO2 
 PCOD8123442
Probable space group: P 21/C
;
_chemical_formula_sum "Si O2"
_cell_formula_units_Z 32
_cell_length_a 5.490054
_cell_length_b 29.879154
_cell_length_c 9.413811
_cell_angle_alpha 90.000000
_cell_angle_beta 103.227973
_cell_angle_gamma 90.000000
_cell_volume 1503.251880
_symmetry_space_group_name_H-M "P 21/C"
_symmetry_group_IT_number 14
_symmetry_cell_setting 'monoclinic'
loop_
_space_group_symop_operation_xyz
x,y,z
-x,1/2+y,1/2-z
-x,-y,-z
x,1/2-y,1/2+z
loop_
_atom_site_type_symbol
_atom_site_label
_atom_site_fract_x
_atom_site_fract_y
_atom_site_fract_z
Si Si1 0.117173 0.228149 0.116630
Si Si2 0.820732 0.053915 0.690096
Si Si3 0.604494 0.819424 0.363532
Si Si4 0.214575 0.049792 0.376678
Si Si5 0.482986 0.816650 0.660254
Si Si6 0.674303 0.916961 0.294381
Si Si7 0.286235 0.590664 0.128249
Si Si8 0.814080 0.236053 0.813143
O O1 0.214367 0.278739 0.146974
O O2 0.319641 0.190572 0.185193
O O3 0.033271 0.217435 0.944621
O O4 0.894969 0.228654 0.201768
O O5 0.611946 0.067597 0.781609
O O6 0.779071 0.085805 0.547196
O O7 0.107160 0.063920 0.781275
O O8 0.790744 0.003011 0.641724
O O9 0.618477 0.830615 0.532316
O O10 0.696367 0.863389 0.294182
O O11 0.327071 0.806439 0.271994
O O12 0.278858 0.060457 0.546981
O O13 0.436522 0.069425 0.305539
O O14 0.935954 0.069180 0.305062
O O15 0.295267 0.857004 0.673657
O O16 0.354400 0.768671 0.610635
#
# Coordination Sequence:
#
# PCOD8123442 Si02
#       8
#     4   4   4   4   4   4   4   4
#     4  11  24  38  60  79 117 152 198 255 294 350
#     4  10  18  29  47  78 116 150 185 236 299 351
#     4  11  22  36  55  85 109 156 204 238 298 353
#     4  10  18  29  47  78 116 150 185 236 299 351
#     4  11  22  36  55  85 109 156 204 238 298 353
#     4  10  19  29  50  74 111 154 185 233 288 361
#     4  10  19  29  50  74 111 154 185 233 288 361
#     4  11  24  38  60  79 117 152 198 255 294 350
#
# _framework density 21.287185000000001
#
# number of rings (size 3 to 8) (size 9 to 14) (size 15 to 20)
#    0.000    1.500    5.000    3.750    7.000    0.000 
#    0.000    0.000    0.000    0.000    0.000    0.000 
#    0.000   11.000    0.000    0.000    0.000    0.000 
#
# Total GULP energy -396561.204525 kJ/mol
# GULP energy per Si atom -12392.537641 kJ/mol
# Density = 2.123873 g / cm^3
# Si number density = 21.287185 Si / 1000 Ang^3
#
#
#
# Elastic Constant Matrix: (Units=GPa)
#
#
# Indices 1 2 3 4 5 6 
#
# 1 148.0632 25.6731 10.3125 0.0000 20.9328 0.0000
# 2 25.6731 97.4215 14.0451 0.0000 14.9241 0.0000
# 3 10.3125 14.0451 54.5129 0.0000 13.9479 0.0000
# 4 0.0000 0.0000 0.0000 15.4300 0.0000 10.8710
# 5 20.9328 14.9241 13.9479 0.0000 18.4972 0.0000
# 6 0.0000 0.0000 0.0000 10.8710 0.0000 34.0081
#
#
#
# Elastic Compliance Matrix: (Units=1/GPa)
#
#
# Indices 1 2 3 4 5 6 
#
# 1 0.008149 -0.000873 0.001069 0.000000 -0.009323 0.000000
# 2 -0.000873 0.011830 -0.000859 0.000000 -0.007909 0.000000
# 3 0.001069 -0.000859 0.022917 0.000000 -0.017797 0.000000
# 4 0.000000 0.000000 0.000000 0.083647 0.000000 -0.026738
# 5 -0.009323 -0.007909 -0.017797 0.000000 0.084415 0.000000
# 6 0.000000 0.000000 0.000000 -0.026738 0.000000 0.037952
#
#
# Mechanical properties :
#
#
# Convention : Reuss Voigt Hill
#
# Bulk Modulus (GPa) = 24.05625 44.45101 34.25363
# Shear Modulus (GPa) = 18.93268 30.25153 24.59210
#
# Velocity S-wave (km/s) = 2.98551 3.77386 3.40259
# Velocity P-wave (km/s) = 4.81764 6.31793 5.61809
#
# Compressibility (1/GPa) = 0.04156925
#
# Stress axis : x y z
#
# Youngs Moduli (GPa) = 122.71488 84.52909 43.63541
#
# Poissons Ratio (x) = 0.07382 -0.04664
# Poissons Ratio (y) = 0.10717 0.03749
# Poissons Ratio (z) = -0.13118 0.07263
#
# Static dielectric constant tensor:
#      x y z
#    x 4.919810 0.000000 0.292200 
#    y 0.000000 3.843110 0.000000 
#    z 0.292200 0.000000 3.201640 
# 
# 
# High freq. dielectric constant tensor:
#      x y z
#    x 1.861160 0.000000 0.018740 
#    y 0.000000 1.837500 0.000000 
#    z 0.018740 0.000000 1.749410 
# 
# From -- ./inp_files/22254.got.cif
#   From: 2010.03.12/outbox.cif.g09.slc.cpg/sg14_12_cif.got.tgz:22254.got - 2010.03.31 13:35:05.
