data_PCOD8123791
_publ_section_title
;
Structure prediction by ZEFSAII (Michael W. Deem and Ramdas Pophale) SiO2 
 PCOD8123791
Probable space group: P 21/C
;
_chemical_formula_sum "Si O2"
_cell_formula_units_Z 28
_cell_length_a 13.803882
_cell_length_b 8.707853
_cell_length_c 18.679288
_cell_angle_alpha 90.000000
_cell_angle_beta 35.980817
_cell_angle_gamma 90.000000
_cell_volume 1319.140724
_symmetry_space_group_name_H-M "P 21/C"
_symmetry_group_IT_number 14
_symmetry_cell_setting 'monoclinic'
loop_
_space_group_symop_operation_xyz
x,y,z
-x,1/2+y,1/2-z
-x,-y,-z
x,1/2-y,1/2+z
loop_
_atom_site_type_symbol
_atom_site_label
_atom_site_fract_x
_atom_site_fract_y
_atom_site_fract_z
Si Si1 0.824085 0.203737 0.417674
Si Si2 0.710899 0.334990 0.135580
Si Si3 0.102164 0.011062 0.192958
Si Si4 0.305725 0.522602 0.711100
Si Si5 0.379809 0.264662 0.493491
Si Si6 0.531944 0.049249 0.295528
Si Si7 0.439532 0.193899 0.613480
O O1 0.840153 0.165277 0.492989
O O2 0.911592 0.367130 0.351984
O O3 0.635306 0.209505 0.507147
O O4 0.918163 0.071383 0.317712
O O5 0.784185 0.408645 0.164394
O O6 0.660416 0.157999 0.178499
O O7 0.549290 0.435870 0.213373
O O8 0.184157 0.954582 0.217643
O O9 0.207157 0.146408 0.093040
O O10 0.473456 0.612357 0.594208
O O11 0.348631 0.344941 0.697246
O O12 0.390489 0.150572 0.419753
O O13 0.394756 0.165872 0.557542
O O14 0.626030 0.949324 0.300212
#
# Coordination Sequence:
#
# PCOD8123791 Si02
#       7
#     4   4   4   4   4   4   4
#     4  11  23  38  58  86 125 155 196 245 296 363
#     4  10  22  37  57  88 122 157 198 246 299 355
#     4  11  23  39  62  86 122 160 197 243 299 356
#     4  10  19  41  66  86 116 160 199 250 295 345
#     4  10  19  37  65  88 114 157 202 255 287 343
#     4  10  21  32  59  89 120 151 194 252 299 343
#     4  10  18  37  61  94 117 145 204 249 295 346
#
# _framework density 21.225939
#
# number of rings (size 3 to 8) (size 9 to 14) (size 15 to 20)
#    0.000    1.714    2.857    3.000    6.000    0.571 
#    0.000    0.000    0.000    4.286    0.000    0.000 
#    0.000    0.000    0.000    0.000    0.000    0.000 
#
# Total GULP energy -347226.496855 kJ/mol
# GULP energy per Si atom -12400.946316 kJ/mol
# Density = 2.117763 g / cm^3
# Si number density = 21.225939 Si / 1000 Ang^3
#
#
#
# Elastic Constant Matrix: (Units=GPa)
#
#
# Indices 1 2 3 4 5 6 
#
# 1 40.6200 12.2687 13.9380 0.0000 13.1317 0.0000
# 2 12.2687 89.1660 26.7896 0.0000 10.8344 0.0000
# 3 13.9380 26.7896 74.5146 0.0000 13.6355 0.0000
# 4 0.0000 0.0000 0.0000 34.1148 0.0000 13.6297
# 5 13.1317 10.8344 13.6355 0.0000 20.6762 0.0000
# 6 0.0000 0.0000 0.0000 13.6297 0.0000 36.6357
#
#
#
# Elastic Compliance Matrix: (Units=1/GPa)
#
#
# Indices 1 2 3 4 5 6 
#
# 1 0.031577 -0.001548 -0.002079 0.000000 -0.017872 0.000000
# 2 -0.001548 0.012963 -0.003762 0.000000 -0.003328 0.000000
# 3 -0.002079 -0.003762 0.016557 0.000000 -0.007627 0.000000
# 4 0.000000 0.000000 0.000000 0.034430 0.000000 -0.012809
# 5 -0.017872 -0.003328 -0.007627 0.000000 0.066490 0.000000
# 6 0.000000 0.000000 0.000000 -0.012809 0.000000 0.032061
#
#
# Mechanical properties :
#
#
# Convention : Reuss Voigt Hill
#
# Bulk Modulus (GPa) = 21.58970 34.47702 28.03336
# Shear Modulus (GPa) = 22.29184 28.37230 25.33207
#
# Velocity S-wave (km/s) = 3.24422 3.66003 3.45838
# Velocity P-wave (km/s) = 4.92207 5.84288 5.40213
#
# Compressibility (1/GPa) = 0.04631839
#
# Stress axis : x y z
#
# Youngs Moduli (GPa) = 31.66816 77.14445 60.39640
#
# Poissons Ratio (x) = 0.11946 0.12559
# Poissons Ratio (y) = 0.04904 0.22719
# Poissons Ratio (z) = 0.06585 0.29019
#
# Static dielectric constant tensor:
#      x y z
#    x 3.745570 0.000000 0.433960 
#    y 0.000000 4.157500 0.000000 
#    z 0.433960 0.000000 3.706310 
# 
# 
# High freq. dielectric constant tensor:
#      x y z
#    x 1.812770 0.000000 0.030940 
#    y 0.000000 1.850840 0.000000 
#    z 0.030940 0.000000 1.811770 
# 
# From -- ./inp_files/62629.got.cif
#   From: 2010.03.12/outbox.cif.g09.slc.cpg/sg14_32_cif.got.tgz:62629.got - 2010.03.31 13:35:05.
