data_PCOD8123437
_publ_section_title
;
Structure prediction by ZEFSAII (Michael W. Deem and Ramdas Pophale) SiO2 
 PCOD8123437
Probable space group: P 21/C
;
_chemical_formula_sum "Si O2"
_cell_formula_units_Z 32
_cell_length_a 10.846535
_cell_length_b 19.522348
_cell_length_c 8.135149
_cell_angle_alpha 90.000000
_cell_angle_beta 73.295502
_cell_angle_gamma 90.000000
_cell_volume 1649.921896
_symmetry_space_group_name_H-M "P 21/C"
_symmetry_group_IT_number 14
_symmetry_cell_setting 'monoclinic'
loop_
_space_group_symop_operation_xyz
x,y,z
-x,1/2+y,1/2-z
-x,-y,-z
x,1/2-y,1/2+z
loop_
_atom_site_type_symbol
_atom_site_label
_atom_site_fract_x
_atom_site_fract_y
_atom_site_fract_z
Si Si1 0.069278 0.875730 0.037879
Si Si2 0.548583 0.281682 0.772913
Si Si3 0.202790 0.422469 0.324254
Si Si4 0.174897 0.011046 0.168854
Si Si5 0.706770 0.190720 0.914668
Si Si6 0.099465 0.942181 0.694543
Si Si7 0.695385 0.077563 0.646627
Si Si8 0.542014 0.649303 0.885124
O O1 0.918794 0.870782 0.138215
O O2 0.131307 0.941277 0.100523
O O3 0.146541 0.808679 0.072624
O O4 0.091120 0.883808 0.835790
O O5 0.606536 0.325996 0.601657
O O6 0.478396 0.213474 0.730682
O O7 0.668751 0.263126 0.848767
O O8 0.454809 0.326543 0.924620
O O9 0.231394 0.439771 0.505221
O O10 0.172692 0.490652 0.233323
O O11 0.320701 0.383198 0.200719
O O12 0.047463 0.042183 0.304899
O O13 0.284551 0.995519 0.265713
O O14 0.689032 0.135147 0.784119
O O15 0.179552 0.910784 0.514143
O O16 0.563124 0.087554 0.595850
#
# Coordination Sequence:
#
# PCOD8123437 Si02
#       8
#     4   4   4   4   4   4   4   4
#     4   8  15  30  51  70  96 126 153 190 233 281
#     4   9  19  35  52  67  87 119 161 211 245 270
#     4   9  18  32  48  70 101 133 153 179 234 291
#     4   8  16  30  48  72 102 127 152 187 226 278
#     4   9  17  32  52  70  87 116 161 203 242 273
#     4   9  16  29  49  74 101 128 154 185 230 281
#     4  10  18  28  49  74  97 126 156 190 227 280
#     4  10  20  34  51  68  92 126 162 196 239 284
#
# _framework density 19.394857999999999
#
# number of rings (size 3 to 8) (size 9 to 14) (size 15 to 20)
#    0.000    3.000    0.000    2.625    0.000    1.000 
#    0.000    5.000    0.000    0.000    0.000    0.000 
#    0.000    0.000    0.000    0.000    0.000    0.000 
#
# Total GULP energy -396423.068901 kJ/mol
# GULP energy per Si atom -12388.220903 kJ/mol
# Density = 1.935071 g / cm^3
# Si number density = 19.394858 Si / 1000 Ang^3
#
#
#
# Elastic Constant Matrix: (Units=GPa)
#
#
# Indices 1 2 3 4 5 6 
#
# 1 53.0474 23.9236 43.9279 0.0000 -13.4868 0.0000
# 2 23.9236 34.0066 40.2881 0.0000 -10.8329 0.0000
# 3 43.9279 40.2881 155.0102 0.0000 -15.7609 0.0000
# 4 0.0000 0.0000 0.0000 32.4225 0.0000 -3.7776
# 5 -13.4868 -10.8329 -15.7609 0.0000 27.4377 0.0000
# 6 0.0000 0.0000 0.0000 -3.7776 0.0000 28.2551
#
#
#
# Elastic Compliance Matrix: (Units=1/GPa)
#
#
# Indices 1 2 3 4 5 6 
#
# 1 0.030567 -0.014252 -0.004251 0.000000 0.006956 0.000000
# 2 -0.014252 0.052561 -0.008735 0.000000 0.008729 0.000000
# 3 -0.004251 -0.008735 0.009944 0.000000 0.000174 0.000000
# 4 0.000000 0.000000 0.000000 0.031331 0.000000 0.004189
# 5 0.006956 0.008729 0.000174 0.000000 0.043412 0.000000
# 6 0.000000 0.000000 0.000000 0.004189 0.000000 0.035952
#
#
# Mechanical properties :
#
#
# Convention : Reuss Voigt Hill
#
# Bulk Modulus (GPa) = 25.90872 50.92704 38.41788
# Shear Modulus (GPa) = 18.44290 26.55136 22.49713
#
# Velocity S-wave (km/s) = 3.08704 3.70400 3.40950
# Velocity P-wave (km/s) = 5.10823 6.67891 5.94566
#
# Compressibility (1/GPa) = 0.03859704
#
# Stress axis : x y z
#
# Youngs Moduli (GPa) = 32.71479 19.02549 100.56644
#
# Poissons Ratio (x) = 0.27115 0.42749
# Poissons Ratio (y) = 0.46625 0.87840
# Poissons Ratio (z) = 0.13907 0.16618
#
# Static dielectric constant tensor:
#      x y z
#    x 3.812540 0.000000 0.176860 
#    y 0.000000 3.556270 0.000000 
#    z 0.176860 0.000000 3.697960 
# 
# 
# High freq. dielectric constant tensor:
#      x y z
#    x 1.740040 0.000000 0.008450 
#    y 0.000000 1.713510 0.000000 
#    z 0.008450 0.000000 1.770780 
# 
# From -- ./inp_files/14285.got.cif
#   From: 2010.03.12/outbox.cif.g09.slc.cpg/sg14_8_cif.got.tgz:14285.got - 2010.03.31 13:35:05.
