data_PCOD8123896
_publ_section_title
;
Structure prediction by ZEFSAII (Michael W. Deem and Ramdas Pophale) SiO2 
 PCOD8123896
Probable space group: P 21/C
;
_chemical_formula_sum "Si O2"
_cell_formula_units_Z 32
_cell_length_a 6.519351
_cell_length_b 12.556251
_cell_length_c 23.013111
_cell_angle_alpha 90.000000
_cell_angle_beta 93.581608
_cell_angle_gamma 90.000000
_cell_volume 1880.141803
_symmetry_space_group_name_H-M "P 21/C"
_symmetry_group_IT_number 14
_symmetry_cell_setting 'monoclinic'
loop_
_space_group_symop_operation_xyz
x,y,z
-x,1/2+y,1/2-z
-x,-y,-z
x,1/2-y,1/2+z
loop_
_atom_site_type_symbol
_atom_site_label
_atom_site_fract_x
_atom_site_fract_y
_atom_site_fract_z
Si Si1 0.403847 0.551329 0.366150
Si Si2 0.187342 0.373500 0.223985
Si Si3 0.092643 0.405415 0.431338
Si Si4 0.061186 0.436807 0.772178
Si Si5 0.198421 0.093844 0.058727
Si Si6 0.975061 0.287663 0.323199
Si Si7 0.389831 0.917766 0.233489
Si Si8 0.970691 0.319249 0.659127
O O1 0.256167 0.471597 0.397585
O O2 0.570543 0.593342 0.414623
O O3 0.509173 0.494591 0.313082
O O4 0.275305 0.658060 0.345106
O O5 0.130704 0.362840 0.290936
O O6 0.433378 0.358796 0.224714
O O7 0.130911 0.494802 0.207404
O O8 0.043167 0.295165 0.183893
O O9 0.193393 0.361740 0.492651
O O10 0.010138 0.305782 0.392192
O O11 0.891514 0.474668 0.442407
O O12 0.045149 0.332580 0.811209
O O13 0.265782 0.510240 0.778493
O O14 0.059311 0.409466 0.703576
O O15 0.061006 0.170353 0.096390
O O16 0.745641 0.323331 0.298525
#
# Coordination Sequence:
#
# PCOD8123896 Si02
#       8
#     4   4   4   4   4   4   4   4
#     4  11  17  32  52  76 104 135 171 203 261 320
#     4  10  20  34  49  74 105 134 172 214 257 310
#     4  10  19  32  48  78 107 133 168 216 255 309
#     4  10  20  33  48  74 105 132 171 214 255 308
#     4  10  19  31  51  73 107 138 166 209 262 310
#     4  10  20  33  50  75 105 136 168 213 260 311
#     4  11  18  33  55  74 106 140 168 213 264 314
#     4  10  20  32  50  75 103 134 171 214 255 308
#
# _framework density 17.019991999999998
#
# number of rings (size 3 to 8) (size 9 to 14) (size 15 to 20)
#    0.000    1.750    5.000    1.875    0.000    5.000 
#    0.000    0.000    0.000    0.750    0.000    1.750 
#    0.000    0.000    0.000    0.000    0.000    0.000 
#
# Total GULP energy -396450.495791 kJ/mol
# GULP energy per Si atom -12389.077993 kJ/mol
# Density = 1.698125 g / cm^3
# Si number density = 17.019992 Si / 1000 Ang^3
#
#
#
# Elastic Constant Matrix: (Units=GPa)
#
#
# Indices 1 2 3 4 5 6 
#
# 1 96.1331 28.5943 23.8414 0.0000 12.6688 0.0000
# 2 28.5943 72.7371 37.9667 0.0000 4.6344 0.0000
# 3 23.8414 37.9667 85.8797 0.0000 9.4508 0.0000
# 4 0.0000 0.0000 0.0000 19.7007 0.0000 2.3347
# 5 12.6688 4.6344 9.4508 0.0000 20.8532 0.0000
# 6 0.0000 0.0000 0.0000 2.3347 0.0000 22.8152
#
#
#
# Elastic Compliance Matrix: (Units=1/GPa)
#
#
# Indices 1 2 3 4 5 6 
#
# 1 0.012700 -0.004046 -0.001039 0.000000 -0.006345 0.000000
# 2 -0.004046 0.019165 -0.007527 0.000000 0.001610 0.000000
# 3 -0.001039 -0.007527 0.015794 0.000000 -0.004854 0.000000
# 4 0.000000 0.000000 0.000000 0.051383 0.000000 -0.005258
# 5 -0.006345 0.001610 -0.004854 0.000000 0.053651 0.000000
# 6 0.000000 0.000000 0.000000 -0.005258 0.000000 0.044368
#
#
# Mechanical properties :
#
#
# Convention : Reuss Voigt Hill
#
# Bulk Modulus (GPa) = 44.57082 48.39496 46.48289
# Shear Modulus (GPa) = 21.76164 23.63032 22.69598
#
# Velocity S-wave (km/s) = 3.57962 3.73015 3.65566
# Velocity P-wave (km/s) = 6.58248 6.85915 6.72224
#
# Compressibility (1/GPa) = 0.02243621
#
# Stress axis : x y z
#
# Youngs Moduli (GPa) = 78.74324 52.17905 63.31463
#
# Poissons Ratio (x) = 0.21112 0.06576
# Poissons Ratio (y) = 0.31860 0.47654
# Poissons Ratio (z) = 0.08178 0.39273
#
# Static dielectric constant tensor:
#      x y z
#    x 3.418360 0.000000 0.066570 
#    y 0.000000 2.962080 0.000000 
#    z 0.066570 0.000000 3.124980 
# 
# 
# High freq. dielectric constant tensor:
#      x y z
#    x 1.671040 0.000000 0.002040 
#    y 0.000000 1.629580 0.000000 
#    z 0.002040 0.000000 1.632380 
# 
# From -- ./inp_files/71253.got.cif
#   From: 2010.03.12/outbox.cif.g09.slc.cpg/sg14_36_cif.got.tgz:71253.got - 2010.03.31 13:35:05.
