data_PCOD8123775
_publ_section_title
;
Structure prediction by ZEFSAII (Michael W. Deem and Ramdas Pophale) SiO2 
 PCOD8123775
Probable space group: P 21/C
;
_chemical_formula_sum "Si O2"
_cell_formula_units_Z 28
_cell_length_a 25.833449
_cell_length_b 9.403159
_cell_length_c 20.609546
_cell_angle_alpha 90.000000
_cell_angle_beta 162.030687
_cell_angle_gamma 90.000000
_cell_volume 1544.508947
_symmetry_space_group_name_H-M "P 21/C"
_symmetry_group_IT_number 14
_symmetry_cell_setting 'monoclinic'
loop_
_space_group_symop_operation_xyz
x,y,z
-x,1/2+y,1/2-z
-x,-y,-z
x,1/2-y,1/2+z
loop_
_atom_site_type_symbol
_atom_site_label
_atom_site_fract_x
_atom_site_fract_y
_atom_site_fract_z
Si Si1 0.668478 0.843096 0.112848
Si Si2 0.299087 0.736640 0.211888
Si Si3 0.133231 0.317474 0.264717
Si Si4 0.966682 0.049064 0.123310
Si Si5 0.826004 0.143223 0.311300
Si Si6 0.035259 0.251348 0.448090
Si Si7 0.954600 0.500755 0.137218
O O1 0.688837 0.810751 0.059666
O O2 0.801756 0.753725 0.312693
O O3 0.698172 0.010757 0.156607
O O4 0.489873 0.784464 0.920796
O O5 0.273417 0.751324 0.259417
O O6 0.219346 0.882271 0.087420
O O7 0.201086 0.598003 0.069029
O O8 0.079799 0.159488 0.218591
O O9 0.127011 0.419140 0.320665
O O10 0.004257 0.395496 0.058857
O O11 0.972709 0.910247 0.087121
O O12 0.049960 0.020078 0.291749
O O13 0.867829 0.211872 0.290755
O O14 0.056653 0.152398 0.410823
#
# Coordination Sequence:
#
# PCOD8123775 Si02
#       7
#     4   4   4   4   4   4   4
#     4  11  18  34  57  80 111 131 177 231 275 315
#     4  10  22  34  55  83 106 136 173 233 275 307
#     4   9  18  34  55  79 105 140 180 219 259 312
#     4  10  22  35  52  80 108 144 183 212 264 325
#     4   9  17  32  55  81 100 133 184 215 259 319
#     4  11  18  32  60  80 103 142 180 223 263 314
#     4  10  18  37  57  74 102 145 191 209 245 331
#
# _framework density 18.128737999999998
#
# number of rings (size 3 to 8) (size 9 to 14) (size 15 to 20)
#    0.000    2.286    4.286    3.000    0.000    5.714 
#    0.000    1.429    0.000    0.000    0.000    0.000 
#    0.000    0.000    0.000    0.000    0.000    0.000 
#
# Total GULP energy -346917.067642 kJ/mol
# GULP energy per Si atom -12389.895273 kJ/mol
# Density = 1.808748 g / cm^3
# Si number density = 18.128738 Si / 1000 Ang^3
#
#
#
# Elastic Constant Matrix: (Units=GPa)
#
#
# Indices 1 2 3 4 5 6 
#
# 1 99.0769 22.6928 39.4228 0.0000 7.4824 0.0000
# 2 22.6928 100.7087 14.1668 0.0000 -7.2730 0.0000
# 3 39.4228 14.1668 40.1362 0.0000 10.8341 0.0000
# 4 0.0000 0.0000 0.0000 18.8013 0.0000 1.5573
# 5 7.4824 -7.2730 10.8341 0.0000 29.1162 0.0000
# 6 0.0000 0.0000 0.0000 1.5573 0.0000 25.7564
#
#
#
# Elastic Compliance Matrix: (Units=1/GPa)
#
#
# Indices 1 2 3 4 5 6 
#
# 1 0.016845 -0.001377 -0.016450 0.000000 0.001448 0.000000
# 2 -0.001377 0.011101 -0.003790 0.000000 0.004537 0.000000
# 3 -0.016450 -0.003790 0.046162 0.000000 -0.013896 0.000000
# 4 0.000000 0.000000 0.000000 0.053456 0.000000 -0.003232
# 5 0.001448 0.004537 -0.013896 0.000000 0.040277 0.000000
# 6 0.000000 0.000000 0.000000 -0.003232 0.000000 0.039021
#
#
# Mechanical properties :
#
#
# Convention : Reuss Voigt Hill
#
# Bulk Modulus (GPa) = 32.39169 43.60961 38.00065
# Shear Modulus (GPa) = 19.20220 25.64406 22.42313
#
# Velocity S-wave (km/s) = 3.25809 3.76513 3.52075
# Velocity P-wave (km/s) = 5.66214 6.55815 6.12655
#
# Compressibility (1/GPa) = 0.03087212
#
# Stress axis : x y z
#
# Youngs Moduli (GPa) = 59.36568 90.08384 21.66288
#
# Poissons Ratio (x) = 0.12404 0.35636
# Poissons Ratio (y) = 0.08175 0.08211
# Poissons Ratio (z) = 0.97658 0.34146
#
# Static dielectric constant tensor:
#      x y z
#    x 3.790050 0.000000 0.076270 
#    y 0.000000 3.316930 0.000000 
#    z 0.076270 0.000000 2.940230 
# 
# 
# High freq. dielectric constant tensor:
#      x y z
#    x 1.723970 0.000000 0.003390 
#    y 0.000000 1.703810 0.000000 
#    z 0.003390 0.000000 1.646400 
# 
# From -- ./inp_files/70450.got.cif
#   From: 2010.03.12/outbox.cif.g09.slc.cpg/sg14_36_cif.got.tgz:70450.got - 2010.03.31 13:35:05.
