data_PCOD8123530
_publ_section_title
;
Structure prediction by ZEFSAII (Michael W. Deem and Ramdas Pophale) SiO2 
 PCOD8123530
Probable space group: P 21/C
;
_chemical_formula_sum "Si O2"
_cell_formula_units_Z 32
_cell_length_a 8.146414
_cell_length_b 11.720903
_cell_length_c 18.205331
_cell_angle_alpha 90.000000
_cell_angle_beta 100.749468
_cell_angle_gamma 90.000000
_cell_volume 1707.802035
_symmetry_space_group_name_H-M "P 21/C"
_symmetry_group_IT_number 14
_symmetry_cell_setting 'monoclinic'
loop_
_space_group_symop_operation_xyz
x,y,z
-x,1/2+y,1/2-z
-x,-y,-z
x,1/2-y,1/2+z
loop_
_atom_site_type_symbol
_atom_site_label
_atom_site_fract_x
_atom_site_fract_y
_atom_site_fract_z
Si Si1 0.507418 0.661477 0.353259
Si Si2 0.303208 0.854820 0.276540
Si Si3 0.568252 0.214763 0.872407
Si Si4 0.902692 0.336555 0.439137
Si Si5 0.197873 0.422774 0.533685
Si Si6 0.049241 0.291855 0.298729
Si Si7 0.296633 0.042231 0.879288
Si Si8 0.325571 0.383120 0.786477
O O1 0.425407 0.786535 0.342042
O O2 0.639826 0.650121 0.430706
O O3 0.350299 0.578330 0.350733
O O4 0.612941 0.631746 0.290658
O O5 0.370043 0.837298 0.199877
O O6 0.111237 0.811736 0.266444
O O7 0.307239 0.984668 0.303515
O O8 0.732139 0.236492 0.937662
O O9 0.459434 0.120337 0.904516
O O10 0.463376 0.330423 0.853426
O O11 0.839232 0.468116 0.417352
O O12 0.033743 0.339130 0.518159
O O13 0.994108 0.277692 0.378295
O O14 0.212833 0.471755 0.451842
O O15 0.174517 0.400780 0.308179
O O16 0.146864 0.179137 0.280330
#
# Coordination Sequence:
#
# PCOD8123530 Si02
#       8
#     4   4   4   4   4   4   4   4
#     4  11  20  32  52  82 111 135 173 227 271 316
#     4  10  20  34  51  78 109 142 178 222 266 307
#     4   9  17  33  54  76 104 144 173 213 265 333
#     4   9  17  33  51  80 103 138 177 210 271 313
#     4  10  19  31  54  83 115 135 168 236 267 312
#     4   9  20  34  52  75 105 148 176 213 262 327
#     4  10  18  32  54  81 108 139 177 212 280 319
#     4  10  20  35  53  74 112 143 175 216 266 324
#
# _framework density 18.737535000000001
#
# number of rings (size 3 to 8) (size 9 to 14) (size 15 to 20)
#    0.000    2.250    2.500    1.125    1.750    0.000 
#    0.000    0.000    0.000    7.500    0.000    0.000 
#    0.000    0.000    0.000    0.000    0.000    0.000 
#
# Total GULP energy -396542.888822 kJ/mol
# GULP energy per Si atom -12391.965276 kJ/mol
# Density = 1.869489 g / cm^3
# Si number density = 18.737535 Si / 1000 Ang^3
#
#
#
# Elastic Constant Matrix: (Units=GPa)
#
#
# Indices 1 2 3 4 5 6 
#
# 1 110.5328 48.4113 27.7036 0.0000 24.6543 0.0000
# 2 48.4113 120.9771 33.3125 0.0000 14.5276 0.0000
# 3 27.7036 33.3125 44.2052 0.0000 14.1611 0.0000
# 4 0.0000 0.0000 0.0000 19.9148 0.0000 -2.4154
# 5 24.6543 14.5276 14.1611 0.0000 39.6957 0.0000
# 6 0.0000 0.0000 0.0000 -2.4154 0.0000 28.1484
#
#
#
# Elastic Compliance Matrix: (Units=1/GPa)
#
#
# Indices 1 2 3 4 5 6 
#
# 1 0.012640 -0.003417 -0.003649 0.000000 -0.005298 0.000000
# 2 -0.003417 0.011400 -0.006540 0.000000 0.000283 0.000000
# 3 -0.003649 -0.006540 0.032002 0.000000 -0.006756 0.000000
# 4 0.000000 0.000000 0.000000 0.050742 0.000000 0.004354
# 5 -0.005298 0.000283 -0.006756 0.000000 0.030789 0.000000
# 6 0.000000 0.000000 0.000000 0.004354 0.000000 0.035900
#
#
# Mechanical properties :
#
#
# Convention : Reuss Voigt Hill
#
# Bulk Modulus (GPa) = 34.68749 54.95220 44.81984
# Shear Modulus (GPa) = 23.77600 28.63764 26.20682
#
# Velocity S-wave (km/s) = 3.56602 3.91366 3.74388
# Velocity P-wave (km/s) = 5.95885 7.05786 6.53151
#
# Compressibility (1/GPa) = 0.02882884
#
# Stress axis : x y z
#
# Youngs Moduli (GPa) = 79.11336 87.71621 31.24806
#
# Poissons Ratio (x) = 0.29973 0.11403
# Poissons Ratio (y) = 0.27034 0.20438
# Poissons Ratio (z) = 0.28871 0.57370
#
# Static dielectric constant tensor:
#      x y z
#    x 3.912880 0.000000 0.263430 
#    y 0.000000 3.242370 0.000000 
#    z 0.263430 0.000000 3.206530 
# 
# 
# High freq. dielectric constant tensor:
#      x y z
#    x 1.758280 0.000000 0.017050 
#    y 0.000000 1.694040 0.000000 
#    z 0.017050 0.000000 1.692760 
# 
# From -- ./inp_files/65266.got.cif
#   From: 2010.03.12/outbox.cif.g09.slc.cpg/sg14_33_cif.got.tgz:65266.got - 2010.03.31 13:35:05.
