data_PCOD8123075
_publ_section_title
;
Structure prediction by ZEFSAII (Michael W. Deem and Ramdas Pophale) SiO2 
 PCOD8123075
Probable space group: P 2/C
;
_chemical_formula_sum "Si O2"
_cell_formula_units_Z 28
_cell_length_a 30.405235
_cell_length_b 8.797464
_cell_length_c 29.963227
_cell_angle_alpha 90.000000
_cell_angle_beta 170.217930
_cell_angle_gamma 90.000000
_cell_volume 1361.729006
_symmetry_space_group_name_H-M "P 2/C"
_symmetry_group_IT_number 13
_symmetry_cell_setting 'monoclinic'
loop_
_space_group_symop_operation_xyz
x,y,z
-x,y,1/2-z
-x,-y,-z
x,-y,1/2+z
loop_
_atom_site_type_symbol
_atom_site_label
_atom_site_fract_x
_atom_site_fract_y
_atom_site_fract_z
Si Si1 0.499978 0.627879 0.153821
Si Si2 0.000024 0.813673 0.872610
Si Si3 0.999998 0.841475 0.524739
Si Si4 0.500000 0.483685 0.750000
Si Si5 0.500000 0.675829 0.989682
Si Si6 0.500030 0.290850 0.384553
Si Si7 0.000000 0.306617 0.750000
Si Si8 0.999973 0.857132 0.157016
O O1 0.500012 0.626536 0.207420
O O2 0.499947 0.457714 0.135687
O O3 0.751280 0.711681 0.387382
O O4 0.248664 0.711689 0.884777
O O5 0.000045 0.960235 0.840708
O O6 0.999999 0.874198 0.922861
O O7 0.249891 0.746453 0.761962
O O8 0.750106 0.746454 0.262177
O O9 0.000000 0.000000 0.500000
O O10 0.249935 0.588781 0.499933
O O11 0.500002 0.704894 0.937416
O O12 0.500000 0.500000 0.000000
O O13 0.750072 0.200570 0.618918
O O14 0.249996 0.200583 0.118834
O O15 0.999999 0.198652 0.792509
#
# Coordination Sequence:
#
# PCOD8123075 Si02
#       8
#     4   4   4   2   4   4   2   4
#     4  12  25  44  70  97 138 173 218 280 332 400
#     4  12  26  44  66 103 136 174 220 274 343 381
#     4  12  25  45  67  95 137 182 221 273 329 402
#     4  12  24  46  70 102 130 172 224 264 338 394
#     4  12  25  42  67  97 133 174 227 279 327 381
#     4  12  23  44  68  98 128 182 226 270 327 392
#     4  12  22  46  70 102 128 168 228 270 324 394
#     4  12  25  43  70  98 133 172 222 276 319 402
#
# _framework density 20.562093999999998
#
# number of rings (size 3 to 8) (size 9 to 14) (size 15 to 20)
#    0.000    0.000    2.857    8.571    0.000    1.143 
#    0.000    0.000    0.000    0.000    0.000    0.000 
#    0.000    0.000    0.000    0.000    0.000    0.000 
#
# Total GULP energy -347436.705299 kJ/mol
# GULP energy per Si atom -12408.453761 kJ/mol
# Density = 2.051529 g / cm^3
# Si number density = 20.562094 Si / 1000 Ang^3
#
#
#
# Elastic Constant Matrix: (Units=GPa)
#
#
# Indices 1 2 3 4 5 6 
#
# 1 126.3091 -3.8971 17.6162 0.0000 2.8273 0.0000
# 2 -3.8971 115.7375 48.4141 0.0000 6.9395 0.0000
# 3 17.6162 48.4141 180.2873 0.0000 4.3473 0.0000
# 4 0.0000 0.0000 0.0000 55.0785 0.0000 3.4742
# 5 2.8273 6.9395 4.3473 0.0000 65.2872 0.0000
# 6 0.0000 0.0000 0.0000 3.4742 0.0000 29.5511
#
#
#
# Elastic Compliance Matrix: (Units=1/GPa)
#
#
# Indices 1 2 3 4 5 6 
#
# 1 0.008082 0.000699 -0.000969 0.000000 -0.000360 0.000000
# 2 0.000699 0.009843 -0.002690 0.000000 -0.000897 0.000000
# 3 -0.000969 -0.002690 0.006366 0.000000 -0.000096 0.000000
# 4 0.000000 0.000000 0.000000 0.018292 0.000000 -0.002150
# 5 -0.000360 -0.000897 -0.000096 0.000000 0.015434 0.000000
# 6 0.000000 0.000000 0.000000 -0.002150 0.000000 0.034092
#
#
# Mechanical properties :
#
#
# Convention : Reuss Voigt Hill
#
# Bulk Modulus (GPa) = 54.43255 60.73337 57.58296
# Shear Modulus (GPa) = 48.00683 53.99674 51.00178
#
# Velocity S-wave (km/s) = 4.83714 5.13004 4.98574
# Velocity P-wave (km/s) = 7.59783 8.04304 7.82360
#
# Compressibility (1/GPa) = 0.01837136
#
# Stress axis : x y z
#
# Youngs Moduli (GPa) = 123.73470 101.59756 157.08476
#
# Poissons Ratio (x) = -0.07101 0.15217
# Poissons Ratio (y) = -0.08648 0.42253
# Poissons Ratio (z) = 0.11986 0.27328
#
# Static dielectric constant tensor:
#      x y z
#    x 4.011260 0.000000 0.003950 
#    y 0.000000 3.873290 0.000000 
#    z 0.003950 0.000000 4.040260 
# 
# 
# High freq. dielectric constant tensor:
#      x y z
#    x 1.826360 0.000000 0.000730 
#    y 0.000000 1.818870 0.000000 
#    z 0.000730 0.000000 1.831860 
# 
# From -- ./inp_files/97990.got.cif
#   From: 2010.06.25/outbox.cif.g09.slc.cpg/sg13_49_cif.got.tgz:97990.got - 2010.06.28 04:50:58.
