data_PCOD8123977
_publ_section_title
;
Structure prediction by ZEFSAII (Michael W. Deem and Ramdas Pophale) SiO2 
 PCOD8123977
Probable space group: P 21/C
;
_chemical_formula_sum "Si O2"
_cell_formula_units_Z 16
_cell_length_a 23.227539
_cell_length_b 7.587001
_cell_length_c 4.951328
_cell_angle_alpha 90.000000
_cell_angle_beta 115.129459
_cell_angle_gamma 90.000000
_cell_volume 789.972217
_symmetry_space_group_name_H-M "P 21/C"
_symmetry_group_IT_number 14
_symmetry_cell_setting 'monoclinic'
loop_
_space_group_symop_operation_xyz
x,y,z
-x,1/2+y,1/2-z
-x,-y,-z
x,1/2-y,1/2+z
loop_
_atom_site_type_symbol
_atom_site_label
_atom_site_fract_x
_atom_site_fract_y
_atom_site_fract_z
Si Si1 0.309247 0.136265 0.556337
Si Si2 0.942031 0.130255 0.838968
Si Si3 0.443684 0.131486 0.945512
Si Si4 0.827475 0.872538 0.610908
O O1 0.309769 0.185601 0.241489
O O2 0.374991 0.033451 0.759962
O O3 0.242892 0.037980 0.494522
O O4 0.945728 0.202662 0.543312
O O5 0.876846 0.027442 0.760558
O O6 0.000000 0.000000 0.000000
O O7 0.448600 0.301581 0.761280
O O8 0.500000 0.000000 0.000000
O O9 0.836925 0.790412 0.334349
#
# Coordination Sequence:
#
# PCOD8123977 Si02
#       4
#     4   4   4   4
#     4   8  16  30  51  73  99 134 172 206 252 312
#     4  12  24  39  57  81 109 139 172 212 256 306
#     4  10  19  33  51  75 103 137 175 214 256 306
#     4  10  19  36  58  79 102 136 175 214 256 306
#
# _framework density 20.253875000000001
#
# number of rings (size 3 to 8) (size 9 to 14) (size 15 to 20)
#    0.000    2.000    0.000    4.500    0.000    0.000 
#    0.000    2.500    0.000    0.000    0.000    0.000 
#    0.000    0.000    0.000    0.000    0.000    0.000 
#
# Total GULP energy -198311.279983 kJ/mol
# GULP energy per Si atom -12394.454999 kJ/mol
# Density = 2.020778 g / cm^3
# Si number density = 20.253875 Si / 1000 Ang^3
#
#
#
# Elastic Constant Matrix: (Units=GPa)
#
#
# Indices 1 2 3 4 5 6 
#
# 1 146.0096 43.0448 38.9692 0.0000 44.5314 0.0000
# 2 43.0448 48.0263 17.9186 0.0000 23.6307 0.0000
# 3 38.9692 17.9186 78.6993 0.0000 13.4106 0.0000
# 4 0.0000 0.0000 0.0000 31.3941 0.0000 3.6768
# 5 44.5314 23.6307 13.4106 0.0000 56.5934 0.0000
# 6 0.0000 0.0000 0.0000 3.6768 0.0000 38.2256
#
#
#
# Elastic Compliance Matrix: (Units=1/GPa)
#
#
# Indices 1 2 3 4 5 6 
#
# 1 0.011184 -0.006130 -0.003208 0.000000 -0.005480 0.000000
# 2 -0.006130 0.031023 -0.002754 0.000000 -0.007477 0.000000
# 3 -0.003208 -0.002754 0.014898 0.000000 0.000144 0.000000
# 4 0.000000 0.000000 0.000000 0.032216 0.000000 -0.003099
# 5 -0.005480 -0.007477 0.000144 0.000000 0.025070 0.000000
# 6 0.000000 0.000000 0.000000 -0.003099 0.000000 0.026459
#
#
# Mechanical properties :
#
#
# Convention : Reuss Voigt Hill
#
# Bulk Modulus (GPa) = 30.37686 52.51119 41.44402
# Shear Modulus (GPa) = 28.40798 36.76280 32.58539
#
# Velocity S-wave (km/s) = 3.74919 4.26502 4.01540
# Velocity P-wave (km/s) = 5.81141 7.08778 6.48109
#
# Compressibility (1/GPa) = 0.03291980
#
# Stress axis : x y z
#
# Youngs Moduli (GPa) = 89.41518 32.23420 67.12482
#
# Poissons Ratio (x) = 0.19761 0.21535
# Poissons Ratio (y) = 0.54814 0.18484
# Poissons Ratio (z) = 0.28686 0.08876
#
# Static dielectric constant tensor:
#      x y z
#    x 4.142440 0.000000 0.179690 
#    y 0.000000 3.001090 0.000000 
#    z 0.179690 0.000000 4.102520 
# 
# 
# High freq. dielectric constant tensor:
#      x y z
#    x 1.824830 0.000000 0.004460 
#    y 0.000000 1.717590 0.000000 
#    z 0.004460 0.000000 1.818870 
# 
# From -- ./inp_files/4019.got.cif
#   From: 2010.03.12/outbox.cif.g09.slc.cpg/sg14_3_cif.got.tgz:4019.got - 2010.03.31 13:35:05.
