data_PCOD8123813
_publ_section_title
;
Structure prediction by ZEFSAII (Michael W. Deem and Ramdas Pophale) SiO2 
 PCOD8123813
Probable space group: P 21/C
;
_chemical_formula_sum "Si O2"
_cell_formula_units_Z 32
_cell_length_a 12.315362
_cell_length_b 10.967979
_cell_length_c 12.882968
_cell_angle_alpha 90.000000
_cell_angle_beta 112.188303
_cell_angle_gamma 90.000000
_cell_volume 1611.299153
_symmetry_space_group_name_H-M "P 21/C"
_symmetry_group_IT_number 14
_symmetry_cell_setting 'monoclinic'
loop_
_space_group_symop_operation_xyz
x,y,z
-x,1/2+y,1/2-z
-x,-y,-z
x,1/2-y,1/2+z
loop_
_atom_site_type_symbol
_atom_site_label
_atom_site_fract_x
_atom_site_fract_y
_atom_site_fract_z
Si Si1 0.079399 0.893887 0.152695
Si Si2 0.747463 0.713976 0.997893
Si Si3 0.307641 0.750768 0.723151
Si Si4 0.475629 0.914962 0.149545
Si Si5 0.089645 0.347994 0.587012
Si Si6 0.487702 0.174106 0.060960
Si Si7 0.280224 0.024594 0.674328
Si Si8 0.874241 0.831481 0.227654
O O1 0.186330 0.805516 0.221095
O O2 0.977627 0.893532 0.201165
O O3 0.124408 0.031433 0.162390
O O4 0.029439 0.857210 0.022019
O O5 0.799124 0.821275 0.945197
O O6 0.607815 0.723244 0.951241
O O7 0.774623 0.584368 0.950872
O O8 0.802433 0.732722 0.132002
O O9 0.369746 0.653178 0.670067
O O10 0.387670 0.781628 0.850960
O O11 0.279045 0.879278 0.656440
O O12 0.588511 0.923139 0.264438
O O13 0.441536 0.050336 0.099157
O O14 0.504082 0.835873 0.059078
O O15 0.064593 0.240479 0.657801
O O16 0.208649 0.063162 0.752938
#
# Coordination Sequence:
#
# PCOD8123813 Si02
#       8
#     4   4   4   4   4   4   4   4
#     4  10  22  40  61  86 115 157 200 247 299 349
#     4  10  18  38  60  85 116 154 201 236 295 353
#     4  11  23  38  58  92 126 150 192 256 303 346
#     4  10  20  37  58  88 118 161 194 240 291 351
#     4   9  21  40  61  84 111 158 202 248 286 361
#     4  10  20  35  62  86 116 160 200 234 293 358
#     4  10  21  38  60  87 122 156 192 250 298 349
#     4  10  21  38  63  84 114 157 201 241 293 357
#
# _framework density 19.859750999999999
#
# number of rings (size 3 to 8) (size 9 to 14) (size 15 to 20)
#    0.000    2.000    2.500    0.750    1.750    1.000 
#    4.500    2.500    0.000    0.000    0.000    0.000 
#    0.000    0.000    0.000    0.000    0.000    0.000 
#
# Total GULP energy -396693.776520 kJ/mol
# GULP energy per Si atom -12396.680516 kJ/mol
# Density = 1.981455 g / cm^3
# Si number density = 19.859751 Si / 1000 Ang^3
#
#
#
# Elastic Constant Matrix: (Units=GPa)
#
#
# Indices 1 2 3 4 5 6 
#
# 1 91.4452 30.4254 9.2688 0.0000 3.7211 0.0000
# 2 30.4254 62.4923 9.9022 0.0000 4.0709 0.0000
# 3 9.2688 9.9022 40.5419 0.0000 -9.4373 0.0000
# 4 0.0000 0.0000 0.0000 22.7137 0.0000 2.9099
# 5 3.7211 4.0709 -9.4373 0.0000 22.4642 0.0000
# 6 0.0000 0.0000 0.0000 2.9099 0.0000 31.7187
#
#
#
# Elastic Compliance Matrix: (Units=1/GPa)
#
#
# Indices 1 2 3 4 5 6 
#
# 1 0.013210 -0.005986 -0.002012 0.000000 -0.001949 0.000000
# 2 -0.005986 0.019934 -0.004556 0.000000 -0.004535 0.000000
# 3 -0.002012 -0.004556 0.029381 0.000000 0.013502 0.000000
# 4 0.000000 0.000000 0.000000 0.044550 0.000000 -0.004087
# 5 -0.001949 -0.004535 0.013502 0.000000 0.051332 0.000000
# 6 0.000000 0.000000 0.000000 -0.004087 0.000000 0.031902
#
#
# Mechanical properties :
#
#
# Convention : Reuss Voigt Hill
#
# Bulk Modulus (GPa) = 26.72469 32.63023 29.67746
# Shear Modulus (GPa) = 21.94048 25.03820 23.48934
#
# Velocity S-wave (km/s) = 3.32742 3.55456 3.44286
# Velocity P-wave (km/s) = 5.31490 5.77170 5.54800
#
# Compressibility (1/GPa) = 0.03741858
#
# Stress axis : x y z
#
# Youngs Moduli (GPa) = 75.69830 50.16654 34.03504
#
# Poissons Ratio (x) = 0.30030 0.06847
# Poissons Ratio (y) = 0.45313 0.15505
# Poissons Ratio (z) = 0.15228 0.22855
#
# Static dielectric constant tensor:
#      x y z
#    x 3.509730 0.000000 -0.033140 
#    y 0.000000 3.551040 0.000000 
#    z -0.033140 0.000000 3.634170 
# 
# 
# High freq. dielectric constant tensor:
#      x y z
#    x 1.773030 0.000000 -0.000870 
#    y 0.000000 1.766790 0.000000 
#    z -0.000870 0.000000 1.771250 
# 
# From -- ./inp_files/29400.got.cif
#   From: 2010.03.12/outbox.cif.g09.slc.cpg/sg14_15_cif.got.tgz:29400.got - 2010.03.31 13:35:05.
