data_PCOD8123784
_publ_section_title
;
Structure prediction by ZEFSAII (Michael W. Deem and Ramdas Pophale) SiO2 
 PCOD8123784
Probable space group: P 21/C
;
_chemical_formula_sum "Si O2"
_cell_formula_units_Z 24
_cell_length_a 10.433996
_cell_length_b 8.811989
_cell_length_c 20.251210
_cell_angle_alpha 90.000000
_cell_angle_beta 35.602408
_cell_angle_gamma 90.000000
_cell_volume 1083.966398
_symmetry_space_group_name_H-M "P 21/C"
_symmetry_group_IT_number 14
_symmetry_cell_setting 'monoclinic'
loop_
_space_group_symop_operation_xyz
x,y,z
-x,1/2+y,1/2-z
-x,-y,-z
x,1/2-y,1/2+z
loop_
_atom_site_type_symbol
_atom_site_label
_atom_site_fract_x
_atom_site_fract_y
_atom_site_fract_z
Si Si1 0.999198 0.052872 0.342906
Si Si2 0.140019 0.148434 0.711973
Si Si3 0.771854 0.651429 0.595785
Si Si4 0.926042 0.032471 0.921059
Si Si5 0.583161 0.604405 0.250496
Si Si6 0.602300 0.219201 0.557776
O O1 0.788689 0.088584 0.477644
O O2 0.029554 0.194271 0.280328
O O3 0.214713 0.023245 0.296525
O O4 0.956306 0.902376 0.317947
O O5 0.402420 0.168402 0.594059
O O6 0.084485 0.018811 0.791186
O O7 0.866184 0.628453 0.481457
O O8 0.604893 0.515961 0.683968
O O9 0.662953 0.818181 0.648020
O O10 0.967225 0.642155 0.567615
O O11 0.701734 0.118037 0.992306
O O12 0.495574 0.751569 0.328095
#
# Coordination Sequence:
#
# PCOD8123784 Si02
#       6
#     4   4   4   4   4   4
#     4  10  20  37  55  83 116 147 188 233 284 334
#     4  10  19  36  59  83 114 151 184 235 281 339
#     4  10  18  37  60  82 114 152 191 231 283 335
#     4   9  18  34  63  83 110 154 188 227 289 339
#     4  10  20  36  58  84 113 153 190 235 280 335
#     4   9  16  34  60  82 107 150 186 224 290 328
#
# _framework density 22.140906999999999
#
# number of rings (size 3 to 8) (size 9 to 14) (size 15 to 20)
#    0.000    2.333    5.000    0.500    0.000    0.000 
#    3.000   23.333    0.000    0.000    0.000    0.000 
#    0.000    0.000    0.000    0.000    0.000    0.000 
#
# Total GULP energy -297406.242205 kJ/mol
# GULP energy per Si atom -12391.926759 kJ/mol
# Density = 2.209051 g / cm^3
# Si number density = 22.140907 Si / 1000 Ang^3
#
#
#
# Elastic Constant Matrix: (Units=GPa)
#
#
# Indices 1 2 3 4 5 6 
#
# 1 67.7757 31.3785 41.8653 0.0000 -7.2361 0.0000
# 2 31.3785 42.4562 12.4531 0.0000 -6.4942 0.0000
# 3 41.8653 12.4531 90.2277 0.0000 -28.0415 0.0000
# 4 0.0000 0.0000 0.0000 27.3070 0.0000 2.9747
# 5 -7.2361 -6.4942 -28.0415 0.0000 21.4997 0.0000
# 6 0.0000 0.0000 0.0000 2.9747 0.0000 36.3878
#
#
#
# Elastic Compliance Matrix: (Units=1/GPa)
#
#
# Indices 1 2 3 4 5 6 
#
# 1 0.035850 -0.023888 -0.019894 0.000000 -0.021097 0.000000
# 2 -0.023888 0.040794 0.011409 0.000000 0.019163 0.000000
# 3 -0.019894 0.011409 0.029815 0.000000 0.035637 0.000000
# 4 0.000000 0.000000 0.000000 0.036950 0.000000 -0.003021
# 5 -0.021097 0.019163 0.035637 0.000000 0.091681 0.000000
# 6 0.000000 0.000000 0.000000 -0.003021 0.000000 0.027729
#
#
# Mechanical properties :
#
#
# Convention : Reuss Voigt Hill
#
# Bulk Modulus (GPa) = 23.97334 41.31707 32.64520
# Shear Modulus (GPa) = 14.64265 24.68975 19.66620
#
# Velocity S-wave (km/s) = 2.57444 3.34296 2.98355
# Velocity P-wave (km/s) = 4.43713 5.79672 5.16189
#
# Compressibility (1/GPa) = 0.04171301
#
# Stress axis : x y z
#
# Youngs Moduli (GPa) = 27.89362 24.51362 33.54049
#
# Poissons Ratio (x) = 0.58559 0.66726
# Poissons Ratio (y) = 0.66633 -0.38268
# Poissons Ratio (z) = 0.55492 -0.27969
#
# Static dielectric constant tensor:
#      x y z
#    x 3.674340 0.000000 -0.091650 
#    y 0.000000 3.554310 0.000000 
#    z -0.091650 0.000000 4.424260 
# 
# 
# High freq. dielectric constant tensor:
#      x y z
#    x 1.843080 0.000000 -0.015420 
#    y 0.000000 1.834380 0.000000 
#    z -0.015420 0.000000 1.887920 
# 
# From -- ./inp_files/35670.got.cif
#   From: 2010.03.12/outbox.cif.g09.slc.cpg/sg14_18_cif.got.tgz:35670.got - 2010.03.31 13:35:05.
