data_PCOD8123580
_publ_section_title
;
Structure prediction by ZEFSAII (Michael W. Deem and Ramdas Pophale) SiO2 
 PCOD8123580
Probable space group: P 21/C
;
_chemical_formula_sum "Si O2"
_cell_formula_units_Z 32
_cell_length_a 18.546958
_cell_length_b 15.002087
_cell_length_c 17.208832
_cell_angle_alpha 90.000000
_cell_angle_beta 21.895337
_cell_angle_gamma 90.000000
_cell_volume 1785.592840
_symmetry_space_group_name_H-M "P 21/C"
_symmetry_group_IT_number 14
_symmetry_cell_setting 'monoclinic'
loop_
_space_group_symop_operation_xyz
x,y,z
-x,1/2+y,1/2-z
-x,-y,-z
x,1/2-y,1/2+z
loop_
_atom_site_type_symbol
_atom_site_label
_atom_site_fract_x
_atom_site_fract_y
_atom_site_fract_z
Si Si1 0.565616 0.338873 0.891979
Si Si2 0.878948 0.274048 0.280315
Si Si3 0.153481 0.099299 0.770413
Si Si4 0.434380 0.661123 0.523207
Si Si5 0.890101 0.099059 0.176633
Si Si6 0.846520 0.599297 0.077376
Si Si7 0.121039 0.725951 0.538221
Si Si8 0.109874 0.599059 0.956859
O O1 0.384328 0.394575 0.043115
O O2 0.491006 0.249997 0.008997
O O3 0.690304 0.395940 0.828339
O O4 0.695443 0.316407 0.687750
O O5 0.695427 0.316405 0.421389
O O6 0.904055 0.171097 0.230938
O O7 0.841196 0.278568 0.408806
O O8 0.070851 0.329909 0.066946
O O9 0.095119 0.999498 0.801547
O O10 0.068157 0.119075 0.941025
O O11 0.070864 0.170089 0.791333
O O12 0.309668 0.604060 0.708965
O O13 0.615670 0.605417 0.311768
O O14 0.931816 0.619071 0.077370
O O15 0.904899 0.499498 0.991767
O O16 0.095924 0.828902 0.539067
#
# Coordination Sequence:
#
# PCOD8123580 Si02
#       8
#     4   4   4   4   4   4   4   4
#     4   9  17  32  53  74  98 128 165 208 250 293
#     4  10  21  34  47  72 108 136 162 200 247 300
#     4  10  18  33  57  77  95 129 172 209 248 292
#     4   9  17  32  53  74  98 128 165 208 250 293
#     4   9  19  33  53  78 100 126 166 213 250 287
#     4  10  18  33  57  77  95 129 172 209 248 292
#     4  10  21  34  47  72 108 136 162 200 247 300
#     4   9  19  33  53  78 100 126 166 213 250 287
#
# _framework density 17.921220000000002
#
# number of rings (size 3 to 8) (size 9 to 14) (size 15 to 20)
#    0.000    2.500    0.000    4.500    0.000    2.000 
#    0.000    0.000    0.000    0.000    0.000    0.000 
#    0.000    0.000    0.000    0.000    0.000    0.000 
#
# Total GULP energy -396848.974414 kJ/mol
# GULP energy per Si atom -12401.530450 kJ/mol
# Density = 1.788043 g / cm^3
# Si number density = 17.921220 Si / 1000 Ang^3
#
#
#
# Elastic Constant Matrix: (Units=GPa)
#
#
# Indices 1 2 3 4 5 6 
#
# 1 75.0076 39.3127 37.7036 0.0000 14.3116 0.0000
# 2 39.3127 86.7409 29.9511 0.0000 6.3747 0.0000
# 3 37.7036 29.9511 72.0121 0.0000 -12.2843 0.0000
# 4 0.0000 0.0000 0.0000 20.8347 0.0000 -2.0669
# 5 14.3116 6.3747 -12.2843 0.0000 26.2496 0.0000
# 6 0.0000 0.0000 0.0000 -2.0669 0.0000 17.8013
#
#
#
# Elastic Compliance Matrix: (Units=1/GPa)
#
#
# Indices 1 2 3 4 5 6 
#
# 1 0.028820 -0.005766 -0.016446 0.000000 -0.022009 0.000000
# 2 -0.005766 0.015683 -0.003932 0.000000 -0.002505 0.000000
# 3 -0.016446 -0.003932 0.028065 0.000000 0.023055 0.000000
# 4 0.000000 0.000000 0.000000 0.048556 0.000000 0.005638
# 5 -0.022009 -0.002505 0.023055 0.000000 0.061493 0.000000
# 6 0.000000 0.000000 0.000000 0.005638 0.000000 0.056830
#
#
# Mechanical properties :
#
#
# Convention : Reuss Voigt Hill
#
# Bulk Modulus (GPa) = 49.30355 49.74397 49.52376
# Shear Modulus (GPa) = 16.75073 21.42999 19.09036
#
# Velocity S-wave (km/s) = 3.06058 3.46177 3.26734
# Velocity P-wave (km/s) = 6.32934 6.61784 6.47519
#
# Compressibility (1/GPa) = 0.02028251
#
# Stress axis : x y z
#
# Youngs Moduli (GPa) = 34.69829 63.76191 35.63133
#
# Poissons Ratio (x) = 0.36763 0.58598
# Poissons Ratio (y) = 0.20006 0.14009
# Poissons Ratio (z) = 0.57064 0.25068
#
# Static dielectric constant tensor:
#      x y z
#    x 3.000580 0.000000 -0.109370 
#    y 0.000000 3.431410 0.000000 
#    z -0.109370 0.000000 3.161020 
# 
# 
# High freq. dielectric constant tensor:
#      x y z
#    x 1.666460 0.000000 -0.014220 
#    y 0.000000 1.707250 0.000000 
#    z -0.014220 0.000000 1.687320 
# 
# From -- ./inp_files/61446.got.cif
#   From: 2010.03.12/outbox.cif.g09.slc.cpg/sg14_31_cif.got.tgz:61446.got - 2010.03.31 13:35:05.
