data_PCOD8123408
_publ_section_title
;
Structure prediction by ZEFSAII (Michael W. Deem and Ramdas Pophale) SiO2 
 PCOD8123408
Probable space group: P 21/C
;
_chemical_formula_sum "Si O2"
_cell_formula_units_Z 24
_cell_length_a 10.172133
_cell_length_b 9.040180
_cell_length_c 18.230037
_cell_angle_alpha 90.000000
_cell_angle_beta 46.071597
_cell_angle_gamma 90.000000
_cell_volume 1207.352730
_symmetry_space_group_name_H-M "P 21/C"
_symmetry_group_IT_number 14
_symmetry_cell_setting 'monoclinic'
loop_
_space_group_symop_operation_xyz
x,y,z
-x,1/2+y,1/2-z
-x,-y,-z
x,1/2-y,1/2+z
loop_
_atom_site_type_symbol
_atom_site_label
_atom_site_fract_x
_atom_site_fract_y
_atom_site_fract_z
Si Si1 0.506628 0.833451 0.092039
Si Si2 0.857464 0.664254 0.006187
Si Si3 0.960022 0.518007 0.261632
Si Si4 0.683177 0.108253 0.974001
Si Si5 0.126725 0.745820 0.286529
Si Si6 0.035962 0.847549 0.583710
O O1 0.446891 0.797784 0.030669
O O2 0.332711 0.806930 0.212926
O O3 0.664211 0.724193 0.055474
O O4 0.570773 0.005541 0.074461
O O5 0.028651 0.751523 0.903100
O O6 0.855749 0.491189 0.987039
O O7 0.881564 0.692872 0.083734
O O8 0.123118 0.583741 0.249537
O O9 0.781999 0.512559 0.382215
O O10 0.997926 0.351460 0.218554
O O11 0.933838 0.621537 0.199994
O O12 0.820615 0.213667 0.964109
#
# Coordination Sequence:
#
# PCOD8123408 Si02
#       6
#     4   4   4   4   4   4
#     4  10  20  37  59  89 120 152 199 250 285 348
#     4  10  22  39  63  82 128 156 187 250 298 351
#     4  10  17  36  60  82 112 154 195 238 281 353
#     4  10  20  36  62  90 116 152 200 249 288 349
#     4  10  20  37  59  85 119 152 199 238 297 343
#     4  10  21  39  60  87 120 161 194 236 309 346
#
# _framework density 19.878198999999999
#
# number of rings (size 3 to 8) (size 9 to 14) (size 15 to 20)
#    0.000    2.000    5.000    0.000    0.000    1.333 
#    0.000    8.333    0.000    0.000    0.000    0.000 
#    0.000    0.000    0.000    0.000    0.000    0.000 
#
# Total GULP energy -297341.463151 kJ/mol
# GULP energy per Si atom -12389.227631 kJ/mol
# Density = 1.983296 g / cm^3
# Si number density = 19.878199 Si / 1000 Ang^3
#
#
#
# Elastic Constant Matrix: (Units=GPa)
#
#
# Indices 1 2 3 4 5 6 
#
# 1 120.7111 59.4475 53.8626 0.0000 -9.6671 0.0000
# 2 59.4475 73.1932 28.2628 0.0000 -10.6931 0.0000
# 3 53.8626 28.2628 90.2656 0.0000 -5.7642 0.0000
# 4 0.0000 0.0000 0.0000 20.2781 0.0000 -9.6582
# 5 -9.6671 -10.6931 -5.7642 0.0000 27.4754 0.0000
# 6 0.0000 0.0000 0.0000 -9.6582 0.0000 33.0461
#
#
#
# Elastic Compliance Matrix: (Units=1/GPa)
#
#
# Indices 1 2 3 4 5 6 
#
# 1 0.016560 -0.010929 -0.006446 0.000000 0.000221 0.000000
# 2 -0.010929 0.023492 -0.000502 0.000000 0.005192 0.000000
# 3 -0.006446 -0.000502 0.015127 0.000000 0.000710 0.000000
# 4 0.000000 0.000000 0.000000 0.057289 0.000000 0.016743
# 5 0.000221 0.005192 0.000710 0.000000 0.038644 0.000000
# 6 0.000000 0.000000 0.000000 0.016743 0.000000 0.035154
#
#
# Mechanical properties :
#
#
# Convention : Reuss Voigt Hill
#
# Bulk Modulus (GPa) = 51.48000 63.03509 57.25754
# Shear Modulus (GPa) = 21.88227 25.66639 23.77433
#
# Velocity S-wave (km/s) = 3.32146 3.59720 3.46208
# Velocity P-wave (km/s) = 6.37678 7.00233 6.69687
#
# Compressibility (1/GPa) = 0.01942502
#
# Stress axis : x y z
#
# Youngs Moduli (GPa) = 60.38477 42.56839 66.10574
#
# Poissons Ratio (x) = 0.46524 0.42610
# Poissons Ratio (y) = 0.65996 0.03320
# Poissons Ratio (z) = 0.38922 0.02138
#
# Static dielectric constant tensor:
#      x y z
#    x 3.528730 0.000000 0.129880 
#    y 0.000000 3.641080 0.000000 
#    z 0.129880 0.000000 3.602150 
# 
# 
# High freq. dielectric constant tensor:
#      x y z
#    x 1.757440 0.000000 0.004950 
#    y 0.000000 1.769060 0.000000 
#    z 0.004950 0.000000 1.762110 
# 
# From -- ./inp_files/46347.got.cif
#   From: 2010.03.12/outbox.cif.g09.slc.cpg/sg14_24_cif.got.tgz:46347.got - 2010.03.31 13:35:05.
