data_PCOD8123025
_publ_section_title
;
Structure prediction by ZEFSAII (Michael W. Deem and Ramdas Pophale) SiO2 
 PCOD8123025
Probable space group: P 2/C
;
_chemical_formula_sum "Si O2"
_cell_formula_units_Z 20
_cell_length_a 25.500594
_cell_length_b 5.230679
_cell_length_c 10.321478
_cell_angle_alpha 90.000000
_cell_angle_beta 146.517355
_cell_angle_gamma 90.000000
_cell_volume 759.523018
_symmetry_space_group_name_H-M "P 2/C"
_symmetry_group_IT_number 13
_symmetry_cell_setting 'monoclinic'
loop_
_space_group_symop_operation_xyz
x,y,z
-x,y,1/2-z
-x,-y,-z
x,-y,1/2+z
loop_
_atom_site_type_symbol
_atom_site_label
_atom_site_fract_x
_atom_site_fract_y
_atom_site_fract_z
Si Si1 0.500000 0.576534 0.250000
Si Si2 0.334561 0.075727 0.299692
Si Si3 0.867904 0.947412 0.179125
Si Si4 0.647116 0.714598 0.934189
Si Si5 0.839073 0.539217 0.774169
Si Si6 0.000000 0.215683 0.750000
O O1 0.589640 0.727254 0.489797
O O2 0.457152 0.414408 0.282412
O O3 0.347712 0.067883 0.168284
O O4 0.348133 0.816305 0.407582
O O5 0.223521 0.147250 0.095127
O O6 0.881768 0.731626 0.316277
O O7 0.966715 0.960913 0.301731
O O8 0.844056 0.230116 0.181360
O O9 0.729570 0.502010 0.088441
O O10 0.907879 0.610983 0.034112
#
# Coordination Sequence:
#
# PCOD8123025 Si02
#       6
#     2   4   4   4   4   2
#     4  12  26  46  82 124 150 216 270 346 398 488
#     4  11  28  50  79 114 164 213 268 336 404 486
#     4  11  28  49  77 114 161 208 267 329 406 481
#     4  11  28  51  81 113 166 211 274 332 412 484
#     4  11  28  50  77 115 160 211 263 334 402 483
#     4  12  26  48  84 116 158 208 272 336 400 488
#
# _framework density 26.332314
#
# number of rings (size 3 to 8) (size 9 to 14) (size 15 to 20)
#    0.000    0.800    0.000    3.600   19.600    4.800 
#    0.000    0.000    0.000    0.000    0.000    0.000 
#    0.000    0.000    0.000    0.000    0.000    0.000 
#
# Total GULP energy -247771.637836 kJ/mol
# GULP energy per Si atom -12388.581892 kJ/mol
# Density = 2.627238 g / cm^3
# Si number density = 26.332314 Si / 1000 Ang^3
#
#
#
# Elastic Constant Matrix: (Units=GPa)
#
#
# Indices 1 2 3 4 5 6 
#
# 1 168.3458 65.8985 45.4356 0.0000 36.1604 0.0000
# 2 65.8985 116.5521 20.7525 0.0000 8.0647 0.0000
# 3 45.4356 20.7525 89.6837 0.0000 4.1562 0.0000
# 4 0.0000 0.0000 0.0000 16.3020 0.0000 7.7473
# 5 36.1604 8.0647 4.1562 0.0000 47.6853 0.0000
# 6 0.0000 0.0000 0.0000 7.7473 0.0000 29.2679
#
#
#
# Elastic Compliance Matrix: (Units=1/GPa)
#
#
# Indices 1 2 3 4 5 6 
#
# 1 0.010198 -0.004634 -0.003788 0.000000 -0.006620 0.000000
# 2 -0.004634 0.011140 -0.000307 0.000000 0.001656 0.000000
# 3 -0.003788 -0.000307 0.013057 0.000000 0.001786 0.000000
# 4 0.000000 0.000000 0.000000 0.070169 0.000000 -0.018574
# 5 -0.006620 0.001656 0.001786 0.000000 0.025555 0.000000
# 6 0.000000 0.000000 0.000000 -0.018574 0.000000 0.039084
#
#
# Mechanical properties :
#
#
# Convention : Reuss Voigt Hill
#
# Bulk Modulus (GPa) = 59.03564 70.97276 65.00420
# Shear Modulus (GPa) = 26.00033 34.81738 30.40886
#
# Velocity S-wave (km/s) = 3.14569 3.64019 3.40194
# Velocity P-wave (km/s) = 5.97176 6.68425 6.33803
#
# Compressibility (1/GPa) = 0.01693892
#
# Stress axis : x y z
#
# Youngs Moduli (GPa) = 98.05789 89.76893 76.58466
#
# Poissons Ratio (x) = 0.41595 0.29007
# Poissons Ratio (y) = 0.45436 0.02351
# Poissons Ratio (z) = 0.37140 0.02756
#
# Static dielectric constant tensor:
#      x y z
#    x 5.012490 0.000000 0.281540 
#    y 0.000000 4.523470 0.000000 
#    z 0.281540 0.000000 5.145230 
# 
# 
# High freq. dielectric constant tensor:
#      x y z
#    x 2.063550 0.000000 0.020650 
#    y 0.000000 2.041730 0.000000 
#    z 0.020650 0.000000 2.075920 
# 
# From -- ./inp_files/42438.got.cif
#   From: 2010.06.25/outbox.cif.g09.slc.cpg/sg13_22_cif.got.tgz:42438.got - 2010.06.28 04:50:58.
