data_PCOD8123839
_publ_section_title
;
Structure prediction by ZEFSAII (Michael W. Deem and Ramdas Pophale) SiO2 
 PCOD8123839
Probable space group: P 21/C
;
_chemical_formula_sum "Si O2"
_cell_formula_units_Z 28
_cell_length_a 14.917655
_cell_length_b 9.034715
_cell_length_c 23.625008
_cell_angle_alpha 90.000000
_cell_angle_beta 153.441603
_cell_angle_gamma 90.000000
_cell_volume 1423.642971
_symmetry_space_group_name_H-M "P 21/C"
_symmetry_group_IT_number 14
_symmetry_cell_setting 'monoclinic'
loop_
_space_group_symop_operation_xyz
x,y,z
-x,1/2+y,1/2-z
-x,-y,-z
x,1/2-y,1/2+z
loop_
_atom_site_type_symbol
_atom_site_label
_atom_site_fract_x
_atom_site_fract_y
_atom_site_fract_z
Si Si1 0.301618 0.087258 0.271346
Si Si2 0.005350 0.288111 0.041523
Si Si3 0.695471 0.215278 0.671018
Si Si4 0.063224 0.597290 0.113139
Si Si5 0.268178 0.295843 0.874985
Si Si6 0.086531 0.602703 0.808310
Si Si7 0.266158 0.585082 0.027598
O O1 0.129730 0.148478 0.133308
O O2 0.333378 0.187401 0.345940
O O3 0.496324 0.072271 0.341591
O O4 0.237930 0.924964 0.254428
O O5 0.132032 0.440255 0.124614
O O6 0.961441 0.278042 0.949666
O O7 0.796093 0.297013 0.958644
O O8 0.762059 0.358624 0.744216
O O9 0.459661 0.208319 0.524285
O O10 0.819554 0.215852 0.683496
O O11 0.848037 0.571962 0.023540
O O12 0.126528 0.433519 0.812842
O O13 0.149443 0.142067 0.817887
O O14 0.189370 0.646246 0.924808
#
# Coordination Sequence:
#
# PCOD8123839 Si02
#       7
#     4   4   4   4   4   4   4
#     4  11  20  37  63  87 118 156 200 244 297 353
#     4   9  21  42  61  83 117 163 199 243 294 353
#     4  11  22  36  59  90 124 152 197 248 296 360
#     4   9  21  43  60  81 124 159 194 247 299 345
#     4  11  21  38  56  94 121 158 194 246 297 363
#     4  11  20  36  60  86 123 156 192 237 310 340
#     4  10  18  39  60  82 117 155 194 245 294 340
#
# _framework density 19.667850999999999
#
# number of rings (size 3 to 8) (size 9 to 14) (size 15 to 20)
#    0.857    0.857    4.286    1.714    0.000    0.571 
#    5.143    2.143    0.000    0.000    0.000    0.000 
#    0.000    0.000    0.000    0.000    0.000    0.000 
#
# Total GULP energy -346976.088762 kJ/mol
# GULP energy per Si atom -12392.003170 kJ/mol
# Density = 1.962309 g / cm^3
# Si number density = 19.667851 Si / 1000 Ang^3
#
#
#
# Elastic Constant Matrix: (Units=GPa)
#
#
# Indices 1 2 3 4 5 6 
#
# 1 110.2576 19.0430 39.0826 0.0000 3.9897 0.0000
# 2 19.0430 29.4842 19.5360 0.0000 6.4184 0.0000
# 3 39.0826 19.5360 48.2550 0.0000 -0.2320 0.0000
# 4 0.0000 0.0000 0.0000 34.5150 0.0000 -1.1749
# 5 3.9897 6.4184 -0.2320 0.0000 32.2264 0.0000
# 6 0.0000 0.0000 0.0000 -1.1749 0.0000 24.7722
#
#
#
# Elastic Compliance Matrix: (Units=1/GPa)
#
#
# Indices 1 2 3 4 5 6 
#
# 1 0.012856 -0.001508 -0.009809 0.000000 -0.001362 0.000000
# 2 -0.001508 0.049537 -0.018881 0.000000 -0.009815 0.000000
# 3 -0.009809 -0.018881 0.036337 0.000000 0.005236 0.000000
# 4 0.000000 0.000000 0.000000 0.029020 0.000000 0.001376
# 5 -0.001362 -0.009815 0.005236 0.000000 0.033192 0.000000
# 6 0.000000 0.000000 0.000000 0.001376 0.000000 0.040433
#
#
# Mechanical properties :
#
#
# Convention : Reuss Voigt Hill
#
# Bulk Modulus (GPa) = 26.08576 38.14669 32.11623
# Shear Modulus (GPa) = 18.21175 25.65842 21.93508
#
# Velocity S-wave (km/s) = 3.04627 3.61582 3.34320
# Velocity P-wave (km/s) = 5.06606 6.07205 5.59172
#
# Compressibility (1/GPa) = 0.03833509
#
# Stress axis : x y z
#
# Youngs Moduli (GPa) = 77.78362 20.18673 27.52053
#
# Poissons Ratio (x) = 0.03044 0.26994
# Poissons Ratio (y) = 0.11729 0.51962
# Poissons Ratio (z) = 0.76294 0.38115
#
# Static dielectric constant tensor:
#      x y z
#    x 3.833090 0.000000 -0.021950 
#    y 0.000000 3.282830 0.000000 
#    z -0.021950 0.000000 3.287420 
# 
# 
# High freq. dielectric constant tensor:
#      x y z
#    x 1.781430 0.000000 -0.008520 
#    y 0.000000 1.737890 0.000000 
#    z -0.008520 0.000000 1.743850 
# 
# From -- ./inp_files/73655.got.cif
#   From: 2010.03.12/outbox.cif.g09.slc.cpg/sg14_37_cif.got.tgz:73655.got - 2010.03.31 13:35:05.
