data_PCOD8123086
_publ_section_title
;
Structure prediction by ZEFSAII (Michael W. Deem and Ramdas Pophale) SiO2 
 PCOD8123086
Probable space group: P 2/C
;
_chemical_formula_sum "Si O2"
_cell_formula_units_Z 20
_cell_length_a 13.050025
_cell_length_b 4.906512
_cell_length_c 19.860378
_cell_angle_alpha 90.000000
_cell_angle_beta 44.117248
_cell_angle_gamma 90.000000
_cell_volume 885.240779
_symmetry_space_group_name_H-M "P 2/C"
_symmetry_group_IT_number 13
_symmetry_cell_setting 'monoclinic'
loop_
_space_group_symop_operation_xyz
x,y,z
-x,y,1/2-z
-x,-y,-z
x,-y,1/2+z
loop_
_atom_site_type_symbol
_atom_site_label
_atom_site_fract_x
_atom_site_fract_y
_atom_site_fract_z
Si Si1 0.721905 0.581538 0.488410
Si Si2 0.559059 0.453784 0.294961
Si Si3 0.009927 0.747856 0.044708
Si Si4 0.327224 0.052824 0.074674
Si Si5 0.266537 0.036276 0.749764
O O1 0.569348 0.659091 0.596796
O O2 0.846159 0.666002 0.482261
O O3 0.720308 0.275445 0.459299
O O4 0.744487 0.770051 0.413480
O O5 0.500000 0.538713 0.250000
O O6 0.611379 0.728982 0.306339
O O7 0.683860 0.218488 0.226319
O O8 0.881200 0.808633 0.158762
O O9 0.000000 0.500000 0.000000
O O10 0.000000 0.000000 0.000000
O O11 0.255298 0.106553 0.181602
O O12 0.500000 0.000000 0.000000
#
# Coordination Sequence:
#
# PCOD8123086 Si02
#       5
#     4   4   4   4   4
#     4  12  24  43  72 101 138 188 231 295 364 426
#     4  12  23  40  68 102 132 180 240 285 350 428
#     4  12  27  49  68 100 147 190 237 297 360 434
#     4  12  23  44  71 105 141 175 238 300 355 427
#     4  12  25  43  69  99 140 182 228 297 354 418
#
# _framework density 22.592725000000002
#
# number of rings (size 3 to 8) (size 9 to 14) (size 15 to 20)
#    0.000    0.000    4.000    7.200    0.000    0.800 
#    0.000    2.000    0.000    0.000    0.000    0.000 
#    0.000    0.000    0.000    0.000    0.000    0.000 
#
# Total GULP energy -247801.104544 kJ/mol
# GULP energy per Si atom -12390.055227 kJ/mol
# Density = 2.254130 g / cm^3
# Si number density = 22.592725 Si / 1000 Ang^3
#
#
#
# Elastic Constant Matrix: (Units=GPa)
#
#
# Indices 1 2 3 4 5 6 
#
# 1 120.7733 61.1019 11.8533 0.0000 9.6337 0.0000
# 2 61.1019 139.9216 33.3418 0.0000 2.1618 0.0000
# 3 11.8533 33.3418 75.8359 0.0000 11.7798 0.0000
# 4 0.0000 0.0000 0.0000 39.5556 0.0000 8.8598
# 5 9.6337 2.1618 11.7798 0.0000 29.2198 0.0000
# 6 0.0000 0.0000 0.0000 8.8598 0.0000 50.5418
#
#
#
# Elastic Compliance Matrix: (Units=1/GPa)
#
#
# Indices 1 2 3 4 5 6 
#
# 1 0.010998 -0.004996 0.001049 0.000000 -0.003679 0.000000
# 2 -0.004996 0.010274 -0.004133 0.000000 0.002553 0.000000
# 3 0.001049 -0.004133 0.015837 0.000000 -0.006425 0.000000
# 4 0.000000 0.000000 0.000000 0.026314 0.000000 -0.004613
# 5 -0.003679 0.002553 -0.006425 0.000000 0.037838 0.000000
# 6 0.000000 0.000000 0.000000 -0.004613 0.000000 0.020594
#
#
# Mechanical properties :
#
#
# Convention : Reuss Voigt Hill
#
# Bulk Modulus (GPa) = 47.73246 61.01387 54.37317
# Shear Modulus (GPa) = 34.48338 39.21236 36.84787
#
# Velocity S-wave (km/s) = 3.91103 4.17060 4.04290
# Velocity P-wave (km/s) = 6.44734 7.08918 6.77586
#
# Compressibility (1/GPa) = 0.02095010
#
# Stress axis : x y z
#
# Youngs Moduli (GPa) = 90.92576 97.33525 63.14184
#
# Poissons Ratio (x) = 0.48627 -0.06623
# Poissons Ratio (y) = 0.45424 0.26094
# Poissons Ratio (z) = -0.09537 0.40225
#
# Static dielectric constant tensor:
#      x y z
#    x 4.485300 0.000000 0.178100 
#    y 0.000000 4.233310 0.000000 
#    z 0.178100 0.000000 4.222990 
# 
# 
# High freq. dielectric constant tensor:
#      x y z
#    x 1.898120 0.000000 0.016380 
#    y 0.000000 1.910390 0.000000 
#    z 0.016380 0.000000 1.890440 
# 
# From -- ./inp_files/65253.got.cif
#   From: 2010.06.25/outbox.cif.g09.slc.cpg/sg13_33_cif.got.tgz:65253.got - 2010.06.28 04:50:58.
