data_PCOD8123746
_publ_section_title
;
Structure prediction by ZEFSAII (Michael W. Deem and Ramdas Pophale) SiO2 
 PCOD8123746
Probable space group: P 21/C
;
_chemical_formula_sum "Si O2"
_cell_formula_units_Z 28
_cell_length_a 14.955404
_cell_length_b 10.208058
_cell_length_c 19.878408
_cell_angle_alpha 90.000000
_cell_angle_beta 150.706605
_cell_angle_gamma 90.000000
_cell_volume 1484.848156
_symmetry_space_group_name_H-M "P 21/C"
_symmetry_group_IT_number 14
_symmetry_cell_setting 'monoclinic'
loop_
_space_group_symop_operation_xyz
x,y,z
-x,1/2+y,1/2-z
-x,-y,-z
x,1/2-y,1/2+z
loop_
_atom_site_type_symbol
_atom_site_label
_atom_site_fract_x
_atom_site_fract_y
_atom_site_fract_z
Si Si1 0.272095 0.704082 0.105150
Si Si2 0.504030 0.709255 0.491583
Si Si3 0.781795 0.509521 0.720102
Si Si4 0.518081 0.832938 0.645111
Si Si5 0.151914 0.072494 0.493419
Si Si6 0.116212 0.197278 0.603593
Si Si7 0.479135 0.358484 0.129842
O O1 0.378977 0.740444 0.105963
O O2 0.370926 0.772083 0.232984
O O3 0.265592 0.545617 0.103596
O O4 0.058931 0.751015 0.968909
O O5 0.685442 0.618438 0.610219
O O6 0.329873 0.624284 0.356083
O O7 0.465068 0.780955 0.536589
O O8 0.535829 0.818462 0.457064
O O9 0.792207 0.568992 0.802113
O O10 0.993141 0.480176 0.838451
O O11 0.729223 0.806765 0.800235
O O12 0.511486 0.987453 0.649523
O O13 0.054792 0.157146 0.488218
O O14 0.286004 0.166381 0.539834
#
# Coordination Sequence:
#
# PCOD8123746 Si02
#       7
#     4   4   4   4   4   4   4
#     4  10  20  36  60  81 109 150 188 230 280 323
#     4  10  20  38  59  79 116 149 183 230 283 333
#     4   9  19  36  59  82 104 146 194 228 276 321
#     4  10  22  37  55  86 116 148 185 228 280 336
#     4  10  19  35  58  88 109 141 194 235 268 328
#     4  10  18  36  61  83 113 141 188 239 270 325
#     4  11  21  36  58  82 117 151 182 224 288 335
#
# _framework density 18.857147000000001
#
# number of rings (size 3 to 8) (size 9 to 14) (size 15 to 20)
#    0.000    2.000    1.429    3.857    0.000    0.571 
#   10.286    0.000    0.000    0.000    0.000    0.000 
#    0.000    0.000    0.000    0.000    0.000    0.000 
#
# Total GULP energy -346921.454740 kJ/mol
# GULP energy per Si atom -12390.051955 kJ/mol
# Density = 1.881423 g / cm^3
# Si number density = 18.857147 Si / 1000 Ang^3
#
#
#
# Elastic Constant Matrix: (Units=GPa)
#
#
# Indices 1 2 3 4 5 6 
#
# 1 130.5498 40.3152 61.9645 0.0000 9.4741 0.0000
# 2 40.3152 61.1669 41.3818 0.0000 4.2754 0.0000
# 3 61.9645 41.3818 117.5175 0.0000 12.3052 0.0000
# 4 0.0000 0.0000 0.0000 28.4855 0.0000 2.4945
# 5 9.4741 4.2754 12.3052 0.0000 32.1738 0.0000
# 6 0.0000 0.0000 0.0000 2.4945 0.0000 18.5698
#
#
#
# Elastic Compliance Matrix: (Units=1/GPa)
#
#
# Indices 1 2 3 4 5 6 
#
# 1 0.011081 -0.004400 -0.004181 0.000000 -0.001079 0.000000
# 2 -0.004400 0.023209 -0.005902 0.000000 0.000469 0.000000
# 3 -0.004181 -0.005902 0.013106 0.000000 -0.002997 0.000000
# 4 0.000000 0.000000 0.000000 0.035523 0.000000 -0.004772
# 5 -0.001079 0.000469 -0.002997 0.000000 0.032483 0.000000
# 6 0.000000 0.000000 0.000000 -0.004772 0.000000 0.054492
#
#
# Mechanical properties :
#
#
# Convention : Reuss Voigt Hill
#
# Bulk Modulus (GPa) = 54.25518 66.28411 60.26965
# Shear Modulus (GPa) = 24.39004 26.88401 25.63702
#
# Velocity S-wave (km/s) = 3.60030 3.77990 3.69119
# Velocity P-wave (km/s) = 6.79095 7.36730 7.08499
#
# Compressibility (1/GPa) = 0.01843142
#
# Stress axis : x y z
#
# Youngs Moduli (GPa) = 90.24261 43.08744 76.30295
#
# Poissons Ratio (x) = 0.18958 0.31899
# Poissons Ratio (y) = 0.39706 0.45031
# Poissons Ratio (z) = 0.37726 0.25429
#
# Static dielectric constant tensor:
#      x y z
#    x 3.608830 0.000000 0.166710 
#    y 0.000000 3.305130 0.000000 
#    z 0.166710 0.000000 3.605230 
# 
# 
# High freq. dielectric constant tensor:
#      x y z
#    x 1.730360 0.000000 0.008450 
#    y 0.000000 1.718990 0.000000 
#    z 0.008450 0.000000 1.735470 
# 
# From -- ./inp_files/40012.got.cif
#   From: 2010.03.12/outbox.cif.g09.slc.cpg/sg14_21_cif.got.tgz:40012.got - 2010.03.31 13:35:05.
