data_PCOD8123676
_publ_section_title
;
Structure prediction by ZEFSAII (Michael W. Deem and Ramdas Pophale) SiO2 
 PCOD8123676
Probable space group: P 21/C
;
_chemical_formula_sum "Si O2"
_cell_formula_units_Z 28
_cell_length_a 8.612904
_cell_length_b 16.524465
_cell_length_c 15.980602
_cell_angle_alpha 90.000000
_cell_angle_beta 35.784021
_cell_angle_gamma 90.000000
_cell_volume 1329.923342
_symmetry_space_group_name_H-M "P 21/C"
_symmetry_group_IT_number 14
_symmetry_cell_setting 'monoclinic'
loop_
_space_group_symop_operation_xyz
x,y,z
-x,1/2+y,1/2-z
-x,-y,-z
x,1/2-y,1/2+z
loop_
_atom_site_type_symbol
_atom_site_label
_atom_site_fract_x
_atom_site_fract_y
_atom_site_fract_z
Si Si1 0.672155 0.559114 0.542764
Si Si2 0.106259 0.127770 0.459467
Si Si3 0.008562 0.195977 0.021444
Si Si4 0.470636 0.184678 0.165098
Si Si5 0.257582 0.589420 0.593844
Si Si6 0.419479 0.974791 0.325966
Si Si7 0.740818 0.848168 0.264135
O O1 0.885216 0.632136 0.456526
O O2 0.390372 0.588146 0.626939
O O3 0.809402 0.498408 0.416498
O O4 0.603200 0.517238 0.662164
O O5 0.083532 0.212746 0.519910
O O6 0.196436 0.152217 0.325683
O O7 0.825299 0.084249 0.585494
O O8 0.325655 0.063610 0.398045
O O9 0.693897 0.189247 0.140954
O O10 0.162861 0.173601 0.870423
O O11 0.535358 0.125167 0.062331
O O12 0.440451 0.271918 0.131895
O O13 0.987360 0.641135 0.719656
O O14 0.581591 0.932840 0.330280
#
# Coordination Sequence:
#
# PCOD8123676 Si02
#       7
#     4   4   4   4   4   4   4
#     4  10  21  38  57  84 111 147 185 233 270 334
#     4  10  19  32  55  85 109 139 174 235 280 319
#     4   9  19  33  56  82 108 137 189 232 269 320
#     4  10  18  35  56  83 108 142 183 228 277 329
#     4  10  21  37  58  79 114 150 185 221 282 332
#     4  10  19  34  58  81 110 141 184 228 280 322
#     4   9  19  33  56  81 106 143 186 230 266 327
#
# _framework density 21.053844999999999
#
# number of rings (size 3 to 8) (size 9 to 14) (size 15 to 20)
#    0.000    2.286    2.857    0.000    2.000    1.714 
#    2.571    0.000    0.000    5.143    0.000    0.000 
#    0.000    0.000    0.000    0.000    0.000    0.000 
#
# Total GULP energy -346965.615362 kJ/mol
# GULP energy per Si atom -12391.629120 kJ/mol
# Density = 2.100593 g / cm^3
# Si number density = 21.053845 Si / 1000 Ang^3
#
#
#
# Elastic Constant Matrix: (Units=GPa)
#
#
# Indices 1 2 3 4 5 6 
#
# 1 45.8457 25.3431 -0.8441 0.0000 -16.2060 0.0000
# 2 25.3431 105.6234 10.6186 0.0000 -16.1495 0.0000
# 3 -0.8441 10.6186 46.2745 0.0000 -11.6314 0.0000
# 4 0.0000 0.0000 0.0000 27.7541 0.0000 -10.4967
# 5 -16.2060 -16.1495 -11.6314 0.0000 23.0525 0.0000
# 6 0.0000 0.0000 0.0000 -10.4967 0.0000 23.1096
#
#
#
# Elastic Compliance Matrix: (Units=1/GPa)
#
#
# Indices 1 2 3 4 5 6 
#
# 1 0.033120 -0.005115 0.007707 0.000000 0.023589 0.000000
# 2 -0.005115 0.011410 -0.001840 0.000000 0.003470 0.000000
# 3 0.007707 -0.001840 0.026582 0.000000 0.017542 0.000000
# 4 0.000000 0.000000 0.000000 0.043504 0.000000 0.019760
# 5 0.023589 0.003470 0.017542 0.000000 0.071244 0.000000
# 6 0.000000 0.000000 0.000000 0.019760 0.000000 0.052247
#
#
# Mechanical properties :
#
#
# Convention : Reuss Voigt Hill
#
# Bulk Modulus (GPa) = 13.77068 29.77541 21.77304
# Shear Modulus (GPa) = 19.17115 25.62498 22.39807
#
# Velocity S-wave (km/s) = 3.02085 3.49250 3.26521
# Velocity P-wave (km/s) = 4.32692 5.51694 4.95777
#
# Compressibility (1/GPa) = 0.07261808
#
# Stress axis : x y z
#
# Youngs Moduli (GPa) = 30.19305 87.64028 37.61926
#
# Poissons Ratio (x) = 0.44827 -0.28994
# Poissons Ratio (y) = 0.15443 0.06920
# Poissons Ratio (z) = -0.23270 0.16122
#
# Static dielectric constant tensor:
#      x y z
#    x 3.359350 0.000000 -0.331820 
#    y 0.000000 4.421750 0.000000 
#    z -0.331820 0.000000 3.765750 
# 
# 
# High freq. dielectric constant tensor:
#      x y z
#    x 1.767170 0.000000 -0.027280 
#    y 0.000000 1.848740 0.000000 
#    z -0.027280 0.000000 1.814720 
# 
# From -- ./inp_files/25828.got.cif
#   From: 2010.03.12/outbox.cif.g09.slc.cpg/sg14_13_cif.got.tgz:25828.got - 2010.03.31 13:35:05.
