data_PCOD8123841
_publ_section_title
;
Structure prediction by ZEFSAII (Michael W. Deem and Ramdas Pophale) SiO2 
 PCOD8123841
Probable space group: P 21/C
;
_chemical_formula_sum "Si O2"
_cell_formula_units_Z 32
_cell_length_a 9.322873
_cell_length_b 11.500411
_cell_length_c 15.101640
_cell_angle_alpha 90.000000
_cell_angle_beta 81.579412
_cell_angle_gamma 90.000000
_cell_volume 1601.695787
_symmetry_space_group_name_H-M "P 21/C"
_symmetry_group_IT_number 14
_symmetry_cell_setting 'monoclinic'
loop_
_space_group_symop_operation_xyz
x,y,z
-x,1/2+y,1/2-z
-x,-y,-z
x,1/2-y,1/2+z
loop_
_atom_site_type_symbol
_atom_site_label
_atom_site_fract_x
_atom_site_fract_y
_atom_site_fract_z
Si Si1 0.484886 0.246571 0.908801
Si Si2 0.219726 0.813705 0.174315
Si Si3 0.256532 0.090182 0.360976
Si Si4 0.002755 0.253330 0.951763
Si Si5 0.183973 0.823906 0.369729
Si Si6 0.239440 0.087530 0.974966
Si Si7 0.311371 0.426364 0.657150
Si Si8 0.612631 0.145275 0.073267
O O1 0.621166 0.245580 0.829246
O O2 0.399239 0.368083 0.902318
O O3 0.364998 0.146052 0.903092
O O4 0.554379 0.224911 0.998734
O O5 0.129285 0.753907 0.104448
O O6 0.129136 0.804885 0.273881
O O7 0.249140 0.946343 0.149982
O O8 0.266837 0.126535 0.255913
O O9 0.112273 0.147710 0.411326
O O10 0.246441 0.953003 0.376405
O O11 0.083098 0.127618 0.951447
O O12 0.944906 0.295183 0.051880
O O13 0.316053 0.734692 0.366399
O O14 0.265009 0.948335 0.969664
O O15 0.248845 0.138870 0.075277
O O16 0.485602 0.425213 0.633540
#
# Coordination Sequence:
#
# PCOD8123841 Si02
#       8
#     4   4   4   4   4   4   4   4
#     4  10  18  39  61  88 120 155 198 257 299 348
#     4  11  21  39  63  90 121 157 203 254 304 352
#     4  10  24  39  61  83 127 170 199 238 295 369
#     4  11  24  42  59  91 127 160 205 245 299 369
#     4  11  24  39  62  86 125 168 203 240 303 364
#     4  10  20  36  68  91 119 155 195 261 316 342
#     4  10  19  37  63  91 120 151 201 255 306 351
#     4  11  19  38  65  96 119 148 204 264 307 347
#
# _framework density 19.978826000000002
#
# number of rings (size 3 to 8) (size 9 to 14) (size 15 to 20)
#    0.000    1.500    3.750    1.875    1.750    2.500 
#    2.250    0.000    0.000    0.000    0.000    0.000 
#    0.000    0.000    0.000    0.000    0.000    0.000 
#
# Total GULP energy -396547.122297 kJ/mol
# GULP energy per Si atom -12392.097572 kJ/mol
# Density = 1.993335 g / cm^3
# Si number density = 19.978826 Si / 1000 Ang^3
#
#
#
# Elastic Constant Matrix: (Units=GPa)
#
#
# Indices 1 2 3 4 5 6 
#
# 1 95.5880 34.1009 62.0268 0.0000 -2.0025 0.0000
# 2 34.1009 73.9931 49.9980 0.0000 6.4260 0.0000
# 3 62.0268 49.9980 114.6117 0.0000 -25.7552 0.0000
# 4 0.0000 0.0000 0.0000 25.3610 0.0000 4.4926
# 5 -2.0025 6.4260 -25.7552 0.0000 26.8344 0.0000
# 6 0.0000 0.0000 0.0000 4.4926 0.0000 19.9501
#
#
#
# Elastic Compliance Matrix: (Units=1/GPa)
#
#
# Indices 1 2 3 4 5 6 
#
# 1 0.018177 0.001447 -0.013058 0.000000 -0.011523 0.000000
# 2 0.001447 0.026881 -0.017763 0.000000 -0.023377 0.000000
# 3 -0.013058 -0.017763 0.030954 0.000000 0.032988 0.000000
# 4 0.000000 0.000000 0.000000 0.041069 0.000000 -0.009248
# 5 -0.011523 -0.023377 0.032988 0.000000 0.073665 0.000000
# 6 0.000000 0.000000 0.000000 -0.009248 0.000000 0.052208
#
#
# Mechanical properties :
#
#
# Convention : Reuss Voigt Hill
#
# Bulk Modulus (GPa) = 57.92384 64.04935 60.98660
# Shear Modulus (GPa) = 16.26252 23.63359 19.94805
#
# Velocity S-wave (km/s) = 2.85614 3.44311 3.16327
# Velocity P-wave (km/s) = 6.31920 6.92350 6.62824
#
# Compressibility (1/GPa) = 0.01726405
#
# Stress axis : x y z
#
# Youngs Moduli (GPa) = 55.01397 37.20141 32.30647
#
# Poissons Ratio (x) = -0.05382 0.42185
# Poissons Ratio (y) = -0.07959 0.57385
# Poissons Ratio (z) = 0.71836 0.66080
#
# Static dielectric constant tensor:
#      x y z
#    x 3.667680 0.000000 -0.161260 
#    y 0.000000 3.479160 0.000000 
#    z -0.161260 0.000000 3.773500 
# 
# 
# High freq. dielectric constant tensor:
#      x y z
#    x 1.780450 0.000000 -0.011870 
#    y 0.000000 1.763080 0.000000 
#    z -0.011870 0.000000 1.783990 
# 
# From -- ./inp_files/40348.got.cif
#   From: 2010.03.12/outbox.cif.g09.slc.cpg/sg14_21_cif.got.tgz:40348.got - 2010.03.31 13:35:05.
