data_PCOD8123459
_publ_section_title
;
Structure prediction by ZEFSAII (Michael W. Deem and Ramdas Pophale) SiO2 
 PCOD8123459
Probable space group: P 21/C
;
_chemical_formula_sum "Si O2"
_cell_formula_units_Z 28
_cell_length_a 28.959658
_cell_length_b 11.969423
_cell_length_c 24.102023
_cell_angle_alpha 90.000000
_cell_angle_beta 168.483783
_cell_angle_gamma 90.000000
_cell_volume 1667.935288
_symmetry_space_group_name_H-M "P 21/C"
_symmetry_group_IT_number 14
_symmetry_cell_setting 'monoclinic'
loop_
_space_group_symop_operation_xyz
x,y,z
-x,1/2+y,1/2-z
-x,-y,-z
x,1/2-y,1/2+z
loop_
_atom_site_type_symbol
_atom_site_label
_atom_site_fract_x
_atom_site_fract_y
_atom_site_fract_z
Si Si1 0.840095 0.158546 0.652464
Si Si2 0.107518 0.156335 0.412406
Si Si3 0.899107 0.410771 0.098760
Si Si4 0.209759 0.680800 0.565901
Si Si5 0.405649 0.340474 0.717094
Si Si6 0.946236 0.469527 0.523207
Si Si7 0.368369 0.474373 0.943299
O O1 0.808764 0.102250 0.555457
O O2 0.589747 0.178918 0.384862
O O3 0.998025 0.079953 0.876198
O O4 0.973877 0.276534 0.803596
O O5 0.339145 0.221738 0.666476
O O6 0.173116 0.031931 0.510144
O O7 0.937037 0.140771 0.159647
O O8 0.778980 0.315890 0.919280
O O9 0.176377 0.396544 0.421736
O O10 0.087913 0.636841 0.477842
O O11 0.466138 0.632093 0.863791
O O12 0.504844 0.418421 0.882101
O O13 0.713613 0.493551 0.214873
O O14 0.153004 0.435563 0.726329
#
# Coordination Sequence:
#
# PCOD8123459 Si02
#       7
#     4   4   4   4   4   4   4
#     4   9  18  31  49  71  95 128 162 198 245 285
#     4  10  19  32  46  71 103 130 158 198 233 300
#     4  10  20  32  45  71 102 130 160 196 234 300
#     4  10  18  30  49  69 100 128 156 200 242 282
#     4   9  18  31  49  71  95 128 162 198 245 285
#     4  10  19  32  52  75  96 123 164 207 244 283
#     4  10  19  32  52  75  96 123 164 207 244 283
#
# _framework density 16.787223000000001
#
# number of rings (size 3 to 8) (size 9 to 14) (size 15 to 20)
#    0.000    2.571    2.857    1.286    0.000    5.714 
#    0.000    0.000    0.000    3.429    0.000    6.000 
#    0.000    0.000    0.000    0.000    0.000    0.000 
#
# Total GULP energy -347137.578698 kJ/mol
# GULP energy per Si atom -12397.770668 kJ/mol
# Density = 1.674901 g / cm^3
# Si number density = 16.787223 Si / 1000 Ang^3
#
#
#
# Elastic Constant Matrix: (Units=GPa)
#
#
# Indices 1 2 3 4 5 6 
#
# 1 60.6867 32.3781 35.1633 0.0000 22.6716 0.0000
# 2 32.3781 142.0420 36.6967 0.0000 15.0078 0.0000
# 3 35.1633 36.6967 78.2480 0.0000 14.3123 0.0000
# 4 0.0000 0.0000 0.0000 11.1493 0.0000 -11.5826
# 5 22.6716 15.0078 14.3123 0.0000 30.1493 0.0000
# 6 0.0000 0.0000 0.0000 -11.5826 0.0000 12.0168
#
#
#
# Elastic Compliance Matrix: (Units=1/GPa)
#
#
# Indices 1 2 3 4 5 6 
#
# 1 0.029140 -0.002619 -0.008867 0.000000 -0.016399 0.000000
# 2 -0.002619 0.008410 -0.002586 0.000000 -0.000989 0.000000
# 3 -0.008867 -0.002586 0.018093 0.000000 -0.000634 0.000000
# 4 0.000000 0.000000 0.000000-67.706804 0.000000-65.260225
# 5 -0.016399 -0.000989 -0.000634 0.000000 0.046294 0.000000
# 6 0.000000 0.000000 0.000000-65.260225 0.000000-62.818835
#
#
# Mechanical properties :
#
#
# Convention : Reuss Voigt Hill
#
# Bulk Modulus (GPa) = 36.36535 54.38365 45.37450
# Shear Modulus (GPa) = -0.03835 22.44564 11.20364
#
# Velocity S-wave (km/s) = -0.15130 3.66056 2.58619
# Velocity P-wave (km/s) = 4.65607 7.09454 6.00048
#
# Compressibility (1/GPa) = 0.02749870
#
# Stress axis : x y z
#
# Youngs Moduli (GPa) = 34.31753 118.90898 55.26860
#
# Poissons Ratio (x) = 0.31139 0.49007
# Poissons Ratio (y) = 0.08987 0.14294
# Poissons Ratio (z) = 0.30430 0.30753
#
# Static dielectric constant tensor:
#      x y z
#    x 3.221940 0.000000 0.163300 
#    y 0.000000 3.250140 0.000000 
#    z 0.163300 0.000000 3.121500 
# 
# 
# High freq. dielectric constant tensor:
#      x y z
#    x 1.645080 0.000000 0.020870 
#    y 0.000000 1.643020 0.000000 
#    z 0.020870 0.000000 1.632600 
# 
# From -- ./inp_files/61319.got.cif
#   From: 2010.03.12/outbox.cif.g09.slc.cpg/sg14_31_cif.got.tgz:61319.got - 2010.03.31 13:35:05.
