data_PCOD8123212
_publ_section_title
;
Structure prediction by ZEFSAII (Michael W. Deem and Ramdas Pophale) SiO2 
 PCOD8123212
Probable space group: P 2/C
;
_chemical_formula_sum "Si O2"
_cell_formula_units_Z 16
_cell_length_a 22.878457
_cell_length_b 5.682923
_cell_length_c 22.278065
_cell_angle_alpha 90.000000
_cell_angle_beta 167.599629
_cell_angle_gamma 90.000000
_cell_volume 622.002682
_symmetry_space_group_name_H-M "P 2/C"
_symmetry_group_IT_number 13
_symmetry_cell_setting 'monoclinic'
loop_
_space_group_symop_operation_xyz
x,y,z
-x,y,1/2-z
-x,-y,-z
x,-y,1/2+z
loop_
_atom_site_type_symbol
_atom_site_label
_atom_site_fract_x
_atom_site_fract_y
_atom_site_fract_z
Si Si1 0.244027 0.260459 0.397805
Si Si2 0.461000 0.405860 0.394166
Si Si3 0.000000 0.598665 0.250000
Si Si4 0.042237 0.906774 0.108631
Si Si5 0.500000 0.078058 0.250000
O O1 0.465924 0.390767 0.579321
O O2 0.413694 0.080597 0.608028
O O3 0.076728 0.441937 0.270174
O O4 0.018095 0.122669 0.131231
O O5 0.500000 0.500000 0.500000
O O6 0.650921 0.180573 0.575676
O O7 0.155376 0.313322 0.076044
O O8 0.251835 0.759443 0.523200
O O9 0.000000 0.000000 0.000000
#
# Coordination Sequence:
#
# PCOD8123212 Si02
#       5
#     4   4   2   4   2
#     4  12  30  52  86 116 168 214 272 340 410 478
#     4  12  28  51  80 121 163 209 266 328 408 488
#     4  12  30  56  80 120 162 216 282 336 404 482
#     4  12  28  51  80 121 163 209 266 328 408 488
#     4  12  30  56  80 120 162 216 282 336 404 482
#
# _framework density 25.723362000000002
#
# number of rings (size 3 to 8) (size 9 to 14) (size 15 to 20)
#    0.000    0.000    2.500    4.500    0.000   20.000 
#    0.000    0.000    0.000    0.000    0.000    0.000 
#    0.000    0.000    0.000    0.000    0.000    0.000 
#
# Total GULP energy -198550.232888 kJ/mol
# GULP energy per Si atom -12409.389555 kJ/mol
# Density = 2.566481 g / cm^3
# Si number density = 25.723362 Si / 1000 Ang^3
#
#
#
# Elastic Constant Matrix: (Units=GPa)
#
#
# Indices 1 2 3 4 5 6 
#
# 1 210.0888 106.1382 61.6879 0.0000 -4.8423 0.0000
# 2 106.1382 175.2568 65.1914 0.0000 -0.6753 0.0000
# 3 61.6879 65.1914 125.2522 0.0000 3.3771 0.0000
# 4 0.0000 0.0000 0.0000 53.4666 0.0000 -0.2032
# 5 -4.8423 -0.6753 3.3771 0.0000 45.2898 0.0000
# 6 0.0000 0.0000 0.0000 -0.2032 0.0000 36.8496
#
#
#
# Elastic Compliance Matrix: (Units=1/GPa)
#
#
# Indices 1 2 3 4 5 6 
#
# 1 0.007126 -0.003719 -0.001597 0.000000 0.000826 0.000000
# 2 -0.003719 0.009023 -0.002863 0.000000 -0.000050 0.000000
# 3 -0.001597 -0.002863 0.010287 0.000000 -0.000980 0.000000
# 4 0.000000 0.000000 0.000000 0.018704 0.000000 0.000103
# 5 0.000826 -0.000050 -0.000980 0.000000 0.022241 0.000000
# 6 0.000000 0.000000 0.000000 0.000103 0.000000 0.027138
#
#
# Mechanical properties :
#
#
# Convention : Reuss Voigt Hill
#
# Bulk Modulus (GPa) = 99.21698 108.51475 103.86586
# Shear Modulus (GPa) = 43.76905 45.62656 44.69781
#
# Velocity S-wave (km/s) = 4.12943 4.21615 4.17302
# Velocity P-wave (km/s) = 7.83523 8.12269 7.98025
#
# Compressibility (1/GPa) = 0.01007892
#
# Stress axis : x y z
#
# Youngs Moduli (GPa) = 140.32136 110.82739 97.21019
#
# Poissons Ratio (x) = 0.41215 0.15520
# Poissons Ratio (y) = 0.52184 0.27835
# Poissons Ratio (z) = 0.22403 0.31734
#
# Static dielectric constant tensor:
#      x y z
#    x 5.071020 0.000000 0.252540 
#    y 0.000000 4.663500 0.000000 
#    z 0.252540 0.000000 4.753430 
# 
# 
# High freq. dielectric constant tensor:
#      x y z
#    x 2.050800 0.000000 -0.003620 
#    y 0.000000 2.051970 0.000000 
#    z -0.003620 0.000000 2.034650 
# 
# From -- ./inp_files/82879.got.cif
#   From: 2010.06.25/outbox.cif.g09.slc.cpg/sg13_42_cif.got.tgz:82879.got - 2010.06.28 04:50:58.
