data_PCOD8123934
_publ_section_title
;
Structure prediction by ZEFSAII (Michael W. Deem and Ramdas Pophale) SiO2 
 PCOD8123934
Probable space group: P 21/C
;
_chemical_formula_sum "Si O2"
_cell_formula_units_Z 32
_cell_length_a 20.164029
_cell_length_b 8.797929
_cell_length_c 26.868057
_cell_angle_alpha 90.000000
_cell_angle_beta 160.289308
_cell_angle_gamma 90.000000
_cell_volume 1607.581321
_symmetry_space_group_name_H-M "P 21/C"
_symmetry_group_IT_number 14
_symmetry_cell_setting 'monoclinic'
loop_
_space_group_symop_operation_xyz
x,y,z
-x,1/2+y,1/2-z
-x,-y,-z
x,1/2-y,1/2+z
loop_
_atom_site_type_symbol
_atom_site_label
_atom_site_fract_x
_atom_site_fract_y
_atom_site_fract_z
Si Si1 0.552491 0.369816 0.473573
Si Si2 0.523330 0.549522 0.312432
Si Si3 0.769843 0.891663 0.321477
Si Si4 0.670409 0.879360 0.410534
Si Si5 0.577684 0.213579 0.098628
Si Si6 0.145015 0.500587 0.381595
Si Si7 0.769866 0.840822 0.588094
Si Si8 0.983407 0.149904 0.419226
O O1 0.386558 0.292217 0.320728
O O2 0.467969 0.537762 0.424153
O O3 0.577545 0.263134 0.539045
O O4 0.761197 0.390328 0.594413
O O5 0.353582 0.513210 0.232407
O O6 0.541272 0.728659 0.321731
O O7 0.466762 0.494746 0.217152
O O8 0.732021 0.480615 0.479988
O O9 0.891265 0.782865 0.445328
O O10 0.919912 0.979396 0.390872
O O11 0.715274 0.932812 0.498841
O O12 0.881934 0.856999 0.534359
O O13 0.793976 0.252674 0.272993
O O14 0.423775 0.326424 0.014983
O O15 0.145419 0.325049 0.365356
O O16 0.922843 0.561543 0.229257
#
# Coordination Sequence:
#
# PCOD8123934 Si02
#       8
#     4   4   4   4   4   4   4   4
#     4   8  14  27  46  67  93 122 161 206 244 280
#     4   9  19  34  51  74 105 133 166 211 254 296
#     4   8  15  28  47  72  96 121 164 217 249 277
#     4  10  19  32  52  76 103 136 168 206 253 304
#     4   9  16  27  45  71  96 122 161 206 242 285
#     4   9  18  33  51  74 101 131 164 208 254 300
#     4  10  20  33  51  75 105 134 166 208 254 300
#     4   9  15  26  47  70  93 125 164 202 246 288
#
# _framework density 19.905681000000001
#
# number of rings (size 3 to 8) (size 9 to 14) (size 15 to 20)
#    0.000    3.000    0.000    3.000    0.000    2.000 
#    0.000    6.250    0.000    9.750    0.000    1.750 
#    0.000    0.000    0.000    0.000    0.000    0.000 
#
# Total GULP energy -396510.340861 kJ/mol
# GULP energy per Si atom -12390.948152 kJ/mol
# Density = 1.986037 g / cm^3
# Si number density = 19.905681 Si / 1000 Ang^3
#
#
#
# Elastic Constant Matrix: (Units=GPa)
#
#
# Indices 1 2 3 4 5 6 
#
# 1 44.7542 -6.5210 0.0755 0.0000 -13.0134 0.0000
# 2 -6.5210 13.1504 10.2613 0.0000 0.3148 0.0000
# 3 0.0755 10.2613 110.5400 0.0000 -20.3235 0.0000
# 4 0.0000 0.0000 0.0000 22.8334 0.0000 0.4707
# 5 -13.0134 0.3148 -20.3235 0.0000 29.7827 0.0000
# 6 0.0000 0.0000 0.0000 0.4707 0.0000 23.1370
#
#
#
# Elastic Compliance Matrix: (Units=1/GPa)
#
#
# Indices 1 2 3 4 5 6 
#
# 1 0.027923 0.012621 0.001175 0.000000 0.012870 0.000000
# 2 0.012621 0.088956 -0.008490 0.000000 -0.001219 0.000000
# 3 0.001175 -0.008490 0.011371 0.000000 0.008363 0.000000
# 4 0.000000 0.000000 0.000000 0.043814 0.000000 -0.000891
# 5 0.012870 -0.001219 0.008363 0.000000 0.044920 0.000000
# 6 0.000000 0.000000 0.000000 -0.000891 0.000000 0.043239
#
#
# Mechanical properties :
#
#
# Convention : Reuss Voigt Hill
#
# Bulk Modulus (GPa) = 7.20130 19.56402 13.38266
# Shear Modulus (GPa) = 16.89765 26.12586 21.51176
#
# Velocity S-wave (km/s) = 2.91673 3.62675 3.29094
# Velocity P-wave (km/s) = 3.86893 5.23330 4.60196
#
# Compressibility (1/GPa) = 0.13886373
#
# Stress axis : x y z
#
# Youngs Moduli (GPa) = 35.81214 11.24150 87.93927
#
# Poissons Ratio (x) = -0.14188 -0.10337
# Poissons Ratio (y) = -0.45200 0.74665
# Poissons Ratio (z) = -0.04210 0.09545
#
# Static dielectric constant tensor:
#      x y z
#    x 3.772180 0.000000 -0.296360 
#    y 0.000000 2.928010 0.000000 
#    z -0.296360 0.000000 4.121060 
# 
# 
# High freq. dielectric constant tensor:
#      x y z
#    x 1.775410 0.000000 -0.010030 
#    y 0.000000 1.700510 0.000000 
#    z -0.010030 0.000000 1.804340 
# 
# From -- ./inp_files/78017.got.cif
#   From: 2010.03.12/outbox.cif.g09.slc.cpg/sg14_40_cif.got.tgz:78017.got - 2010.03.31 13:35:05.
