data_PCOD8123705
_publ_section_title
;
Structure prediction by ZEFSAII (Michael W. Deem and Ramdas Pophale) SiO2 
 PCOD8123705
Probable space group: P 21/C
;
_chemical_formula_sum "Si O2"
_cell_formula_units_Z 32
_cell_length_a 15.164186
_cell_length_b 24.038853
_cell_length_c 8.727957
_cell_angle_alpha 90.000000
_cell_angle_beta 30.396692
_cell_angle_gamma 90.000000
_cell_volume 1609.838082
_symmetry_space_group_name_H-M "P 21/C"
_symmetry_group_IT_number 14
_symmetry_cell_setting 'monoclinic'
loop_
_space_group_symop_operation_xyz
x,y,z
-x,1/2+y,1/2-z
-x,-y,-z
x,1/2-y,1/2+z
loop_
_atom_site_type_symbol
_atom_site_label
_atom_site_fract_x
_atom_site_fract_y
_atom_site_fract_z
Si Si1 0.686784 0.613102 0.649053
Si Si2 0.293840 0.619954 0.880734
Si Si3 0.006233 0.188819 0.672810
Si Si4 0.006175 0.189973 0.311589
Si Si5 0.795089 0.494087 0.482230
Si Si6 0.315118 0.112675 0.207896
Si Si7 0.295253 0.880738 0.734679
Si Si8 0.793740 0.494152 0.135219
O O1 0.830724 0.655226 0.502205
O O2 0.713756 0.550810 0.673699
O O3 0.719552 0.608476 0.419971
O O4 0.494591 0.635663 0.975835
O O5 0.493335 0.635994 0.541415
O O6 0.264357 0.555753 0.885934
O O7 0.254117 0.629430 0.118553
O O8 0.173326 0.659902 0.961828
O O9 0.019464 0.194600 0.472462
O O10 0.010433 0.249116 0.737932
O O11 0.169461 0.153845 0.496566
O O12 0.826591 0.158321 0.981716
O O13 0.731021 0.445212 0.687834
O O14 0.733405 0.482231 0.400302
O O15 0.001117 0.498338 0.178855
O O16 0.293514 0.049950 0.304020
#
# Coordination Sequence:
#
# PCOD8123705 Si02
#       8
#     4   4   4   4   4   4   4   4
#     4   9  20  38  60  85 119 156 192 234 288 348
#     4  11  22  37  59  91 122 151 191 240 287 342
#     4  11  23  43  63  83 113 154 197 241 291 345
#     4  11  23  43  63  83 113 154 197 241 291 345
#     4  10  18  35  61  86 118 160 193 230 289 348
#     4   9  20  38  60  85 119 156 192 234 288 348
#     4  11  22  37  59  91 122 151 191 240 287 342
#     4  10  18  35  61  86 118 160 193 230 289 348
#
# _framework density 19.877775
#
# number of rings (size 3 to 8) (size 9 to 14) (size 15 to 20)
#    0.000    1.750    2.500    2.250    0.000    1.500 
#    0.000    8.750    0.000    0.000    0.000    0.000 
#    0.000    0.000    0.000    0.000    0.000    0.000 
#
# Total GULP energy -396864.126587 kJ/mol
# GULP energy per Si atom -12402.003956 kJ/mol
# Density = 1.983253 g / cm^3
# Si number density = 19.877775 Si / 1000 Ang^3
#
#
#
# Elastic Constant Matrix: (Units=GPa)
#
#
# Indices 1 2 3 4 5 6 
#
# 1 37.4920 23.1765 40.6029 0.0000 3.0985 0.0000
# 2 23.1765 139.6927 50.6814 0.0000 -3.8473 0.0000
# 3 40.6029 50.6814 94.6952 0.0000 -20.6876 0.0000
# 4 0.0000 0.0000 0.0000 14.2149 0.0000 11.5166
# 5 3.0985 -3.8473 -20.6876 0.0000 13.6905 0.0000
# 6 0.0000 0.0000 0.0000 11.5166 0.0000 28.2494
#
#
#
# Elastic Compliance Matrix: (Units=1/GPa)
#
#
# Indices 1 2 3 4 5 6 
#
# 1 0.258669 0.019322 -0.198327 0.000000 -0.352803 0.000000
# 2 0.019322 0.010800 -0.021432 0.000000 -0.033724 0.000000
# 3 -0.198327 -0.021432 0.172507 0.000000 0.299537 0.000000
# 4 0.000000 0.000000 0.000000 0.105043 0.000000 -0.042824
# 5 -0.352803 -0.033724 0.299537 0.000000 0.596042 0.000000
# 6 0.000000 0.000000 0.000000 -0.042824 0.000000 0.052857
#
#
# Mechanical properties :
#
#
# Convention : Reuss Voigt Hill
#
# Bulk Modulus (GPa) = 24.33072 55.64460 39.98766
# Shear Modulus (GPa) = 3.10464 21.72558 12.41511
#
# Velocity S-wave (km/s) = 1.25110 3.30958 2.50186
# Velocity P-wave (km/s) = 3.78863 6.53135 5.33911
#
# Compressibility (1/GPa) = 0.04110031
#
# Stress axis : x y z
#
# Youngs Moduli (GPa) = 3.86595 92.59338 5.79687
#
# Poissons Ratio (x) = -1.78907 1.14968
# Poissons Ratio (y) = -0.07470 0.12424
# Poissons Ratio (z) = 0.76672 1.98450
#
# Static dielectric constant tensor:
#      x y z
#    x 3.508060 0.000000 -0.186920 
#    y 0.000000 3.715720 0.000000 
#    z -0.186920 0.000000 3.752020 
# 
# 
# High freq. dielectric constant tensor:
#      x y z
#    x 1.760920 0.000000 -0.015350 
#    y 0.000000 1.776830 0.000000 
#    z -0.015350 0.000000 1.781860 
# 
# From -- ./inp_files/16997.got.cif
#   From: 2010.03.12/outbox.cif.g09.slc.cpg/sg14_9_cif.got.tgz:16997.got - 2010.03.31 13:35:05.
