data_PCOD8123588
_publ_section_title
;
Structure prediction by ZEFSAII (Michael W. Deem and Ramdas Pophale) SiO2 
 PCOD8123588
Probable space group: P 21/C
;
_chemical_formula_sum "Si O2"
_cell_formula_units_Z 32
_cell_length_a 11.960511
_cell_length_b 14.308942
_cell_length_c 9.039739
_cell_angle_alpha 90.000000
_cell_angle_beta 89.309558
_cell_angle_gamma 90.000000
_cell_volume 1546.969018
_symmetry_space_group_name_H-M "P 21/C"
_symmetry_group_IT_number 14
_symmetry_cell_setting 'monoclinic'
loop_
_space_group_symop_operation_xyz
x,y,z
-x,1/2+y,1/2-z
-x,-y,-z
x,1/2-y,1/2+z
loop_
_atom_site_type_symbol
_atom_site_label
_atom_site_fract_x
_atom_site_fract_y
_atom_site_fract_z
Si Si1 0.967166 0.791479 0.953699
Si Si2 0.072312 0.908003 0.475097
Si Si3 0.211782 0.841955 0.950695
Si Si4 0.546411 0.397929 0.021717
Si Si5 0.260822 0.849562 0.282195
Si Si6 0.266616 0.562248 0.178078
Si Si7 0.181194 0.234270 0.304236
Si Si8 0.693542 0.853468 0.433892
O O1 0.909519 0.818850 0.798451
O O2 0.989383 0.679374 0.957221
O O3 0.078473 0.851391 0.974066
O O4 0.883503 0.810925 0.092677
O O5 0.155902 0.915518 0.331569
O O6 0.152698 0.892233 0.615563
O O7 0.000000 0.000000 0.500000
O O8 0.241336 0.750466 0.857274
O O9 0.258223 0.930258 0.855956
O O10 0.271353 0.841321 0.106716
O O11 0.621313 0.392973 0.168675
O O12 0.438075 0.331562 0.036772
O O13 0.500000 0.500000 0.000000
O O14 0.628093 0.375267 0.881512
O O15 0.280759 0.457127 0.122501
O O16 0.269160 0.283518 0.195142
O O17 0.243422 0.161480 0.411256
#
# Coordination Sequence:
#
# PCOD8123588 Si02
#       8
#     4   4   4   4   4   4   4   4
#     4  10  19  34  54  84 119 154 187 240 295 347
#     4  10  18  33  58  85 118 162 199 235 295 362
#     4  11  21  37  60  90 122 152 195 249 299 358
#     4   9  20  41  62  83 116 152 195 249 297 342
#     4  10  21  36  60  90 119 160 203 245 301 357
#     4  10  21  38  60  86 120 155 197 250 301 359
#     4  10  20  35  56  80 113 153 199 236 286 364
#     4  10  22  40  58  82 113 156 201 248 298 349
#
# _framework density 20.685611999999999
#
# number of rings (size 3 to 8) (size 9 to 14) (size 15 to 20)
#    0.000    2.000    0.000    6.000    0.000    2.000 
#    0.000   16.250    0.000    0.000    0.000    0.000 
#    0.000    0.000    0.000    0.000    0.000    0.000 
#
# Total GULP energy -396628.991302 kJ/mol
# GULP energy per Si atom -12394.655978 kJ/mol
# Density = 2.063853 g / cm^3
# Si number density = 20.685612 Si / 1000 Ang^3
#
#
#
# Elastic Constant Matrix: (Units=GPa)
#
#
# Indices 1 2 3 4 5 6 
#
# 1 142.4107 27.2091 51.0816 0.0000 7.2003 0.0000
# 2 27.2091 50.1023 19.7148 0.0000 4.4690 0.0000
# 3 51.0816 19.7148 146.2216 0.0000 15.5858 0.0000
# 4 0.0000 0.0000 0.0000 30.9348 0.0000 -1.9223
# 5 7.2003 4.4690 15.5858 0.0000 24.6477 0.0000
# 6 0.0000 0.0000 0.0000 -1.9223 0.0000 33.4015
#
#
#
# Elastic Compliance Matrix: (Units=1/GPa)
#
#
# Indices 1 2 3 4 5 6 
#
# 1 0.008633 -0.003684 -0.002489 0.000000 -0.000280 0.000000
# 2 -0.003684 0.022758 -0.001562 0.000000 -0.002063 0.000000
# 3 -0.002489 -0.001562 0.008376 0.000000 -0.004286 0.000000
# 4 0.000000 0.000000 0.000000 0.032442 0.000000 0.001867
# 5 -0.000280 -0.002063 -0.004286 0.000000 0.043738 0.000000
# 6 0.000000 0.000000 0.000000 0.001867 0.000000 0.030046
#
#
# Mechanical properties :
#
#
# Convention : Reuss Voigt Hill
#
# Bulk Modulus (GPa) = 41.15647 59.41616 50.28632
# Shear Modulus (GPa) = 29.48779 33.84542 31.66660
#
# Velocity S-wave (km/s) = 3.77970 4.04936 3.91685
# Velocity P-wave (km/s) = 6.24400 7.11680 6.69464
#
# Compressibility (1/GPa) = 0.02429751
#
# Stress axis : x y z
#
# Youngs Moduli (GPa) = 115.83718 43.94024 119.38904
#
# Poissons Ratio (x) = 0.16186 0.29720
# Poissons Ratio (y) = 0.42671 0.18645
# Poissons Ratio (z) = 0.28835 0.06862
#
# Static dielectric constant tensor:
#      x y z
#    x 4.557870 0.000000 -0.214300 
#    y 0.000000 3.393260 0.000000 
#    z -0.214300 0.000000 3.938140 
# 
# 
# High freq. dielectric constant tensor:
#      x y z
#    x 1.824160 0.000000 -0.007880 
#    y 0.000000 1.771500 0.000000 
#    z -0.007880 0.000000 1.813300 
# 
# From -- ./inp_files/13104.got.cif
#   From: 2010.03.12/outbox.cif.g09.slc.cpg/sg14_7_cif.got.tgz:13104.got - 2010.03.31 13:35:05.
