data_PCOD8123161
_publ_section_title
;
Structure prediction by ZEFSAII (Michael W. Deem and Ramdas Pophale) SiO2 
 PCOD8123161
Probable space group: P 2/C
;
_chemical_formula_sum "Si O2"
_cell_formula_units_Z 28
_cell_length_a 18.776019
_cell_length_b 4.911193
_cell_length_c 14.831477
_cell_angle_alpha 90.000000
_cell_angle_beta 52.101503
_cell_angle_gamma 90.000000
_cell_volume 1079.212763
_symmetry_space_group_name_H-M "P 2/C"
_symmetry_group_IT_number 13
_symmetry_cell_setting 'monoclinic'
loop_
_space_group_symop_operation_xyz
x,y,z
-x,y,1/2-z
-x,-y,-z
x,-y,1/2+z
loop_
_atom_site_type_symbol
_atom_site_label
_atom_site_fract_x
_atom_site_fract_y
_atom_site_fract_z
Si Si1 0.840200 0.292998 0.531789
Si Si2 0.757689 0.454748 0.418438
Si Si3 0.098001 0.568441 0.841692
Si Si4 0.647686 0.794300 0.266048
Si Si5 0.006138 0.066714 0.639612
Si Si6 0.464926 0.276874 0.183570
Si Si7 0.646739 0.941533 0.468591
O O1 0.832748 0.421795 0.437645
O O2 0.891873 0.492673 0.560955
O O3 0.740130 0.252207 0.643689
O O4 0.894974 0.009859 0.476594
O O5 0.806919 0.463572 0.283428
O O6 0.711637 0.742204 0.473685
O O7 0.674412 0.240331 0.482015
O O8 0.066810 0.880041 0.856759
O O9 0.020085 0.378881 0.858269
O O10 0.588880 0.518754 0.324469
O O11 0.667552 0.925319 0.346937
O O12 0.598881 0.021816 0.243170
O O13 0.000000 0.002677 0.750000
O O14 0.500000 0.400295 0.250000
O O15 0.542946 0.144608 0.061383
#
# Coordination Sequence:
#
# PCOD8123161 Si02
#       7
#     4   4   4   4   4   4   4
#     4  12  28  47  78 106 151 188 254 296 376 439
#     4  12  26  47  75 109 144 195 240 311 359 437
#     4  12  27  50  73 107 148 190 245 306 368 439
#     4  12  26  44  73 108 142 198 239 305 367 431
#     4  12  27  49  76 106 147 194 242 305 373 441
#     4  12  25  46  71 106 149 191 248 296 365 440
#     4  12  25  48  73 105 150 190 249 298 369 435
#
# _framework density 25.944835999999999
#
# number of rings (size 3 to 8) (size 9 to 14) (size 15 to 20)
#    0.000    0.000    2.857    6.857    0.000    2.286 
#    0.000    0.000    0.000    0.000    0.000    0.000 
#    0.000    0.000    0.000    0.000    0.000    0.000 
#
# Total GULP energy -347344.655685 kJ/mol
# GULP energy per Si atom -12405.166274 kJ/mol
# Density = 2.588578 g / cm^3
# Si number density = 25.944836 Si / 1000 Ang^3
#
#
#
# Elastic Constant Matrix: (Units=GPa)
#
#
# Indices 1 2 3 4 5 6 
#
# 1 102.6029 19.8257 28.5006 0.0000 3.7783 0.0000
# 2 19.8257 81.2474 7.3012 0.0000 4.2804 0.0000
# 3 28.5006 7.3012 93.6614 0.0000 5.3001 0.0000
# 4 0.0000 0.0000 0.0000 33.2401 0.0000 -4.7050
# 5 3.7783 4.2804 5.3001 0.0000 41.8516 0.0000
# 6 0.0000 0.0000 0.0000 -4.7050 0.0000 20.4915
#
#
#
# Elastic Compliance Matrix: (Units=1/GPa)
#
#
# Indices 1 2 3 4 5 6 
#
# 1 0.011105 -0.002406 -0.003172 0.000000 -0.000355 0.000000
# 2 -0.002406 0.012972 -0.000218 0.000000 -0.001082 0.000000
# 3 -0.003172 -0.000218 0.011725 0.000000 -0.001176 0.000000
# 4 0.000000 0.000000 0.000000 0.031095 0.000000 0.007140
# 5 -0.000355 -0.001082 -0.001176 0.000000 0.024186 0.000000
# 6 0.000000 0.000000 0.000000 0.007140 0.000000 0.050440
#
#
# Mechanical properties :
#
#
# Convention : Reuss Voigt Hill
#
# Bulk Modulus (GPa) = 41.30294 43.19629 42.24962
# Shear Modulus (GPa) = 31.02037 33.90894 32.46466
#
# Velocity S-wave (km/s) = 3.46154 3.61912 3.54120
# Velocity P-wave (km/s) = 5.65070 5.84375 5.74804
#
# Compressibility (1/GPa) = 0.02421135
#
# Stress axis : x y z
#
# Youngs Moduli (GPa) = 90.04692 77.09026 85.28483
#
# Poissons Ratio (x) = 0.18549 0.27049
# Poissons Ratio (y) = 0.21667 0.01857
# Poissons Ratio (z) = 0.28560 0.01679
#
# Static dielectric constant tensor:
#      x y z
#    x 4.789540 0.000000 -0.019690 
#    y 0.000000 4.631190 0.000000 
#    z -0.019690 0.000000 4.774840 
# 
# 
# High freq. dielectric constant tensor:
#      x y z
#    x 2.050690 0.000000 -0.001800 
#    y 0.000000 2.040100 0.000000 
#    z -0.001800 0.000000 2.052660 
# 
# From -- ./inp_files/54583.got.cif
#   From: 2010.06.25/outbox.cif.g09.slc.cpg/sg13_28_cif.got.tgz:54583.got - 2010.06.28 04:50:58.
