data_PCOD8123317
_publ_section_title
;
Structure prediction by ZEFSAII (Michael W. Deem and Ramdas Pophale) SiO2 
 PCOD8123317
Probable space group: P 21/C
;
_chemical_formula_sum "Si O2"
_cell_formula_units_Z 32
_cell_length_a 24.245151
_cell_length_b 9.060017
_cell_length_c 16.497664
_cell_angle_alpha 90.000000
_cell_angle_beta 155.409946
_cell_angle_gamma 90.000000
_cell_volume 1507.988502
_symmetry_space_group_name_H-M "P 21/C"
_symmetry_group_IT_number 14
_symmetry_cell_setting 'monoclinic'
loop_
_space_group_symop_operation_xyz
x,y,z
-x,1/2+y,1/2-z
-x,-y,-z
x,1/2-y,1/2+z
loop_
_atom_site_type_symbol
_atom_site_label
_atom_site_fract_x
_atom_site_fract_y
_atom_site_fract_z
Si Si1 0.078598 0.569991 0.032365
Si Si2 0.668520 0.623393 0.390727
Si Si3 0.101984 0.629047 0.628751
Si Si4 0.358276 0.037809 0.651939
Si Si5 0.618916 0.117520 0.482694
Si Si6 0.077342 0.531724 0.330903
Si Si7 0.355655 0.954574 0.976223
Si Si8 0.112933 0.646949 0.829747
O O1 0.047863 0.744756 0.997481
O O2 0.235449 0.536066 0.251157
O O3 0.000000 0.500000 0.000000
O O4 0.025551 0.510935 0.877176
O O5 0.699285 0.796599 0.422862
O O6 0.520256 0.594299 0.155764
O O7 0.776725 0.535098 0.484368
O O8 0.672741 0.572008 0.490218
O O9 0.125224 0.690429 0.751707
O O10 0.000000 0.500000 0.500000
O O11 0.246859 0.579164 0.787334
O O12 0.383392 0.998050 0.592611
O O13 0.248069 0.929894 0.543057
O O14 0.505825 0.014740 0.887789
O O15 0.630925 0.288832 0.469086
O O16 0.089685 0.707827 0.352822
O O17 0.011321 0.465678 0.324278
#
# Coordination Sequence:
#
# PCOD8123317 Si02
#       8
#     4   4   4   4   4   4   4   4
#     4  11  20  36  57  86 115 149 187 231 284 334
#     4  10  17  30  55  81 110 147 186 231 280 330
#     4  10  21  36  60  87 118 143 187 237 281 333
#     4   9  18  32  54  82 110 146 188 233 282 330
#     4   8  17  31  50  82 114 142 183 235 273 326
#     4  12  24  38  59  82 117 152 189 233 287 344
#     4   9  17  33  54  81 112 146 189 235 275 328
#     4  11  24  40  55  84 115 149 190 235 282 342
#
# _framework density 21.220320999999998
#
# number of rings (size 3 to 8) (size 9 to 14) (size 15 to 20)
#    0.000    2.000    2.500    2.250    5.250    1.000 
#    0.000    0.625    0.000    0.750    0.000    0.000 
#    0.000    0.000    0.000    0.000    0.000    0.000 
#
# Total GULP energy -396483.046999 kJ/mol
# GULP energy per Si atom -12390.095219 kJ/mol
# Density = 2.117202 g / cm^3
# Si number density = 21.220321 Si / 1000 Ang^3
#
#
#
# Elastic Constant Matrix: (Units=GPa)
#
#
# Indices 1 2 3 4 5 6 
#
# 1 34.0715 5.8911 15.2069 0.0000 23.2840 0.0000
# 2 5.8911 112.3017 52.3839 0.0000 24.6353 0.0000
# 3 15.2069 52.3839 133.6511 0.0000 41.2676 0.0000
# 4 0.0000 0.0000 0.0000 32.9770 0.0000 9.4997
# 5 23.2840 24.6353 41.2676 0.0000 36.4982 0.0000
# 6 0.0000 0.0000 0.0000 9.4997 0.0000 26.7080
#
#
#
# Elastic Compliance Matrix: (Units=1/GPa)
#
#
# Indices 1 2 3 4 5 6 
#
# 1 0.057830 0.004359 0.006163 0.000000 -0.046803 0.000000
# 2 0.004359 0.011595 -0.002712 0.000000 -0.007540 0.000000
# 3 0.006163 -0.002712 0.013048 0.000000 -0.016854 0.000000
# 4 0.000000 0.000000 0.000000 0.033786 0.000000 -0.012017
# 5 -0.046803 -0.007540 -0.016854 0.000000 0.081403 0.000000
# 6 0.000000 0.000000 0.000000 -0.012017 0.000000 0.041716
#
#
# Mechanical properties :
#
#
# Convention : Reuss Voigt Hill
#
# Bulk Modulus (GPa) = 10.19450 47.44315 28.81882
# Shear Modulus (GPa) = 19.49643 33.00613 26.25128
#
# Velocity S-wave (km/s) = 3.03440 3.94814 3.52103
# Velocity P-wave (km/s) = 4.13416 6.57188 5.49004
#
# Compressibility (1/GPa) = 0.09809212
#
# Stress axis : x y z
#
# Youngs Moduli (GPa) = 17.29199 86.24235 76.63939
#
# Poissons Ratio (x) = -0.37589 -0.47234
# Poissons Ratio (y) = -0.07537 0.20788
# Poissons Ratio (z) = -0.10657 0.23393
#
# Static dielectric constant tensor:
#      x y z
#    x 5.662690 0.000000 -0.395120 
#    y 0.000000 3.898910 0.000000 
#    z -0.395120 0.000000 4.843020 
# 
# 
# High freq. dielectric constant tensor:
#      x y z
#    x 1.783220 0.000000 0.039540 
#    y 0.000000 1.838940 0.000000 
#    z 0.039540 0.000000 1.848470 
# 
# From -- ./inp_files/57295.got.cif
#   From: 2010.03.12/outbox.cif.g09.slc.cpg/sg14_29_cif.got.tgz:57295.got - 2010.03.31 13:35:05.
