data_PCOD8123470
_publ_section_title
;
Structure prediction by ZEFSAII (Michael W. Deem and Ramdas Pophale) SiO2 
 PCOD8123470
Probable space group: P 21/C
;
_chemical_formula_sum "Si O2"
_cell_formula_units_Z 28
_cell_length_a 11.810870
_cell_length_b 9.111089
_cell_length_c 14.244443
_cell_angle_alpha 90.000000
_cell_angle_beta 73.384906
_cell_angle_gamma 90.000000
_cell_volume 1468.842550
_symmetry_space_group_name_H-M "P 21/C"
_symmetry_group_IT_number 14
_symmetry_cell_setting 'monoclinic'
loop_
_space_group_symop_operation_xyz
x,y,z
-x,1/2+y,1/2-z
-x,-y,-z
x,1/2-y,1/2+z
loop_
_atom_site_type_symbol
_atom_site_label
_atom_site_fract_x
_atom_site_fract_y
_atom_site_fract_z
Si Si1 0.298494 0.762684 0.398609
Si Si2 0.864440 0.976102 0.553042
Si Si3 0.706159 0.546394 0.647896
Si Si4 0.567352 0.063321 0.783187
Si Si5 0.267015 0.235324 0.035431
Si Si6 0.241117 0.323220 0.748101
Si Si7 0.471056 0.829374 0.018865
O O1 0.244624 0.619750 0.357468
O O2 0.391721 0.856625 0.318886
O O3 0.367736 0.720923 0.475851
O O4 0.186247 0.861621 0.446689
O O5 0.798023 0.876557 0.491826
O O6 0.849033 0.912377 0.663080
O O7 0.000000 0.000000 0.500000
O O8 0.567812 0.520885 0.691790
O O9 0.743591 0.604855 0.536793
O O10 0.750604 0.655458 0.718024
O O11 0.585273 0.179894 0.863664
O O12 0.633516 0.907117 0.779651
O O13 0.202044 0.187333 0.148097
O O14 0.407754 0.266661 0.019431
O O15 0.500000 0.000000 0.000000
#
# Coordination Sequence:
#
# PCOD8123470 Si02
#       7
#     4   4   4   4   4   4   4
#     4  11  21  35  58  84 118 154 187 233 293 341
#     4  10  25  44  57  79 117 153 199 248 275 322
#     4  10  18  31  54  86 120 150 185 225 289 355
#     4  10  18  30  53  86 123 155 175 228 292 349
#     4  10  19  37  61  83 117 154 184 237 291 339
#     4  10  19  35  58  81 111 152 196 235 284 338
#     4  11  18  34  58  91 123 143 181 233 288 356
#
# _framework density 19.062629000000001
#
# number of rings (size 3 to 8) (size 9 to 14) (size 15 to 20)
#    0.000    1.714    4.286    1.714    0.000    2.857 
#    0.000    8.571    0.000    0.000    0.000    0.000 
#    0.000    0.000    0.000    0.000    0.000    0.000 
#
# Total GULP energy -346992.579198 kJ/mol
# GULP energy per Si atom -12392.592114 kJ/mol
# Density = 1.901924 g / cm^3
# Si number density = 19.062629 Si / 1000 Ang^3
#
#
#
# Elastic Constant Matrix: (Units=GPa)
#
#
# Indices 1 2 3 4 5 6 
#
# 1 79.7693 55.1188 47.1820 0.0000 -18.8510 0.0000
# 2 55.1188 129.5488 32.0568 0.0000 -9.8771 0.0000
# 3 47.1820 32.0568 108.3832 0.0000 -6.8823 0.0000
# 4 0.0000 0.0000 0.0000 21.1410 0.0000 6.4368
# 5 -18.8510 -9.8771 -6.8823 0.0000 22.6566 0.0000
# 6 0.0000 0.0000 0.0000 6.4368 0.0000 18.5013
#
#
#
# Elastic Compliance Matrix: (Units=1/GPa)
#
#
# Indices 1 2 3 4 5 6 
#
# 1 0.026932 -0.008166 -0.008271 0.000000 0.016335 0.000000
# 2 -0.008166 0.011001 0.000178 0.000000 -0.001945 0.000000
# 3 -0.008271 0.000178 0.012585 0.000000 -0.002982 0.000000
# 4 0.000000 0.000000 0.000000 0.052906 0.000000 -0.018407
# 5 0.016335 -0.001945 -0.002982 0.000000 0.055975 0.000000
# 6 0.000000 0.000000 0.000000 -0.018407 0.000000 0.060454
#
#
# Mechanical properties :
#
#
# Convention : Reuss Voigt Hill
#
# Bulk Modulus (GPa) = 55.56102 65.15739 60.35921
# Shear Modulus (GPa) = 19.35187 24.68268 22.01728
#
# Velocity S-wave (km/s) = 3.18964 3.60227 3.40221
# Velocity P-wave (km/s) = 6.54025 7.18030 6.86773
#
# Compressibility (1/GPa) = 0.01799823
#
# Stress axis : x y z
#
# Youngs Moduli (GPa) = 37.13121 90.89767 79.45722
#
# Poissons Ratio (x) = 0.74230 0.65722
# Poissons Ratio (y) = 0.30322 -0.01411
# Poissons Ratio (z) = 0.30712 -0.01614
#
# Static dielectric constant tensor:
#      x y z
#    x 3.110970 0.000000 0.119060 
#    y 0.000000 3.850010 0.000000 
#    z 0.119060 0.000000 4.255100 
# 
# 
# High freq. dielectric constant tensor:
#      x y z
#    x 1.691530 0.000000 0.004420 
#    y 0.000000 1.745040 0.000000 
#    z 0.004420 0.000000 1.758610 
# 
# From -- ./inp_files/43372.got.cif
#   From: 2010.03.12/outbox.cif.g09.slc.cpg/sg14_22_cif.got.tgz:43372.got - 2010.03.31 13:35:05.
