data_PCOD8123440
_publ_section_title
;
Structure prediction by ZEFSAII (Michael W. Deem and Ramdas Pophale) SiO2 
 PCOD8123440
Probable space group: P 21/C
;
_chemical_formula_sum "Si O2"
_cell_formula_units_Z 28
_cell_length_a 13.856798
_cell_length_b 26.646138
_cell_length_c 14.942704
_cell_angle_alpha 90.000000
_cell_angle_beta 159.665899
_cell_angle_gamma 90.000000
_cell_volume 1917.226442
_symmetry_space_group_name_H-M "P 21/C"
_symmetry_group_IT_number 14
_symmetry_cell_setting 'monoclinic'
loop_
_space_group_symop_operation_xyz
x,y,z
-x,1/2+y,1/2-z
-x,-y,-z
x,1/2-y,1/2+z
loop_
_atom_site_type_symbol
_atom_site_label
_atom_site_fract_x
_atom_site_fract_y
_atom_site_fract_z
Si Si1 0.881374 0.965677 0.273457
Si Si2 0.873384 0.230124 0.392567
Si Si3 0.393205 0.478855 0.272753
Si Si4 0.256870 0.245815 0.879180
Si Si5 0.507548 0.132991 0.867516
Si Si6 0.132349 0.354330 0.208466
Si Si7 0.054673 0.307941 0.869831
O O1 0.751272 0.973584 0.257304
O O2 0.954457 0.906944 0.323067
O O3 0.165617 0.997038 0.508392
O O4 0.659574 0.984465 0.007618
O O5 0.105391 0.260017 0.653059
O O6 0.879370 0.171146 0.431001
O O7 0.944633 0.230818 0.349377
O O8 0.582353 0.257785 0.155306
O O9 0.492800 0.424907 0.323909
O O10 0.220104 0.185409 0.862169
O O11 0.118179 0.275502 0.838361
O O12 0.393106 0.139123 0.868358
O O13 0.333997 0.165248 0.645607
O O14 0.825643 0.150651 0.144878
#
# Coordination Sequence:
#
# PCOD8123440 Si02
#       7
#     4   4   4   4   4   4   4
#     4   9  16  24  39  55  80 109 139 173 197 238
#     4   9  18  30  41  61  85 109 145 174 207 250
#     4   9  17  25  36  59  78 108 146 167 198 238
#     4  10  19  29  44  63  81 113 152 174 208 255
#     4  10  18  29  43  58  86 116 145 175 205 250
#     4   8  18  27  43  57  87 111 146 170 211 243
#     4  11  18  30  46  60  82 120 145 176 214 243
#
# _framework density 14.604430000000001
#
# number of rings (size 3 to 8) (size 9 to 14) (size 15 to 20)
#    0.857    1.714    1.429    1.714    2.000    3.429 
#    0.000    0.000    0.000    0.000    0.000    0.000 
#    0.000    0.000    0.000   25.714    0.000    1.429 
#
# Total GULP energy -346926.828179 kJ/mol
# GULP energy per Si atom -12390.243864 kJ/mol
# Density = 1.457119 g / cm^3
# Si number density = 14.604430 Si / 1000 Ang^3
#
#
#
# Elastic Constant Matrix: (Units=GPa)
#
#
# Indices 1 2 3 4 5 6 
#
# 1 -1.9113 -14.1752 -1.7088 0.0000 -5.4352 0.0000
# 2 -14.1752 23.8910 -5.0225 0.0000 -4.0631 0.0000
# 3 -1.7088 -5.0225 82.2861 0.0000 -12.6039 0.0000
# 4 0.0000 0.0000 0.0000 22.9374 0.0000 -0.5909
# 5 -5.4352 -4.0631 -12.6039 0.0000 14.1908 0.0000
# 6 0.0000 0.0000 0.0000 -0.5909 0.0000 12.8106
#
#
#
# Elastic Compliance Matrix: (Units=1/GPa)
#
#
# Indices 1 2 3 4 5 6 
#
# 1 -0.058174 -0.044342 -0.010732 0.000000 -0.044509 0.000000
# 2 -0.044342 0.012327 -0.002580 0.000000 -0.015745 0.000000
# 3 -0.010732 -0.002580 0.012766 0.000000 0.006490 0.000000
# 4 0.000000 0.000000 0.000000 0.043649 0.000000 0.002013
# 5 -0.044509 -0.015745 0.006490 0.000000 0.054677 0.000000
# 6 0.000000 0.000000 0.000000 0.002013 0.000000 0.078153
#
#
# Mechanical properties :
#
#
# Convention : Reuss Voigt Hill
#
# Bulk Modulus (GPa) = -6.73904 6.93918 0.10007
# Shear Modulus (GPa) = 23.89562 18.33259 21.11411
#
# Velocity S-wave (km/s) = 4.04937 3.54683 3.80640
# Velocity P-wave (km/s) = 4.15197 4.64059 4.40306
#
# Compressibility (1/GPa) = -0.14838911
#
# Stress axis : x y z
#
# Youngs Moduli (GPa) = -17.18978 81.12177 78.33080
#
# Poissons Ratio (x) = 3.59710 0.84065
# Poissons Ratio (y) = -0.76223 0.20211
# Poissons Ratio (z) = -0.18448 0.20931
#
# Static dielectric constant tensor:
#      x y z
#    x 2.374420 0.000000 -0.163000 
#    y 0.000000 2.795280 0.000000 
#    z -0.163000 0.000000 2.946970 
# 
# 
# High freq. dielectric constant tensor:
#      x y z
#    x 1.495200 0.000000 -0.021250 
#    y 0.000000 1.544420 0.000000 
#    z -0.021250 0.000000 1.574200 
# 
# From -- ./inp_files/38211.got.cif
#   From: 2010.03.12/outbox.cif.g09.slc.cpg/sg14_20_cif.got.tgz:38211.got - 2010.03.31 13:35:05.
