data_PCOD8123263
_publ_section_title
;
Structure prediction by ZEFSAII (Michael W. Deem and Ramdas Pophale) SiO2 
 PCOD8123263
Probable space group: P 21/C
;
_chemical_formula_sum "Si O2"
_cell_formula_units_Z 32
_cell_length_a 12.069153
_cell_length_b 17.914853
_cell_length_c 9.305766
_cell_angle_alpha 90.000000
_cell_angle_beta 121.069139
_cell_angle_gamma 90.000000
_cell_volume 1723.425222
_symmetry_space_group_name_H-M "P 21/C"
_symmetry_group_IT_number 14
_symmetry_cell_setting 'monoclinic'
loop_
_space_group_symop_operation_xyz
x,y,z
-x,1/2+y,1/2-z
-x,-y,-z
x,1/2-y,1/2+z
loop_
_atom_site_type_symbol
_atom_site_label
_atom_site_fract_x
_atom_site_fract_y
_atom_site_fract_z
Si Si1 0.657871 0.730364 0.062958
Si Si2 0.168660 0.274749 0.561861
Si Si3 0.565981 0.882072 0.020467
Si Si4 0.850169 0.880445 0.340461
Si Si5 0.795294 0.010189 0.825748
Si Si6 0.702053 0.926975 0.497421
Si Si7 0.539978 0.481361 0.307901
Si Si8 0.971009 0.586143 0.633097
O O1 0.782433 0.767017 0.068406
O O2 0.539272 0.792261 0.977640
O O3 0.704312 0.708776 0.254767
O O4 0.628931 0.654131 0.955619
O O5 0.098953 0.200351 0.573548
O O6 0.064604 0.340561 0.482813
O O7 0.560967 0.933071 0.874482
O O8 0.710857 0.878828 0.174026
O O9 0.470527 0.920817 0.070856
O O10 0.823835 0.929234 0.467336
O O11 0.952933 0.911835 0.294401
O O12 0.663202 0.045140 0.798450
O O13 0.877393 0.072392 0.794998
O O14 0.759123 0.944839 0.690766
O O15 0.881341 0.980716 0.015253
O O16 0.590150 0.984285 0.374486
#
# Coordination Sequence:
#
# PCOD8123263 Si02
#       8
#     4   4   4   4   4   4   4   4
#     4  10  18  31  55  86 105 128 189 236 271 307
#     4  10  16  30  54  79 106 130 175 234 268 305
#     4   9  17  32  58  79 106 141 175 226 283 327
#     4   9  18  33  55  83 105 136 179 227 274 311
#     4  11  22  34  53  79 111 147 180 221 270 327
#     4  10  21  33  56  86 108 137 186 237 269 314
#     4  10  19  35  54  80 111 144 178 222 280 328
#     4  11  20  34  54  78 112 144 178 223 271 334
#
# _framework density 18.567675000000001
#
# number of rings (size 3 to 8) (size 9 to 14) (size 15 to 20)
#    0.000    2.000    5.000    1.125    0.000    0.500 
#    0.000    0.000    2.750    0.000    0.000    0.000 
#    0.000    0.000    0.000    0.000    0.000    0.000 
#
# Total GULP energy -396437.636807 kJ/mol
# GULP energy per Si atom -12388.676150 kJ/mol
# Density = 1.852541 g / cm^3
# Si number density = 18.567675 Si / 1000 Ang^3
#
#
#
# Elastic Constant Matrix: (Units=GPa)
#
#
# Indices 1 2 3 4 5 6 
#
# 1 122.9241 47.1093 30.0526 0.0000 -18.4827 0.0000
# 2 47.1093 94.1889 23.5266 0.0000 -3.4086 0.0000
# 3 30.0526 23.5266 44.1792 0.0000 -13.6985 0.0000
# 4 0.0000 0.0000 0.0000 26.2888 0.0000 -1.7166
# 5 -18.4827 -3.4086 -13.6985 0.0000 23.7405 0.0000
# 6 0.0000 0.0000 0.0000 -1.7166 0.0000 28.0020
#
#
#
# Elastic Compliance Matrix: (Units=1/GPa)
#
#
# Indices 1 2 3 4 5 6 
#
# 1 0.011797 -0.004803 -0.003451 0.000000 0.006504 0.000000
# 2 -0.004803 0.014319 -0.005943 0.000000 -0.005113 0.000000
# 3 -0.003451 -0.005943 0.032944 0.000000 0.015469 0.000000
# 4 0.000000 0.000000 0.000000 0.038192 0.000000 0.002341
# 5 0.006504 -0.005113 0.015469 0.000000 0.055377 0.000000
# 6 0.000000 0.000000 0.000000 0.002341 0.000000 0.035855
#
#
# Mechanical properties :
#
#
# Convention : Reuss Voigt Hill
#
# Bulk Modulus (GPa) = 32.60943 51.40767 42.00855
# Shear Modulus (GPa) = 22.01672 26.31320 24.16496
#
# Velocity S-wave (km/s) = 3.44722 3.76859 3.61148
# Velocity P-wave (km/s) = 5.78317 6.83250 6.32962
#
# Compressibility (1/GPa) = 0.03066597
#
# Stress axis : x y z
#
# Youngs Moduli (GPa) = 84.76396 69.83816 30.35496
#
# Poissons Ratio (x) = 0.33546 0.10474
# Poissons Ratio (y) = 0.40715 0.18040
# Poissons Ratio (z) = 0.29248 0.41505
#
# Static dielectric constant tensor:
#      x y z
#    x 3.394100 0.000000 -0.422180 
#    y 0.000000 3.693130 0.000000 
#    z -0.422180 0.000000 3.385090 
# 
# 
# High freq. dielectric constant tensor:
#      x y z
#    x 1.695010 0.000000 -0.041680 
#    y 0.000000 1.713800 0.000000 
#    z -0.041680 0.000000 1.710940 
# 
# From -- ./inp_files/13910.got.cif
#   From: 2010.03.12/outbox.cif.g09.slc.cpg/sg14_7_cif.got.tgz:13910.got - 2010.03.31 13:35:05.
