data_PCOD8123480
_publ_section_title
;
Structure prediction by ZEFSAII (Michael W. Deem and Ramdas Pophale) SiO2 
 PCOD8123480
Probable space group: P 21/C
;
_chemical_formula_sum "Si O2"
_cell_formula_units_Z 32
_cell_length_a 11.679679
_cell_length_b 13.465280
_cell_length_c 18.998359
_cell_angle_alpha 90.000000
_cell_angle_beta 144.420446
_cell_angle_gamma 90.000000
_cell_volume 1738.443456
_symmetry_space_group_name_H-M "P 21/C"
_symmetry_group_IT_number 14
_symmetry_cell_setting 'monoclinic'
loop_
_space_group_symop_operation_xyz
x,y,z
-x,1/2+y,1/2-z
-x,-y,-z
x,1/2-y,1/2+z
loop_
_atom_site_type_symbol
_atom_site_label
_atom_site_fract_x
_atom_site_fract_y
_atom_site_fract_z
Si Si1 0.725356 0.701376 0.904535
Si Si2 0.283607 0.117519 0.895419
Si Si3 0.090453 0.386769 0.441071
Si Si4 0.716395 0.117519 0.111812
Si Si5 0.909546 0.386769 0.850617
Si Si6 0.728092 0.901581 0.262376
Si Si7 0.728093 0.098419 0.965716
Si Si8 0.274646 0.798624 0.179181
O O1 0.764346 0.676655 0.842278
O O2 0.500001 0.682424 0.813050
O O3 0.784715 0.816149 0.944244
O O4 0.858566 0.629922 0.020152
O O5 0.134004 0.147573 0.882440
O O6 0.210899 0.151592 0.781118
O O7 0.299357 1.000000 0.899679
O O8 0.500001 0.162545 0.020882
O O9 0.143979 0.499927 0.484222
O O10 0.858565 0.370078 0.338413
O O11 0.865998 0.147572 0.248436
O O12 0.789102 0.151592 0.070219
O O13 0.856020 0.499927 0.840242
O O14 0.784713 0.316149 0.840469
O O15 0.500000 0.934915 0.143624
O O16 0.764346 0.176656 0.922068
#
# Coordination Sequence:
#
# PCOD8123480 Si02
#       8
#     4   4   4   4   4   4   4   4
#     4  10  20  31  46  72 100 127 158 192 242 296
#     4   8  14  27  50  73  88 113 157 202 235 264
#     4  10  18  31  50  71  97 128 161 200 240 280
#     4   8  14  27  50  73  88 113 157 202 235 264
#     4  10  18  31  50  71  97 128 161 200 240 280
#     4   9  17  31  52  75  97 122 160 205 238 276
#     4   9  17  31  52  75  97 122 160 205 238 276
#     4  10  20  31  46  72 100 127 158 192 242 296
#
# _framework density 18.407271999999999
#
# number of rings (size 3 to 8) (size 9 to 14) (size 15 to 20)
#    0.000    2.750    0.000    4.500    0.000    0.000 
#    0.000    5.000    0.000    6.750    0.000    3.500 
#    0.000    0.000    0.000    0.000    0.000    0.000 
#
# Total GULP energy -396598.009759 kJ/mol
# GULP energy per Si atom -12393.687805 kJ/mol
# Density = 1.836538 g / cm^3
# Si number density = 18.407272 Si / 1000 Ang^3
#
#
#
# Elastic Constant Matrix: (Units=GPa)
#
#
# Indices 1 2 3 4 5 6 
#
# 1 125.7901 30.5274 72.7277 0.0000 -12.0680 0.0000
# 2 30.5274 49.6073 27.6362 0.0000 -9.7425 0.0000
# 3 72.7277 27.6362 119.5517 0.0000 -8.9515 0.0000
# 4 0.0000 0.0000 0.0000 20.8044 0.0000 -2.4940
# 5 -12.0680 -9.7425 -8.9515 0.0000 35.2400 0.0000
# 6 0.0000 0.0000 0.0000 -2.4940 0.0000 21.5448
#
#
#
# Elastic Compliance Matrix: (Units=1/GPa)
#
#
# Indices 1 2 3 4 5 6 
#
# 1 0.013043 -0.003847 -0.006922 0.000000 0.001645 0.000000
# 2 -0.003847 0.025222 -0.003126 0.000000 0.004861 0.000000
# 3 -0.006922 -0.003126 0.013309 0.000000 0.000146 0.000000
# 4 0.000000 0.000000 0.000000 0.048743 0.000000 0.005643
# 5 0.001645 0.004861 0.000146 0.000000 0.030321 0.000000
# 6 0.000000 0.000000 0.000000 0.005643 0.000000 0.047068
#
#
# Mechanical properties :
#
#
# Convention : Reuss Voigt Hill
#
# Bulk Modulus (GPa) = 42.04578 61.85905 51.95241
# Shear Modulus (GPa) = 23.42728 26.45502 24.94115
#
# Velocity S-wave (km/s) = 3.57139 3.79516 3.68497
# Velocity P-wave (km/s) = 6.31648 7.27207 6.81106
#
# Compressibility (1/GPa) = 0.02378360
#
# Stress axis : x y z
#
# Youngs Moduli (GPa) = 76.66665 39.64770 75.13575
#
# Poissons Ratio (x) = 0.15254 0.52011
# Poissons Ratio (y) = 0.29496 0.23488
# Poissons Ratio (z) = 0.53071 0.12394
#
# Static dielectric constant tensor:
#      x y z
#    x 3.796240 0.000000 -0.341380 
#    y 0.000000 3.003880 0.000000 
#    z -0.341380 0.000000 3.694910 
# 
# 
# High freq. dielectric constant tensor:
#      x y z
#    x 1.718180 0.000000 -0.011850 
#    y 0.000000 1.678090 0.000000 
#    z -0.011850 0.000000 1.714660 
# 
# From -- ./inp_files/57831.got.cif
#   From: 2010.03.12/outbox.cif.g09.slc.cpg/sg14_29_cif.got.tgz:57831.got - 2010.03.31 13:35:05.
