data_PCOD8123996
_publ_section_title
;
Structure prediction by ZEFSAII (Michael W. Deem and Ramdas Pophale) SiO2 
 PCOD8123996
Probable space group: P 21/C
;
_chemical_formula_sum "Si O2"
_cell_formula_units_Z 32
_cell_length_a 12.721297
_cell_length_b 5.400767
_cell_length_c 27.173046
_cell_angle_alpha 90.000000
_cell_angle_beta 74.011582
_cell_angle_gamma 90.000000
_cell_volume 1794.700394
_symmetry_space_group_name_H-M "P 21/C"
_symmetry_group_IT_number 14
_symmetry_cell_setting 'monoclinic'
loop_
_space_group_symop_operation_xyz
x,y,z
-x,1/2+y,1/2-z
-x,-y,-z
x,1/2-y,1/2+z
loop_
_atom_site_type_symbol
_atom_site_label
_atom_site_fract_x
_atom_site_fract_y
_atom_site_fract_z
Si Si1 0.397998 0.454399 0.049015
Si Si2 0.141924 0.050882 0.432119
Si Si3 0.711887 0.440620 0.469409
Si Si4 0.699161 0.202770 0.653660
Si Si5 0.438577 0.734079 0.242781
Si Si6 0.502675 0.419100 0.866494
Si Si7 0.068851 0.811827 0.022141
Si Si8 0.675790 0.922112 0.076987
O O1 0.324466 0.702516 0.057027
O O2 0.431206 0.422009 0.101997
O O3 0.332063 0.204502 0.044524
O O4 0.500000 0.500000 0.000000
O O5 0.224039 0.239791 0.448208
O O6 0.019710 0.148426 0.436198
O O7 0.194364 0.961317 0.373242
O O8 0.138590 0.837963 0.473203
O O9 0.845271 0.440987 0.451801
O O10 0.666935 0.397766 0.531023
O O11 0.680161 0.238761 0.714655
O O12 0.711256 0.461352 0.624270
O O13 0.588401 0.085340 0.647226
O O14 0.496329 0.492974 0.259608
O O15 0.419570 0.688039 0.187029
O O16 0.443082 0.199479 0.903441
O O17 0.000000 0.000000 0.000000
#
# Coordination Sequence:
#
# PCOD8123996 Si02
#       8
#     4   4   4   4   4   4   4   4
#     4  12  25  36  53  76 114 158 195 212 261 330
#     4  10  20  32  53  80 111 146 178 227 293 340
#     4  12  24  36  53  80 110 152 190 227 263 335
#     4  10  19  33  55  79 112 146 185 229 283 341
#     4  10  20  34  54  81 110 146 183 232 282 325
#     4  10  22  34  52  76 116 152 187 224 270 326
#     4  11  21  34  54  77 114 144 181 237 291 326
#     4  11  18  33  53  77 113 147 185 223 271 335
#
# _framework density 17.830272999999998
#
# number of rings (size 3 to 8) (size 9 to 14) (size 15 to 20)
#    0.000    1.250    5.000    1.875    3.500    0.000 
#    0.000    0.000    0.000    0.000    0.000    0.000 
#    7.500    0.000    0.000    0.000    0.000    0.000 
#
# Total GULP energy -396510.369410 kJ/mol
# GULP energy per Si atom -12390.949044 kJ/mol
# Density = 1.778969 g / cm^3
# Si number density = 17.830273 Si / 1000 Ang^3
#
#
#
# Elastic Constant Matrix: (Units=GPa)
#
#
# Indices 1 2 3 4 5 6 
#
# 1 91.6801 36.4164 45.7963 0.0000 -6.5971 0.0000
# 2 36.4164 95.1066 21.0918 0.0000 -6.7393 0.0000
# 3 45.7963 21.0918 117.2173 0.0000 -14.7753 0.0000
# 4 0.0000 0.0000 0.0000 25.8571 0.0000 -3.4720
# 5 -6.5971 -6.7393 -14.7753 0.0000 20.3390 0.0000
# 6 0.0000 0.0000 0.0000 -3.4720 0.0000 31.1180
#
#
#
# Elastic Compliance Matrix: (Units=1/GPa)
#
#
# Indices 1 2 3 4 5 6 
#
# 1 0.015365 -0.004757 -0.005193 0.000000 -0.000365 0.000000
# 2 -0.004757 0.012534 -0.000074 0.000000 0.002556 0.000000
# 3 -0.005193 -0.000074 0.011402 0.000000 0.006574 0.000000
# 4 0.000000 0.000000 0.000000 0.039262 0.000000 0.004381
# 5 -0.000365 0.002556 0.006574 0.000000 0.054671 0.000000
# 6 0.000000 0.000000 0.000000 0.004381 0.000000 0.032624
#
#
# Mechanical properties :
#
#
# Convention : Reuss Voigt Hill
#
# Bulk Modulus (GPa) = 51.94512 56.73476 54.33994
# Shear Modulus (GPa) = 25.99763 28.84279 27.42021
#
# Velocity S-wave (km/s) = 3.82260 4.02634 3.92579
# Velocity P-wave (km/s) = 6.97706 7.31462 7.14783
#
# Compressibility (1/GPa) = 0.01925109
#
# Stress axis : x y z
#
# Youngs Moduli (GPa) = 65.08314 79.78444 87.70316
#
# Poissons Ratio (x) = 0.37957 0.45544
# Poissons Ratio (y) = 0.30963 0.00653
# Poissons Ratio (z) = 0.33798 0.00594
#
# Static dielectric constant tensor:
#      x y z
#    x 3.334260 0.000000 -0.266910 
#    y 0.000000 3.464220 0.000000 
#    z -0.266910 0.000000 3.533630 
# 
# 
# High freq. dielectric constant tensor:
#      x y z
#    x 1.655020 0.000000 -0.018980 
#    y 0.000000 1.711740 0.000000 
#    z -0.018980 0.000000 1.671410 
# 
# From -- ./inp_files/79779.got.cif
#   From: 2010.03.12/outbox.cif.g09.slc.cpg/sg14_40_cif.got.tgz:79779.got - 2010.03.31 13:35:05.
