data_PCOD8123168
_publ_section_title
;
Structure prediction by ZEFSAII (Michael W. Deem and Ramdas Pophale) SiO2 
 PCOD8123168
Probable space group: P 2/C
;
_chemical_formula_sum "Si O2"
_cell_formula_units_Z 16
_cell_length_a 21.177767
_cell_length_b 4.724431
_cell_length_c 8.363925
_cell_angle_alpha 90.000000
_cell_angle_beta 130.435184
_cell_angle_gamma 90.000000
_cell_volume 636.948689
_symmetry_space_group_name_H-M "P 2/C"
_symmetry_group_IT_number 13
_symmetry_cell_setting 'monoclinic'
loop_
_space_group_symop_operation_xyz
x,y,z
-x,y,1/2-z
-x,-y,-z
x,-y,1/2+z
loop_
_atom_site_type_symbol
_atom_site_label
_atom_site_fract_x
_atom_site_fract_y
_atom_site_fract_z
Si Si1 0.593528 0.101910 0.662207
Si Si2 0.905987 0.882923 0.557685
Si Si3 0.842874 0.602198 0.771959
Si Si4 0.657136 0.393780 0.448483
O O1 0.620431 0.243322 0.542493
O O2 0.601861 0.332028 0.817578
O O3 0.500000 0.000000 0.500000
O O4 0.652612 0.832682 0.795786
O O5 0.859791 0.734648 0.628208
O O6 0.904190 0.663807 0.405350
O O7 0.000000 0.964668 0.750000
O O8 0.856529 0.166218 0.432973
O O9 0.750539 0.486523 0.631876
#
# Coordination Sequence:
#
# PCOD8123168 Si02
#       4
#     4   4   4   4
#     4  12  27  50  76 108 146 191 242 303 366 437
#     4  12  25  47  74 108 147 194 245 301 362 432
#     4  12  26  46  73 108 147 193 243 302 363 431
#     4  12  27  49  75 110 147 192 244 302 365 434
#
# _framework density 25.119762000000001
#
# number of rings (size 3 to 8) (size 9 to 14) (size 15 to 20)
#    0.000    0.000    0.000    9.750    0.000    6.000 
#    0.000    0.000    0.000    0.000    0.000    0.000 
#    0.000    0.000    0.000    0.000    0.000    0.000 
#
# Total GULP energy -198533.368675 kJ/mol
# GULP energy per Si atom -12408.335542 kJ/mol
# Density = 2.506259 g / cm^3
# Si number density = 25.119762 Si / 1000 Ang^3
#
#
#
# Elastic Constant Matrix: (Units=GPa)
#
#
# Indices 1 2 3 4 5 6 
#
# 1 87.0816 24.6026 37.8360 0.0000 21.4371 0.0000
# 2 24.6026 178.9329 90.2971 0.0000 32.1262 0.0000
# 3 37.8360 90.2971 159.3696 0.0000 21.6659 0.0000
# 4 0.0000 0.0000 0.0000 82.2662 0.0000 1.1967
# 5 21.4371 32.1262 21.6659 0.0000 16.8952 0.0000
# 6 0.0000 0.0000 0.0000 1.1967 0.0000 35.8996
#
#
#
# Elastic Compliance Matrix: (Units=1/GPa)
#
#
# Indices 1 2 3 4 5 6 
#
# 1 0.018168 0.003655 -0.002792 0.000000 -0.026421 0.000000
# 2 0.003655 0.010783 -0.004311 0.000000 -0.019613 0.000000
# 3 -0.002792 -0.004311 0.009428 0.000000 -0.000350 0.000000
# 4 0.000000 0.000000 0.000000 0.012162 0.000000 -0.000405
# 5 -0.026421 -0.019613 -0.000350 0.000000 0.130455 0.000000
# 6 0.000000 0.000000 0.000000 -0.000405 0.000000 0.027869
#
#
# Mechanical properties :
#
#
# Convention : Reuss Voigt Hill
#
# Bulk Modulus (GPa) = 31.76387 81.20615 56.48501
# Shear Modulus (GPa) = 22.09898 45.18877 33.64387
#
# Velocity S-wave (km/s) = 2.96927 4.24598 3.66367
# Velocity P-wave (km/s) = 4.94245 7.51236 6.35859
#
# Compressibility (1/GPa) = 0.03148231
#
# Stress axis : x y z
#
# Youngs Moduli (GPa) = 55.04100 92.73878 106.07079
#
# Poissons Ratio (x) = -0.33893 0.29617
# Poissons Ratio (y) = -0.20116 0.45726
# Poissons Ratio (z) = 0.15368 0.39978
#
# Static dielectric constant tensor:
#      x y z
#    x 2.156090 0.000000 -0.514740 
#    y 0.000000 5.435910 0.000000 
#    z -0.514740 0.000000 5.108530 
# 
# 
# High freq. dielectric constant tensor:
#      x y z
#    x 1.987070 0.000000 -0.007550 
#    y 0.000000 2.036650 0.000000 
#    z -0.007550 0.000000 2.031140 
# 
# From -- ./inp_files/23706.got.cif
#   From: 2010.06.25/outbox.cif.g09.slc.cpg/sg13_12_cif.got.tgz:23706.got - 2010.06.28 04:50:58.
