data_PCOD8123185
_publ_section_title
;
Structure prediction by ZEFSAII (Michael W. Deem and Ramdas Pophale) SiO2 
 PCOD8123185
Probable space group: P 2/C
;
_chemical_formula_sum "Si O2"
_cell_formula_units_Z 16
_cell_length_a 9.353830
_cell_length_b 6.717246
_cell_length_c 11.650618
_cell_angle_alpha 90.000000
_cell_angle_beta 104.775504
_cell_angle_gamma 90.000000
_cell_volume 707.824926
_symmetry_space_group_name_H-M "P 2/C"
_symmetry_group_IT_number 13
_symmetry_cell_setting 'monoclinic'
loop_
_space_group_symop_operation_xyz
x,y,z
-x,y,1/2-z
-x,-y,-z
x,-y,1/2+z
loop_
_atom_site_type_symbol
_atom_site_label
_atom_site_fract_x
_atom_site_fract_y
_atom_site_fract_z
Si Si1 0.890456 0.146756 0.540587
Si Si2 0.728326 0.659028 0.797672
Si Si3 0.000000 0.442311 0.750000
Si Si4 0.376227 0.005587 0.878913
Si Si5 0.500000 0.340478 0.750000
O O1 0.790133 0.244254 0.424102
O O2 0.979985 0.309813 0.631720
O O3 0.787843 0.019051 0.603755
O O4 0.000000 0.000000 0.500000
O O5 0.857549 0.580695 0.740481
O O6 0.625844 0.815295 0.705780
O O7 0.627575 0.481588 0.827280
O O8 0.413324 0.209122 0.823028
O O9 0.500000 0.000000 0.000000
#
# Coordination Sequence:
#
# PCOD8123185 Si02
#       5
#     4   4   2   4   2
#     4  12  26  47  76 108 151 191 245 305 366 437
#     4  12  27  47  74 109 145 194 248 302 368 440
#     4  12  26  48  74 108 150 198 244 302 370 440
#     4  12  27  47  75 107 149 196 242 308 368 433
#     4  12  26  48  72 108 148 188 252 294 374 436
#
# _framework density 22.604458000000001
#
# number of rings (size 3 to 8) (size 9 to 14) (size 15 to 20)
#    0.000    0.000    2.500    7.500    7.000    2.000 
#    0.000    0.000    0.000    0.000    0.000    0.000 
#    0.000    0.000    0.000    0.000    0.000    0.000 
#
# Total GULP energy -198440.751751 kJ/mol
# GULP energy per Si atom -12402.546984 kJ/mol
# Density = 2.255301 g / cm^3
# Si number density = 22.604458 Si / 1000 Ang^3
#
#
#
# Elastic Constant Matrix: (Units=GPa)
#
#
# Indices 1 2 3 4 5 6 
#
# 1 128.5733 55.1621 21.7955 0.0000 -15.3881 0.0000
# 2 55.1621 138.5807 61.1509 0.0000 1.6633 0.0000
# 3 21.7955 61.1509 140.3994 0.0000 18.0443 0.0000
# 4 0.0000 0.0000 0.0000 33.7336 0.0000 0.0714
# 5 -15.3881 1.6633 18.0443 0.0000 48.1858 0.0000
# 6 0.0000 0.0000 0.0000 0.0714 0.0000 62.0055
#
#
#
# Elastic Compliance Matrix: (Units=1/GPa)
#
#
# Indices 1 2 3 4 5 6 
#
# 1 0.009884 -0.003844 -0.000297 0.000000 0.003401 0.000000
# 2 -0.003844 0.010495 -0.003961 0.000000 -0.000107 0.000000
# 3 -0.000297 -0.003961 0.009338 0.000000 -0.003455 0.000000
# 4 0.000000 0.000000 0.000000 0.029644 0.000000 -0.000034
# 5 0.003401 -0.000107 -0.003455 0.000000 0.023136 0.000000
# 6 0.000000 0.000000 0.000000 -0.000034 0.000000 0.016128
#
#
# Mechanical properties :
#
#
# Convention : Reuss Voigt Hill
#
# Bulk Modulus (GPa) = 74.00136 75.97451 74.98793
# Shear Modulus (GPa) = 41.89929 46.74797 44.32363
#
# Velocity S-wave (km/s) = 4.31000 4.55256 4.43294
# Velocity P-wave (km/s) = 7.58793 7.83056 7.71020
#
# Compressibility (1/GPa) = 0.01351327
#
# Stress axis : x y z
#
# Youngs Moduli (GPa) = 101.17079 95.28192 107.09187
#
# Poissons Ratio (x) = 0.36628 0.03182
# Poissons Ratio (y) = 0.38891 0.42416
# Poissons Ratio (z) = 0.03006 0.37738
#
# Static dielectric constant tensor:
#      x y z
#    x 7.235310 0.000000 -1.237630 
#    y 0.000000 4.481940 0.000000 
#    z -1.237630 0.000000 4.528190 
# 
# 
# High freq. dielectric constant tensor:
#      x y z
#    x 1.919660 0.000000 -0.001140 
#    y 0.000000 1.907920 0.000000 
#    z -0.001140 0.000000 1.892640 
# 
# From -- ./inp_files/27136.got.cif
#   From: 2010.06.25/outbox.cif.g09.slc.cpg/sg13_14_cif.got.tgz:27136.got - 2010.06.28 04:50:58.
