data_PCOD8123379
_publ_section_title
;
Structure prediction by ZEFSAII (Michael W. Deem and Ramdas Pophale) SiO2 
 PCOD8123379
Probable space group: P 21/C
;
_chemical_formula_sum "Si O2"
_cell_formula_units_Z 28
_cell_length_a 18.745347
_cell_length_b 17.265566
_cell_length_c 8.231797
_cell_angle_alpha 90.000000
_cell_angle_beta 29.009269
_cell_angle_gamma 90.000000
_cell_volume 1292.013077
_symmetry_space_group_name_H-M "P 21/C"
_symmetry_group_IT_number 14
_symmetry_cell_setting 'monoclinic'
loop_
_space_group_symop_operation_xyz
x,y,z
-x,1/2+y,1/2-z
-x,-y,-z
x,1/2-y,1/2+z
loop_
_atom_site_type_symbol
_atom_site_label
_atom_site_fract_x
_atom_site_fract_y
_atom_site_fract_z
Si Si1 0.183419 0.991695 0.984542
Si Si2 0.659893 0.466069 0.160156
Si Si3 0.911875 0.538591 0.820676
Si Si4 0.887386 0.655579 0.330080
Si Si5 0.910665 0.811770 0.140699
Si Si6 0.232733 0.653356 0.587827
Si Si7 0.742497 0.189783 0.606531
O O1 0.273752 0.999598 0.638349
O O2 0.262482 0.928621 0.941339
O O3 0.010259 0.971129 0.288330
O O4 0.183190 0.073465 0.084306
O O5 0.500000 0.500000 0.500000
O O6 0.756741 0.492429 0.126711
O O7 0.663272 0.372148 0.144997
O O8 0.879513 0.628989 0.850641
O O9 0.000000 0.500000 0.500000
O O10 0.830752 0.730358 0.344241
O O11 0.840873 0.660836 0.611369
O O12 0.060383 0.659500 0.960542
O O13 0.084799 0.809864 0.772142
O O14 0.303689 0.721458 0.335484
O O15 0.307248 0.663534 0.614860
#
# Coordination Sequence:
#
# PCOD8123379 Si02
#       7
#     4   4   4   4   4   4   4
#     4  11  20  38  59  93 121 154 199 263 306 369
#     4  11  22  38  64  84 119 169 211 250 306 366
#     4  10  17  34  60  81 116 146 199 248 305 357
#     4  10  20  31  51  86 124 147 186 243 311 355
#     4  10  18  32  52  82 115 150 187 240 302 362
#     4  10  21  33  62  95 124 150 200 252 307 364
#     4  10  19  36  56  94 121 155 198 250 299 370
#
# _framework density 21.671607000000002
#
# number of rings (size 3 to 8) (size 9 to 14) (size 15 to 20)
#    0.000    1.714    5.714    2.143    6.000    0.000 
#    0.000    0.714    6.286    0.000    0.000    0.000 
#    0.000    0.000    0.000    0.000    0.000    0.000 
#
# Total GULP energy -346909.798726 kJ/mol
# GULP energy per Si atom -12389.635669 kJ/mol
# Density = 2.162228 g / cm^3
# Si number density = 21.671607 Si / 1000 Ang^3
#
#
#
# Elastic Constant Matrix: (Units=GPa)
#
#
# Indices 1 2 3 4 5 6 
#
# 1 36.0364 40.9498 21.8882 0.0000 2.3427 0.0000
# 2 40.9498 203.0786 41.6367 0.0000 13.4362 0.0000
# 3 21.8882 41.6367 53.0522 0.0000 -5.6161 0.0000
# 4 0.0000 0.0000 0.0000 23.9965 0.0000 12.0338
# 5 2.3427 13.4362 -5.6161 0.0000 20.9308 0.0000
# 6 0.0000 0.0000 0.0000 12.0338 0.0000 32.4201
#
#
#
# Elastic Compliance Matrix: (Units=1/GPa)
#
#
# Indices 1 2 3 4 5 6 
#
# 1 0.042672 -0.005428 -0.013877 0.000000 -0.005015 0.000000
# 2 -0.005428 0.007153 -0.003907 0.000000 -0.005032 0.000000
# 3 -0.013877 -0.003907 0.028891 0.000000 0.011813 0.000000
# 4 0.000000 0.000000 0.000000 0.051204 0.000000 -0.019006
# 5 -0.005015 -0.005032 0.011813 0.000000 0.054738 0.000000
# 6 0.000000 0.000000 0.000000 -0.019006 0.000000 0.037900
#
#
# Mechanical properties :
#
#
# Convention : Reuss Voigt Hill
#
# Bulk Modulus (GPa) = 30.96605 55.67961 43.32283
# Shear Modulus (GPa) = 17.87342 27.98232 22.92787
#
# Velocity S-wave (km/s) = 2.87494 3.59722 3.25617
# Velocity P-wave (km/s) = 5.03390 6.55756 5.84558
#
# Compressibility (1/GPa) = 0.03229343
#
# Stress axis : x y z
#
# Youngs Moduli (GPa) = 23.43457 139.80831 34.61233
#
# Poissons Ratio (x) = 0.75883 0.48030
# Poissons Ratio (y) = 0.12719 0.13523
# Poissons Ratio (z) = 0.32519 0.54623
#
# Static dielectric constant tensor:
#      x y z
#    x 4.195670 0.000000 0.178570 
#    y 0.000000 4.710590 0.000000 
#    z 0.178570 0.000000 3.446990 
# 
# 
# High freq. dielectric constant tensor:
#      x y z
#    x 1.817830 0.000000 0.042120 
#    y 0.000000 1.877740 0.000000 
#    z 0.042120 0.000000 1.790130 
# 
# From -- ./inp_files/19157.got.cif
#   From: 2010.03.12/outbox.cif.g09.slc.cpg/sg14_10_cif.got.tgz:19157.got - 2010.03.31 13:35:05.
