data_PCOD8123566
_publ_section_title
;
Structure prediction by ZEFSAII (Michael W. Deem and Ramdas Pophale) SiO2 
 PCOD8123566
Probable space group: P 21/C
;
_chemical_formula_sum "Si O2"
_cell_formula_units_Z 32
_cell_length_a 27.077220
_cell_length_b 7.735693
_cell_length_c 21.673850
_cell_angle_alpha 90.000000
_cell_angle_beta 158.290043
_cell_angle_gamma 90.000000
_cell_volume 1679.319548
_symmetry_space_group_name_H-M "P 21/C"
_symmetry_group_IT_number 14
_symmetry_cell_setting 'monoclinic'
loop_
_space_group_symop_operation_xyz
x,y,z
-x,1/2+y,1/2-z
-x,-y,-z
x,1/2-y,1/2+z
loop_
_atom_site_type_symbol
_atom_site_label
_atom_site_fract_x
_atom_site_fract_y
_atom_site_fract_z
Si Si1 0.913587 0.543937 0.121315
Si Si2 0.474983 0.612441 0.776660
Si Si3 0.151133 0.249305 0.838566
Si Si4 0.817287 0.138347 0.262446
Si Si5 0.378494 0.041684 0.050064
Si Si6 0.941826 0.036699 0.527622
Si Si7 0.271786 0.914374 0.419334
Si Si8 0.193509 0.806032 0.944947
O O1 0.862050 0.696370 0.105169
O O2 0.867351 0.572341 0.996036
O O3 0.865465 0.358508 0.088394
O O4 0.077381 0.547806 0.307364
O O5 0.534639 0.794079 0.867605
O O6 0.469587 0.592663 0.694890
O O7 0.324518 0.611979 0.630578
O O8 0.570869 0.455460 0.909945
O O9 0.198549 0.412238 0.853613
O O10 0.011664 0.195427 0.645372
O O11 0.260484 0.097446 0.960929
O O12 0.832295 0.111225 0.353135
O O13 0.791040 0.341078 0.217325
O O14 0.952831 0.080527 0.386180
O O15 0.686185 0.033918 0.087248
O O16 0.246291 0.757714 0.438667
#
# Coordination Sequence:
#
# PCOD8123566 Si02
#       8
#     4   4   4   4   4   4   4   4
#     4  11  20  34  54  81 113 139 174 228 270 341
#     4  11  19  32  56  81 108 139 183 231 281 306
#     4   9  20  32  52  81 110 136 180 223 276 323
#     4  10  19  33  54  78 112 140 183 222 273 331
#     4  10  18  33  52  84 108 138 180 232 270 317
#     4  10  19  34  53  78 110 150 171 220 283 328
#     4  10  19  33  53  82 107 139 182 236 268 318
#     4  11  20  33  53  83 112 138 179 226 281 320
#
# _framework density 19.055337000000002
#
# number of rings (size 3 to 8) (size 9 to 14) (size 15 to 20)
#    0.000    1.750    5.000    0.750    0.000    0.500 
#    0.000    0.000    0.000    1.500    0.000    0.000 
#    0.000    0.000    0.000    0.000    0.000    0.000 
#
# Total GULP energy -396465.221953 kJ/mol
# GULP energy per Si atom -12389.538186 kJ/mol
# Density = 1.901197 g / cm^3
# Si number density = 19.055337 Si / 1000 Ang^3
#
#
#
# Elastic Constant Matrix: (Units=GPa)
#
#
# Indices 1 2 3 4 5 6 
#
# 1 76.6649 18.6863 32.7938 0.0000 -12.3063 0.0000
# 2 18.6863 61.2323 29.3084 0.0000 -4.0113 0.0000
# 3 32.7938 29.3084 81.7256 0.0000 -7.6237 0.0000
# 4 0.0000 0.0000 0.0000 34.9731 0.0000 1.1020
# 5 -12.3063 -4.0113 -7.6237 0.0000 36.1906 0.0000
# 6 0.0000 0.0000 0.0000 1.1020 0.0000 21.3781
#
#
#
# Elastic Compliance Matrix: (Units=1/GPa)
#
#
# Indices 1 2 3 4 5 6 
#
# 1 0.016601 -0.002160 -0.005490 0.000000 0.004249 0.000000
# 2 -0.002160 0.020014 -0.006296 0.000000 0.000158 0.000000
# 3 -0.005490 -0.006296 0.016788 0.000000 0.000972 0.000000
# 4 0.000000 0.000000 0.000000 0.028640 0.000000 -0.001476
# 5 0.004249 0.000158 0.000972 0.000000 0.029298 0.000000
# 6 0.000000 0.000000 0.000000 -0.001476 0.000000 0.046853
#
#
# Mechanical properties :
#
#
# Convention : Reuss Voigt Hill
#
# Bulk Modulus (GPa) = 39.20019 42.35553 40.77786
# Shear Modulus (GPa) = 25.69500 27.76398 26.72949
#
# Velocity S-wave (km/s) = 3.67610 3.82123 3.74937
# Velocity P-wave (km/s) = 6.21568 6.46104 6.33954
#
# Compressibility (1/GPa) = 0.02551008
#
# Stress axis : x y z
#
# Youngs Moduli (GPa) = 60.23795 49.96432 59.56717
#
# Poissons Ratio (x) = 0.10791 0.32705
# Poissons Ratio (y) = 0.13010 0.37505
# Poissons Ratio (z) = 0.33073 0.31458
#
# Static dielectric constant tensor:
#      x y z
#    x 3.428910 0.000000 0.091560 
#    y 0.000000 3.652820 0.000000 
#    z 0.091560 0.000000 3.693210 
# 
# 
# High freq. dielectric constant tensor:
#      x y z
#    x 1.700370 0.000000 0.012620 
#    y 0.000000 1.755270 0.000000 
#    z 0.012620 0.000000 1.733040 
# 
# From -- ./inp_files/70542.got.cif
#   From: 2010.03.12/outbox.cif.g09.slc.cpg/sg14_36_cif.got.tgz:70542.got - 2010.03.31 13:35:05.
