data_PCOD8123283
_publ_section_title
;
Structure prediction by ZEFSAII (Michael W. Deem and Ramdas Pophale) SiO2 
 PCOD8123283
Probable space group: P 21/C
;
_chemical_formula_sum "Si O2"
_cell_formula_units_Z 28
_cell_length_a 6.462443
_cell_length_b 9.265828
_cell_length_c 25.074992
_cell_angle_alpha 90.000000
_cell_angle_beta 72.411214
_cell_angle_gamma 90.000000
_cell_volume 1431.292842
_symmetry_space_group_name_H-M "P 21/C"
_symmetry_group_IT_number 14
_symmetry_cell_setting 'monoclinic'
loop_
_space_group_symop_operation_xyz
x,y,z
-x,1/2+y,1/2-z
-x,-y,-z
x,1/2-y,1/2+z
loop_
_atom_site_type_symbol
_atom_site_label
_atom_site_fract_x
_atom_site_fract_y
_atom_site_fract_z
Si Si1 0.687907 0.480437 0.233710
Si Si2 0.573713 0.106551 0.892407
Si Si3 0.809210 0.402212 0.569092
Si Si4 0.669537 0.324041 0.692291
Si Si5 0.991915 0.467408 0.300339
Si Si6 0.101670 0.671123 0.550935
Si Si7 0.757050 0.766457 0.651569
O O1 0.524138 0.559530 0.287380
O O2 0.588737 0.327978 0.222047
O O3 0.917970 0.447520 0.244598
O O4 0.721592 0.576602 0.178675
O O5 0.394602 0.001380 0.931023
O O6 0.774512 0.019650 0.851937
O O7 0.671666 0.194665 0.935210
O O8 0.471997 0.208533 0.853973
O O9 0.741982 0.306614 0.625143
O O10 0.864786 0.299129 0.514649
O O11 0.011945 0.506798 0.566958
O O12 0.876983 0.382740 0.708513
O O13 0.145039 0.339138 0.310510
O O14 0.924116 0.781097 0.588969
#
# Coordination Sequence:
#
# PCOD8123283 Si02
#       7
#     4   4   4   4   4   4   4
#     4  12  25  38  58  81 118 156 184 237 284 338
#     4  10  16  34  59  83 118 142 186 236 284 331
#     4  10  18  35  56  91 111 146 193 235 279 334
#     4  12  23  38  58  85 115 148 192 234 283 340
#     4  11  19  38  58  82 113 147 195 234 276 338
#     4   9  19  33  62  83 115 146 191 236 279 334
#     4  10  21  38  57  87 115 151 188 232 285 339
#
# _framework density 19.562733999999999
#
# number of rings (size 3 to 8) (size 9 to 14) (size 15 to 20)
#    0.000    1.429    5.714    3.000    0.000    1.143 
#    0.000    0.714    0.000    0.857    0.000    0.000 
#    0.000    0.000    0.000    0.000    0.000    0.000 
#
# Total GULP energy -347046.689327 kJ/mol
# GULP energy per Si atom -12394.524619 kJ/mol
# Density = 1.951821 g / cm^3
# Si number density = 19.562734 Si / 1000 Ang^3
#
#
#
# Elastic Constant Matrix: (Units=GPa)
#
#
# Indices 1 2 3 4 5 6 
#
# 1 110.6837 30.2569 27.5248 0.0000 17.2596 0.0000
# 2 30.2569 87.0582 35.3478 0.0000 1.8532 0.0000
# 3 27.5248 35.3478 101.3553 0.0000 6.5140 0.0000
# 4 0.0000 0.0000 0.0000 28.4567 0.0000 -3.8030
# 5 17.2596 1.8532 6.5140 0.0000 27.8760 0.0000
# 6 0.0000 0.0000 0.0000 -3.8030 0.0000 16.7497
#
#
#
# Elastic Compliance Matrix: (Units=1/GPa)
#
#
# Indices 1 2 3 4 5 6 
#
# 1 0.011283 -0.003155 -0.001552 0.000000 -0.006414 0.000000
# 2 -0.003155 0.014265 -0.004246 0.000000 0.001997 0.000000
# 3 -0.001552 -0.004246 0.011867 0.000000 -0.001530 0.000000
# 4 0.000000 0.000000 0.000000 0.036241 0.000000 0.008228
# 5 -0.006414 0.001997 -0.001530 0.000000 0.040069 0.000000
# 6 0.000000 0.000000 0.000000 0.008228 0.000000 0.061571
#
#
# Mechanical properties :
#
#
# Convention : Reuss Voigt Hill
#
# Bulk Modulus (GPa) = 51.25886 53.92848 52.59367
# Shear Modulus (GPa) = 25.03703 28.34767 26.69235
#
# Velocity S-wave (km/s) = 3.58136 3.81079 3.69785
# Velocity P-wave (km/s) = 6.58488 6.85490 6.72124
#
# Compressibility (1/GPa) = 0.01950882
#
# Stress axis : x y z
#
# Youngs Moduli (GPa) = 88.62738 70.10320 84.26768
#
# Poissons Ratio (x) = 0.22117 0.13076
# Poissons Ratio (y) = 0.27961 0.35784
# Poissons Ratio (z) = 0.13752 0.29769
#
# Static dielectric constant tensor:
#      x y z
#    x 3.929840 0.000000 0.132330 
#    y 0.000000 3.050550 0.000000 
#    z 0.132330 0.000000 3.708510 
# 
# 
# High freq. dielectric constant tensor:
#      x y z
#    x 1.779510 0.000000 0.003900 
#    y 0.000000 1.702500 0.000000 
#    z 0.003900 0.000000 1.768090 
# 
# From -- ./inp_files/75641.got.cif
#   From: 2010.03.12/outbox.cif.g09.slc.cpg/sg14_38_cif.got.tgz:75641.got - 2010.03.31 13:35:05.
