data_PCOD8123327
_publ_section_title
;
Structure prediction by ZEFSAII (Michael W. Deem and Ramdas Pophale) SiO2 
 PCOD8123327
Probable space group: P 21/C
;
_chemical_formula_sum "Si O2"
_cell_formula_units_Z 32
_cell_length_a 11.270453
_cell_length_b 8.739491
_cell_length_c 18.958014
_cell_angle_alpha 90.000000
_cell_angle_beta 55.095682
_cell_angle_gamma 90.000000
_cell_volume 1531.411131
_symmetry_space_group_name_H-M "P 21/C"
_symmetry_group_IT_number 14
_symmetry_cell_setting 'monoclinic'
loop_
_space_group_symop_operation_xyz
x,y,z
-x,1/2+y,1/2-z
-x,-y,-z
x,1/2-y,1/2+z
loop_
_atom_site_type_symbol
_atom_site_label
_atom_site_fract_x
_atom_site_fract_y
_atom_site_fract_z
Si Si1 0.100509 0.476303 0.232916
Si Si2 0.916036 0.846799 0.692383
Si Si3 0.584330 0.067391 0.385294
Si Si4 0.416036 0.153201 0.192383
Si Si5 0.399491 0.476303 0.267084
Si Si6 0.595703 0.287575 0.018468
Si Si7 0.915670 0.067391 0.114706
Si Si8 0.904297 0.212426 0.981533
O O1 0.053168 0.311409 0.277734
O O2 0.268157 0.468808 0.153287
O O3 0.075762 0.603203 0.304261
O O4 0.003268 0.517265 0.199454
O O5 0.750000 0.894940 0.750000
O O6 0.976568 0.827615 0.591895
O O7 0.575762 0.103203 0.304261
O O8 0.594302 0.219179 0.432406
O O9 0.444808 0.964740 0.452351
O O10 0.446832 0.311409 0.222266
O O11 0.503268 0.017266 0.199454
O O12 0.476568 0.172386 0.091895
O O13 0.231842 0.468808 0.346713
O O14 0.750000 0.250000 0.000000
O O15 0.905699 0.219179 0.067594
O O16 0.055192 0.964740 0.047649
#
# Coordination Sequence:
#
# PCOD8123327 Si02
#       8
#     4   4   4   4   4   4   4   4
#     4  10  19  37  58  82 116 150 187 233 280 336
#     4  11  21  38  57  83 114 151 190 231 284 337
#     4   9  18  33  56  84 111 148 187 228 284 333
#     4  11  21  38  57  83 114 151 190 231 284 337
#     4  10  19  37  58  82 116 150 187 233 280 336
#     4  10  17  31  60  85 108 148 191 229 279 336
#     4   9  18  33  56  84 111 148 187 228 284 333
#     4  10  17  31  60  85 108 148 191 229 279 336
#
# _framework density 20.895759999999999
#
# number of rings (size 3 to 8) (size 9 to 14) (size 15 to 20)
#    0.000    2.000    7.500    0.000    0.000    0.000 
#    4.500    1.250    0.000    7.500    0.000    0.000 
#    0.000    0.000    0.000    0.000    0.000    0.000 
#
# Total GULP energy -396458.153215 kJ/mol
# GULP energy per Si atom -12389.317288 kJ/mol
# Density = 2.084820 g / cm^3
# Si number density = 20.895760 Si / 1000 Ang^3
#
#
#
# Elastic Constant Matrix: (Units=GPa)
#
#
# Indices 1 2 3 4 5 6 
#
# 1 93.4108 23.3383 26.9096 0.0000 -9.5635 0.0000
# 2 23.3383 28.9448 6.5590 0.0000 -0.0455 0.0000
# 3 26.9096 6.5590 85.9488 0.0000 -13.5985 0.0000
# 4 0.0000 0.0000 0.0000 11.8852 0.0000 0.0028
# 5 -9.5635 -0.0455 -13.5985 0.0000 33.9635 0.0000
# 6 0.0000 0.0000 0.0000 0.0028 0.0000 35.8006
#
#
#
# Elastic Compliance Matrix: (Units=1/GPa)
#
#
# Indices 1 2 3 4 5 6 
#
# 1 0.014726 -0.011117 -0.003319 0.000000 0.002803 0.000000
# 2 -0.011117 0.043587 -0.000354 0.000000 -0.003214 0.000000
# 3 -0.003319 -0.000354 0.013402 0.000000 0.004431 0.000000
# 4 0.000000 0.000000 0.000000 0.084138 0.000000 -0.000006
# 5 0.002803 -0.003214 0.004431 0.000000 0.032002 0.000000
# 6 0.000000 0.000000 0.000000 -0.000006 0.000000 0.027932
#
#
# Mechanical properties :
#
#
# Convention : Reuss Voigt Hill
#
# Bulk Modulus (GPa) = 23.73295 35.76870 29.75082
# Shear Modulus (GPa) = 19.27424 26.42970 22.85197
#
# Velocity S-wave (km/s) = 3.04040 3.56031 3.31058
# Velocity P-wave (km/s) = 4.86907 5.83575 5.37418
#
# Compressibility (1/GPa) = 0.04213552
#
# Stress axis : x y z
#
# Youngs Moduli (GPa) = 67.90723 22.94239 74.61598
#
# Poissons Ratio (x) = 0.25505 0.24763
# Poissons Ratio (y) = 0.75493 0.02642
# Poissons Ratio (z) = 0.22536 0.00812
#
# Static dielectric constant tensor:
#      x y z
#    x 3.731770 0.000000 0.191250 
#    y 0.000000 3.192630 0.000000 
#    z 0.191250 0.000000 4.376120 
# 
# 
# High freq. dielectric constant tensor:
#      x y z
#    x 1.811160 0.000000 -0.003660 
#    y 0.000000 1.757290 0.000000 
#    z -0.003660 0.000000 1.842820 
# 
# From -- ./inp_files/67037.got.cif
#   From: 2010.03.12/outbox.cif.g09.slc.cpg/sg14_34_cif.got.tgz:67037.got - 2010.03.31 13:35:05.
