data_PCOD8123668
_publ_section_title
;
Structure prediction by ZEFSAII (Michael W. Deem and Ramdas Pophale) SiO2 
 PCOD8123668
Probable space group: P 21/C
;
_chemical_formula_sum "Si O2"
_cell_formula_units_Z 28
_cell_length_a 8.238623
_cell_length_b 14.319368
_cell_length_c 11.522887
_cell_angle_alpha 90.000000
_cell_angle_beta 71.013448
_cell_angle_gamma 90.000000
_cell_volume 1285.419648
_symmetry_space_group_name_H-M "P 21/C"
_symmetry_group_IT_number 14
_symmetry_cell_setting 'monoclinic'
loop_
_space_group_symop_operation_xyz
x,y,z
-x,1/2+y,1/2-z
-x,-y,-z
x,1/2-y,1/2+z
loop_
_atom_site_type_symbol
_atom_site_label
_atom_site_fract_x
_atom_site_fract_y
_atom_site_fract_z
Si Si1 0.821594 0.413666 0.513715
Si Si2 0.972020 0.029419 0.374118
Si Si3 0.468901 0.705735 0.506009
Si Si4 0.481878 0.909453 0.221967
Si Si5 0.288675 0.063505 0.150441
Si Si6 0.612378 0.090342 0.508198
Si Si7 0.141489 0.061774 0.815228
O O1 0.689821 0.327607 0.538165
O O2 0.773368 0.501749 0.442801
O O3 0.839453 0.454924 0.639353
O O4 0.008549 0.378807 0.425147
O O5 0.800270 0.092475 0.406576
O O6 0.139499 0.080959 0.281210
O O7 0.929977 0.940999 0.300255
O O8 0.000000 0.000000 0.500000
O O9 0.431626 0.672056 0.645275
O O10 0.645144 0.662385 0.413818
O O11 0.488497 0.816753 0.506525
O O12 0.355476 0.906269 0.361005
O O13 0.673064 0.890852 0.224188
O O14 0.454184 0.010342 0.167630
O O15 0.500000 0.000000 0.500000
#
# Coordination Sequence:
#
# PCOD8123668 Si02
#       7
#     4   4   4   4   4   4   4
#     4   9  18  35  65 101 126 161 211 279 335 380
#     4  11  23  41  65  92 136 187 214 261 340 406
#     4  11  23  42  67 102 129 171 229 283 332 401
#     4  11  20  41  71  95 132 171 217 274 343 401
#     4  10  19  39  71  97 129 167 219 273 332 403
#     4  12  27  45  63  92 134 185 224 275 341 404
#     4  10  18  34  69  96 130 165 215 267 330 396
#
# _framework density 21.782772000000001
#
# number of rings (size 3 to 8) (size 9 to 14) (size 15 to 20)
#    0.000    1.429    5.714    0.857    0.000    2.286 
#    2.571    0.000    0.000    0.000    0.000    0.000 
#    0.000    0.000    0.000    0.000    0.000    0.000 
#
# Total GULP energy -347046.448849 kJ/mol
# GULP energy per Si atom -12394.516030 kJ/mol
# Density = 2.173319 g / cm^3
# Si number density = 21.782772 Si / 1000 Ang^3
#
#
#
# Elastic Constant Matrix: (Units=GPa)
#
#
# Indices 1 2 3 4 5 6 
#
# 1 97.0094 26.6803 24.6909 0.0000 -13.3783 0.0000
# 2 26.6803 119.1449 33.5407 0.0000 -7.1485 0.0000
# 3 24.6909 33.5407 120.4550 0.0000 0.4739 0.0000
# 4 0.0000 0.0000 0.0000 16.9772 0.0000 -2.5037
# 5 -13.3783 -7.1485 0.4739 0.0000 46.7723 0.0000
# 6 0.0000 0.0000 0.0000 -2.5037 0.0000 20.0815
#
#
#
# Elastic Compliance Matrix: (Units=1/GPa)
#
#
# Indices 1 2 3 4 5 6 
#
# 1 0.011740 -0.001913 -0.001886 0.000000 0.003085 0.000000
# 2 -0.001913 0.009514 -0.002261 0.000000 0.000930 0.000000
# 3 -0.001886 -0.002261 0.009322 0.000000 -0.000979 0.000000
# 4 0.000000 0.000000 0.000000 0.060006 0.000000 0.007481
# 5 0.003085 0.000930 -0.000979 0.000000 0.022415 0.000000
# 6 0.000000 0.000000 0.000000 0.007481 0.000000 0.050730
#
#
# Mechanical properties :
#
#
# Convention : Reuss Voigt Hill
#
# Bulk Modulus (GPa) = 54.18207 56.27037 55.22622
# Shear Modulus (GPa) = 27.47307 33.54602 30.50954
#
# Velocity S-wave (km/s) = 3.55523 3.92857 3.74656
# Velocity P-wave (km/s) = 6.46380 6.81666 6.64257
#
# Compressibility (1/GPa) = 0.01845629
#
# Stress axis : x y z
#
# Youngs Moduli (GPa) = 85.18036 105.11171 107.27593
#
# Poissons Ratio (x) = 0.20107 0.20231
# Poissons Ratio (y) = 0.16294 0.24251
# Poissons Ratio (z) = 0.16064 0.23762
#
# Static dielectric constant tensor:
#      x y z
#    x 4.172630 0.000000 -0.138560 
#    y 0.000000 3.286740 0.000000 
#    z -0.138560 0.000000 4.274390 
# 
# 
# High freq. dielectric constant tensor:
#      x y z
#    x 1.870830 0.000000 -0.007790 
#    y 0.000000 1.787630 0.000000 
#    z -0.007790 0.000000 1.875700 
# 
# From -- ./inp_files/25186.got.cif
#   From: 2010.03.12/outbox.cif.g09.slc.cpg/sg14_13_cif.got.tgz:25186.got - 2010.03.31 13:35:05.
