data_PCOD8123282
_publ_section_title
;
Structure prediction by ZEFSAII (Michael W. Deem and Ramdas Pophale) SiO2 
 PCOD8123282
Probable space group: P 21/C
;
_chemical_formula_sum "Si O2"
_cell_formula_units_Z 20
_cell_length_a 9.312558
_cell_length_b 7.263285
_cell_length_c 23.992454
_cell_angle_alpha 90.000000
_cell_angle_beta 30.880379
_cell_angle_gamma 90.000000
_cell_volume 832.920374
_symmetry_space_group_name_H-M "P 21/C"
_symmetry_group_IT_number 14
_symmetry_cell_setting 'monoclinic'
loop_
_space_group_symop_operation_xyz
x,y,z
-x,1/2+y,1/2-z
-x,-y,-z
x,1/2-y,1/2+z
loop_
_atom_site_type_symbol
_atom_site_label
_atom_site_fract_x
_atom_site_fract_y
_atom_site_fract_z
Si Si1 0.143215 0.386343 0.012594
Si Si2 0.803273 0.162118 0.045136
Si Si3 0.626302 0.026405 0.745461
Si Si4 0.770765 0.516828 0.446976
Si Si5 0.363313 0.937795 0.720898
O O1 0.425998 0.499142 0.899949
O O2 0.233278 0.201300 0.014474
O O3 0.953964 0.345070 0.019474
O O4 0.950186 0.505899 0.119290
O O5 0.489942 0.136591 0.176061
O O6 0.780766 0.158240 0.985637
O O7 0.000000 0.000000 0.000000
O O8 0.588231 0.219107 0.789859
O O9 0.430385 0.038330 0.756391
O O10 0.500000 0.500000 0.500000
O O11 0.039634 0.516132 0.315925
#
# Coordination Sequence:
#
# PCOD8123282 Si02
#       5
#     4   4   4   4   4
#     4  10  20  34  60  83 112 145 190 237 279 329
#     4  10  16  34  56  80 109 144 186 226 282 327
#     4  11  18  32  58  88 115 138 186 240 280 327
#     4  10  20  34  55  77 113 155 186 217 281 343
#     4  11  19  34  57  87 116 146 187 234 287 327
#
# _framework density 24.011897999999999
#
# number of rings (size 3 to 8) (size 9 to 14) (size 15 to 20)
#    0.000    1.600   10.000    0.600    0.000    0.000 
#    0.000    2.000    0.000    1.200    0.000    0.000 
#    0.000    0.000    0.000    0.000    0.000    0.000 
#
# Total GULP energy -247875.140033 kJ/mol
# GULP energy per Si atom -12393.757002 kJ/mol
# Density = 2.395725 g / cm^3
# Si number density = 24.011898 Si / 1000 Ang^3
#
#
#
# Elastic Constant Matrix: (Units=GPa)
#
#
# Indices 1 2 3 4 5 6 
#
# 1 97.0398 23.3924 64.4583 0.0000 -16.8791 0.0000
# 2 23.3924 58.1478 40.7987 0.0000 -2.7412 0.0000
# 3 64.4583 40.7987 257.4294 0.0000 0.8506 0.0000
# 4 0.0000 0.0000 0.0000 30.5657 0.0000 1.2051
# 5 -16.8791 -2.7412 0.8506 0.0000 34.9767 0.0000
# 6 0.0000 0.0000 0.0000 1.2051 0.0000 12.1090
#
#
#
# Elastic Compliance Matrix: (Units=1/GPa)
#
#
# Indices 1 2 3 4 5 6 
#
# 1 0.014316 -0.003276 -0.003088 0.000000 0.006727 0.000000
# 2 -0.003276 0.020188 -0.002379 0.000000 0.000059 0.000000
# 3 -0.003088 -0.002379 0.005041 0.000000 -0.001799 0.000000
# 4 0.000000 0.000000 0.000000 0.032845 0.000000 -0.003269
# 5 0.006727 0.000059 -0.001799 0.000000 0.031885 0.000000
# 6 0.000000 0.000000 0.000000 -0.003269 0.000000 0.082909
#
#
# Mechanical properties :
#
#
# Convention : Reuss Voigt Hill
#
# Bulk Modulus (GPa) = 45.33359 74.43509 59.88434
# Shear Modulus (GPa) = 23.58255 34.46145 29.02200
#
# Velocity S-wave (km/s) = 3.13728 3.79249 3.48034
# Velocity P-wave (km/s) = 5.66074 7.08829 6.41435
#
# Compressibility (1/GPa) = 0.02205870
#
# Stress axis : x y z
#
# Youngs Moduli (GPa) = 69.85349 49.53537 198.38388
#
# Poissons Ratio (x) = 0.16226 0.61254
# Poissons Ratio (y) = 0.22881 0.47204
# Poissons Ratio (z) = 0.21568 0.11787
#
# Static dielectric constant tensor:
#      x y z
#    x 3.914780 0.000000 0.422710 
#    y 0.000000 4.612560 0.000000 
#    z 0.422710 0.000000 5.298410 
# 
# 
# High freq. dielectric constant tensor:
#      x y z
#    x 1.871940 0.000000 0.020960 
#    y 0.000000 1.964800 0.000000 
#    z 0.020960 0.000000 1.986370 
# 
# From -- ./inp_files/64661.got.cif
#   From: 2010.03.12/outbox.cif.g09.slc.cpg/sg14_33_cif.got.tgz:64661.got - 2010.03.31 13:35:05.
