data_PCOD8123019
_publ_section_title
;
Structure prediction by ZEFSAII (Michael W. Deem and Ramdas Pophale) SiO2 
 PCOD8123019
Probable space group: P 2/C
;
_chemical_formula_sum "Si O2"
_cell_formula_units_Z 14
_cell_length_a 5.776768
_cell_length_b 9.794200
_cell_length_c 9.641287
_cell_angle_alpha 90.000000
_cell_angle_beta 97.994099
_cell_angle_gamma 90.000000
_cell_volume 540.191772
_symmetry_space_group_name_H-M "P 2/C"
_symmetry_group_IT_number 13
_symmetry_cell_setting 'monoclinic'
loop_
_space_group_symop_operation_xyz
x,y,z
-x,y,1/2-z
-x,-y,-z
x,-y,1/2+z
loop_
_atom_site_type_symbol
_atom_site_label
_atom_site_fract_x
_atom_site_fract_y
_atom_site_fract_z
Si Si1 0.000000 0.911470 0.750000
Si Si2 0.659578 0.437934 0.894463
Si Si3 0.101072 0.702456 0.535799
Si Si4 0.627132 0.900355 0.114960
O O1 0.137620 0.817609 0.653913
O O2 0.856237 0.013187 0.646602
O O3 0.500000 0.398627 0.750000
O O4 0.831454 0.310049 0.953101
O O5 0.500000 0.500000 0.000000
O O6 0.838968 0.562125 0.879206
O O7 0.295954 0.748760 0.435934
O O8 0.500000 0.876297 0.250000
O O9 0.500000 0.000000 0.000000
#
# Coordination Sequence:
#
# PCOD8123019 Si02
#       4
#     2   4   4   4
#     4  12  26  50  74 112 158 200 264 334 400 490
#     4  11  27  50  79 111 154 210 262 337 401 467
#     4  11  27  48  78 116 154 205 275 322 401 495
#     4  12  28  49  79 116 158 212 257 330 413 475
#
# _framework density 25.916722
#
# number of rings (size 3 to 8) (size 9 to 14) (size 15 to 20)
#    0.000    0.571    2.857    2.571    8.000    6.857 
#    0.000    0.000    0.000    0.000    0.000    0.000 
#    0.000    0.000    0.000    0.000    0.000    0.000 
#
# Total GULP energy -173441.308781 kJ/mol
# GULP energy per Si atom -12388.664913 kJ/mol
# Density = 2.585773 g / cm^3
# Si number density = 25.916722 Si / 1000 Ang^3
#
#
#
# Elastic Constant Matrix: (Units=GPa)
#
#
# Indices 1 2 3 4 5 6 
#
# 1 91.0289 8.4556 38.1514 0.0000 6.0285 0.0000
# 2 8.4556 127.8678 26.8972 0.0000 6.8258 0.0000
# 3 38.1514 26.8972 127.9183 0.0000 5.8057 0.0000
# 4 0.0000 0.0000 0.0000 36.3912 0.0000 -4.8918
# 5 6.0285 6.8258 5.8057 0.0000 69.9430 0.0000
# 6 0.0000 0.0000 0.0000 -4.8918 0.0000 55.9905
#
#
#
# Elastic Compliance Matrix: (Units=1/GPa)
#
#
# Indices 1 2 3 4 5 6 
#
# 1 0.012597 -0.000009 -0.003720 0.000000 -0.000776 0.000000
# 2 -0.000009 0.008213 -0.001694 0.000000 -0.000660 0.000000
# 3 -0.003720 -0.001694 0.009296 0.000000 -0.000286 0.000000
# 4 0.000000 0.000000 0.000000 0.027806 0.000000 0.002429
# 5 -0.000776 -0.000660 -0.000286 0.000000 0.014452 0.000000
# 6 0.000000 0.000000 0.000000 0.002429 0.000000 0.018072
#
#
# Mechanical properties :
#
#
# Convention : Reuss Voigt Hill
#
# Bulk Modulus (GPa) = 51.92264 54.86925 53.39594
# Shear Modulus (GPa) = 46.42424 50.68567 48.55496
#
# Velocity S-wave (km/s) = 4.23695 4.42714 4.33309
# Velocity P-wave (km/s) = 6.63427 6.88114 6.75883
#
# Compressibility (1/GPa) = 0.01925942
#
# Stress axis : x y z
#
# Youngs Moduli (GPa) = 79.38531 121.76119 107.57166
#
# Poissons Ratio (x) = 0.00111 0.40015
# Poissons Ratio (y) = 0.00072 0.18225
# Poissons Ratio (z) = 0.29530 0.20629
#
# Static dielectric constant tensor:
#      x y z
#    x 4.848880 0.000000 0.062730 
#    y 0.000000 5.239890 0.000000 
#    z 0.062730 0.000000 4.902820 
# 
# 
# High freq. dielectric constant tensor:
#      x y z
#    x 2.048480 0.000000 0.002150 
#    y 0.000000 2.063590 0.000000 
#    z 0.002150 0.000000 2.042420 
# 
# From -- ./inp_files/8592.got.cif
#   From: 2010.06.25/outbox.cif.g09.slc.cpg/sg13_5_cif.got.tgz:8592.got - 2010.06.28 04:50:58.
