data_PCOD8123141
_publ_section_title
;
Structure prediction by ZEFSAII (Michael W. Deem and Ramdas Pophale) SiO2 
 PCOD8123141
Probable space group: P 2/C
;
_chemical_formula_sum "Si O2"
_cell_formula_units_Z 18
_cell_length_a 11.598946
_cell_length_b 5.369023
_cell_length_c 18.417670
_cell_angle_alpha 90.000000
_cell_angle_beta 138.021638
_cell_angle_gamma 90.000000
_cell_volume 767.144453
_symmetry_space_group_name_H-M "P 2/C"
_symmetry_group_IT_number 13
_symmetry_cell_setting 'monoclinic'
loop_
_space_group_symop_operation_xyz
x,y,z
-x,y,1/2-z
-x,-y,-z
x,-y,1/2+z
loop_
_atom_site_type_symbol
_atom_site_label
_atom_site_fract_x
_atom_site_fract_y
_atom_site_fract_z
Si Si1 0.296299 0.904354 0.645493
Si Si2 0.000000 0.191628 0.250000
Si Si3 0.808792 0.400999 0.824083
Si Si4 0.126364 0.833273 0.416736
Si Si5 0.312283 0.442440 0.884716
O O1 0.500000 0.905038 0.750000
O O2 0.217968 0.652949 0.643175
O O3 0.251100 0.916622 0.539520
O O4 0.212771 0.153836 0.638075
O O5 0.178925 0.336073 0.333219
O O6 0.995925 0.041637 0.324703
O O7 0.674336 0.379534 0.694492
O O8 0.005481 0.399465 0.885208
O O9 0.244100 0.783010 0.401588
O O10 0.500000 0.500000 0.000000
#
# Coordination Sequence:
#
# PCOD8123141 Si02
#       5
#     4   2   4   4   4
#     4  12  29  47  75 111 154 201 261 316 389 460
#     4  12  24  48  76 108 156 194 264 308 396 444
#     4  12  25  50  72 113 149 205 253 318 391 455
#     4  12  26  47  74 109 149 206 253 319 384 466
#     4  12  27  46  79 111 156 201 262 321 382 464
#
# _framework density 23.463640000000002
#
# number of rings (size 3 to 8) (size 9 to 14) (size 15 to 20)
#    0.000    0.000    4.444    4.667    6.222    0.889 
#    0.000    0.000    0.000    0.000    0.000    0.000 
#    0.000    0.000    0.000    0.000    0.000    0.000 
#
# Total GULP energy -223182.119148 kJ/mol
# GULP energy per Si atom -12399.006619 kJ/mol
# Density = 2.341024 g / cm^3
# Si number density = 23.463640 Si / 1000 Ang^3
#
#
#
# Elastic Constant Matrix: (Units=GPa)
#
#
# Indices 1 2 3 4 5 6 
#
# 1 72.6941 41.8634 40.7085 0.0000 -18.6459 0.0000
# 2 41.8634 128.3182 35.2360 0.0000 -16.3116 0.0000
# 3 40.7085 35.2360 198.4119 0.0000 -22.4599 0.0000
# 4 0.0000 0.0000 0.0000 11.1771 0.0000 -4.0343
# 5 -18.6459 -16.3116 -22.4599 0.0000 64.9048 0.0000
# 6 0.0000 0.0000 0.0000 -4.0343 0.0000 21.2352
#
#
#
# Elastic Compliance Matrix: (Units=1/GPa)
#
#
# Indices 1 2 3 4 5 6 
#
# 1 0.018977 -0.005054 -0.002625 0.000000 0.003273 0.000000
# 2 -0.005054 0.009705 -0.000598 0.000000 0.000780 0.000000
# 3 -0.002625 -0.000598 0.005810 0.000000 0.001106 0.000000
# 4 0.000000 0.000000 0.000000 0.096056 0.000000 0.018249
# 5 0.003273 0.000780 0.001106 0.000000 0.016926 0.000000
# 6 0.000000 0.000000 0.000000 0.018249 0.000000 0.050559
#
#
# Mechanical properties :
#
#
# Convention : Reuss Voigt Hill
#
# Bulk Modulus (GPa) = 55.75208 70.55999 63.15603
# Shear Modulus (GPa) = 22.66884 38.23783 30.45334
#
# Velocity S-wave (km/s) = 3.11163 4.04129 3.60654
# Velocity P-wave (km/s) = 6.05989 7.20509 6.65716
#
# Compressibility (1/GPa) = 0.01793655
#
# Stress axis : x y z
#
# Youngs Moduli (GPa) = 52.69664 103.03470 172.11316
#
# Poissons Ratio (x) = 0.52074 0.45187
# Poissons Ratio (y) = 0.26633 0.10298
# Poissons Ratio (z) = 0.13835 0.06165
#
# Static dielectric constant tensor:
#      x y z
#    x 4.284090 0.000000 -0.130130 
#    y 0.000000 4.382470 0.000000 
#    z -0.130130 0.000000 4.340520 
# 
# 
# High freq. dielectric constant tensor:
#      x y z
#    x 1.935430 0.000000 -0.014770 
#    y 0.000000 1.931180 0.000000 
#    z -0.014770 0.000000 1.950540 
# 
# From -- ./inp_files/76976.got.cif
#   From: 2010.06.25/outbox.cif.g09.slc.cpg/sg13_39_cif.got.tgz:76976.got - 2010.06.28 04:50:58.
