data_PCOD8123216
_publ_section_title
;
Structure prediction by ZEFSAII (Michael W. Deem and Ramdas Pophale) SiO2 
 PCOD8123216
Probable space group: P 2/C
;
_chemical_formula_sum "Si O2"
_cell_formula_units_Z 32
_cell_length_a 9.419067
_cell_length_b 20.687691
_cell_length_c 21.229209
_cell_angle_alpha 90.000000
_cell_angle_beta 152.543439
_cell_angle_gamma 90.000000
_cell_volume 1907.331701
_symmetry_space_group_name_H-M "P 2/C"
_symmetry_group_IT_number 13
_symmetry_cell_setting 'monoclinic'
loop_
_space_group_symop_operation_xyz
x,y,z
-x,y,1/2-z
-x,-y,-z
x,-y,1/2+z
loop_
_atom_site_type_symbol
_atom_site_label
_atom_site_fract_x
_atom_site_fract_y
_atom_site_fract_z
Si Si1 0.015348 0.184067 0.087483
Si Si2 0.484018 0.302416 0.412813
Si Si3 0.526675 0.555211 0.597946
Si Si4 0.832709 0.302414 0.087165
Si Si5 0.480114 0.060387 0.407734
Si Si6 0.334601 0.815933 0.587496
Si Si7 0.134953 0.555213 0.902083
Si Si8 0.849159 0.939615 0.592257
O O1 0.819084 0.247930 0.027737
O O2 0.833714 0.120891 0.039075
O O3 0.341135 0.187286 0.249992
O O4 0.058198 0.181190 0.029099
O O5 0.628155 0.373636 0.457169
O O6 0.441459 0.289485 0.470725
O O7 0.708104 0.247935 0.472239
O O8 0.152787 0.299705 0.249989
O O9 0.703546 0.551702 0.601774
O O10 0.266376 0.499997 0.500018
O O11 0.769836 0.543505 0.750017
O O12 0.799394 0.373633 0.042796
O O13 0.677387 0.120893 0.460911
O O14 0.354603 0.078132 0.427301
O O15 0.197958 0.043797 0.249995
O O16 0.709610 0.000001 0.499995
#
# Coordination Sequence:
#
# PCOD8123216 Si02
#       8
#     4   4   4   4   4   4   4   4
#     4   9  16  25  39  60  83 106 135 170 202 233
#     4   8  13  22  37  56  77 102 133 168 203 237
#     4   8  13  21  35  56  79 101 127 161 199 236
#     4   8  13  22  37  56  77 102 133 168 203 237
#     4   9  17  29  45  64  85 108 133 163 200 240
#     4   9  16  25  39  60  83 106 135 170 202 233
#     4   8  13  21  35  56  79 101 127 161 199 236
#     4   9  17  29  45  64  85 108 133 163 200 240
#
# _framework density 16.777365
#
# number of rings (size 3 to 8) (size 9 to 14) (size 15 to 20)
#    0.000    3.500    0.000    2.250    0.000    3.500 
#    0.000    0.000    0.000    2.250    0.000    7.000 
#    0.000    0.000    0.000    0.000    0.000    0.000 
#
# Total GULP energy -396607.026396 kJ/mol
# GULP energy per Si atom -12393.969575 kJ/mol
# Density = 1.673918 g / cm^3
# Si number density = 16.777365 Si / 1000 Ang^3
#
#
#
# Elastic Constant Matrix: (Units=GPa)
#
#
# Indices 1 2 3 4 5 6 
#
# 1 80.9238 78.1077 21.8994 0.0000 0.4093 0.0000
# 2 78.1077 187.5312 49.3485 0.0000 0.2718 0.0000
# 3 21.8994 49.3485 35.3858 0.0000 0.0209 0.0000
# 4 0.0000 0.0000 0.0000 24.8731 0.0000 -0.1649
# 5 0.4093 0.2718 0.0209 0.0000 7.8275 0.0000
# 6 0.0000 0.0000 0.0000 -0.1649 0.0000 7.1699
#
#
#
# Elastic Compliance Matrix: (Units=1/GPa)
#
#
# Indices 1 2 3 4 5 6 
#
# 1 0.020704 -0.008295 -0.001245 0.000000 -0.000791 0.000000
# 2 -0.008295 0.011747 -0.011249 0.000000 0.000056 0.000000
# 3 -0.001245 -0.011249 0.044719 0.000000 0.000337 0.000000
# 4 0.000000 0.000000 0.000000 0.040210 0.000000 0.000925
# 5 -0.000791 0.000056 0.000337 0.000000 0.127794 0.000000
# 6 0.000000 0.000000 0.000000 0.000925 0.000000 0.139493
#
#
# Mechanical properties :
#
#
# Convention : Reuss Voigt Hill
#
# Bulk Modulus (GPa) = 28.09650 66.95023 47.52337
# Shear Modulus (GPa) = 11.41266 18.27311 14.84288
#
# Velocity S-wave (km/s) = 2.61097 3.30381 2.97761
# Velocity P-wave (km/s) = 5.08651 7.38548 6.34105
#
# Compressibility (1/GPa) = 0.03559162
#
# Stress axis : x y z
#
# Youngs Moduli (GPa) = 48.29930 85.12547 22.36191
#
# Poissons Ratio (x) = 0.70608 0.02785
# Poissons Ratio (y) = 0.40062 0.25156
# Poissons Ratio (z) = 0.06015 0.95762
#
# Static dielectric constant tensor:
#      x y z
#    x 3.065740 0.000000 0.002800 
#    y 0.000000 3.475810 0.000000 
#    z 0.002800 0.000000 2.769530 
# 
# 
# High freq. dielectric constant tensor:
#      x y z
#    x 1.619840 0.000000 0.000320 
#    y 0.000000 1.663780 0.000000 
#    z 0.000320 0.000000 1.586150 
# 
# From -- ./inp_files/42423.got.cif
#   From: 2010.06.25/outbox.cif.g09.slc.cpg/sg13_22_cif.got.tgz:42423.got - 2010.06.28 04:50:58.
