data_PCOD8123449
_publ_section_title
;
Structure prediction by ZEFSAII (Michael W. Deem and Ramdas Pophale) SiO2 
 PCOD8123449
Probable space group: P 21/C
;
_chemical_formula_sum "Si O2"
_cell_formula_units_Z 32
_cell_length_a 13.785619
_cell_length_b 8.263136
_cell_length_c 21.310708
_cell_angle_alpha 90.000000
_cell_angle_beta 140.473271
_cell_angle_gamma 90.000000
_cell_volume 1544.988444
_symmetry_space_group_name_H-M "P 21/C"
_symmetry_group_IT_number 14
_symmetry_cell_setting 'monoclinic'
loop_
_space_group_symop_operation_xyz
x,y,z
-x,1/2+y,1/2-z
-x,-y,-z
x,1/2-y,1/2+z
loop_
_atom_site_type_symbol
_atom_site_label
_atom_site_fract_x
_atom_site_fract_y
_atom_site_fract_z
Si Si1 0.894290 0.224670 0.823803
Si Si2 0.764273 0.881600 0.758454
Si Si3 0.231208 0.101173 0.991403
Si Si4 0.776218 0.742650 0.638197
Si Si5 0.100869 0.759657 0.935349
Si Si6 0.006167 0.004354 0.295563
Si Si7 0.405608 0.442953 0.702682
Si Si8 0.719359 0.200627 0.355433
O O1 0.897724 0.359887 0.771924
O O2 0.822603 0.319298 0.846191
O O3 0.067283 0.175966 0.926133
O O4 0.787424 0.071399 0.752477
O O5 0.692093 0.772312 0.663668
O O6 0.655231 0.856580 0.764029
O O7 0.927716 0.813253 0.860341
O O8 0.311014 0.196816 0.970627
O O9 0.208250 0.909224 0.966710
O O10 0.336187 0.134844 0.104377
O O11 0.897209 0.596814 0.696394
O O12 0.866827 0.911152 0.683065
O O13 0.103032 0.613855 0.887731
O O14 0.165761 0.680260 0.030161
O O15 0.364052 0.628619 0.684675
O O16 0.588291 0.434628 0.791777
#
# Coordination Sequence:
#
# PCOD8123449 Si02
#       8
#     4   4   4   4   4   4   4   4
#     4   9  18  32  53  79 106 134 172 216 259 305
#     4   9  18  34  54  77 106 139 174 211 259 312
#     4   9  18  34  54  77 106 139 174 211 259 312
#     4  10  18  30  52  78 108 138 170 210 260 308
#     4   9  18  32  53  79 106 134 172 216 259 305
#     4  10  18  29  50  79 106 132 168 218 258 304
#     4  10  21  35  54  76 104 141 177 216 260 308
#     4  10  21  36  54  76 106 140 175 216 262 308
#
# _framework density 20.712129000000001
#
# number of rings (size 3 to 8) (size 9 to 14) (size 15 to 20)
#    0.000    2.500    0.000    3.750    0.000    7.500 
#    0.000    0.000    0.000   19.500    0.000    0.000 
#    0.000    0.000    0.000    0.000    0.000    0.000 
#
# Total GULP energy -396445.556936 kJ/mol
# GULP energy per Si atom -12388.923654 kJ/mol
# Density = 2.066499 g / cm^3
# Si number density = 20.712129 Si / 1000 Ang^3
#
#
#
# Elastic Constant Matrix: (Units=GPa)
#
#
# Indices 1 2 3 4 5 6 
#
# 1 59.2498 11.3821 51.9458 0.0000 -20.2324 0.0000
# 2 11.3821 53.8994 13.5784 0.0000 -6.4814 0.0000
# 3 51.9458 13.5784 45.2330 0.0000 -17.7907 0.0000
# 4 0.0000 0.0000 0.0000 24.4590 0.0000 -3.5807
# 5 -20.2324 -6.4814 -17.7907 0.0000 29.5240 0.0000
# 6 0.0000 0.0000 0.0000 -3.5807 0.0000 24.4469
#
#
#
# Elastic Compliance Matrix: (Units=1/GPa)
#
#
# Indices 1 2 3 4 5 6 
#
# 1 -1.313287 -0.110871 1.543813 0.000000 0.005961 0.000000
# 2 -0.110871 0.010734 0.124700 0.000000 0.001521 0.000000
# 3 1.543813 0.124700 -1.784249 0.000000 0.010167 0.000000
# 4 0.000000 0.000000 0.000000 0.041781 0.000000 0.006120
# 5 0.005961 0.001521 0.010167 0.000000 0.044416 0.000000
# 6 0.000000 0.000000 0.000000 0.006120 0.000000 0.041801
#
#
# Mechanical properties :
#
#
# Convention : Reuss Voigt Hill
#
# Bulk Modulus (GPa) = 35.10954 34.68829 34.89892
# Shear Modulus (GPa) = -0.82446 21.11770 10.14662
#
# Velocity S-wave (km/s) = -0.63160 3.19655 2.21574
# Velocity P-wave (km/s) = 4.05661 5.51435 4.84067
#
# Compressibility (1/GPa) = 0.02848229
#
# Stress axis : x y z
#
# Youngs Moduli (GPa) = -0.76145 93.15956 -0.56046
#
# Poissons Ratio (x) = 10.32867 0.86524
# Poissons Ratio (y) = -0.08442 0.06989
# Poissons Ratio (z) = 1.17553 -11.61704
#
# Static dielectric constant tensor:
#      x y z
#    x 3.744950 0.000000 -0.363410 
#    y 0.000000 4.025000 0.000000 
#    z -0.363410 0.000000 3.689080 
# 
# 
# High freq. dielectric constant tensor:
#      x y z
#    x 1.797130 0.000000 -0.034580 
#    y 0.000000 1.815560 0.000000 
#    z -0.034580 0.000000 1.789690 
# 
# From -- ./inp_files/68233.got.cif
#   From: 2010.03.12/outbox.cif.g09.slc.cpg/sg14_35_cif.got.tgz:68233.got - 2010.03.31 13:35:05.
