data_PCOD8123716
_publ_section_title
;
Structure prediction by ZEFSAII (Michael W. Deem and Ramdas Pophale) SiO2 
 PCOD8123716
Probable space group: P 21/C
;
_chemical_formula_sum "Si O2"
_cell_formula_units_Z 32
_cell_length_a 18.259098
_cell_length_b 11.482533
_cell_length_c 15.988703
_cell_angle_alpha 90.000000
_cell_angle_beta 151.490450
_cell_angle_gamma 90.000000
_cell_volume 1600.023841
_symmetry_space_group_name_H-M "P 21/C"
_symmetry_group_IT_number 14
_symmetry_cell_setting 'monoclinic'
loop_
_space_group_symop_operation_xyz
x,y,z
-x,1/2+y,1/2-z
-x,-y,-z
x,1/2-y,1/2+z
loop_
_atom_site_type_symbol
_atom_site_label
_atom_site_fract_x
_atom_site_fract_y
_atom_site_fract_z
Si Si1 0.933712 0.394760 0.849414
Si Si2 0.275889 0.801460 0.541704
Si Si3 0.812449 0.809772 0.702485
Si Si4 0.204127 0.556684 0.448794
Si Si5 0.819542 0.711260 0.400120
Si Si6 0.631315 0.823519 0.876192
Si Si7 0.938959 0.050458 0.782448
Si Si8 0.920173 0.139567 0.513278
O O1 0.810082 0.374949 0.653408
O O2 0.962658 0.532802 0.877675
O O3 0.854675 0.343763 0.853951
O O4 0.095759 0.332132 0.996607
O O5 0.256311 0.667715 0.555787
O O6 0.449817 0.819932 0.691828
O O7 0.222899 0.878970 0.568310
O O8 0.166994 0.844072 0.356311
O O9 0.751357 0.789017 0.736728
O O10 0.697122 0.760138 0.515671
O O11 0.832735 0.948687 0.713097
O O12 0.977598 0.749505 0.854339
O O13 0.331079 0.457861 0.568555
O O14 0.040099 0.501936 0.308220
O O15 0.689713 0.706472 0.341314
O O16 0.940756 0.603704 0.529674
#
# Coordination Sequence:
#
# PCOD8123716 Si02
#       8
#     4   4   4   4   4   4   4   4
#     4  10  18  35  64  89 114 145 214 269 297 348
#     4  12  24  40  61  92 126 170 201 252 320 377
#     4  11  21  41  64  88 123 163 209 259 314 362
#     4  11  21  41  62  86 121 160 211 254 303 369
#     4  10  22  40  63  92 120 163 209 265 305 363
#     4  11  26  41  59  89 133 168 201 245 324 389
#     4  11  21  37  66  89 116 158 217 257 301 357
#     4  10  20  35  61  91 114 154 208 263 305 350
#
# _framework density 19.999701999999999
#
# number of rings (size 3 to 8) (size 9 to 14) (size 15 to 20)
#    0.000    1.250    5.000    1.875    1.750    0.000 
#    2.250    1.250    0.000    0.000    0.000    0.000 
#    0.000    0.000    0.000    0.000    0.000    0.000 
#
# Total GULP energy -396551.601250 kJ/mol
# GULP energy per Si atom -12392.237539 kJ/mol
# Density = 1.995418 g / cm^3
# Si number density = 19.999702 Si / 1000 Ang^3
#
#
#
# Elastic Constant Matrix: (Units=GPa)
#
#
# Indices 1 2 3 4 5 6 
#
# 1 117.9974 18.7339 50.0298 0.0000 6.2574 0.0000
# 2 18.7339 104.1220 20.4431 0.0000 7.4490 0.0000
# 3 50.0298 20.4431 70.4790 0.0000 9.0971 0.0000
# 4 0.0000 0.0000 0.0000 19.8514 0.0000 -3.3564
# 5 6.2574 7.4490 9.0971 0.0000 25.3926 0.0000
# 6 0.0000 0.0000 0.0000 -3.3564 0.0000 25.1683
#
#
#
# Elastic Compliance Matrix: (Units=1/GPa)
#
#
# Indices 1 2 3 4 5 6 
#
# 1 0.012151 -0.000533 -0.008498 0.000000 0.000206 0.000000
# 2 -0.000533 0.010308 -0.002347 0.000000 -0.002052 0.000000
# 3 -0.008498 -0.002347 0.021538 0.000000 -0.004934 0.000000
# 4 0.000000 0.000000 0.000000 0.051536 0.000000 0.006873
# 5 0.000206 -0.002052 -0.004934 0.000000 0.041700 0.000000
# 6 0.000000 0.000000 0.000000 0.006873 0.000000 0.040649
#
#
# Mechanical properties :
#
#
# Convention : Reuss Voigt Hill
#
# Bulk Modulus (GPa) = 47.07517 52.33465 49.70491
# Shear Modulus (GPa) = 24.07105 27.64189 25.85647
#
# Velocity S-wave (km/s) = 3.47301 3.72171 3.59951
# Velocity P-wave (km/s) = 6.29853 6.68526 6.49478
#
# Compressibility (1/GPa) = 0.02124262
#
# Stress axis : x y z
#
# Youngs Moduli (GPa) = 82.29508 97.01659 46.42870
#
# Poissons Ratio (x) = 0.05167 0.39454
# Poissons Ratio (y) = 0.04383 0.10896
# Poissons Ratio (z) = 0.69933 0.22769
#
# Static dielectric constant tensor:
#      x y z
#    x 3.720750 0.000000 -0.393020 
#    y 0.000000 3.883970 0.000000 
#    z -0.393020 0.000000 3.407180 
# 
# 
# High freq. dielectric constant tensor:
#      x y z
#    x 1.775030 0.000000 -0.024840 
#    y 0.000000 1.799910 0.000000 
#    z -0.024840 0.000000 1.747460 
# 
# From -- ./inp_files/49041.got.cif
#   From: 2010.03.12/outbox.cif.g09.slc.cpg/sg14_25_cif.got.tgz:49041.got - 2010.03.31 13:35:05.
