data_PCOD8123289
_publ_section_title
;
Structure prediction by ZEFSAII (Michael W. Deem and Ramdas Pophale) SiO2 
 PCOD8123289
Probable space group: P 21/C
;
_chemical_formula_sum "Si O2"
_cell_formula_units_Z 32
_cell_length_a 12.730979
_cell_length_b 5.012459
_cell_length_c 28.708078
_cell_angle_alpha 90.000000
_cell_angle_beta 86.016064
_cell_angle_gamma 90.000000
_cell_volume 1827.536417
_symmetry_space_group_name_H-M "P 21/C"
_symmetry_group_IT_number 14
_symmetry_cell_setting 'monoclinic'
loop_
_space_group_symop_operation_xyz
x,y,z
-x,1/2+y,1/2-z
-x,-y,-z
x,1/2-y,1/2+z
loop_
_atom_site_type_symbol
_atom_site_label
_atom_site_fract_x
_atom_site_fract_y
_atom_site_fract_z
Si Si1 0.034855 0.929980 0.774215
Si Si2 0.846129 0.822209 0.833355
Si Si3 0.464163 0.809711 0.226192
Si Si4 0.498507 0.005491 0.877575
Si Si5 0.440822 0.500054 0.930572
Si Si6 0.720398 0.504832 0.421215
Si Si7 0.770785 0.179110 0.281630
Si Si8 0.663176 0.005426 0.473831
O O1 0.974378 0.836054 0.823322
O O2 0.988206 0.741443 0.734224
O O3 0.161340 0.885279 0.767638
O O4 0.819621 0.909269 0.886704
O O5 0.799665 0.530395 0.822215
O O6 0.794894 0.024038 0.798061
O O7 0.539495 0.564486 0.239157
O O8 0.351145 0.665941 0.227097
O O9 0.504761 0.929361 0.176496
O O10 0.445521 0.721459 0.889984
O O11 0.619258 0.007410 0.890709
O O12 0.425246 0.216611 0.906610
O O13 0.548660 0.484130 0.955236
O O14 0.346453 0.554486 0.970248
O O15 0.737846 0.223713 0.446598
O O16 0.710509 0.715290 0.463269
#
# Coordination Sequence:
#
# PCOD8123289 Si02
#       8
#     4   4   4   4   4   4   4   4
#     4   8  16  28  44  65  83 110 148 180 217 267
#     4  10  17  28  47  67  88 117 148 179 216 274
#     4  12  24  34  46  65  87 118 161 203 228 248
#     4  10  19  30  44  58  79 120 150 185 220 254
#     4   9  17  29  43  57  83 113 150 176 210 264
#     4  10  17  25  43  64  89 115 141 175 213 261
#     4  10  19  32  46  60  87 118 152 190 225 259
#     4   9  17  26  39  64  86 112 143 175 208 257
#
# _framework density 17.509910999999999
#
# number of rings (size 3 to 8) (size 9 to 14) (size 15 to 20)
#    0.000    2.250    1.250    3.000    3.500    3.000 
#    0.000    0.000    0.000    0.000    0.000    0.000 
#    0.000    0.000    0.000   22.500    0.000    0.000 
#
# Total GULP energy -396545.527217 kJ/mol
# GULP energy per Si atom -12392.047726 kJ/mol
# Density = 1.747006 g / cm^3
# Si number density = 17.509911 Si / 1000 Ang^3
#
#
#
# Elastic Constant Matrix: (Units=GPa)
#
#
# Indices 1 2 3 4 5 6 
#
# 1 28.6263 8.1646 36.7271 0.0000 -13.3101 0.0000
# 2 8.1646 93.0903 26.2809 0.0000 -0.6550 0.0000
# 3 36.7271 26.2809 106.6398 0.0000 -28.6534 0.0000
# 4 0.0000 0.0000 0.0000 17.9961 0.0000 -2.6504
# 5 -13.3101 -0.6550 -28.6534 0.0000 15.2502 0.0000
# 6 0.0000 0.0000 0.0000 -2.6504 0.0000 14.8835
#
#
#
# Elastic Compliance Matrix: (Units=1/GPa)
#
#
# Indices 1 2 3 4 5 6 
#
# 1 0.069649 -0.001745 -0.014630 0.000000 0.033225 0.000000
# 2 -0.001745 0.012362 -0.005478 0.000000 -0.011283 0.000000
# 3 -0.014630 -0.005478 0.024784 0.000000 0.033562 0.000000
# 4 0.000000 0.000000 0.000000 0.057064 0.000000 0.010162
# 5 0.033225 -0.011283 0.033562 0.000000 0.157145 0.000000
# 6 0.000000 0.000000 0.000000 0.010162 0.000000 0.068998
#
#
# Mechanical properties :
#
#
# Convention : Reuss Voigt Hill
#
# Bulk Modulus (GPa) = 15.85022 41.18907 28.51964
# Shear Modulus (GPa) = 10.99537 20.10487 15.55012
#
# Velocity S-wave (km/s) = 2.50861 3.39219 2.98329
# Velocity P-wave (km/s) = 4.17883 6.23834 5.30941
#
# Compressibility (1/GPa) = 0.06309062
#
# Stress axis : x y z
#
# Youngs Moduli (GPa) = 14.35776 80.89132 40.34921
#
# Poissons Ratio (x) = 0.14112 0.59030
# Poissons Ratio (y) = 0.02505 0.22101
# Poissons Ratio (z) = 0.21005 0.44308
#
# Static dielectric constant tensor:
#      x y z
#    x 2.912730 0.000000 -0.441980 
#    y 0.000000 3.527690 0.000000 
#    z -0.441980 0.000000 3.288490 
# 
# 
# High freq. dielectric constant tensor:
#      x y z
#    x 1.601850 0.000000 -0.048010 
#    y 0.000000 1.705520 0.000000 
#    z -0.048010 0.000000 1.666370 
# 
# From -- ./inp_files/77319.got.cif
#   From: 2010.03.12/outbox.cif.g09.slc.cpg/sg14_39_cif.got.tgz:77319.got - 2010.03.31 13:35:05.
