data_PCOD8123922
_publ_section_title
;
Structure prediction by ZEFSAII (Michael W. Deem and Ramdas Pophale) SiO2 
 PCOD8123922
Probable space group: P 21/C
;
_chemical_formula_sum "Si O2"
_cell_formula_units_Z 28
_cell_length_a 13.480292
_cell_length_b 5.121792
_cell_length_c 24.226930
_cell_angle_alpha 90.000000
_cell_angle_beta 71.157608
_cell_angle_gamma 90.000000
_cell_volume 1583.066652
_symmetry_space_group_name_H-M "P 21/C"
_symmetry_group_IT_number 14
_symmetry_cell_setting 'monoclinic'
loop_
_space_group_symop_operation_xyz
x,y,z
-x,1/2+y,1/2-z
-x,-y,-z
x,1/2-y,1/2+z
loop_
_atom_site_type_symbol
_atom_site_label
_atom_site_fract_x
_atom_site_fract_y
_atom_site_fract_z
Si Si1 0.843713 0.684996 0.754221
Si Si2 0.361900 0.246099 0.024195
Si Si3 0.575351 0.248592 0.546975
Si Si4 0.427369 0.814429 0.325036
Si Si5 0.052171 0.891113 0.674641
Si Si6 0.637603 0.817775 0.224819
Si Si7 0.160449 0.380958 0.630721
O O1 0.898211 0.426929 0.772054
O O2 0.748326 0.613369 0.732054
O O3 0.801023 0.865628 0.812220
O O4 0.929426 0.835760 0.701995
O O5 0.453390 0.237983 0.053051
O O6 0.254246 0.174242 0.072682
O O7 0.359556 0.537478 0.000211
O O8 0.378091 0.035791 0.972415
O O9 0.585698 0.156731 0.607643
O O10 0.549718 0.836158 0.287957
O O11 0.382673 0.533255 0.317701
O O12 0.361856 0.036782 0.304848
O O13 0.110846 0.664252 0.629922
O O14 0.070747 0.159241 0.637278
#
# Coordination Sequence:
#
# PCOD8123922 Si02
#       7
#     4   4   4   4   4   4   4
#     4  10  20  34  52  81 110 141 163 224 258 328
#     4  10  20  33  54  78  99 143 173 210 283 299
#     4  10  20  35  52  74 108 132 180 225 246 319
#     4  10  21  38  48  82 103 145 176 217 241 324
#     4  10  20  31  52  77 116 127 173 211 276 306
#     4  10  22  33  57  73 110 141 181 199 268 308
#     4  10  19  32  49  79 108 135 163 214 265 324
#
# _framework density 17.687190999999999
#
# number of rings (size 3 to 8) (size 9 to 14) (size 15 to 20)
#    0.857    1.143    1.429    2.571    2.000    0.000 
#    2.571    0.000    0.000    0.000    0.000   20.000 
#    0.000    0.000    0.000    0.000    0.000    0.000 
#
# Total GULP energy -347066.157609 kJ/mol
# GULP energy per Si atom -12395.219915 kJ/mol
# Density = 1.764693 g / cm^3
# Si number density = 17.687191 Si / 1000 Ang^3
#
#
#
# Elastic Constant Matrix: (Units=GPa)
#
#
# Indices 1 2 3 4 5 6 
#
# 1 87.4322 13.6326 25.1339 0.0000 -8.5414 0.0000
# 2 13.6326 91.4031 7.2336 0.0000 -6.6724 0.0000
# 3 25.1339 7.2336 71.7907 0.0000 -9.2219 0.0000
# 4 0.0000 0.0000 0.0000 18.6249 0.0000 -4.2548
# 5 -8.5414 -6.6724 -9.2219 0.0000 17.4379 0.0000
# 6 0.0000 0.0000 0.0000 -4.2548 0.0000 14.2975
#
#
#
# Elastic Compliance Matrix: (Units=1/GPa)
#
#
# Indices 1 2 3 4 5 6 
#
# 1 0.013169 -0.001370 -0.003982 0.000000 0.003820 0.000000
# 2 -0.001370 0.011424 -0.000210 0.000000 0.003589 0.000000
# 3 -0.003982 -0.000210 0.016183 0.000000 0.006528 0.000000
# 4 0.000000 0.000000 0.000000 0.057608 0.000000 0.017143
# 5 0.003820 0.003589 0.006528 0.000000 0.064043 0.000000
# 6 0.000000 0.000000 0.000000 0.017143 0.000000 0.075044
#
#
# Mechanical properties :
#
#
# Convention : Reuss Voigt Hill
#
# Bulk Modulus (GPa) = 33.72536 38.06956 35.89746
# Shear Modulus (GPa) = 19.34400 23.71379 21.52889
#
# Velocity S-wave (km/s) = 3.31066 3.66557 3.49263
# Velocity P-wave (km/s) = 5.80715 6.28377 6.05016
#
# Compressibility (1/GPa) = 0.02965128
#
# Stress axis : x y z
#
# Youngs Moduli (GPa) = 75.93662 87.53865 61.79310
#
# Poissons Ratio (x) = 0.11994 0.24604
# Poissons Ratio (y) = 0.10404 0.01300
# Poissons Ratio (z) = 0.30235 0.01842
#
# Static dielectric constant tensor:
#      x y z
#    x 2.933080 0.000000 -0.133810 
#    y 0.000000 3.444710 0.000000 
#    z -0.133810 0.000000 3.020820 
# 
# 
# High freq. dielectric constant tensor:
#      x y z
#    x 1.654370 0.000000 -0.020660 
#    y 0.000000 1.701890 0.000000 
#    z -0.020660 0.000000 1.667130 
# 
# From -- ./inp_files/66463.got.cif
#   From: 2010.03.12/outbox.cif.g09.slc.cpg/sg14_34_cif.got.tgz:66463.got - 2010.03.31 13:35:05.
