data_PCOD8123871
_publ_section_title
;
Structure prediction by ZEFSAII (Michael W. Deem and Ramdas Pophale) SiO2 
 PCOD8123871
Probable space group: P 21/C
;
_chemical_formula_sum "Si O2"
_cell_formula_units_Z 32
_cell_length_a 14.650571
_cell_length_b 9.396520
_cell_length_c 12.189990
_cell_angle_alpha 90.000000
_cell_angle_beta 95.877584
_cell_angle_gamma 90.000000
_cell_volume 1669.305469
_symmetry_space_group_name_H-M "P 21/C"
_symmetry_group_IT_number 14
_symmetry_cell_setting 'monoclinic'
loop_
_space_group_symop_operation_xyz
x,y,z
-x,1/2+y,1/2-z
-x,-y,-z
x,1/2-y,1/2+z
loop_
_atom_site_type_symbol
_atom_site_label
_atom_site_fract_x
_atom_site_fract_y
_atom_site_fract_z
Si Si1 0.926868 0.353742 0.585853
Si Si2 0.671555 0.594752 0.038151
Si Si3 0.256432 0.910950 0.848865
Si Si4 0.886679 0.519133 0.370658
Si Si5 0.705306 0.898904 0.955207
Si Si6 0.570179 0.646869 0.245025
Si Si7 0.395339 0.468995 0.205180
Si Si8 0.189048 0.883631 0.357174
O O1 0.853017 0.445461 0.650006
O O2 0.923054 0.398770 0.458272
O O3 0.896465 0.187601 0.587560
O O4 0.028642 0.375604 0.646848
O O5 0.696938 0.758368 0.026645
O O6 0.616572 0.535623 0.926914
O O7 0.609091 0.579947 0.138010
O O8 0.765304 0.506706 0.064937
O O9 0.266325 0.738942 0.841983
O O10 0.297918 0.988991 0.747848
O O11 0.306967 0.966120 0.965817
O O12 0.804575 0.610788 0.411166
O O13 0.850372 0.443228 0.259311
O O14 0.628235 0.912824 0.853517
O O15 0.466882 0.591314 0.246874
O O16 0.570599 0.817828 0.243842
#
# Coordination Sequence:
#
# PCOD8123871 Si02
#       8
#     4   4   4   4   4   4   4   4
#     4   8  21  38  62  91 122 160 208 248 309 368
#     4  11  23  42  61  94 126 161 209 261 307 373
#     4   9  21  41  62  93 121 167 205 255 313 367
#     4  10  18  42  63  89 128 167 198 255 314 366
#     4  10  21  42  65  87 129 170 200 254 317 375
#     4  11  24  42  62  92 123 166 210 254 320 366
#     4  11  25  40  64  90 126 162 207 261 311 378
#     4  10  22  37  67  92 120 163 208 254 305 365
#
# _framework density 19.169647000000001
#
# number of rings (size 3 to 8) (size 9 to 14) (size 15 to 20)
#    0.750    1.250    2.500    0.375    3.500    1.500 
#   11.250    0.625    0.000    0.000    0.000    0.000 
#    0.000    0.000    0.000    0.000    0.000    0.000 
#
# Total GULP energy -396671.035345 kJ/mol
# GULP energy per Si atom -12395.969855 kJ/mol
# Density = 1.912602 g / cm^3
# Si number density = 19.169647 Si / 1000 Ang^3
#
#
#
# Elastic Constant Matrix: (Units=GPa)
#
#
# Indices 1 2 3 4 5 6 
#
# 1 93.0538 36.6167 40.2184 0.0000 8.8574 0.0000
# 2 36.6167 50.9601 43.0985 0.0000 23.3447 0.0000
# 3 40.2184 43.0985 89.5119 0.0000 10.9993 0.0000
# 4 0.0000 0.0000 0.0000 9.3266 0.0000 2.9708
# 5 8.8574 23.3447 10.9993 0.0000 25.1941 0.0000
# 6 0.0000 0.0000 0.0000 2.9708 0.0000 36.4410
#
#
#
# Elastic Compliance Matrix: (Units=1/GPa)
#
#
# Indices 1 2 3 4 5 6 
#
# 1 0.016129 -0.013928 -0.001511 0.000000 0.007895 0.000000
# 2 -0.013928 0.072465 -0.022173 0.000000 -0.052568 0.000000
# 3 -0.001511 -0.022173 0.021067 0.000000 0.011879 0.000000
# 4 0.000000 0.000000 0.000000 0.110079 0.000000 -0.008974
# 5 0.007895 -0.052568 0.011879 0.000000 0.080439 0.000000
# 6 0.000000 0.000000 0.000000 -0.008974 0.000000 0.028173
#
#
# Mechanical properties :
#
#
# Convention : Reuss Voigt Hill
#
# Bulk Modulus (GPa) = 29.03874 52.59921 40.81897
# Shear Modulus (GPa) = 12.04665 21.76517 16.90591
#
# Velocity S-wave (km/s) = 2.50956 3.37322 2.97292
# Velocity P-wave (km/s) = 4.85575 6.53222 5.75535
#
# Compressibility (1/GPa) = 0.03443676
#
# Stress axis : x y z
#
# Youngs Moduli (GPa) = 62.00184 13.79983 47.46820
#
# Poissons Ratio (x) = 0.19220 0.07171
# Poissons Ratio (y) = 0.86355 1.05251
# Poissons Ratio (z) = 0.09367 0.30598
#
# Static dielectric constant tensor:
#      x y z
#    x 3.517910 0.000000 -0.045040 
#    y 0.000000 3.436890 0.000000 
#    z -0.045040 0.000000 3.474500 
# 
# 
# High freq. dielectric constant tensor:
#      x y z
#    x 1.740020 0.000000 -0.000490 
#    y 0.000000 1.737480 0.000000 
#    z -0.000490 0.000000 1.748300 
# 
# From -- ./inp_files/31576.got.cif
#   From: 2010.03.12/outbox.cif.g09.slc.cpg/sg14_16_cif.got.tgz:31576.got - 2010.03.31 13:35:05.
