data_PCOD8123036
_publ_section_title
;
Structure prediction by ZEFSAII (Michael W. Deem and Ramdas Pophale) SiO2 
 PCOD8123036
Probable space group: P 2/C
;
_chemical_formula_sum "Si O2"
_cell_formula_units_Z 22
_cell_length_a 18.671621
_cell_length_b 7.552025
_cell_length_c 15.798248
_cell_angle_alpha 90.000000
_cell_angle_beta 27.952246
_cell_angle_gamma 90.000000
_cell_volume 1044.196446
_symmetry_space_group_name_H-M "P 2/C"
_symmetry_group_IT_number 13
_symmetry_cell_setting 'monoclinic'
loop_
_space_group_symop_operation_xyz
x,y,z
-x,y,1/2-z
-x,-y,-z
x,-y,1/2+z
loop_
_atom_site_type_symbol
_atom_site_label
_atom_site_fract_x
_atom_site_fract_y
_atom_site_fract_z
Si Si1 0.452237 0.989425 0.953045
Si Si2 0.238064 0.089182 0.935738
Si Si3 0.782993 0.677628 0.341234
Si Si4 0.052130 0.187748 0.983598
Si Si5 0.759260 0.714710 0.891742
Si Si6 0.000000 0.170732 0.750000
O O1 0.599615 0.988727 0.737678
O O2 0.359632 0.168101 0.034824
O O3 0.500000 0.000000 0.000000
O O4 0.349305 0.821820 0.035438
O O5 0.207371 0.181423 0.877586
O O6 0.234551 0.227503 0.016723
O O7 0.099211 0.950857 0.084585
O O8 0.903447 0.679418 0.138285
O O9 0.704582 0.487629 0.437691
O O10 0.880716 0.712505 0.323066
O O11 0.924170 0.269578 0.177183
O O12 0.000000 0.000000 0.000000
#
# Coordination Sequence:
#
# PCOD8123036 Si02
#       6
#     4   4   4   4   4   2
#     4  12  25  48  73  98 144 188 231 286 360 419
#     4  12  22  45  74  97 142 189 228 292 348 419
#     4  12  27  46  72 107 139 184 238 292 353 420
#     4  12  20  45  74 100 139 188 233 290 347 413
#     4  12  26  45  69 106 144 182 239 291 352 415
#     4  12  24  44  76  98 136 186 240 284 358 406
#
# _framework density 21.068830999999999
#
# number of rings (size 3 to 8) (size 9 to 14) (size 15 to 20)
#    0.000    0.000    9.091    1.091    2.545    0.727 
#    6.545    0.000    0.000    0.000    0.000    0.000 
#    0.000    0.000    0.000    0.000    0.000    0.000 
#
# Total GULP energy -272811.920529 kJ/mol
# GULP energy per Si atom -12400.541842 kJ/mol
# Density = 2.102088 g / cm^3
# Si number density = 21.068831 Si / 1000 Ang^3
#
#
#
# Elastic Constant Matrix: (Units=GPa)
#
#
# Indices 1 2 3 4 5 6 
#
# 1 159.4520 65.6814 21.1114 0.0000 -4.5442 0.0000
# 2 65.6814 161.1601 39.1612 0.0000 -8.4259 0.0000
# 3 21.1114 39.1612 119.7785 0.0000 -7.9851 0.0000
# 4 0.0000 0.0000 0.0000 16.9817 0.0000 7.3075
# 5 -4.5442 -8.4259 -7.9851 0.0000 38.2271 0.0000
# 6 0.0000 0.0000 0.0000 7.3075 0.0000 9.5690
#
#
#
# Elastic Compliance Matrix: (Units=1/GPa)
#
#
# Indices 1 2 3 4 5 6 
#
# 1 0.007551 -0.002985 -0.000344 0.000000 0.000168 0.000000
# 2 -0.002985 0.007962 -0.002012 0.000000 0.000980 0.000000
# 3 -0.000344 -0.002012 0.009162 0.000000 0.001430 0.000000
# 4 0.000000 0.000000 0.000000 0.087711 0.000000 -0.066982
# 5 0.000168 0.000980 0.001430 0.000000 0.026694 0.000000
# 6 0.000000 0.000000 0.000000 -0.066982 0.000000 0.155656
#
#
# Mechanical properties :
#
#
# Convention : Reuss Voigt Hill
#
# Bulk Modulus (GPa) = 71.45796 76.92208 74.19002
# Shear Modulus (GPa) = 16.12475 33.91798 25.02137
#
# Velocity S-wave (km/s) = 2.76947 4.01667 3.44990
# Velocity P-wave (km/s) = 6.64956 7.62238 7.15253
#
# Compressibility (1/GPa) = 0.01399424
#
# Stress axis : x y z
#
# Youngs Moduli (GPa) = 132.42408 125.60093 109.14278
#
# Poissons Ratio (x) = 0.37496 0.03752
# Poissons Ratio (y) = 0.39533 0.21955
# Poissons Ratio (z) = 0.04552 0.25265
#
# Static dielectric constant tensor:
#      x y z
#    x 4.074870 0.000000 0.099430 
#    y 0.000000 3.735430 0.000000 
#    z 0.099430 0.000000 4.109800 
# 
# 
# High freq. dielectric constant tensor:
#      x y z
#    x 1.849000 0.000000 0.004830 
#    y 0.000000 1.806330 0.000000 
#    z 0.004830 0.000000 1.836710 
# 
# From -- ./inp_files/46049.got.cif
#   From: 2010.06.25/outbox.cif.g09.slc.cpg/sg13_24_cif.got.tgz:46049.got - 2010.06.28 04:50:58.
