data_PCOD8123874
_publ_section_title
;
Structure prediction by ZEFSAII (Michael W. Deem and Ramdas Pophale) SiO2 
 PCOD8123874
Probable space group: P 21/C
;
_chemical_formula_sum "Si O2"
_cell_formula_units_Z 24
_cell_length_a 9.462469
_cell_length_b 18.542595
_cell_length_c 16.176340
_cell_angle_alpha 90.000000
_cell_angle_beta 161.074579
_cell_angle_gamma 90.000000
_cell_volume 920.559659
_symmetry_space_group_name_H-M "P 21/C"
_symmetry_group_IT_number 14
_symmetry_cell_setting 'monoclinic'
loop_
_space_group_symop_operation_xyz
x,y,z
-x,1/2+y,1/2-z
-x,-y,-z
x,1/2-y,1/2+z
loop_
_atom_site_type_symbol
_atom_site_label
_atom_site_fract_x
_atom_site_fract_y
_atom_site_fract_z
Si Si1 0.793864 0.185395 0.405569
Si Si2 0.036010 0.599923 0.849694
Si Si3 0.300394 0.850919 0.162165
Si Si4 0.738200 0.560213 0.033786
Si Si5 0.325792 0.402032 0.520065
Si Si6 0.108105 0.559730 0.408051
O O1 0.873867 0.269309 0.432467
O O2 0.360566 0.154264 0.117771
O O3 0.749349 0.164786 0.477852
O O4 0.211068 0.145199 0.601656
O O5 0.933113 0.631527 0.701372
O O6 0.590912 0.573614 0.643212
O O7 0.346693 0.527400 0.020982
O O8 0.344507 0.890572 0.276572
O O9 0.002906 0.895855 0.933191
O O10 0.186369 0.577907 0.235922
O O11 0.773573 0.583198 0.149744
O O12 0.065094 0.474348 0.401842
#
# Coordination Sequence:
#
# PCOD8123874 Si02
#       6
#     4   4   4   4   4   4
#     4  10  19  29  43  65  91 116 140 170 212 258
#     4   8  14  26  45  66  84 106 143 186 216 240
#     4  10  19  29  43  65  91 116 140 170 212 258
#     4   8  14  26  45  66  84 106 143 186 216 240
#     4   8  14  26  45  66  84 106 143 186 216 240
#     4   8  14  26  45  66  84 106 143 186 216 240
#
# _framework density 26.071097999999999
#
# number of rings (size 3 to 8) (size 9 to 14) (size 15 to 20)
#    0.000    3.333    0.000    3.000    0.000    5.333 
#    0.000    0.000    0.000    4.000    0.000    4.667 
#    0.000    0.000    0.000    0.000    0.000    0.000 
#
# Total GULP energy -297569.490651 kJ/mol
# GULP energy per Si atom -12398.728777 kJ/mol
# Density = 2.601176 g / cm^3
# Si number density = 26.071098 Si / 1000 Ang^3
#
#
#
# Elastic Constant Matrix: (Units=GPa)
#
#
# Indices 1 2 3 4 5 6 
#
# 1 93.1805 73.4228 86.2166 0.0000 -55.9432 0.0000
# 2 73.4228 167.6908 98.5613 0.0000 -61.9920 0.0000
# 3 86.2166 98.5613 119.9161 0.0000 -57.4840 0.0000
# 4 0.0000 0.0000 0.0000 41.1985 0.0000 -0.0056
# 5 -55.9432 -61.9920 -57.4840 0.0000 75.1930 0.0000
# 6 0.0000 0.0000 0.0000 -0.0056 0.0000 38.3080
#
#
#
# Elastic Compliance Matrix: (Units=1/GPa)
#
#
# Indices 1 2 3 4 5 6 
#
# 1 0.037505 0.000897 -0.022054 0.000000 0.011783 0.000000
# 2 0.000897 0.012199 -0.008730 0.000000 0.004051 0.000000
# 3 -0.022054 -0.008730 0.031656 0.000000 0.000595 0.000000
# 4 0.000000 0.000000 0.000000 0.024273 0.000000 0.000004
# 5 0.011783 0.004051 0.000595 0.000000 0.025861 0.000000
# 6 0.000000 0.000000 0.000000 0.000004 0.000000 0.026104
#
#
# Mechanical properties :
#
#
# Convention : Reuss Voigt Hill
#
# Bulk Modulus (GPa) = 46.32456 99.68764 73.00610
# Shear Modulus (GPa) = 22.26509 39.11233 30.68871
#
# Velocity S-wave (km/s) = 2.92552 3.87747 3.43463
# Velocity P-wave (km/s) = 5.40543 7.63978 6.61759
#
# Compressibility (1/GPa) = 0.02158682
#
# Stress axis : x y z
#
# Youngs Moduli (GPa) = 26.66292 81.97311 31.58981
#
# Poissons Ratio (x) = -0.07352 0.69668
# Poissons Ratio (y) = -0.02391 0.27576
# Poissons Ratio (z) = 0.58802 0.71559
#
# Static dielectric constant tensor:
#      x y z
#    x 5.115710 0.000000 -0.043940 
#    y 0.000000 4.369160 0.000000 
#    z -0.043940 0.000000 5.348300 
# 
# 
# High freq. dielectric constant tensor:
#      x y z
#    x 2.088960 0.000000 0.037940 
#    y 0.000000 2.004880 0.000000 
#    z 0.037940 0.000000 2.089730 
# 
# From -- ./inp_files/14083.got.cif
#   From: 2010.03.12/outbox.cif.g09.slc.cpg/sg14_8_cif.got.tgz:14083.got - 2010.03.31 13:35:05.
