data_PCOD8123632
_publ_section_title
;
Structure prediction by ZEFSAII (Michael W. Deem and Ramdas Pophale) SiO2 
 PCOD8123632
Probable space group: P 21/C
;
_chemical_formula_sum "Si O2"
_cell_formula_units_Z 28
_cell_length_a 23.102282
_cell_length_b 8.528140
_cell_length_c 9.064380
_cell_angle_alpha 90.000000
_cell_angle_beta 138.858099
_cell_angle_gamma 90.000000
_cell_volume 1174.963728
_symmetry_space_group_name_H-M "P 21/C"
_symmetry_group_IT_number 14
_symmetry_cell_setting 'monoclinic'
loop_
_space_group_symop_operation_xyz
x,y,z
-x,1/2+y,1/2-z
-x,-y,-z
x,1/2-y,1/2+z
loop_
_atom_site_type_symbol
_atom_site_label
_atom_site_fract_x
_atom_site_fract_y
_atom_site_fract_z
Si Si1 0.800626 0.899872 0.164294
Si Si2 0.500855 0.267034 0.729907
Si Si3 0.187084 0.735654 0.422369
Si Si4 0.606965 0.587248 0.220681
Si Si5 0.915450 0.103850 0.006910
Si Si6 0.901820 0.732094 0.591249
Si Si7 0.382925 0.714995 0.298739
O O1 0.825049 0.840068 0.374390
O O2 0.873884 0.827012 0.197708
O O3 0.804946 0.088030 0.173067
O O4 0.704245 0.842963 0.930513
O O5 0.433217 0.168643 0.501083
O O6 0.448375 0.382757 0.737071
O O7 0.568736 0.361375 0.751292
O O8 0.564895 0.157220 0.955013
O O9 0.159141 0.674099 0.528509
O O10 0.280041 0.828675 0.611277
O O11 0.113696 0.851931 0.215038
O O12 0.606655 0.403135 0.191983
O O13 0.010085 0.168706 0.229047
O O14 0.918754 0.916968 0.019086
#
# Coordination Sequence:
#
# PCOD8123632 Si02
#       7
#     4   4   4   4   4   4   4
#     4  10  22  40  60  84 118 157 195 240 292 345
#     4  10  18  34  58  82 110 146 186 230 284 338
#     4  10  22  40  60  84 118 157 195 240 292 345
#     4  10  21  38  57  81 115 151 190 238 289 341
#     4  11  23  39  61  89 118 152 195 240 290 349
#     4  11  23  39  61  89 118 152 195 240 290 349
#     4  10  21  38  57  81 115 151 190 238 289 341
#
# _framework density 23.830521000000001
#
# number of rings (size 3 to 8) (size 9 to 14) (size 15 to 20)
#    0.000    1.714    0.000    5.143    0.000    5.714 
#    0.000   15.714    0.000    0.000    0.000    0.000 
#    0.000    0.000    0.000    0.000    0.000    0.000 
#
# Total GULP energy -347189.546575 kJ/mol
# GULP energy per Si atom -12399.626663 kJ/mol
# Density = 2.377628 g / cm^3
# Si number density = 23.830521 Si / 1000 Ang^3
#
#
#
# Elastic Constant Matrix: (Units=GPa)
#
#
# Indices 1 2 3 4 5 6 
#
# 1 76.4446 5.0953 35.9561 0.0000 16.1644 0.0000
# 2 5.0953 27.4980 21.6317 0.0000 12.6236 0.0000
# 3 35.9561 21.6317 161.1032 0.0000 21.7374 0.0000
# 4 0.0000 0.0000 0.0000 31.4349 0.0000 1.4474
# 5 16.1644 12.6236 21.7374 0.0000 44.1231 0.0000
# 6 0.0000 0.0000 0.0000 1.4474 0.0000 26.9228
#
#
#
# Elastic Compliance Matrix: (Units=1/GPa)
#
#
# Indices 1 2 3 4 5 6 
#
# 1 0.015372 0.001652 -0.003030 0.000000 -0.004611 0.000000
# 2 0.001652 0.045007 -0.004920 0.000000 -0.011058 0.000000
# 3 -0.003030 -0.004920 0.007717 0.000000 -0.001284 0.000000
# 4 0.000000 0.000000 0.000000 0.031891 0.000000 -0.001715
# 5 -0.004611 -0.011058 -0.001284 0.000000 0.028150 0.000000
# 6 0.000000 0.000000 0.000000 -0.001715 0.000000 0.037235
#
#
# Mechanical properties :
#
#
# Convention : Reuss Voigt Hill
#
# Bulk Modulus (GPa) = 18.01794 43.37912 30.69853
# Shear Modulus (GPa) = 25.44947 33.98700 29.71824
#
# Velocity S-wave (km/s) = 3.27147 3.78060 3.53521
# Velocity P-wave (km/s) = 4.67411 6.10737 5.43816
#
# Compressibility (1/GPa) = 0.05550025
#
# Stress axis : x y z
#
# Youngs Moduli (GPa) = 65.05477 22.21877 129.57639
#
# Poissons Ratio (x) = -0.03672 0.39268
# Poissons Ratio (y) = -0.10750 0.63751
# Poissons Ratio (z) = 0.19715 0.10932
#
# Static dielectric constant tensor:
#      x y z
#    x 4.450820 0.000000 0.105040 
#    y 0.000000 3.964430 0.000000 
#    z 0.105040 0.000000 4.506640 
# 
# 
# High freq. dielectric constant tensor:
#      x y z
#    x 1.951800 0.000000 0.004220 
#    y 0.000000 1.919320 0.000000 
#    z 0.004220 0.000000 1.963930 
# 
# From -- ./inp_files/19764.got.cif
#   From: 2010.03.12/outbox.cif.g09.slc.cpg/sg14_10_cif.got.tgz:19764.got - 2010.03.31 13:35:05.
