data_PCOD8123474
_publ_section_title
;
Structure prediction by ZEFSAII (Michael W. Deem and Ramdas Pophale) SiO2 
 PCOD8123474
Probable space group: P 21/C
;
_chemical_formula_sum "Si O2"
_cell_formula_units_Z 32
_cell_length_a 5.400286
_cell_length_b 8.766952
_cell_length_c 32.988434
_cell_angle_alpha 90.000000
_cell_angle_beta 112.960213
_cell_angle_gamma 90.000000
_cell_volume 1438.073427
_symmetry_space_group_name_H-M "P 21/C"
_symmetry_group_IT_number 14
_symmetry_cell_setting 'monoclinic'
loop_
_space_group_symop_operation_xyz
x,y,z
-x,1/2+y,1/2-z
-x,-y,-z
x,1/2-y,1/2+z
loop_
_atom_site_type_symbol
_atom_site_label
_atom_site_fract_x
_atom_site_fract_y
_atom_site_fract_z
Si Si1 0.066374 0.164350 0.023213
Si Si2 0.130606 0.772457 0.772206
Si Si3 0.215796 0.131048 0.888682
Si Si4 0.122319 0.355746 0.617452
Si Si5 0.481633 0.322781 0.487629
Si Si6 0.576882 0.948607 0.181584
Si Si7 0.788961 0.215310 0.311571
Si Si8 0.273447 0.138781 0.688542
O O1 0.210539 0.152844 0.076128
O O2 0.272001 0.252989 0.006311
O O3 0.779861 0.252213 0.009971
O O4 0.000000 0.000000 0.000000
O O5 0.166513 0.953161 0.786281
O O6 0.040116 0.759204 0.719086
O O7 0.417670 0.690570 0.794602
O O8 0.894103 0.699937 0.783525
O O9 0.378201 0.207376 0.935618
O O10 0.952806 0.232186 0.861935
O O11 0.391486 0.131622 0.859717
O O12 0.149009 0.956163 0.897173
O O13 0.336305 0.432407 0.660883
O O14 0.102009 0.189215 0.637241
O O15 0.500000 0.500000 0.500000
O O16 0.482608 0.819564 0.207841
O O17 0.705652 0.041858 0.309687
#
# Coordination Sequence:
#
# PCOD8123474 Si02
#       8
#     4   4   4   4   4   4   4   4
#     4  10  18  30  56  92 118 155 202 269 305 365
#     4  11  25  44  67  88 127 168 228 258 321 385
#     4  11  21  37  62  93 126 165 214 267 322 376
#     4  10  20  37  62  92 127 162 214 262 321 381
#     4  10  19  31  56  90 123 154 205 267 308 367
#     4  10  22  40  62  93 121 170 210 272 309 388
#     4  11  27  39  64  92 131 168 213 272 329 388
#     4  11  26  44  65  96 128 175 209 273 327 392
#
# _framework density 22.251992999999999
#
# number of rings (size 3 to 8) (size 9 to 14) (size 15 to 20)
#    0.000    1.500    3.750    2.250    7.000    0.000 
#    0.000    0.000    0.000    1.500    0.000    0.000 
#    0.000    0.000    0.000    0.000    0.000    0.000 
#
# Total GULP energy -396578.079756 kJ/mol
# GULP energy per Si atom -12393.064992 kJ/mol
# Density = 2.220135 g / cm^3
# Si number density = 22.251993 Si / 1000 Ang^3
#
#
#
# Elastic Constant Matrix: (Units=GPa)
#
#
# Indices 1 2 3 4 5 6 
#
# 1 124.4904 15.7011 21.6034 0.0000 -15.4045 0.0000
# 2 15.7011 87.2187 24.6326 0.0000 -1.7267 0.0000
# 3 21.6034 24.6326 128.8145 0.0000 -19.7721 0.0000
# 4 0.0000 0.0000 0.0000 19.4555 0.0000 -0.9116
# 5 -15.4045 -1.7267 -19.7721 0.0000 38.8901 0.0000
# 6 0.0000 0.0000 0.0000 -0.9116 0.0000 7.9475
#
#
#
# Elastic Compliance Matrix: (Units=1/GPa)
#
#
# Indices 1 2 3 4 5 6 
#
# 1 0.008698 -0.001295 -0.000750 0.000000 0.003007 0.000000
# 2 -0.001295 0.012330 -0.002316 0.000000 -0.001143 0.000000
# 3 -0.000750 -0.002316 0.008970 0.000000 0.004161 0.000000
# 4 0.000000 0.000000 0.000000 0.051677 0.000000 0.005927
# 5 0.003007 -0.001143 0.004161 0.000000 0.028969 0.000000
# 6 0.000000 0.000000 0.000000 0.005927 0.000000 0.126506
#
#
# Mechanical properties :
#
#
# Convention : Reuss Voigt Hill
#
# Bulk Modulus (GPa) = 46.99745 51.59977 49.29861
# Shear Modulus (GPa) = 19.76566 31.83104 25.79835
#
# Velocity S-wave (km/s) = 2.98361 3.78627 3.40865
# Velocity P-wave (km/s) = 5.74766 6.50797 6.13960
#
# Compressibility (1/GPa) = 0.02127775
#
# Stress axis : x y z
#
# Youngs Moduli (GPa) = 114.96658 81.10309 111.47786
#
# Poissons Ratio (x) = 0.10500 0.08357
# Poissons Ratio (y) = 0.14883 0.25820
# Poissons Ratio (z) = 0.08619 0.18784
#
# Static dielectric constant tensor:
#      x y z
#    x 5.471960 0.000000 -0.403790 
#    y 0.000000 3.752080 0.000000 
#    z -0.403790 0.000000 4.377560 
# 
# 
# High freq. dielectric constant tensor:
#      x y z
#    x 1.889930 0.000000 -0.005960 
#    y 0.000000 1.823220 0.000000 
#    z -0.005960 0.000000 1.885450 
# 
# From -- ./inp_files/78818.got.cif
#   From: 2010.03.12/outbox.cif.g09.slc.cpg/sg14_40_cif.got.tgz:78818.got - 2010.03.31 13:35:05.
