data_PCOD8123038
_publ_section_title
;
Structure prediction by ZEFSAII (Michael W. Deem and Ramdas Pophale) SiO2 
 PCOD8123038
Probable space group: P 2/C
;
_chemical_formula_sum "Si O2"
_cell_formula_units_Z 24
_cell_length_a 20.996561
_cell_length_b 8.995668
_cell_length_c 19.580941
_cell_angle_alpha 90.000000
_cell_angle_beta 21.155764
_cell_angle_gamma 90.000000
_cell_volume 1334.773642
_symmetry_space_group_name_H-M "P 2/C"
_symmetry_group_IT_number 13
_symmetry_cell_setting 'monoclinic'
loop_
_space_group_symop_operation_xyz
x,y,z
-x,y,1/2-z
-x,-y,-z
x,-y,1/2+z
loop_
_atom_site_type_symbol
_atom_site_label
_atom_site_fract_x
_atom_site_fract_y
_atom_site_fract_z
Si Si1 0.798412 0.789608 0.646156
Si Si2 0.499975 0.714277 0.170836
Si Si3 0.201792 0.880851 0.701082
Si Si4 0.798369 0.789608 0.257062
Si Si5 0.798245 0.880840 0.104629
Si Si6 0.499973 0.566171 0.575133
O O1 0.749186 0.812353 0.774546
O O2 0.674296 0.664491 0.738419
O O3 0.000022 0.736453 0.437137
O O4 0.768009 0.942492 0.636005
O O5 0.500000 0.676622 0.250000
O O6 0.326352 0.809333 0.327290
O O7 0.499980 0.559898 0.131443
O O8 0.673597 0.809326 0.980038
O O9 0.232043 0.057513 0.671973
O O10 0.000021 0.844098 0.884090
O O11 0.749175 0.812348 0.227089
O O12 0.674250 0.664483 0.413034
O O13 0.500000 0.500000 0.500000
#
# Coordination Sequence:
#
# PCOD8123038 Si02
#       6
#     4   4   4   4   4   4
#     4   9  18  34  60  87 107 132 181 238 276 313
#     4  12  25  37  51  79 117 152 182 220 275 337
#     4   9  18  36  60  84 106 135 181 235 278 318
#     4   9  18  34  60  87 107 132 181 238 276 313
#     4   9  18  36  60  84 106 135 181 235 278 318
#     4  12  21  33  54  83 116 151 181 220 275 331
#
# _framework density 17.980578000000001
#
# number of rings (size 3 to 8) (size 9 to 14) (size 15 to 20)
#    0.000    2.000    3.333    3.000    0.000    5.333 
#    0.000    3.333    0.000    2.000    0.000    0.000 
#    0.000    0.000    0.000    0.000    0.000    0.000 
#
# Total GULP energy -297662.052629 kJ/mol
# GULP energy per Si atom -12402.585526 kJ/mol
# Density = 1.793965 g / cm^3
# Si number density = 17.980578 Si / 1000 Ang^3
#
#
#
# Elastic Constant Matrix: (Units=GPa)
#
#
# Indices 1 2 3 4 5 6 
#
# 1 97.5356 54.0093 51.7415 0.0000 2.4930 0.0000
# 2 54.0093 102.7284 70.0250 0.0000 -4.7314 0.0000
# 3 51.7415 70.0250 120.9012 0.0000 -9.4110 0.0000
# 4 0.0000 0.0000 0.0000 8.9135 0.0000 3.5240
# 5 2.4930 -4.7314 -9.4110 0.0000 22.1546 0.0000
# 6 0.0000 0.0000 0.0000 3.5240 0.0000 20.8367
#
#
#
# Elastic Compliance Matrix: (Units=1/GPa)
#
#
# Indices 1 2 3 4 5 6 
#
# 1 0.015558 -0.005964 -0.003557 0.000000 -0.004535 0.000000
# 2 -0.005964 0.018377 -0.007998 0.000000 0.001198 0.000000
# 3 -0.003557 -0.007998 0.014814 0.000000 0.004985 0.000000
# 4 0.000000 0.000000 0.000000 0.120228 0.000000 -0.020333
# 5 -0.004535 0.001198 0.004985 0.000000 0.048021 0.000000
# 6 0.000000 0.000000 0.000000 -0.020333 0.000000 0.051431
#
#
# Mechanical properties :
#
#
# Convention : Reuss Voigt Hill
#
# Bulk Modulus (GPa) = 72.93526 74.74629 73.84078
# Shear Modulus (GPa) = 16.23174 20.07358 18.15266
#
# Velocity S-wave (km/s) = 3.00782 3.34489 3.18082
# Velocity P-wave (km/s) = 7.26044 7.52187 7.39231
#
# Compressibility (1/GPa) = 0.01371079
#
# Stress axis : x y z
#
# Youngs Moduli (GPa) = 64.27565 54.41567 67.50296
#
# Poissons Ratio (x) = 0.32452 0.24012
# Poissons Ratio (y) = 0.38332 0.53991
# Poissons Ratio (z) = 0.22864 0.43523
#
# Static dielectric constant tensor:
#      x y z
#    x 3.009900 0.000000 -0.128730 
#    y 0.000000 3.382780 0.000000 
#    z -0.128730 0.000000 3.445730 
# 
# 
# High freq. dielectric constant tensor:
#      x y z
#    x 1.652180 0.000000 -0.017370 
#    y 0.000000 1.703550 0.000000 
#    z -0.017370 0.000000 1.711010 
# 
# From -- ./inp_files/81626.got.cif
#   From: 2010.06.25/outbox.cif.g09.slc.cpg/sg13_41_cif.got.tgz:81626.got - 2010.06.28 04:50:58.
