data_PCOD8123745
_publ_section_title
;
Structure prediction by ZEFSAII (Michael W. Deem and Ramdas Pophale) SiO2 
 PCOD8123745
Probable space group: P 21/C
;
_chemical_formula_sum "Si O2"
_cell_formula_units_Z 32
_cell_length_a 9.719791
_cell_length_b 17.209227
_cell_length_c 10.923499
_cell_angle_alpha 90.000000
_cell_angle_beta 64.082212
_cell_angle_gamma 90.000000
_cell_volume 1643.401316
_symmetry_space_group_name_H-M "P 21/C"
_symmetry_group_IT_number 14
_symmetry_cell_setting 'monoclinic'
loop_
_space_group_symop_operation_xyz
x,y,z
-x,1/2+y,1/2-z
-x,-y,-z
x,1/2-y,1/2+z
loop_
_atom_site_type_symbol
_atom_site_label
_atom_site_fract_x
_atom_site_fract_y
_atom_site_fract_z
Si Si1 0.196311 0.074877 0.566563
Si Si2 0.548212 0.316548 0.546128
Si Si3 0.420585 0.605607 0.712035
Si Si4 0.144228 0.763395 0.609693
Si Si5 0.693164 0.418321 0.893634
Si Si6 0.915318 0.173988 0.625011
Si Si7 0.580257 0.845112 0.368391
Si Si8 0.534498 0.934607 0.721323
O O1 0.250411 0.125657 0.663400
O O2 0.323914 0.091578 0.415843
O O3 0.030323 0.101181 0.586530
O O4 0.191532 0.983900 0.601212
O O5 0.534513 0.377520 0.443050
O O6 0.724747 0.293263 0.491598
O O7 0.447477 0.239358 0.562183
O O8 0.485687 0.359833 0.687357
O O9 0.255914 0.640292 0.815430
O O10 0.552193 0.653041 0.734202
O O11 0.426077 0.513047 0.722562
O O12 0.211592 0.839638 0.648289
O O13 0.056442 0.723950 0.760303
O O14 0.050133 0.782081 0.519652
O O15 0.626062 0.443766 0.788468
O O16 0.546410 0.409498 0.039312
#
# Coordination Sequence:
#
# PCOD8123745 Si02
#       8
#     4   4   4   4   4   4   4   4
#     4  11  22  36  58  87 117 152 192 242 296 344
#     4  10  22  33  62  88 117 155 190 253 289 343
#     4  11  20  38  59  87 118 149 202 240 289 353
#     4  10  21  40  61  87 114 156 205 235 296 354
#     4  10  18  36  61  83 109 152 200 243 279 346
#     4  11  23  39  61  85 120 156 194 248 289 360
#     4  10  19  37  56  87 111 148 201 241 282 337
#     4  11  20  36  58  90 121 148 197 242 300 339
#
# _framework density 19.471812
#
# number of rings (size 3 to 8) (size 9 to 14) (size 15 to 20)
#    0.000    1.500    5.000    1.875    5.250    3.000 
#    0.000    0.000    0.000    6.750    0.000    0.000 
#    0.000    0.000    0.000    0.000    0.000    0.000 
#
# Total GULP energy -396590.692338 kJ/mol
# GULP energy per Si atom -12393.459136 kJ/mol
# Density = 1.942749 g / cm^3
# Si number density = 19.471812 Si / 1000 Ang^3
#
#
#
# Elastic Constant Matrix: (Units=GPa)
#
#
# Indices 1 2 3 4 5 6 
#
# 1 62.4785 31.0758 26.8458 0.0000 14.1693 0.0000
# 2 31.0758 99.8301 38.9823 0.0000 8.6141 0.0000
# 3 26.8458 38.9823 69.9222 0.0000 15.6462 0.0000
# 4 0.0000 0.0000 0.0000 29.0867 0.0000 5.1580
# 5 14.1693 8.6141 15.6462 0.0000 16.9510 0.0000
# 6 0.0000 0.0000 0.0000 5.1580 0.0000 33.3074
#
#
#
# Elastic Compliance Matrix: (Units=1/GPa)
#
#
# Indices 1 2 3 4 5 6 
#
# 1 0.022796 -0.004721 -0.003016 0.000000 -0.013872 0.000000
# 2 -0.004721 0.013783 -0.006537 0.000000 0.002977 0.000000
# 3 -0.003016 -0.006537 0.022429 0.000000 -0.014860 0.000000
# 4 0.000000 0.000000 0.000000 0.035351 0.000000 -0.005474
# 5 -0.013872 0.002977 -0.014860 0.000000 0.082792 0.000000
# 6 0.000000 0.000000 0.000000 -0.005474 0.000000 0.030871
#
#
# Mechanical properties :
#
#
# Convention : Reuss Voigt Hill
#
# Bulk Modulus (GPa) = 32.83170 47.33763 40.08467
# Shear Modulus (GPa) = 20.26562 24.89081 22.57822
#
# Velocity S-wave (km/s) = 3.22959 3.57921 3.40889
# Velocity P-wave (km/s) = 5.55020 6.43775 6.01038
#
# Compressibility (1/GPa) = 0.03045836
#
# Stress axis : x y z
#
# Youngs Moduli (GPa) = 43.86806 72.55534 44.58471
#
# Poissons Ratio (x) = 0.34256 0.13446
# Poissons Ratio (y) = 0.20712 0.29146
# Poissons Ratio (z) = 0.13230 0.47432
#
# Static dielectric constant tensor:
#      x y z
#    x 3.478890 0.000000 0.343530 
#    y 0.000000 3.557160 0.000000 
#    z 0.343530 0.000000 3.512030 
# 
# 
# High freq. dielectric constant tensor:
#      x y z
#    x 1.738800 0.000000 0.029800 
#    y 0.000000 1.770370 0.000000 
#    z 0.029800 0.000000 1.742290 
# 
# From -- ./inp_files/25470.got.cif
#   From: 2010.03.12/outbox.cif.g09.slc.cpg/sg14_13_cif.got.tgz:25470.got - 2010.03.31 13:35:05.
