data_PCOD8123332
_publ_section_title
;
Structure prediction by ZEFSAII (Michael W. Deem and Ramdas Pophale) SiO2 
 PCOD8123332
Probable space group: P 21/C
;
_chemical_formula_sum "Si O2"
_cell_formula_units_Z 32
_cell_length_a 12.467540
_cell_length_b 12.625453
_cell_length_c 22.204154
_cell_angle_alpha 90.000000
_cell_angle_beta 31.148131
_cell_angle_gamma 90.000000
_cell_volume 1807.858877
_symmetry_space_group_name_H-M "P 21/C"
_symmetry_group_IT_number 14
_symmetry_cell_setting 'monoclinic'
loop_
_space_group_symop_operation_xyz
x,y,z
-x,1/2+y,1/2-z
-x,-y,-z
x,1/2-y,1/2+z
loop_
_atom_site_type_symbol
_atom_site_label
_atom_site_fract_x
_atom_site_fract_y
_atom_site_fract_z
Si Si1 0.693261 0.751320 0.212986
Si Si2 0.841133 0.995147 0.496867
Si Si3 0.033362 0.673511 0.974384
Si Si4 0.710133 0.104066 0.444195
Si Si5 0.283993 0.854717 0.895630
Si Si6 0.040729 0.801397 0.130096
Si Si7 0.747266 0.965955 0.314452
Si Si8 0.608803 0.991185 0.253406
O O1 0.820641 0.735712 0.090206
O O2 0.517592 0.663156 0.305419
O O3 0.839575 0.739994 0.201487
O O4 0.585812 0.865376 0.259768
O O5 0.002670 0.897306 0.428899
O O6 0.623230 0.961774 0.632229
O O7 0.811446 0.019112 0.441019
O O8 0.930569 0.099375 0.485006
O O9 0.218391 0.758572 0.881677
O O10 0.799248 0.222325 0.413361
O O11 0.460660 0.103517 0.571662
O O12 0.773688 0.063436 0.347697
O O13 0.271536 0.961719 0.862104
O O14 0.140938 0.860348 0.023604
O O15 0.951816 0.890294 0.218951
O O16 0.732753 0.018257 0.255163
#
# Coordination Sequence:
#
# PCOD8123332 Si02
#       8
#     4   4   4   4   4   4   4   4
#     4  10  18  31  49  79 104 141 165 209 264 317
#     4  10  17  32  52  77  98 137 177 214 248 319
#     4  10  19  29  49  77 105 130 174 209 261 310
#     4  10  18  38  58  75 100 140 185 218 252 307
#     4  11  19  32  52  79 111 138 164 221 265 321
#     4  10  19  33  56  79 100 137 180 212 263 315
#     4   9  21  35  56  77 103 139 181 220 253 307
#     4  10  19  32  53  76 111 135 172 213 269 310
#
# _framework density 17.700495
#
# number of rings (size 3 to 8) (size 9 to 14) (size 15 to 20)
#    0.000    2.000    5.000    1.500    0.000    4.500 
#    2.250    0.000    0.000    3.000    0.000    0.000 
#    0.000    0.000    0.000    0.000    0.000    0.000 
#
# Total GULP energy -396562.212462 kJ/mol
# GULP energy per Si atom -12392.569139 kJ/mol
# Density = 1.766021 g / cm^3
# Si number density = 17.700495 Si / 1000 Ang^3
#
#
#
# Elastic Constant Matrix: (Units=GPa)
#
#
# Indices 1 2 3 4 5 6 
#
# 1 67.9726 30.0280 32.2762 0.0000 11.0494 0.0000
# 2 30.0280 54.6021 20.1444 0.0000 10.1782 0.0000
# 3 32.2762 20.1444 69.2632 0.0000 4.8433 0.0000
# 4 0.0000 0.0000 0.0000 29.0329 0.0000 -0.5704
# 5 11.0494 10.1782 4.8433 0.0000 25.2711 0.0000
# 6 0.0000 0.0000 0.0000 -0.5704 0.0000 27.0366
#
#
#
# Elastic Compliance Matrix: (Units=1/GPa)
#
#
# Indices 1 2 3 4 5 6 
#
# 1 0.023209 -0.008920 -0.007868 0.000000 -0.005047 0.000000
# 2 -0.008920 0.025330 -0.002807 0.000000 -0.005764 0.000000
# 3 -0.007868 -0.002807 0.018854 0.000000 0.000957 0.000000
# 4 0.000000 0.000000 0.000000 0.034458 0.000000 0.000727
# 5 -0.005047 -0.005764 0.000957 0.000000 0.043916 0.000000
# 6 0.000000 0.000000 0.000000 0.000727 0.000000 0.037002
#
#
# Mechanical properties :
#
#
# Convention : Reuss Voigt Hill
#
# Bulk Modulus (GPa) = 35.45847 39.63725 37.54786
# Shear Modulus (GPa) = 21.61142 23.56073 22.58608
#
# Velocity S-wave (km/s) = 3.49800 3.65235 3.57601
# Velocity P-wave (km/s) = 6.03247 6.34257 6.18946
#
# Compressibility (1/GPa) = 0.02820200
#
# Stress axis : x y z
#
# Youngs Moduli (GPa) = 43.08706 39.47907 53.04031
#
# Poissons Ratio (x) = 0.35215 0.41732
# Poissons Ratio (y) = 0.38434 0.14889
# Poissons Ratio (z) = 0.33901 0.11083
#
# Static dielectric constant tensor:
#      x y z
#    x 3.199430 0.000000 -0.146670 
#    y 0.000000 3.148320 0.000000 
#    z -0.146670 0.000000 3.329360 
# 
# 
# High freq. dielectric constant tensor:
#      x y z
#    x 1.664500 0.000000 -0.017800 
#    y 0.000000 1.666440 0.000000 
#    z -0.017800 0.000000 1.681530 
# 
# From -- ./inp_files/73279.got.cif
#   From: 2010.03.12/outbox.cif.g09.slc.cpg/sg14_37_cif.got.tgz:73279.got - 2010.03.31 13:35:05.
