data_PCOD8123740
_publ_section_title
;
Structure prediction by ZEFSAII (Michael W. Deem and Ramdas Pophale) SiO2 
 PCOD8123740
Probable space group: P 21/C
;
_chemical_formula_sum "Si O2"
_cell_formula_units_Z 20
_cell_length_a 7.743355
_cell_length_b 16.820449
_cell_length_c 11.843789
_cell_angle_alpha 90.000000
_cell_angle_beta 140.248968
_cell_angle_gamma 90.000000
_cell_volume 986.429255
_symmetry_space_group_name_H-M "P 21/C"
_symmetry_group_IT_number 14
_symmetry_cell_setting 'monoclinic'
loop_
_space_group_symop_operation_xyz
x,y,z
-x,1/2+y,1/2-z
-x,-y,-z
x,1/2-y,1/2+z
loop_
_atom_site_type_symbol
_atom_site_label
_atom_site_fract_x
_atom_site_fract_y
_atom_site_fract_z
Si Si1 0.366838 0.766141 0.402483
Si Si2 0.537044 0.536036 0.362782
Si Si3 0.357606 0.121849 0.297157
Si Si4 0.185459 0.904941 0.871783
Si Si5 0.160867 0.187199 0.981155
O O1 0.406232 0.835052 0.514957
O O2 0.265532 0.687194 0.413956
O O3 0.649275 0.753861 0.480034
O O4 0.148135 0.794357 0.201095
O O5 0.506324 0.552358 0.212574
O O6 0.648018 0.448057 0.443257
O O7 0.255489 0.553061 0.286932
O O8 0.753504 0.599985 0.522845
O O9 0.133847 0.084172 0.267650
O O10 0.206726 0.186471 0.139941
#
# Coordination Sequence:
#
# PCOD8123740 Si02
#       5
#     4   4   4   4   4
#     4  11  20  37  57  85 115 147 192 238 278 333
#     4   8  20  37  59  80 115 148 189 226 289 336
#     4  10  21  34  61  80 113 150 190 229 285 334
#     4  10  18  36  60  82 112 153 182 236 281 334
#     4   9  22  35  56  85 112 147 193 232 282 335
#
# _framework density 20.27515
#
# number of rings (size 3 to 8) (size 9 to 14) (size 15 to 20)
#    1.200    1.200    2.000    0.600    2.800    0.000 
#    0.000    1.000    4.400    3.600    0.000    0.000 
#    0.000    0.000    0.000    0.000    0.000    0.000 
#
# Total GULP energy -247832.643427 kJ/mol
# GULP energy per Si atom -12391.632171 kJ/mol
# Density = 2.022900 g / cm^3
# Si number density = 20.275150 Si / 1000 Ang^3
#
#
#
# Elastic Constant Matrix: (Units=GPa)
#
#
# Indices 1 2 3 4 5 6 
#
# 1 86.6831 -0.4721 17.0891 0.0000 20.3252 0.0000
# 2 -0.4721 33.8857 1.6155 0.0000 0.3425 0.0000
# 3 17.0891 1.6155 85.4425 0.0000 -3.0894 0.0000
# 4 0.0000 0.0000 0.0000 14.2003 0.0000 -5.2333
# 5 20.3252 0.3425 -3.0894 0.0000 18.1843 0.0000
# 6 0.0000 0.0000 0.0000 -5.2333 0.0000 26.8919
#
#
#
# Elastic Compliance Matrix: (Units=1/GPa)
#
#
# Indices 1 2 3 4 5 6 
#
# 1 0.016964 0.000631 -0.004116 0.000000 -0.019672 0.000000
# 2 0.000631 0.029569 -0.000736 0.000000 -0.001388 0.000000
# 3 -0.004116 -0.000736 0.012786 0.000000 0.006787 0.000000
# 4 0.000000 0.000000 0.000000 0.075862 0.000000 0.014763
# 5 -0.019672 -0.001388 0.006787 0.000000 0.078160 0.000000
# 6 0.000000 0.000000 0.000000 0.014763 0.000000 0.040059
#
#
# Mechanical properties :
#
#
# Convention : Reuss Voigt Hill
#
# Bulk Modulus (GPa) = 19.65467 26.94181 23.29824
# Shear Modulus (GPa) = 17.93400 24.37389 21.15394
#
# Velocity S-wave (km/s) = 2.97733 3.47097 3.23359
# Velocity P-wave (km/s) = 4.64051 5.42038 5.04554
#
# Compressibility (1/GPa) = 0.05087849
#
# Stress axis : x y z
#
# Youngs Moduli (GPa) = 58.94871 33.81940 78.20841
#
# Poissons Ratio (x) = -0.02135 0.32192
# Poissons Ratio (y) = -0.03722 0.05752
# Poissons Ratio (z) = 0.24264 0.02487
#
# Static dielectric constant tensor:
#      x y z
#    x 3.750110 0.000000 0.110180 
#    y 0.000000 3.483320 0.000000 
#    z 0.110180 0.000000 3.158860 
# 
# 
# High freq. dielectric constant tensor:
#      x y z
#    x 1.802680 0.000000 0.011510 
#    y 0.000000 1.776160 0.000000 
#    z 0.011510 0.000000 1.749690 
# 
# From -- ./inp_files/8900.got.cif
#   From: 2010.03.12/outbox.cif.g09.slc.cpg/sg14_5_cif.got.tgz:8900.got - 2010.03.31 13:35:05.
