data_PCOD8123091
_publ_section_title
;
Structure prediction by ZEFSAII (Michael W. Deem and Ramdas Pophale) SiO2 
 PCOD8123091
Probable space group: P 2/C
;
_chemical_formula_sum "Si O2"
_cell_formula_units_Z 16
_cell_length_a 10.357847
_cell_length_b 11.428329
_cell_length_c 14.644430
_cell_angle_alpha 90.000000
_cell_angle_beta 24.639808
_cell_angle_gamma 90.000000
_cell_volume 722.719084
_symmetry_space_group_name_H-M "P 2/C"
_symmetry_group_IT_number 13
_symmetry_cell_setting 'monoclinic'
loop_
_space_group_symop_operation_xyz
x,y,z
-x,y,1/2-z
-x,-y,-z
x,-y,1/2+z
loop_
_atom_site_type_symbol
_atom_site_label
_atom_site_fract_x
_atom_site_fract_y
_atom_site_fract_z
Si Si1 0.393738 0.784522 0.724177
Si Si2 0.302453 0.242997 0.796121
Si Si3 0.351170 0.020553 0.000237
Si Si4 0.310474 0.382890 0.607539
O O1 0.500000 0.721187 0.750000
O O2 0.478401 0.707921 0.582376
O O3 0.588240 0.905487 0.599370
O O4 0.026044 0.803916 0.955983
O O5 0.500000 0.307483 0.750000
O O6 0.507571 0.131933 0.639467
O O7 0.237714 0.330173 0.753899
O O8 0.000000 0.044267 0.250000
O O9 0.500000 0.000000 0.000000
O O10 0.500000 0.500000 0.500000
O O11 0.000000 0.408538 0.750000
#
# Coordination Sequence:
#
# PCOD8123091 Si02
#       4
#     4   4   4   4
#     4  12  24  47  74 104 147 191 238 289 363 427
#     4  12  27  45  73 112 146 189 237 294 362 430
#     4  12  23  42  74 106 150 191 231 289 359 427
#     4  12  29  51  76 103 142 190 244 302 355 421
#
# _framework density 22.138614
#
# number of rings (size 3 to 8) (size 9 to 14) (size 15 to 20)
#    0.000    0.000    5.000    5.250    3.500    2.000 
#    0.000    0.000    0.000    0.000    0.000    0.000 
#    0.000    0.000    0.000    0.000    0.000    0.000 
#
# Total GULP energy -198433.245340 kJ/mol
# GULP energy per Si atom -12402.077834 kJ/mol
# Density = 2.208823 g / cm^3
# Si number density = 22.138614 Si / 1000 Ang^3
#
#
#
# Elastic Constant Matrix: (Units=GPa)
#
#
# Indices 1 2 3 4 5 6 
#
# 1 160.8925 29.3020 48.8695 0.0000 -7.8383 0.0000
# 2 29.3020 118.8242 48.1625 0.0000 -8.0042 0.0000
# 3 48.8695 48.1625 170.1626 0.0000 -32.4612 0.0000
# 4 0.0000 0.0000 0.0000 19.6714 0.0000 -12.7594
# 5 -7.8383 -8.0042 -32.4612 0.0000 48.0144 0.0000
# 6 0.0000 0.0000 0.0000 -12.7594 0.0000 21.3585
#
#
#
# Elastic Compliance Matrix: (Units=1/GPa)
#
#
# Indices 1 2 3 4 5 6 
#
# 1 0.006918 -0.001015 -0.001741 0.000000 -0.000217 0.000000
# 2 -0.001015 0.009658 -0.002487 0.000000 -0.000237 0.000000
# 3 -0.001741 -0.002487 0.007976 0.000000 0.004694 0.000000
# 4 0.000000 0.000000 0.000000 0.082995 0.000000 0.049580
# 5 -0.000217 -0.000237 0.004694 0.000000 0.023925 0.000000
# 6 0.000000 0.000000 0.000000 0.049580 0.000000 0.076439
#
#
# Mechanical properties :
#
#
# Convention : Reuss Voigt Hill
#
# Bulk Modulus (GPa) = 71.09342 78.06083 74.57713
# Shear Modulus (GPa) = 22.41275 39.37853 30.89564
#
# Velocity S-wave (km/s) = 3.18525 4.22207 3.73976
# Velocity P-wave (km/s) = 6.76094 7.68794 7.23929
#
# Compressibility (1/GPa) = 0.01406600
#
# Stress axis : x y z
#
# Youngs Moduli (GPa) = 144.54132 103.53752 125.37376
#
# Poissons Ratio (x) = 0.10509 0.21828
# Poissons Ratio (y) = 0.14671 0.31186
# Poissons Ratio (z) = 0.25165 0.25754
#
# Static dielectric constant tensor:
#      x y z
#    x 4.368030 0.000000 0.255780 
#    y 0.000000 3.743250 0.000000 
#    z 0.255780 0.000000 4.269970 
# 
# 
# High freq. dielectric constant tensor:
#      x y z
#    x 1.901010 0.000000 0.003990 
#    y 0.000000 1.850520 0.000000 
#    z 0.003990 0.000000 1.894730 
# 
# From -- ./inp_files/43384.got.cif
#   From: 2010.06.25/outbox.cif.g09.slc.cpg/sg13_22_cif.got.tgz:43384.got - 2010.06.28 04:50:58.
