data_PCOD8123257
_publ_section_title
;
Structure prediction by ZEFSAII (Michael W. Deem and Ramdas Pophale) SiO2 
 PCOD8123257
Probable space group: P 21/C
;
_chemical_formula_sum "Si O2"
_cell_formula_units_Z 28
_cell_length_a 8.145640
_cell_length_b 20.218734
_cell_length_c 11.841749
_cell_angle_alpha 90.000000
_cell_angle_beta 51.832718
_cell_angle_gamma 90.000000
_cell_volume 1533.322576
_symmetry_space_group_name_H-M "P 21/C"
_symmetry_group_IT_number 14
_symmetry_cell_setting 'monoclinic'
loop_
_space_group_symop_operation_xyz
x,y,z
-x,1/2+y,1/2-z
-x,-y,-z
x,1/2-y,1/2+z
loop_
_atom_site_type_symbol
_atom_site_label
_atom_site_fract_x
_atom_site_fract_y
_atom_site_fract_z
Si Si1 0.043531 0.782287 0.524671
Si Si2 0.720826 0.494059 0.341175
Si Si3 0.045205 0.938116 0.058575
Si Si4 0.663154 0.170939 0.027672
Si Si5 0.202241 0.140405 0.195389
Si Si6 0.761182 0.834831 0.080224
Si Si7 0.703728 0.139903 0.753873
O O1 0.985097 0.822033 0.662985
O O2 0.850350 0.738151 0.564616
O O3 0.246171 0.738370 0.462104
O O4 0.103768 0.834325 0.402015
O O5 0.500000 0.500000 0.500000
O O6 0.786930 0.565011 0.265009
O O7 0.692950 0.440437 0.252980
O O8 0.913107 0.468164 0.336003
O O9 0.849533 0.887561 0.134132
O O10 0.249270 0.892975 0.939362
O O11 0.000000 0.000000 0.000000
O O12 0.740954 0.162759 0.866143
O O13 0.415553 0.176452 0.140532
O O14 0.171000 0.141343 0.073917
O O15 0.513506 0.831041 0.200210
#
# Coordination Sequence:
#
# PCOD8123257 Si02
#       7
#     4   4   4   4   4   4   4
#     4  11  22  34  52  83 111 139 178 218 270 317
#     4  11  18  35  59  80 103 140 180 224 262 315
#     4  10  16  29  56  84  94 126 185 225 245 301
#     4   9  20  34  53  77 105 140 176 216 259 319
#     4  11  20  35  57  79 108 141 178 222 264 314
#     4  10  20  34  57  79 104 145 179 216 259 318
#     4  10  20  36  55  78 110 142 175 222 266 313
#
# _framework density 18.260995999999999
#
# number of rings (size 3 to 8) (size 9 to 14) (size 15 to 20)
#    0.000    1.714    5.714    1.714    0.000    0.571 
#    0.000    0.000    0.000    0.857    0.000    0.000 
#    0.000    0.000    0.000    0.000    0.000    0.000 
#
# Total GULP energy -347070.022598 kJ/mol
# GULP energy per Si atom -12395.357950 kJ/mol
# Density = 1.821943 g / cm^3
# Si number density = 18.260996 Si / 1000 Ang^3
#
#
#
# Elastic Constant Matrix: (Units=GPa)
#
#
# Indices 1 2 3 4 5 6 
#
# 1 90.8747 31.7351 18.0741 0.0000 -3.6429 0.0000
# 2 31.7351 121.2089 38.6795 0.0000 -6.3689 0.0000
# 3 18.0741 38.6795 60.7003 0.0000 -2.3219 0.0000
# 4 0.0000 0.0000 0.0000 18.1788 0.0000 9.2352
# 5 -3.6429 -6.3689 -2.3219 0.0000 11.5660 0.0000
# 6 0.0000 0.0000 0.0000 9.2352 0.0000 28.5078
#
#
#
# Elastic Compliance Matrix: (Units=1/GPa)
#
#
# Indices 1 2 3 4 5 6 
#
# 1 0.012357 -0.002480 -0.002018 0.000000 0.002121 0.000000
# 2 -0.002480 0.011082 -0.006167 0.000000 0.004083 0.000000
# 3 -0.002018 -0.006167 0.021012 0.000000 0.000187 0.000000
# 4 0.000000 0.000000 0.000000 0.065846 0.000000 -0.021331
# 5 0.002121 0.004083 0.000187 0.000000 0.089414 0.000000
# 6 0.000000 0.000000 0.000000 -0.021331 0.000000 0.041988
#
#
# Mechanical properties :
#
#
# Convention : Reuss Voigt Hill
#
# Bulk Modulus (GPa) = 43.25065 49.97348 46.61206
# Shear Modulus (GPa) = 18.46819 23.93689 21.20254
#
# Velocity S-wave (km/s) = 3.18362 3.62445 3.41116
# Velocity P-wave (km/s) = 6.10328 6.70382 6.41059
#
# Compressibility (1/GPa) = 0.02312104
#
# Stress axis : x y z
#
# Youngs Moduli (GPa) = 80.92881 90.23595 47.59132
#
# Poissons Ratio (x) = 0.22377 0.09604
# Poissons Ratio (y) = 0.20069 0.29350
# Poissons Ratio (z) = 0.16331 0.55650
#
# Static dielectric constant tensor:
#      x y z
#    x 3.573660 0.000000 0.014970 
#    y 0.000000 3.618800 0.000000 
#    z 0.014970 0.000000 2.873660 
# 
# 
# High freq. dielectric constant tensor:
#      x y z
#    x 1.719320 0.000000 -0.003710 
#    y 0.000000 1.726750 0.000000 
#    z -0.003710 0.000000 1.653340 
# 
# From -- ./inp_files/26579.got.cif
#   From: 2010.03.12/outbox.cif.g09.slc.cpg/sg14_14_cif.got.tgz:26579.got - 2010.03.31 13:35:05.
