data_PCOD8123765
_publ_section_title
;
Structure prediction by ZEFSAII (Michael W. Deem and Ramdas Pophale) SiO2 
 PCOD8123765
Probable space group: P 21/C
;
_chemical_formula_sum "Si O2"
_cell_formula_units_Z 28
_cell_length_a 9.584979
_cell_length_b 16.487642
_cell_length_c 9.072389
_cell_angle_alpha 90.000000
_cell_angle_beta 95.448216
_cell_angle_gamma 90.000000
_cell_volume 1427.266169
_symmetry_space_group_name_H-M "P 21/C"
_symmetry_group_IT_number 14
_symmetry_cell_setting 'monoclinic'
loop_
_space_group_symop_operation_xyz
x,y,z
-x,1/2+y,1/2-z
-x,-y,-z
x,1/2-y,1/2+z
loop_
_atom_site_type_symbol
_atom_site_label
_atom_site_fract_x
_atom_site_fract_y
_atom_site_fract_z
Si Si1 0.679568 0.418635 0.809426
Si Si2 0.048674 0.177478 0.693996
Si Si3 0.936141 0.312436 0.870251
Si Si4 0.341740 0.398465 0.239692
Si Si5 0.215031 0.836672 0.179798
Si Si6 0.437620 0.814271 0.443488
Si Si7 0.444358 0.630779 0.503559
O O1 0.840241 0.387383 0.805228
O O2 0.690611 0.514541 0.834082
O O3 0.576587 0.399399 0.662958
O O4 0.600769 0.381424 0.940451
O O5 0.197970 0.147151 0.763080
O O6 0.026116 0.272083 0.744268
O O7 0.037339 0.165296 0.516524
O O8 0.926178 0.123704 0.763569
O O9 0.826805 0.243875 0.918414
O O10 0.427268 0.344710 0.132526
O O11 0.423406 0.411019 0.403388
O O12 0.307633 0.803204 0.322621
O O13 0.303673 0.894910 0.082002
O O14 0.471220 0.727399 0.519034
#
# Coordination Sequence:
#
# PCOD8123765 Si02
#       7
#     4   4   4   4   4   4   4
#     4  12  20  40  63  90 116 157 202 243 290 348
#     4  10  21  39  56  89 115 153 198 238 291 352
#     4  10  18  36  66  79 112 157 205 235 273 363
#     4  11  27  35  56  94 132 144 183 262 310 326
#     4   9  17  36  63  85 103 150 214 235 263 354
#     4  11  19  39  63  88 112 161 204 235 281 364
#     4  11  20  39  64  85 112 161 202 236 284 359
#
# _framework density 19.617927000000002
#
# number of rings (size 3 to 8) (size 9 to 14) (size 15 to 20)
#    0.857    0.571    4.286    2.571    2.000    0.571 
#    0.000    0.714    0.000    0.000    0.000    0.000 
#    0.000    0.000    0.000    0.000    0.000    0.000 
#
# Total GULP energy -346988.386319 kJ/mol
# GULP energy per Si atom -12392.442369 kJ/mol
# Density = 1.957328 g / cm^3
# Si number density = 19.617927 Si / 1000 Ang^3
#
#
#
# Elastic Constant Matrix: (Units=GPa)
#
#
# Indices 1 2 3 4 5 6 
#
# 1 117.6720 32.3860 21.2851 0.0000 -1.2922 0.0000
# 2 32.3860 58.9488 11.0344 0.0000 -11.0477 0.0000
# 3 21.2851 11.0344 67.0043 0.0000 7.2709 0.0000
# 4 0.0000 0.0000 0.0000 15.6378 0.0000 -0.0554
# 5 -1.2922 -11.0477 7.2709 0.0000 25.1783 0.0000
# 6 0.0000 0.0000 0.0000 -0.0554 0.0000 20.1627
#
#
#
# Elastic Compliance Matrix: (Units=1/GPa)
#
#
# Indices 1 2 3 4 5 6 
#
# 1 0.010416 -0.005531 -0.002264 0.000000 -0.001239 0.000000
# 2 -0.005531 0.022551 -0.003097 0.000000 0.010505 0.000000
# 3 -0.002264 -0.003097 0.016841 0.000000 -0.006338 0.000000
# 4 0.000000 0.000000 0.000000 0.063948 0.000000 0.000176
# 5 -0.001239 0.010505 -0.006338 0.000000 0.046093 0.000000
# 6 0.000000 0.000000 0.000000 0.000176 0.000000 0.049597
#
#
# Mechanical properties :
#
#
# Convention : Reuss Voigt Hill
#
# Bulk Modulus (GPa) = 35.68132 41.44845 38.56488
# Shear Modulus (GPa) = 20.78384 24.12375 22.45380
#
# Velocity S-wave (km/s) = 3.25842 3.51048 3.38680
# Velocity P-wave (km/s) = 5.69070 6.13229 5.91562
#
# Compressibility (1/GPa) = 0.02802587
#
# Stress axis : x y z
#
# Youngs Moduli (GPa) = 96.00308 44.34380 59.37799
#
# Poissons Ratio (x) = 0.24527 0.13441
# Poissons Ratio (y) = 0.53100 0.18387
# Poissons Ratio (z) = 0.21732 0.13732
#
# Static dielectric constant tensor:
#      x y z
#    x 3.519340 0.000000 0.017690 
#    y 0.000000 3.268850 0.000000 
#    z 0.017690 0.000000 3.549330 
# 
# 
# High freq. dielectric constant tensor:
#      x y z
#    x 1.759500 0.000000 0.005360 
#    y 0.000000 1.729960 0.000000 
#    z 0.005360 0.000000 1.770830 
# 
# From -- ./inp_files/13564.got.cif
#   From: 2010.03.12/outbox.cif.g09.slc.cpg/sg14_7_cif.got.tgz:13564.got - 2010.03.31 13:35:05.
