data_PCOD8123136
_publ_section_title
;
Structure prediction by ZEFSAII (Michael W. Deem and Ramdas Pophale) SiO2 
 PCOD8123136
Probable space group: P 2/C
;
_chemical_formula_sum "Si O2"
_cell_formula_units_Z 18
_cell_length_a 9.042234
_cell_length_b 5.244528
_cell_length_c 17.850837
_cell_angle_alpha 90.000000
_cell_angle_beta 60.436526
_cell_angle_gamma 90.000000
_cell_volume 736.317210
_symmetry_space_group_name_H-M "P 2/C"
_symmetry_group_IT_number 13
_symmetry_cell_setting 'monoclinic'
loop_
_space_group_symop_operation_xyz
x,y,z
-x,y,1/2-z
-x,-y,-z
x,-y,1/2+z
loop_
_atom_site_type_symbol
_atom_site_label
_atom_site_fract_x
_atom_site_fract_y
_atom_site_fract_z
Si Si1 0.844894 0.198684 0.401733
Si Si2 0.802983 0.434713 0.184534
Si Si3 0.352399 0.756929 0.402485
Si Si4 0.500000 0.131207 0.250000
Si Si5 0.263182 0.694602 0.155645
O O1 0.762921 0.134398 0.502144
O O2 0.783748 0.476403 0.391259
O O3 0.047616 0.227821 0.359731
O O4 0.796304 0.972717 0.357366
O O5 0.753658 0.537533 0.114322
O O6 0.635309 0.300125 0.261794
O O7 0.835336 0.652575 0.239779
O O8 0.533866 0.671623 0.388487
O O9 0.383454 0.977608 0.335567
#
# Coordination Sequence:
#
# PCOD8123136 Si02
#       5
#     4   4   4   2   4
#     4  12  31  47  80 116 158 196 262 329 387 452
#     4  12  27  49  79 113 153 213 263 316 386 475
#     4  12  26  50  78 112 153 209 262 316 384 473
#     4  12  24  46  84 102 156 202 270 306 390 454
#     4  12  26  51  74 116 155 205 251 322 399 462
#
# _framework density 24.445986999999999
#
# number of rings (size 3 to 8) (size 9 to 14) (size 15 to 20)
#    0.000    0.000    4.444    4.000    6.222    4.444 
#    0.000    0.000    0.000    0.000    0.000    0.000 
#    0.000    0.000    0.000    0.000    0.000    0.000 
#
# Total GULP energy -223174.225333 kJ/mol
# GULP energy per Si atom -12398.568074 kJ/mol
# Density = 2.439035 g / cm^3
# Si number density = 24.445987 Si / 1000 Ang^3
#
#
#
# Elastic Constant Matrix: (Units=GPa)
#
#
# Indices 1 2 3 4 5 6 
#
# 1 138.4835 52.1799 49.7988 0.0000 -3.8199 0.0000
# 2 52.1799 116.6885 33.6138 0.0000 -0.0601 0.0000
# 3 49.7988 33.6138 146.9416 0.0000 -13.5126 0.0000
# 4 0.0000 0.0000 0.0000 90.6743 0.0000 30.8067
# 5 -3.8199 -0.0601 -13.5126 0.0000 33.2114 0.0000
# 6 0.0000 0.0000 0.0000 30.8067 0.0000 60.3864
#
#
#
# Elastic Compliance Matrix: (Units=1/GPa)
#
#
# Indices 1 2 3 4 5 6 
#
# 1 0.009404 -0.003522 -0.002371 0.000000 0.000110 0.000000
# 2 -0.003522 0.010518 -0.001296 0.000000 -0.000914 0.000000
# 3 -0.002371 -0.001296 0.008187 0.000000 0.003056 0.000000
# 4 0.000000 0.000000 0.000000 0.013341 0.000000 -0.006806
# 5 0.000110 -0.000914 0.003056 0.000000 0.031364 0.000000
# 6 0.000000 0.000000 0.000000 -0.006806 0.000000 0.020032
#
#
# Mechanical properties :
#
#
# Convention : Reuss Voigt Hill
#
# Bulk Modulus (GPa) = 72.83816 74.81093 73.82455
# Shear Modulus (GPa) = 44.72225 54.62249 49.67237
#
# Velocity S-wave (km/s) = 4.28183 4.73209 4.51258
# Velocity P-wave (km/s) = 7.36923 7.77984 7.57732
#
# Compressibility (1/GPa) = 0.01372907
#
# Stress axis : x y z
#
# Youngs Moduli (GPa) = 106.33907 95.07724 122.15131
#
# Poissons Ratio (x) = 0.33487 0.28964
# Poissons Ratio (y) = 0.37453 0.15835
# Poissons Ratio (z) = 0.25214 0.12326
#
# Static dielectric constant tensor:
#      x y z
#    x 4.810120 0.000000 0.037040 
#    y 0.000000 4.383650 0.000000 
#    z 0.037040 0.000000 4.390620 
# 
# 
# High freq. dielectric constant tensor:
#      x y z
#    x 1.996810 0.000000 -0.001310 
#    y 0.000000 1.976840 0.000000 
#    z -0.001310 0.000000 1.965890 
# 
# From -- ./inp_files/62270.got.cif
#   From: 2010.06.25/outbox.cif.g09.slc.cpg/sg13_32_cif.got.tgz:62270.got - 2010.06.28 04:50:58.
