data_PCOD8123358
_publ_section_title
;
Structure prediction by ZEFSAII (Michael W. Deem and Ramdas Pophale) SiO2 
 PCOD8123358
Probable space group: P 21/C
;
_chemical_formula_sum "Si O2"
_cell_formula_units_Z 28
_cell_length_a 12.759629
_cell_length_b 9.388127
_cell_length_c 14.790253
_cell_angle_alpha 90.000000
_cell_angle_beta 129.950487
_cell_angle_gamma 90.000000
_cell_volume 1358.192138
_symmetry_space_group_name_H-M "P 21/C"
_symmetry_group_IT_number 14
_symmetry_cell_setting 'monoclinic'
loop_
_space_group_symop_operation_xyz
x,y,z
-x,1/2+y,1/2-z
-x,-y,-z
x,1/2-y,1/2+z
loop_
_atom_site_type_symbol
_atom_site_label
_atom_site_fract_x
_atom_site_fract_y
_atom_site_fract_z
Si Si1 0.623842 0.722162 0.182236
Si Si2 0.867472 0.701628 0.438536
Si Si3 0.726095 0.444270 0.156342
Si Si4 0.602697 0.163377 0.296694
Si Si5 0.499614 0.266359 0.559453
Si Si6 0.272833 0.420277 0.021944
Si Si7 0.838363 0.116660 0.899599
O O1 0.774494 0.759289 0.303691
O O2 0.625309 0.566002 0.138777
O O3 0.518878 0.717020 0.206712
O O4 0.581019 0.828126 0.074188
O O5 0.839208 0.805213 0.507623
O O6 0.831311 0.537634 0.445065
O O7 0.026856 0.706424 0.498229
O O8 0.633744 0.305432 0.089770
O O9 0.845533 0.412368 0.295124
O O10 0.793115 0.490609 0.097883
O O11 0.546532 0.123401 0.164340
O O12 0.703100 0.298422 0.349308
O O13 0.684349 0.025055 0.373423
O O14 0.410107 0.153779 0.565228
#
# Coordination Sequence:
#
# PCOD8123358 Si02
#       7
#     4   4   4   4   4   4   4
#     4  10  17  33  59  85 115 150 197 238 286 354
#     4  10  21  38  60  81 117 158 198 236 295 367
#     4   9  17  34  59  82 114 151 199 238 291 357
#     4  11  20  33  63  89 114 156 197 247 292 346
#     4  10  18  32  57  88 119 151 189 241 300 348
#     4  11  19  33  62  92 111 152 207 245 285 350
#     4   9  22  40  57  81 121 163 189 238 312 359
#
# _framework density 20.615641
#
# number of rings (size 3 to 8) (size 9 to 14) (size 15 to 20)
#    0.000    2.000    4.286    0.857    0.000    0.571 
#    0.000    6.429    6.286    0.000    0.000    0.000 
#    0.000    0.000    0.000    0.000    0.000    0.000 
#
# Total GULP energy -346932.975356 kJ/mol
# GULP energy per Si atom -12390.463406 kJ/mol
# Density = 2.056872 g / cm^3
# Si number density = 20.615641 Si / 1000 Ang^3
#
#
#
# Elastic Constant Matrix: (Units=GPa)
#
#
# Indices 1 2 3 4 5 6 
#
# 1 72.5395 27.8470 72.5507 0.0000 -9.2162 0.0000
# 2 27.8470 42.4558 38.3856 0.0000 -12.0027 0.0000
# 3 72.5507 38.3856 147.9728 0.0000 -12.3980 0.0000
# 4 0.0000 0.0000 0.0000 27.4654 0.0000 -8.1427
# 5 -9.2162 -12.0027 -12.3980 0.0000 31.0770 0.0000
# 6 0.0000 0.0000 0.0000 -8.1427 0.0000 32.6945
#
#
#
# Elastic Compliance Matrix: (Units=1/GPa)
#
#
# Indices 1 2 3 4 5 6 
#
# 1 0.029033 -0.007866 -0.012133 0.000000 0.000731 0.000000
# 2 -0.007866 0.035545 -0.004562 0.000000 0.009576 0.000000
# 3 -0.012133 -0.004562 0.013906 0.000000 0.000188 0.000000
# 4 0.000000 0.000000 0.000000 0.039312 0.000000 0.009791
# 5 0.000731 0.009576 0.000188 0.000000 0.036168 0.000000
# 6 0.000000 0.000000 0.000000 0.009791 0.000000 0.033025
#
#
# Mechanical properties :
#
#
# Convention : Reuss Voigt Hill
#
# Bulk Modulus (GPa) = 34.05757 60.05942 47.05849
# Shear Modulus (GPa) = 20.33360 26.52634 23.42997
#
# Velocity S-wave (km/s) = 3.14398 3.59097 3.37488
# Velocity P-wave (km/s) = 5.45304 6.81099 6.16949
#
# Compressibility (1/GPa) = 0.02936205
#
# Stress axis : x y z
#
# Youngs Moduli (GPa) = 34.44330 28.13342 71.91235
#
# Poissons Ratio (x) = 0.22131 0.87251
# Poissons Ratio (y) = 0.27095 0.32803
# Poissons Ratio (z) = 0.41790 0.12833
#
# Static dielectric constant tensor:
#      x y z
#    x 3.413180 0.000000 -0.212200 
#    y 0.000000 3.530110 0.000000 
#    z -0.212200 0.000000 4.314970 
# 
# 
# High freq. dielectric constant tensor:
#      x y z
#    x 1.773190 0.000000 -0.006060 
#    y 0.000000 1.777020 0.000000 
#    z -0.006060 0.000000 1.824810 
# 
# From -- ./inp_files/43825.got.cif
#   From: 2010.03.12/outbox.cif.g09.slc.cpg/sg14_22_cif.got.tgz:43825.got - 2010.03.31 13:35:05.
