data_PCOD8123275
_publ_section_title
;
Structure prediction by ZEFSAII (Michael W. Deem and Ramdas Pophale) SiO2 
 PCOD8123275
Probable space group: P 21/C
;
_chemical_formula_sum "Si O2"
_cell_formula_units_Z 32
_cell_length_a 15.979920
_cell_length_b 11.821230
_cell_length_c 21.619816
_cell_angle_alpha 90.000000
_cell_angle_beta 157.350127
_cell_angle_gamma 90.000000
_cell_volume 1572.756209
_symmetry_space_group_name_H-M "P 21/C"
_symmetry_group_IT_number 14
_symmetry_cell_setting 'monoclinic'
loop_
_space_group_symop_operation_xyz
x,y,z
-x,1/2+y,1/2-z
-x,-y,-z
x,1/2-y,1/2+z
loop_
_atom_site_type_symbol
_atom_site_label
_atom_site_fract_x
_atom_site_fract_y
_atom_site_fract_z
Si Si1 0.789460 0.798874 0.725595
Si Si2 0.602966 0.422165 0.014969
Si Si3 0.894625 0.177766 0.802974
Si Si4 0.094058 0.521602 0.496666
Si Si5 0.108960 0.370542 0.008878
Si Si6 0.431992 0.149360 0.549673
Si Si7 0.538066 0.194722 0.752353
Si Si8 0.916508 0.132957 0.511808
O O1 0.570319 0.822219 0.616562
O O2 0.732293 0.797509 0.613328
O O3 0.953553 0.897665 0.856522
O O4 0.892915 0.678053 0.813272
O O5 0.828729 0.360465 0.188332
O O6 0.500000 0.500000 0.000000
O O7 0.633289 0.515707 0.982095
O O8 0.682341 0.159613 0.700309
O O9 0.095147 0.100495 0.964043
O O10 0.972284 0.307444 0.861468
O O11 0.330620 0.576707 0.663467
O O12 0.000000 0.500000 0.500000
O O13 0.354870 0.321583 0.180046
O O14 0.115118 0.501874 0.996104
O O15 0.989616 0.344057 0.991572
O O16 0.409783 0.213850 0.599737
O O17 0.691965 0.301111 0.872381
#
# Coordination Sequence:
#
# PCOD8123275 Si02
#       8
#     4   4   4   4   4   4   4   4
#     4   9  16  32  60  83 116 152 187 243 304 348
#     4   8  14  27  54  89 114 140 188 244 294 344
#     4  10  16  32  56  83 117 150 192 239 303 345
#     4  11  16  29  57  91 111 141 189 248 296 337
#     4  11  24  40  60  83 126 163 198 242 306 356
#     4  10  16  34  58  92 118 148 194 254 300 349
#     4  11  23  36  63  89 115 157 205 245 300 359
#     4  10  23  44  59  83 125 163 197 248 295 366
#
# _framework density 20.346447999999999
#
# number of rings (size 3 to 8) (size 9 to 14) (size 15 to 20)
#    0.000    2.250    6.250    0.750    1.750    0.000 
#    0.000    3.750    8.250    0.000    0.000    0.000 
#    0.000    0.000    0.000    0.000    0.000    0.000 
#
# Total GULP energy -396431.671586 kJ/mol
# GULP energy per Si atom -12388.489737 kJ/mol
# Density = 2.030014 g / cm^3
# Si number density = 20.346448 Si / 1000 Ang^3
#
#
#
# Elastic Constant Matrix: (Units=GPa)
#
#
# Indices 1 2 3 4 5 6 
#
# 1 18.0938 22.0914 20.0637 0.0000 6.1174 0.0000
# 2 22.0914 132.2924 65.5633 0.0000 2.8077 0.0000
# 3 20.0637 65.5633 110.5139 0.0000 -8.5434 0.0000
# 4 0.0000 0.0000 0.0000 38.7247 0.0000 -2.7686
# 5 6.1174 2.8077 -8.5434 0.0000 31.3495 0.0000
# 6 0.0000 0.0000 0.0000 -2.7686 0.0000 14.3527
#
#
#
# Elastic Compliance Matrix: (Units=1/GPa)
#
#
# Indices 1 2 3 4 5 6 
#
# 1 0.084778 -0.007627 -0.012353 0.000000 -0.019227 0.000000
# 2 -0.007627 0.011630 -0.005598 0.000000 -0.001079 0.000000
# 3 -0.012353 -0.005598 0.015157 0.000000 0.007043 0.000000
# 4 0.000000 0.000000 0.000000 0.026184 0.000000 0.005051
# 5 -0.019227 -0.001079 0.007043 0.000000 0.037666 0.000000
# 6 0.000000 0.000000 0.000000 0.005051 0.000000 0.070647
#
#
# Mechanical properties :
#
#
# Convention : Reuss Voigt Hill
#
# Bulk Modulus (GPa) = 16.55401 52.92630 34.74015
# Shear Modulus (GPa) = 15.75521 27.09750 21.42636
#
# Velocity S-wave (km/s) = 2.78573 3.65335 3.24863
# Velocity P-wave (km/s) = 4.30125 6.62306 5.58416
#
# Compressibility (1/GPa) = 0.06040834
#
# Stress axis : x y z
#
# Youngs Moduli (GPa) = 11.79556 85.98431 65.97592
#
# Poissons Ratio (x) = 0.65578 0.81500
# Poissons Ratio (y) = 0.08996 0.36936
# Poissons Ratio (z) = 0.14571 0.48137
#
# Static dielectric constant tensor:
#      x y z
#    x 3.416230 0.000000 -0.207520 
#    y 0.000000 3.891430 0.000000 
#    z -0.207520 0.000000 4.004530 
# 
# 
# High freq. dielectric constant tensor:
#      x y z
#    x 1.749750 0.000000 -0.010030 
#    y 0.000000 1.789310 0.000000 
#    z -0.010030 0.000000 1.803700 
# 
# From -- ./inp_files/74424.got.cif
#   From: 2010.03.12/outbox.cif.g09.slc.cpg/sg14_38_cif.got.tgz:74424.got - 2010.03.31 13:35:05.
