data_PCOD8123832
_publ_section_title
;
Structure prediction by ZEFSAII (Michael W. Deem and Ramdas Pophale) SiO2 
 PCOD8123832
Probable space group: P 21/C
;
_chemical_formula_sum "Si O2"
_cell_formula_units_Z 32
_cell_length_a 9.337513
_cell_length_b 13.876679
_cell_length_c 24.792931
_cell_angle_alpha 90.000000
_cell_angle_beta 27.872191
_cell_angle_gamma 90.000000
_cell_volume 1501.851548
_symmetry_space_group_name_H-M "P 21/C"
_symmetry_group_IT_number 14
_symmetry_cell_setting 'monoclinic'
loop_
_space_group_symop_operation_xyz
x,y,z
-x,1/2+y,1/2-z
-x,-y,-z
x,1/2-y,1/2+z
loop_
_atom_site_type_symbol
_atom_site_label
_atom_site_fract_x
_atom_site_fract_y
_atom_site_fract_z
Si Si1 0.438460 0.680944 0.563510
Si Si2 0.065706 0.178281 0.564830
Si Si3 0.641102 0.124245 0.796620
Si Si4 0.542357 0.833158 0.657816
Si Si5 0.511459 0.075106 0.115680
Si Si6 0.005321 0.371587 0.369490
Si Si7 0.079807 0.065886 0.158017
Si Si8 0.491432 0.285239 0.719332
O O1 0.636651 0.775271 0.506971
O O2 0.244501 0.646456 0.680329
O O3 0.655889 0.591226 0.473396
O O4 0.209234 0.704952 0.590855
O O5 0.201899 0.120201 0.467344
O O6 0.911712 0.112182 0.662087
O O7 0.843486 0.261065 0.615830
O O8 0.427847 0.215499 0.852726
O O9 0.459734 0.023053 0.858859
O O10 0.615517 0.857702 0.696198
O O11 0.199483 0.858935 0.752728
O O12 0.225999 0.069922 0.169119
O O13 0.445197 0.163367 0.178052
O O14 0.839544 0.094110 0.979177
O O15 0.321538 0.318525 0.276920
O O16 0.056875 0.461736 0.311972
#
# Coordination Sequence:
#
# PCOD8123832 Si02
#       8
#     4   4   4   4   4   4   4   4
#     4  10  18  38  65  93 125 156 207 262 321 372
#     4  10  22  41  61  89 131 176 205 254 327 385
#     4  10  19  38  64  94 123 159 219 257 309 388
#     4  10  23  41  62  88 134 177 203 258 329 385
#     4  11  23  38  67  96 125 160 218 274 311 377
#     4  11  23  39  67  99 128 161 216 277 314 365
#     4  11  20  41  66  98 126 163 209 266 326 367
#     4  11  24  41  60  98 129 167 217 265 321 376
#
# _framework density 21.307034000000002
#
# number of rings (size 3 to 8) (size 9 to 14) (size 15 to 20)
#    0.000    1.500    5.000    1.500    3.500    2.000 
#    0.000    8.750    0.000    0.000    0.000    0.000 
#    0.000    0.000    0.000    0.000    0.000    0.000 
#
# Total GULP energy -396516.518661 kJ/mol
# GULP energy per Si atom -12391.141208 kJ/mol
# Density = 2.125854 g / cm^3
# Si number density = 21.307034 Si / 1000 Ang^3
#
#
#
# Elastic Constant Matrix: (Units=GPa)
#
#
# Indices 1 2 3 4 5 6 
#
# 1 88.7115 28.5176 46.2269 0.0000 21.2749 0.0000
# 2 28.5176 72.1980 20.3748 0.0000 3.8409 0.0000
# 3 46.2269 20.3748 111.9180 0.0000 31.5752 0.0000
# 4 0.0000 0.0000 0.0000 25.3274 0.0000 6.8942
# 5 21.2749 3.8409 31.5752 0.0000 34.5878 0.0000
# 6 0.0000 0.0000 0.0000 6.8942 0.0000 31.0986
#
#
#
# Elastic Compliance Matrix: (Units=1/GPa)
#
#
# Indices 1 2 3 4 5 6 
#
# 1 0.016474 -0.004993 -0.004301 0.000000 -0.005653 0.000000
# 2 -0.004993 0.016144 -0.001667 0.000000 0.002800 0.000000
# 3 -0.004301 -0.001667 0.013761 0.000000 -0.009731 0.000000
# 4 0.000000 0.000000 0.000000 0.042019 0.000000 -0.009315
# 5 -0.005653 0.002800 -0.009731 0.000000 0.040962 0.000000
# 6 0.000000 0.000000 0.000000 -0.009315 0.000000 0.034221
#
#
# Mechanical properties :
#
#
# Convention : Reuss Voigt Hill
#
# Bulk Modulus (GPa) = 40.88599 51.45178 46.16889
# Shear Modulus (GPa) = 25.81929 30.04997 27.93463
#
# Velocity S-wave (km/s) = 3.48483 3.75951 3.62477
# Velocity P-wave (km/s) = 5.95169 6.56090 6.26371
#
# Compressibility (1/GPa) = 0.02445825
#
# Stress axis : x y z
#
# Youngs Moduli (GPa) = 60.70083 61.94128 72.67172
#
# Poissons Ratio (x) = 0.30926 0.31255
# Poissons Ratio (y) = 0.30306 0.12113
# Poissons Ratio (z) = 0.26107 0.10324
#
# Static dielectric constant tensor:
#      x y z
#    x 4.025750 0.000000 0.420980 
#    y 0.000000 3.579880 0.000000 
#    z 0.420980 0.000000 3.993260 
# 
# 
# High freq. dielectric constant tensor:
#      x y z
#    x 1.844500 0.000000 0.023690 
#    y 0.000000 1.804700 0.000000 
#    z 0.023690 0.000000 1.828050 
# 
# From -- ./inp_files/72450.got.cif
#   From: 2010.03.12/outbox.cif.g09.slc.cpg/sg14_37_cif.got.tgz:72450.got - 2010.03.31 13:35:05.
