data_PCOD8123643
_publ_section_title
;
Structure prediction by ZEFSAII (Michael W. Deem and Ramdas Pophale) SiO2 
 PCOD8123643
Probable space group: P 21/C
;
_chemical_formula_sum "Si O2"
_cell_formula_units_Z 28
_cell_length_a 14.643238
_cell_length_b 8.272586
_cell_length_c 12.178710
_cell_angle_alpha 90.000000
_cell_angle_beta 60.273776
_cell_angle_gamma 90.000000
_cell_volume 1281.155494
_symmetry_space_group_name_H-M "P 21/C"
_symmetry_group_IT_number 14
_symmetry_cell_setting 'monoclinic'
loop_
_space_group_symop_operation_xyz
x,y,z
-x,1/2+y,1/2-z
-x,-y,-z
x,1/2-y,1/2+z
loop_
_atom_site_type_symbol
_atom_site_label
_atom_site_fract_x
_atom_site_fract_y
_atom_site_fract_z
Si Si1 0.106466 0.923642 0.644131
Si Si2 0.128242 0.111302 0.277796
Si Si3 0.249884 0.317615 0.045563
Si Si4 0.107946 0.439365 0.386557
Si Si5 0.386979 0.526185 0.118336
Si Si6 0.687619 0.530084 0.611759
Si Si7 0.256722 0.666754 0.622271
O O1 0.187598 0.034250 0.523924
O O2 0.110601 0.002560 0.761129
O O3 0.153449 0.743601 0.624296
O O4 0.993162 0.939579 0.658493
O O5 0.163876 0.188090 0.140399
O O6 0.128816 0.244106 0.375522
O O7 0.207252 0.956333 0.244274
O O8 0.315848 0.384005 0.110054
O O9 0.321373 0.220545 0.915802
O O10 0.200662 0.518662 0.401061
O O11 0.000000 0.500000 0.500000
O O12 0.399325 0.503726 0.242727
O O13 0.334813 0.701797 0.128382
O O14 0.500000 0.500000 0.000000
O O15 0.672140 0.423002 0.511795
#
# Coordination Sequence:
#
# PCOD8123643 Si02
#       7
#     4   4   4   4   4   4   4
#     4  10  18  36  57  89 133 167 208 262 302 376
#     4  10  18  34  59  88 134 167 209 264 304 376
#     4   9  20  39  61  89 124 165 205 263 313 384
#     4  11  20  34  59  91 129 182 208 246 323 380
#     4  11  24  46  68  90 125 162 213 278 336 382
#     4  11  21  42  65  87 131 165 209 262 327 386
#     4  10  21  39  63  95 127 162 218 272 314 386
#
# _framework density 21.855269
#
# number of rings (size 3 to 8) (size 9 to 14) (size 15 to 20)
#    0.000    1.714    4.286    4.286    0.000    1.143 
#    5.143    4.286    0.000    0.000    0.000    0.000 
#    0.000    0.000    0.000    0.000    0.000    0.000 
#
# Total GULP energy -346908.083041 kJ/mol
# GULP energy per Si atom -12389.574394 kJ/mol
# Density = 2.180553 g / cm^3
# Si number density = 21.855269 Si / 1000 Ang^3
#
#
#
# Elastic Constant Matrix: (Units=GPa)
#
#
# Indices 1 2 3 4 5 6 
#
# 1 38.7699 21.6648 14.0118 0.0000 -15.4906 0.0000
# 2 21.6648 131.1806 60.4278 0.0000 -12.3977 0.0000
# 3 14.0118 60.4278 110.2957 0.0000 -15.2995 0.0000
# 4 0.0000 0.0000 0.0000 39.0030 0.0000 4.4438
# 5 -15.4906 -12.3977 -15.2995 0.0000 30.0862 0.0000
# 6 0.0000 0.0000 0.0000 4.4438 0.0000 16.7655
#
#
#
# Elastic Compliance Matrix: (Units=1/GPa)
#
#
# Indices 1 2 3 4 5 6 
#
# 1 0.034555 -0.004268 0.000186 0.000000 0.016127 0.000000
# 2 -0.004268 0.010784 -0.005438 0.000000 -0.000519 0.000000
# 3 0.000186 -0.005438 0.012614 0.000000 0.004270 0.000000
# 4 0.000000 0.000000 0.000000 0.026437 0.000000 -0.007007
# 5 0.016127 -0.000519 0.004270 0.000000 0.043498 0.000000
# 6 0.000000 0.000000 0.000000 -0.007007 0.000000 0.061504
#
#
# Mechanical properties :
#
#
# Convention : Reuss Voigt Hill
#
# Bulk Modulus (GPa) = 25.69898 52.49499 39.09699
# Shear Modulus (GPa) = 22.58315 29.44708 26.01512
#
# Velocity S-wave (km/s) = 3.21799 3.67463 3.45387
# Velocity P-wave (km/s) = 5.05881 6.48656 5.81666
#
# Compressibility (1/GPa) = 0.03891205
#
# Stress axis : x y z
#
# Youngs Moduli (GPa) = 28.93966 92.73091 79.27390
#
# Poissons Ratio (x) = 0.39579 -0.01472
# Poissons Ratio (y) = 0.12352 0.43109
# Poissons Ratio (z) = -0.00537 0.50427
#
# Static dielectric constant tensor:
#      x y z
#    x 4.475000 0.000000 -0.552770 
#    y 0.000000 4.403800 0.000000 
#    z -0.552770 0.000000 4.296680 
# 
# 
# High freq. dielectric constant tensor:
#      x y z
#    x 1.819870 0.000000 -0.004270 
#    y 0.000000 1.873170 0.000000 
#    z -0.004270 0.000000 1.853770 
# 
# From -- ./inp_files/31716.got.cif
#   From: 2010.03.12/outbox.cif.g09.slc.cpg/sg14_16_cif.got.tgz:31716.got - 2010.03.31 13:35:05.
