data_PCOD8124712
_publ_section_title
;
Structure prediction by ZEFSAII (Michael W. Deem and Ramdas Pophale) SiO2 
 PCOD8124712
Probable space group: P 21/C
;
_chemical_formula_sum "Si O2"
_cell_formula_units_Z 32
_cell_length_a 15.719658
_cell_length_b 26.274411
_cell_length_c 5.465780
_cell_angle_alpha 90.000000
_cell_angle_beta 54.573618
_cell_angle_gamma 90.000000
_cell_volume 1839.550650
_symmetry_space_group_name_H-M "P 21/C"
_symmetry_group_IT_number 14
_symmetry_cell_setting 'monoclinic'
loop_
_space_group_symop_operation_xyz
x,y,z
-x,1/2+y,1/2-z
-x,-y,-z
x,1/2-y,1/2+z
loop_
_atom_site_type_symbol
_atom_site_label
_atom_site_fract_x
_atom_site_fract_y
_atom_site_fract_z
Si Si1 0.924226 0.726411 0.210647
Si Si2 0.924735 0.889065 0.629934
Si Si3 0.390901 0.528026 0.675807
Si Si4 0.156433 0.767013 0.822993
Si Si5 0.684492 0.057208 0.193987
Si Si6 0.129391 0.616915 0.464359
Si Si7 0.050407 0.959458 0.742239
Si Si8 0.785502 0.975794 0.765795
O O1 0.875397 0.750656 0.540262
O O2 0.896782 0.667015 0.266677
O O3 0.048410 0.735163 0.000577
O O4 0.818315 0.916345 0.710563
O O5 0.958647 0.923263 0.801110
O O6 0.017247 0.887480 0.279135
O O7 0.500000 0.500000 0.500000
O O8 0.385553 0.563705 0.438158
O O9 0.296784 0.486162 0.817806
O O10 0.380209 0.560952 0.944535
O O11 0.216696 0.749478 0.473375
O O12 0.139520 0.826929 0.839385
O O13 0.772268 0.101935 0.029403
O O14 0.734643 0.999655 0.098417
O O15 0.134923 0.576560 0.234724
O O16 0.109555 0.990096 0.432875
O O17 0.000000 0.000000 0.000000
#
# Coordination Sequence:
#
# PCOD8124712 Si02
#       8
#     4   4   4   4   4   4   4   4
#     4  10  20  35  46  67  95 141 189 209 244 288
#     4  12  21  30  49  72 106 154 170 217 247 296
#     4  10  21  39  56  70 103 136 165 221 268 307
#     4  10  20  32  46  67  95 141 182 210 244 288
#     4  10  21  35  52  81 100 132 179 205 255 325
#     4  12  20  31  50  69 109 147 173 214 246 300
#     4  12  21  30  46  72 114 148 178 200 250 302
#     4  10  22  31  48  79 104 133 182 205 252 314
#
# _framework density 17.395553
#
# number of rings (size 3 to 8) (size 9 to 14) (size 15 to 20)
#    0.750    0.500    6.250    3.000    0.000    0.000 
#    0.000    0.000    0.000    0.000    0.000    0.000 
#    0.000    6.000    0.000    0.000    0.000    0.000 
#
# Total GULP energy -396418.235375 kJ/mol
# GULP energy per Si atom -12388.069855 kJ/mol
# Density = 1.735596 g / cm^3
# Si number density = 17.395553 Si / 1000 Ang^3
#
#
#
# Elastic Constant Matrix: (Units=GPa)
#
#
# Indices 1 2 3 4 5 6 
#
# 1 58.1659 21.4797 24.2428 0.0000 15.4194 0.0000
# 2 21.4797 112.5502 21.9546 0.0000 10.7179 0.0000
# 3 24.2428 21.9546 74.0919 0.0000 29.3765 0.0000
# 4 0.0000 0.0000 0.0000 17.0290 0.0000 9.4384
# 5 15.4194 10.7179 29.3765 0.0000 34.3726 0.0000
# 6 0.0000 0.0000 0.0000 9.4384 0.0000 18.8207
#
#
#
# Elastic Compliance Matrix: (Units=1/GPa)
#
#
# Indices 1 2 3 4 5 6 
#
# 1 0.021297 -0.002772 -0.004086 0.000000 -0.005197 0.000000
# 2 -0.002772 0.009807 -0.001935 0.000000 -0.000160 0.000000
# 3 -0.004086 -0.001935 0.021843 0.000000 -0.016231 0.000000
# 4 0.000000 0.000000 0.000000 0.081329 0.000000 -0.040786
# 5 -0.005197 -0.000160 -0.016231 0.000000 0.045346 0.000000
# 6 0.000000 0.000000 0.000000 -0.040786 0.000000 0.073587
#
#
# Mechanical properties :
#
#
# Convention : Reuss Voigt Hill
#
# Bulk Modulus (GPa) = 28.28188 42.24024 35.26106
# Shear Modulus (GPa) = 17.69396 25.85319 21.77357
#
# Velocity S-wave (km/s) = 3.19275 3.85930 3.54174
# Velocity P-wave (km/s) = 5.46671 6.64785 6.08600
#
# Compressibility (1/GPa) = 0.03535833
#
# Stress axis : x y z
#
# Youngs Moduli (GPa) = 46.95544 101.97019 45.78186
#
# Poissons Ratio (x) = 0.28270 0.18708
# Poissons Ratio (y) = 0.13018 0.08860
# Poissons Ratio (z) = 0.19188 0.19734
#
# Static dielectric constant tensor:
#      x y z
#    x 4.248860 0.000000 -0.236960 
#    y 0.000000 3.197690 0.000000 
#    z -0.236960 0.000000 3.869940 
# 
# 
# High freq. dielectric constant tensor:
#      x y z
#    x 1.641220 0.000000 0.044940 
#    y 0.000000 1.658900 0.000000 
#    z 0.044940 0.000000 1.655720 
# 
# From -- ./inp_files/4291.got.cif
#   From: 2010.03.12/outbox.cif.g09.slc.cpg/sg14_3_cif.got.tgz:4291.got - 2010.03.31 13:35:05.
