data_PCOD8124557
_publ_section_title
;
Structure prediction by ZEFSAII (Michael W. Deem and Ramdas Pophale) SiO2 
 PCOD8124557
Probable space group: P 21/C
;
_chemical_formula_sum "Si O2"
_cell_formula_units_Z 32
_cell_length_a 10.106613
_cell_length_b 9.322185
_cell_length_c 27.533331
_cell_angle_alpha 90.000000
_cell_angle_beta 34.351465
_cell_angle_gamma 90.000000
_cell_volume 1463.751713
_symmetry_space_group_name_H-M "P 21/C"
_symmetry_group_IT_number 14
_symmetry_cell_setting 'monoclinic'
loop_
_space_group_symop_operation_xyz
x,y,z
-x,1/2+y,1/2-z
-x,-y,-z
x,1/2-y,1/2+z
loop_
_atom_site_type_symbol
_atom_site_label
_atom_site_fract_x
_atom_site_fract_y
_atom_site_fract_z
Si Si1 0.797456 0.131567 0.608150
Si Si2 0.452696 0.039130 0.069660
Si Si3 0.729827 0.226739 0.824586
Si Si4 0.682917 0.933385 0.560917
Si Si5 0.254778 0.566168 0.427487
Si Si6 0.468396 0.152516 0.553877
Si Si7 0.301500 0.930843 0.257120
Si Si8 0.865483 0.407488 0.867684
O O1 0.746437 0.270073 0.590773
O O2 0.667597 0.140038 0.699402
O O3 0.071480 0.112323 0.536849
O O4 0.711282 0.985944 0.607752
O O5 0.683353 0.051922 0.034167
O O6 0.341278 0.198716 0.106470
O O7 0.272582 0.924103 0.145970
O O8 0.500000 0.000000 0.000000
O O9 0.470280 0.291175 0.897575
O O10 0.814609 0.187620 0.744456
O O11 0.891163 0.339418 0.805566
O O12 0.564626 0.067603 0.570613
O O13 0.443322 0.478365 0.338507
O O14 0.000000 0.500000 0.500000
O O15 0.692520 0.194663 0.451482
O O16 0.269336 0.059685 0.588047
O O17 0.124514 0.068771 0.311348
#
# Coordination Sequence:
#
# PCOD8124557 Si02
#       8
#     4   4   4   4   4   4   4   4
#     4  11  22  40  68  95 129 179 224 278 329 402
#     4  11  21  39  68 102 130 172 226 277 331 410
#     4  10  23  41  63  94 136 172 217 279 338 403
#     4  10  21  41  69  94 125 174 229 266 332 407
#     4  11  26  47  65  98 139 181 225 283 346 410
#     4  10  19  38  68  96 126 170 222 265 341 403
#     4  11  25  41  65  98 139 173 230 279 339 404
#     4  10  21  40  64  95 131 173 215 277 332 408
#
# _framework density 21.861630000000002
#
# number of rings (size 3 to 8) (size 9 to 14) (size 15 to 20)
#    0.000    1.500    3.750    1.500    1.750    3.000 
#    2.250    0.000    0.000    0.000    0.000    0.000 
#    0.000    0.000    0.000    0.000    0.000    0.000 
#
# Total GULP energy -396582.281316 kJ/mol
# GULP energy per Si atom -12393.196291 kJ/mol
# Density = 2.181187 g / cm^3
# Si number density = 21.861630 Si / 1000 Ang^3
#
#
#
# Elastic Constant Matrix: (Units=GPa)
#
#
# Indices 1 2 3 4 5 6 
#
# 1 98.7408 22.5652 43.0258 0.0000 16.1737 0.0000
# 2 22.5652 102.3584 24.9694 0.0000 7.5438 0.0000
# 3 43.0258 24.9694 91.6294 0.0000 11.1609 0.0000
# 4 0.0000 0.0000 0.0000 21.0180 0.0000 5.4679
# 5 16.1737 7.5438 11.1609 0.0000 40.7393 0.0000
# 6 0.0000 0.0000 0.0000 5.4679 0.0000 33.6844
#
#
#
# Elastic Compliance Matrix: (Units=1/GPa)
#
#
# Indices 1 2 3 4 5 6 
#
# 1 0.013417 -0.001354 -0.005496 0.000000 -0.003570 0.000000
# 2 -0.001354 0.010659 -0.002166 0.000000 -0.000843 0.000000
# 3 -0.005496 -0.002166 0.014245 0.000000 -0.001320 0.000000
# 4 0.000000 0.000000 0.000000 0.049676 0.000000 -0.008064
# 5 -0.003570 -0.000843 -0.001320 0.000000 0.026481 0.000000
# 6 0.000000 0.000000 0.000000 -0.008064 0.000000 0.030996
#
#
# Mechanical properties :
#
#
# Convention : Reuss Voigt Hill
#
# Bulk Modulus (GPa) = 49.28975 52.64991 50.96983
# Shear Modulus (GPa) = 29.36526 32.56623 30.96574
#
# Velocity S-wave (km/s) = 3.66899 3.86379 3.76765
# Velocity P-wave (km/s) = 6.36740 6.63632 6.50325
#
# Compressibility (1/GPa) = 0.02028819
#
# Stress axis : x y z
#
# Youngs Moduli (GPa) = 74.53449 93.82116 70.19848
#
# Poissons Ratio (x) = 0.12702 0.38582
# Poissons Ratio (y) = 0.10091 0.15206
# Poissons Ratio (z) = 0.40965 0.20323
#
# Static dielectric constant tensor:
#      x y z
#    x 4.024680 0.000000 0.158800 
#    y 0.000000 4.155880 0.000000 
#    z 0.158800 0.000000 3.840350 
# 
# 
# High freq. dielectric constant tensor:
#      x y z
#    x 1.865750 0.000000 0.010170 
#    y 0.000000 1.863360 0.000000 
#    z 0.010170 0.000000 1.838410 
# 
# From -- ./inp_files/79998.got.cif
#   From: 2010.03.12/outbox.cif.g09.slc.cpg/sg14_40_cif.got.tgz:79998.got - 2010.03.31 13:35:05.
