data_PCOD8124297
_publ_section_title
;
Structure prediction by ZEFSAII (Michael W. Deem and Ramdas Pophale) SiO2 
 PCOD8124297
Probable space group: P 21/C
;
_chemical_formula_sum "Si O2"
_cell_formula_units_Z 28
_cell_length_a 9.630800
_cell_length_b 12.475324
_cell_length_c 13.239718
_cell_angle_alpha 90.000000
_cell_angle_beta 70.278056
_cell_angle_gamma 90.000000
_cell_volume 1497.407755
_symmetry_space_group_name_H-M "P 21/C"
_symmetry_group_IT_number 14
_symmetry_cell_setting 'monoclinic'
loop_
_space_group_symop_operation_xyz
x,y,z
-x,1/2+y,1/2-z
-x,-y,-z
x,1/2-y,1/2+z
loop_
_atom_site_type_symbol
_atom_site_label
_atom_site_fract_x
_atom_site_fract_y
_atom_site_fract_z
Si Si1 0.156891 0.887957 0.392292
Si Si2 0.479619 0.546287 0.298936
Si Si3 0.654668 0.777294 0.676230
Si Si4 0.614691 0.346554 0.338991
Si Si5 0.378048 0.385617 0.160730
Si Si6 0.180116 0.098159 0.517332
Si Si7 0.654050 0.269209 0.549009
O O1 0.249861 0.872825 0.267862
O O2 0.195417 0.790749 0.458484
O O3 0.985656 0.882836 0.404994
O O4 0.195007 0.997918 0.439427
O O5 0.631298 0.610502 0.240220
O O6 0.515235 0.453860 0.372074
O O7 0.425989 0.494017 0.206170
O O8 0.360414 0.626454 0.376357
O O9 0.489417 0.745617 0.680920
O O10 0.718042 0.687069 0.737180
O O11 0.765486 0.795148 0.555558
O O12 0.675669 0.309559 0.430520
O O13 0.281986 0.421265 0.089412
O O14 0.518456 0.314379 0.092732
#
# Coordination Sequence:
#
# PCOD8124297 Si02
#       7
#     4   4   4   4   4   4   4
#     4  11  24  38  57  91 117 155 201 241 290 358
#     4  10  19  36  58  92 119 139 208 247 276 354
#     4  10  19  36  60  89 114 149 199 247 278 351
#     4  11  20  36  61  90 117 153 199 243 296 340
#     4  10  21  36  62  86 111 156 196 236 296 344
#     4  11  23  40  59  83 125 155 190 246 300 344
#     4  11  21  36  63  89 114 161 191 249 296 338
#
# _framework density 18.698981
#
# number of rings (size 3 to 8) (size 9 to 14) (size 15 to 20)
#    0.000    1.429    7.143    0.429    2.000    2.286 
#    0.000    1.429    0.000    4.286    0.000    0.000 
#    0.000    0.000    0.000    0.000    0.000    0.000 
#
# Total GULP energy -347072.218057 kJ/mol
# GULP energy per Si atom -12395.436359 kJ/mol
# Density = 1.865642 g / cm^3
# Si number density = 18.698981 Si / 1000 Ang^3
#
#
#
# Elastic Constant Matrix: (Units=GPa)
#
#
# Indices 1 2 3 4 5 6 
#
# 1 69.1413 35.2713 45.5899 0.0000 5.3617 0.0000
# 2 35.2713 82.3746 38.8028 0.0000 -4.0054 0.0000
# 3 45.5899 38.8028 109.5846 0.0000 1.0543 0.0000
# 4 0.0000 0.0000 0.0000 23.5402 0.0000 1.1760
# 5 5.3617 -4.0054 1.0543 0.0000 25.2380 0.0000
# 6 0.0000 0.0000 0.0000 1.1760 0.0000 22.6871
#
#
#
# Elastic Compliance Matrix: (Units=1/GPa)
#
#
# Indices 1 2 3 4 5 6 
#
# 1 0.023078 -0.006794 -0.007141 0.000000 -0.005683 0.000000
# 2 -0.006794 0.016733 -0.003139 0.000000 0.004230 0.000000
# 3 -0.007141 -0.003139 0.013203 0.000000 0.000467 0.000000
# 4 0.000000 0.000000 0.000000 0.042591 0.000000 -0.002208
# 5 -0.005683 0.004230 0.000467 0.000000 0.041482 0.000000
# 6 0.000000 0.000000 0.000000 -0.002208 0.000000 0.044192
#
#
# Mechanical properties :
#
#
# Convention : Reuss Voigt Hill
#
# Bulk Modulus (GPa) = 53.00461 55.60318 54.30390
# Shear Modulus (GPa) = 22.55131 23.72217 23.13674
#
# Velocity S-wave (km/s) = 3.47654 3.56565 3.52138
# Velocity P-wave (km/s) = 6.67255 6.83757 6.75556
#
# Compressibility (1/GPa) = 0.01886628
#
# Stress axis : x y z
#
# Youngs Moduli (GPa) = 43.33096 59.76102 75.73991
#
# Poissons Ratio (x) = 0.40604 0.54083
# Poissons Ratio (y) = 0.29441 0.23776
# Poissons Ratio (z) = 0.30941 0.18760
#
# Static dielectric constant tensor:
#      x y z
#    x 3.170310 0.000000 0.083750 
#    y 0.000000 3.635860 0.000000 
#    z 0.083750 0.000000 3.523150 
# 
# 
# High freq. dielectric constant tensor:
#      x y z
#    x 1.690700 0.000000 0.010400 
#    y 0.000000 1.741690 0.000000 
#    z 0.010400 0.000000 1.730020 
# 
# From -- ./inp_files/39945.got.cif
#   From: 2010.03.12/outbox.cif.g09.slc.cpg/sg14_20_cif.got.tgz:39945.got - 2010.03.31 13:35:05.
