data_PCOD8124564
_publ_section_title
;
Structure prediction by ZEFSAII (Michael W. Deem and Ramdas Pophale) SiO2 
 PCOD8124564
Probable space group: P 21/C
;
_chemical_formula_sum "Si O2"
_cell_formula_units_Z 28
_cell_length_a 21.039806
_cell_length_b 11.919068
_cell_length_c 18.681601
_cell_angle_alpha 90.000000
_cell_angle_beta 161.498066
_cell_angle_gamma 90.000000
_cell_volume 1486.683003
_symmetry_space_group_name_H-M "P 21/C"
_symmetry_group_IT_number 14
_symmetry_cell_setting 'monoclinic'
loop_
_space_group_symop_operation_xyz
x,y,z
-x,1/2+y,1/2-z
-x,-y,-z
x,1/2-y,1/2+z
loop_
_atom_site_type_symbol
_atom_site_label
_atom_site_fract_x
_atom_site_fract_y
_atom_site_fract_z
Si Si1 0.699019 0.471302 0.023601
Si Si2 0.553178 0.777236 0.710988
Si Si3 0.512255 0.813579 0.013643
Si Si4 0.528891 0.421832 0.098866
Si Si5 0.617438 0.439946 0.414485
Si Si6 0.844009 0.975421 0.031753
Si Si7 0.770065 0.496017 0.734637
O O1 0.923760 0.470432 0.237170
O O2 0.644681 0.355036 0.005204
O O3 0.645049 0.565950 0.025760
O O4 0.556187 0.477586 0.800769
O O5 0.594961 0.724053 0.678658
O O6 0.495664 0.680180 0.705870
O O7 0.749736 0.850229 0.942922
O O8 0.454632 0.707933 0.903718
O O9 0.322946 0.896902 0.816482
O O10 0.691385 0.880711 0.168410
O O11 0.740891 0.462683 0.355436
O O12 0.500000 0.500000 0.000000
O O13 0.804748 0.447083 0.559651
O O14 0.712538 0.472807 0.591320
O O15 0.000000 0.500000 0.000000
#
# Coordination Sequence:
#
# PCOD8124564 Si02
#       7
#     4   4   4   4   4   4   4
#     4  10  22  37  58  88 116 150 196 236 292 352
#     4   9  19  39  58  79 116 157 189 240 294 341
#     4  10  20  39  60  84 122 151 189 249 292 338
#     4  10  19  39  57  88 122 149 184 243 294 340
#     4   9  21  40  56  80 121 149 190 246 288 339
#     4  10  22  36  60  89 113 154 196 233 292 355
#     4  10  23  39  61  88 110 155 203 238 290 348
#
# _framework density 18.833873000000001
#
# number of rings (size 3 to 8) (size 9 to 14) (size 15 to 20)
#    0.000    2.571    2.857    0.000    0.000   13.143 
#    0.000    0.000    0.000    0.000    0.000    0.000 
#    0.000    0.000    0.000    0.000    0.000    0.000 
#
# Total GULP energy -346953.345996 kJ/mol
# GULP energy per Si atom -12391.190928 kJ/mol
# Density = 1.879101 g / cm^3
# Si number density = 18.833873 Si / 1000 Ang^3
#
#
#
# Elastic Constant Matrix: (Units=GPa)
#
#
# Indices 1 2 3 4 5 6 
#
# 1 103.3988 37.4829 70.1242 0.0000 5.3099 0.0000
# 2 37.4829 105.6908 38.2750 0.0000 -4.8407 0.0000
# 3 70.1242 38.2750 133.7578 0.0000 18.4224 0.0000
# 4 0.0000 0.0000 0.0000 14.6374 0.0000 -5.6843
# 5 5.3099 -4.8407 18.4224 0.0000 37.8409 0.0000
# 6 0.0000 0.0000 0.0000 -5.6843 0.0000 31.6483
#
#
#
# Elastic Compliance Matrix: (Units=1/GPa)
#
#
# Indices 1 2 3 4 5 6 
#
# 1 0.015810 -0.002784 -0.007650 0.000000 0.001150 0.000000
# 2 -0.002784 0.011378 -0.002198 0.000000 0.002916 0.000000
# 3 -0.007650 -0.002198 0.012870 0.000000 -0.005473 0.000000
# 4 0.000000 0.000000 0.000000 0.073441 0.000000 0.013190
# 5 0.001150 0.002916 -0.005473 0.000000 0.029303 0.000000
# 6 0.000000 0.000000 0.000000 0.013190 0.000000 0.033966
#
#
# Mechanical properties :
#
#
# Convention : Reuss Voigt Hill
#
# Bulk Modulus (GPa) = 67.59706 70.51240 69.05473
# Shear Modulus (GPa) = 24.15890 29.95633 27.05762
#
# Velocity S-wave (km/s) = 3.58542 3.99250 3.79442
# Velocity P-wave (km/s) = 7.28762 7.66641 7.47941
#
# Compressibility (1/GPa) = 0.01479354
#
# Stress axis : x y z
#
# Youngs Moduli (GPa) = 63.25235 87.88551 77.70147
#
# Poissons Ratio (x) = 0.24465 0.59443
# Poissons Ratio (y) = 0.17608 0.17080
# Poissons Ratio (z) = 0.48390 0.19319
#
# Static dielectric constant tensor:
#      x y z
#    x 3.774590 0.000000 -0.060200 
#    y 0.000000 3.672490 0.000000 
#    z -0.060200 0.000000 3.221280 
# 
# 
# High freq. dielectric constant tensor:
#      x y z
#    x 1.743180 0.000000 -0.002270 
#    y 0.000000 1.739250 0.000000 
#    z -0.002270 0.000000 1.711410 
# 
# From -- ./inp_files/61314.got.cif
#   From: 2010.03.12/outbox.cif.g09.slc.cpg/sg14_31_cif.got.tgz:61314.got - 2010.03.31 13:35:05.
