data_PCOD8124856
_publ_section_title
;
Structure prediction by ZEFSAII (Michael W. Deem and Ramdas Pophale) SiO2 
 PCOD8124856
Probable space group: P 21/C
;
_chemical_formula_sum "Si O2"
_cell_formula_units_Z 24
_cell_length_a 9.047044
_cell_length_b 16.071825
_cell_length_c 16.859484
_cell_angle_alpha 90.000000
_cell_angle_beta 150.128954
_cell_angle_gamma 90.000000
_cell_volume 1220.924386
_symmetry_space_group_name_H-M "P 21/C"
_symmetry_group_IT_number 14
_symmetry_cell_setting 'monoclinic'
loop_
_space_group_symop_operation_xyz
x,y,z
-x,1/2+y,1/2-z
-x,-y,-z
x,1/2-y,1/2+z
loop_
_atom_site_type_symbol
_atom_site_label
_atom_site_fract_x
_atom_site_fract_y
_atom_site_fract_z
Si Si1 0.396620 0.587871 0.387044
Si Si2 0.615334 0.789727 0.878613
Si Si3 0.617764 0.236496 0.010670
Si Si4 0.807351 0.170408 0.750025
Si Si5 0.168889 0.173454 0.193848
Si Si6 0.979451 0.493327 0.671699
O O1 0.365627 0.642693 0.292181
O O2 0.506566 0.650542 0.509262
O O3 0.648011 0.518278 0.488574
O O4 0.081872 0.546461 0.268336
O O5 0.481517 0.697632 0.832468
O O6 0.672838 0.803113 0.813618
O O7 0.904233 0.804164 0.066092
O O8 0.804002 0.284175 0.164474
O O9 0.846380 0.216181 0.045979
O O10 0.358531 0.293609 0.856231
O O11 0.800443 0.071816 0.728216
O O12 0.128327 0.074132 0.182879
#
# Coordination Sequence:
#
# PCOD8124856 Si02
#       6
#     4   4   4   4   4   4
#     4   8  17  34  54  76 105 142 179 212 256 318
#     4  10  20  35  56  79 107 140 175 216 265 318
#     4  10  20  36  55  76 107 146 180 210 258 322
#     4  10  20  37  57  77 104 142 182 215 256 314
#     4  11  21  34  55  82 109 137 174 221 268 311
#     4   9  18  33  55  80 104 136 180 222 257 304
#
# _framework density 19.657238
#
# number of rings (size 3 to 8) (size 9 to 14) (size 15 to 20)
#    0.000    2.333    0.000    4.000    0.000    3.333 
#    0.000    3.333    0.000    3.000    0.000    0.000 
#    0.000    0.000    0.000    0.000    0.000    0.000 
#
# Total GULP energy -297363.753493 kJ/mol
# GULP energy per Si atom -12390.156396 kJ/mol
# Density = 1.961250 g / cm^3
# Si number density = 19.657238 Si / 1000 Ang^3
#
#
#
# Elastic Constant Matrix: (Units=GPa)
#
#
# Indices 1 2 3 4 5 6 
#
# 1 134.3779 55.4190 16.2467 0.0000 6.5565 0.0000
# 2 55.4190 140.1434 35.9743 0.0000 10.2779 0.0000
# 3 16.2467 35.9743 57.0330 0.0000 -4.0998 0.0000
# 4 0.0000 0.0000 0.0000 29.6007 0.0000 14.3278
# 5 6.5565 10.2779 -4.0998 0.0000 20.6996 0.0000
# 6 0.0000 0.0000 0.0000 14.3278 0.0000 31.0339
#
#
#
# Elastic Compliance Matrix: (Units=1/GPa)
#
#
# Indices 1 2 3 4 5 6 
#
# 1 0.008931 -0.003292 -0.000562 0.000000 -0.001306 0.000000
# 2 -0.003292 0.010359 -0.005976 0.000000 -0.005284 0.000000
# 3 -0.000562 -0.005976 0.022003 0.000000 0.007503 0.000000
# 4 0.000000 0.000000 0.000000 0.043505 0.000000 -0.020086
# 5 -0.001306 -0.005284 0.007503 0.000000 0.052833 0.000000
# 6 0.000000 0.000000 0.000000 -0.020086 0.000000 0.041496
#
#
# Mechanical properties :
#
#
# Convention : Reuss Voigt Hill
#
# Bulk Modulus (GPa) = 46.22514 60.75937 53.49226
# Shear Modulus (GPa) = 24.27221 31.19446 27.73333
#
# Velocity S-wave (km/s) = 3.51774 3.98794 3.76020
# Velocity P-wave (km/s) = 6.32977 7.22367 6.79144
#
# Compressibility (1/GPa) = 0.02163325
#
# Stress axis : x y z
#
# Youngs Moduli (GPa) = 111.97129 96.53575 45.44921
#
# Poissons Ratio (x) = 0.31777 0.02553
# Poissons Ratio (y) = 0.36858 0.27161
# Poissons Ratio (z) = 0.06289 0.57691
#
# Static dielectric constant tensor:
#      x y z
#    x 3.712250 0.000000 0.269330 
#    y 0.000000 3.909070 0.000000 
#    z 0.269330 0.000000 3.194150 
# 
# 
# High freq. dielectric constant tensor:
#      x y z
#    x 1.769720 0.000000 0.023590 
#    y 0.000000 1.774530 0.000000 
#    z 0.023590 0.000000 1.725350 
# 
# From -- ./inp_files/9213.got.cif
#   From: 2010.03.12/outbox.cif.g09.slc.cpg/sg14_5_cif.got.tgz:9213.got - 2010.03.31 13:35:05.
