data_PCOD8124420
_publ_section_title
;
Structure prediction by ZEFSAII (Michael W. Deem and Ramdas Pophale) SiO2 
 PCOD8124420
Probable space group: P 21/C
;
_chemical_formula_sum "Si O2"
_cell_formula_units_Z 32
_cell_length_a 8.677257
_cell_length_b 14.136505
_cell_length_c 15.077283
_cell_angle_alpha 90.000000
_cell_angle_beta 128.414634
_cell_angle_gamma 90.000000
_cell_volume 1449.125101
_symmetry_space_group_name_H-M "P 21/C"
_symmetry_group_IT_number 14
_symmetry_cell_setting 'monoclinic'
loop_
_space_group_symop_operation_xyz
x,y,z
-x,1/2+y,1/2-z
-x,-y,-z
x,1/2-y,1/2+z
loop_
_atom_site_type_symbol
_atom_site_label
_atom_site_fract_x
_atom_site_fract_y
_atom_site_fract_z
Si Si1 0.657481 0.468681 0.716215
Si Si2 0.908994 0.205822 0.003232
Si Si3 0.121142 0.562607 0.375897
Si Si4 0.216090 0.331793 0.170431
Si Si5 0.196135 0.734050 0.218274
Si Si6 0.184394 0.191669 0.317347
Si Si7 0.239804 0.408902 0.540642
Si Si8 0.420699 0.221531 0.562074
O O1 0.709474 0.467261 0.631033
O O2 0.761727 0.559339 0.796010
O O3 0.749429 0.373182 0.790493
O O4 0.420581 0.471219 0.645887
O O5 0.787063 0.153075 0.036684
O O6 0.987745 0.308958 0.062557
O O7 0.107248 0.139478 0.068830
O O8 0.793030 0.207841 0.869745
O O9 0.091072 0.473332 0.429706
O O10 0.915165 0.595322 0.256484
O O11 0.272121 0.260349 0.271995
O O12 0.344424 0.317936 0.128351
O O13 0.343987 0.777417 0.343881
O O14 0.981973 0.745550 0.184106
O O15 0.355283 0.163753 0.450015
O O16 0.341340 0.327701 0.517593
#
# Coordination Sequence:
#
# PCOD8124420 Si02
#       8
#     4   4   4   4   4   4   4   4
#     4  10  22  35  59  94 119 150 208 254 306 357
#     4  10  21  39  61  86 120 165 202 243 311 367
#     4  10  21  35  59  92 117 156 202 252 301 353
#     4  10  21  38  63  90 121 162 197 255 310 354
#     4  10  21  40  60  88 120 166 200 249 310 368
#     4  10  20  40  60  90 126 159 204 248 303 362
#     4  10  19  37  60  88 118 153 206 258 291 355
#     4  10  21  40  62  86 125 164 202 248 309 368
#
# _framework density 22.082291000000001
#
# number of rings (size 3 to 8) (size 9 to 14) (size 15 to 20)
#    0.000    2.000    2.500    1.500    1.750    2.500 
#    2.250    0.000    0.000    0.750    0.000    0.000 
#    0.000    0.000    0.000    0.000    0.000    0.000 
#
# Total GULP energy -396442.464516 kJ/mol
# GULP energy per Si atom -12388.827016 kJ/mol
# Density = 2.203203 g / cm^3
# Si number density = 22.082291 Si / 1000 Ang^3
#
#
#
# Elastic Constant Matrix: (Units=GPa)
#
#
# Indices 1 2 3 4 5 6 
#
# 1 27.4075 15.9712 33.6848 0.0000 -4.0099 0.0000
# 2 15.9712 78.9872 44.3155 0.0000 2.1641 0.0000
# 3 33.6848 44.3155 158.5414 0.0000 -1.0119 0.0000
# 4 0.0000 0.0000 0.0000 46.6707 0.0000 -2.3799
# 5 -4.0099 2.1641 -1.0119 0.0000 33.6265 0.0000
# 6 0.0000 0.0000 0.0000 -2.3799 0.0000 18.6789
#
#
#
# Elastic Compliance Matrix: (Units=1/GPa)
#
#
# Indices 1 2 3 4 5 6 
#
# 1 0.052302 -0.005380 -0.009569 0.000000 0.006295 0.000000
# 2 -0.005380 0.015609 -0.003231 0.000000 -0.001743 0.000000
# 3 -0.009569 -0.003231 0.009239 0.000000 -0.000655 0.000000
# 4 0.000000 0.000000 0.000000 0.021567 0.000000 0.002748
# 5 0.006295 -0.001743 -0.000655 0.000000 0.030582 0.000000
# 6 0.000000 0.000000 0.000000 0.002748 0.000000 0.053887
#
#
# Mechanical properties :
#
#
# Convention : Reuss Voigt Hill
#
# Bulk Modulus (GPa) = 24.51466 50.31992 37.41729
# Shear Modulus (GPa) = 21.44623 31.19286 26.31954
#
# Velocity S-wave (km/s) = 3.11978 3.76250 3.45611
# Velocity P-wave (km/s) = 4.90948 6.45849 5.73651
#
# Compressibility (1/GPa) = 0.04079191
#
# Stress axis : x y z
#
# Youngs Moduli (GPa) = 19.11958 64.06739 108.23107
#
# Poissons Ratio (x) = 0.34465 1.03563
# Poissons Ratio (y) = 0.10285 0.34970
# Poissons Ratio (z) = 0.18295 0.20701
#
# Static dielectric constant tensor:
#      x y z
#    x 3.860700 0.000000 -0.045990 
#    y 0.000000 3.949320 0.000000 
#    z -0.045990 0.000000 4.064660 
# 
# 
# High freq. dielectric constant tensor:
#      x y z
#    x 1.855100 0.000000 -0.011830 
#    y 0.000000 1.846920 0.000000 
#    z -0.011830 0.000000 1.870520 
# 
# From -- ./inp_files/41257.got.cif
#   From: 2010.03.12/outbox.cif.g09.slc.cpg/sg14_21_cif.got.tgz:41257.got - 2010.03.31 13:35:05.
