data_PCOD8124031
_publ_section_title
;
Structure prediction by ZEFSAII (Michael W. Deem and Ramdas Pophale) SiO2 
 PCOD8124031
Probable space group: P 21/C
;
_chemical_formula_sum "Si O2"
_cell_formula_units_Z 24
_cell_length_a 9.383468
_cell_length_b 9.420175
_cell_length_c 13.833913
_cell_angle_alpha 90.000000
_cell_angle_beta 80.261057
_cell_angle_gamma 90.000000
_cell_volume 1205.211074
_symmetry_space_group_name_H-M "P 21/C"
_symmetry_group_IT_number 14
_symmetry_cell_setting 'monoclinic'
loop_
_space_group_symop_operation_xyz
x,y,z
-x,1/2+y,1/2-z
-x,-y,-z
x,1/2-y,1/2+z
loop_
_atom_site_type_symbol
_atom_site_label
_atom_site_fract_x
_atom_site_fract_y
_atom_site_fract_z
Si Si1 0.208067 0.685870 0.121025
Si Si2 0.197456 0.950190 0.827276
Si Si3 0.339305 0.553756 0.506235
Si Si4 0.883234 0.848966 0.876052
Si Si5 0.147335 0.070959 0.512461
Si Si6 0.129089 0.271322 0.830874
O O1 0.239320 0.638493 0.227210
O O2 0.314329 0.813146 0.080081
O O3 0.246411 0.554107 0.045178
O O4 0.042889 0.740578 0.128182
O O5 0.039165 0.910661 0.883935
O O6 0.201111 0.118401 0.807208
O O7 0.310724 0.905699 0.897660
O O8 0.500000 0.500000 0.500000
O O9 0.233220 0.425805 0.544781
O O10 0.882388 0.682279 0.898955
O O11 0.847140 0.867503 0.766836
O O12 0.211325 0.148856 0.409852
O O13 0.000000 0.000000 0.500000
#
# Coordination Sequence:
#
# PCOD8124031 Si02
#       6
#     4   4   4   4   4   4
#     4  10  22  38  62  98 127 159 212 263 314 380
#     4  11  20  39  68  92 124 166 211 273 319 359
#     4  12  26  44  61  91 133 176 210 251 318 389
#     4  11  21  37  65  94 124 162 211 264 318 374
#     4  10  19  33  59  96 125 152 202 266 322 368
#     4  10  19  34  66  98 121 159 209 270 321 363
#
# _framework density 19.913525
#
# number of rings (size 3 to 8) (size 9 to 14) (size 15 to 20)
#    0.000    1.333    5.000    2.500    0.000    1.333 
#    3.000    0.833    0.000    0.000    0.000    0.000 
#    0.000    0.000    0.000    0.000    0.000    0.000 
#
# Total GULP energy -297599.915777 kJ/mol
# GULP energy per Si atom -12399.996491 kJ/mol
# Density = 1.986820 g / cm^3
# Si number density = 19.913525 Si / 1000 Ang^3
#
#
#
# Elastic Constant Matrix: (Units=GPa)
#
#
# Indices 1 2 3 4 5 6 
#
# 1 83.4062 37.2033 50.2517 0.0000 8.8609 0.0000
# 2 37.2033 117.8268 46.9847 0.0000 -1.6101 0.0000
# 3 50.2517 46.9847 140.6518 0.0000 17.0780 0.0000
# 4 0.0000 0.0000 0.0000 43.6247 0.0000 -2.4006
# 5 8.8609 -1.6101 17.0780 0.0000 15.8504 0.0000
# 6 0.0000 0.0000 0.0000 -2.4006 0.0000 20.0014
#
#
#
# Elastic Compliance Matrix: (Units=1/GPa)
#
#
# Indices 1 2 3 4 5 6 
#
# 1 0.016659 -0.003710 -0.004068 0.000000 -0.005307 0.000000
# 2 -0.003710 0.011005 -0.003150 0.000000 0.006586 0.000000
# 3 -0.004068 -0.003150 0.010790 0.000000 -0.009671 0.000000
# 4 0.000000 0.000000 0.000000 0.023075 0.000000 0.002770
# 5 -0.005307 0.006586 -0.009671 0.000000 0.077146 0.000000
# 6 0.000000 0.000000 0.000000 0.002770 0.000000 0.050329
#
#
# Mechanical properties :
#
#
# Convention : Reuss Voigt Hill
#
# Bulk Modulus (GPa) = 60.25422 67.86269 64.05846
# Shear Modulus (GPa) = 23.10606 29.72498 26.41552
#
# Velocity S-wave (km/s) = 3.41004 3.86774 3.64608
# Velocity P-wave (km/s) = 6.76965 7.35517 7.06848
#
# Compressibility (1/GPa) = 0.01659635
#
# Stress axis : x y z
#
# Youngs Moduli (GPa) = 60.02617 90.86978 92.67981
#
# Poissons Ratio (x) = 0.33716 0.37704
# Poissons Ratio (y) = 0.22272 0.29196
# Poissons Ratio (z) = 0.24420 0.28626
#
# Static dielectric constant tensor:
#      x y z
#    x 3.100820 0.000000 0.205170 
#    y 0.000000 3.996790 0.000000 
#    z 0.205170 0.000000 4.113670 
# 
# 
# High freq. dielectric constant tensor:
#      x y z
#    x 1.710770 0.000000 0.017000 
#    y 0.000000 1.793540 0.000000 
#    z 0.017000 0.000000 1.798210 
# 
# From -- ./inp_files/39004.got.cif
#   From: 2010.03.12/outbox.cif.g09.slc.cpg/sg14_20_cif.got.tgz:39004.got - 2010.03.31 13:35:05.
