data_PCOD8124321
_publ_section_title
;
Structure prediction by ZEFSAII (Michael W. Deem and Ramdas Pophale) SiO2 
 PCOD8124321
Probable space group: P 21/C
;
_chemical_formula_sum "Si O2"
_cell_formula_units_Z 32
_cell_length_a 8.886284
_cell_length_b 13.574163
_cell_length_c 18.163417
_cell_angle_alpha 90.000000
_cell_angle_beta 131.441678
_cell_angle_gamma 90.000000
_cell_volume 1642.395163
_symmetry_space_group_name_H-M "P 21/C"
_symmetry_group_IT_number 14
_symmetry_cell_setting 'monoclinic'
loop_
_space_group_symop_operation_xyz
x,y,z
-x,1/2+y,1/2-z
-x,-y,-z
x,1/2-y,1/2+z
loop_
_atom_site_type_symbol
_atom_site_label
_atom_site_fract_x
_atom_site_fract_y
_atom_site_fract_z
Si Si1 0.945611 0.900070 0.194713
Si Si2 0.254039 0.065446 0.285009
Si Si3 0.956406 0.658237 0.002768
Si Si4 0.057429 0.361535 0.579661
Si Si5 0.256299 0.024832 0.011586
Si Si6 0.313979 0.523005 0.291423
Si Si7 0.318959 0.988411 0.623626
Si Si8 0.990023 0.818874 0.682977
O O1 0.004227 0.787162 0.225548
O O2 0.841830 0.937340 0.236228
O O3 0.792825 0.914410 0.077586
O O4 0.147654 0.959781 0.242406
O O5 0.186819 0.135989 0.196212
O O6 0.490660 0.045372 0.362314
O O7 0.192625 0.118663 0.341116
O O8 0.949955 0.696096 0.083959
O O9 0.146031 0.589086 0.049651
O O10 0.978385 0.748858 0.954087
O O11 0.752242 0.597674 0.921921
O O12 0.183238 0.415683 0.558234
O O13 0.843774 0.416111 0.522546
O O14 0.495675 0.015753 0.093607
O O15 0.379402 0.508583 0.228701
O O16 0.202305 0.627518 0.266549
#
# Coordination Sequence:
#
# PCOD8124321 Si02
#       8
#     4   4   4   4   4   4   4   4
#     4  10  21  38  58  84 122 152 186 244 297 337
#     4  10  22  40  60  88 116 151 197 240 284 348
#     4  10  22  40  59  83 121 154 190 239 290 344
#     4  10  20  36  60  89 116 146 191 242 286 339
#     4  10  19  36  60  87 118 148 187 240 296 335
#     4  10  21  37  60  86 115 152 196 238 285 349
#     4  10  22  40  60  85 116 156 196 238 285 342
#     4  10  22  39  57  84 119 154 193 236 289 349
#
# _framework density 19.483739
#
# number of rings (size 3 to 8) (size 9 to 14) (size 15 to 20)
#    0.000    2.000    2.500    0.375    1.750    2.500 
#    0.000    0.000    0.000    0.000    0.000    0.000 
#    0.000    0.000    0.000    0.000    0.000    0.000 
#
# Total GULP energy -396899.009613 kJ/mol
# GULP energy per Si atom -12403.094050 kJ/mol
# Density = 1.943939 g / cm^3
# Si number density = 19.483739 Si / 1000 Ang^3
#
#
#
# Elastic Constant Matrix: (Units=GPa)
#
#
# Indices 1 2 3 4 5 6 
#
# 1 80.9056 23.6127 20.2816 0.0000 17.4003 0.0000
# 2 23.6127 126.0461 31.3234 0.0000 10.8587 0.0000
# 3 20.2816 31.3234 61.4463 0.0000 24.2576 0.0000
# 4 0.0000 0.0000 0.0000 20.0357 0.0000 -6.2086
# 5 17.4003 10.8587 24.2576 0.0000 20.8381 0.0000
# 6 0.0000 0.0000 0.0000 -6.2086 0.0000 21.8771
#
#
#
# Elastic Compliance Matrix: (Units=1/GPa)
#
#
# Indices 1 2 3 4 5 6 
#
# 1 0.015515 -0.002052 0.001142 0.000000 -0.013216 0.000000
# 2 -0.002052 0.009372 -0.005271 0.000000 0.002966 0.000000
# 3 0.001142 -0.005271 0.033078 0.000000 -0.036713 0.000000
# 4 0.000000 0.000000 0.000000 0.054723 0.000000 0.015530
# 5 -0.013216 0.002966 -0.036713 0.000000 0.100216 0.000000
# 6 0.000000 0.000000 0.000000 0.015530 0.000000 0.050117
#
#
# Mechanical properties :
#
#
# Convention : Reuss Voigt Hill
#
# Bulk Modulus (GPa) = 21.92824 46.53703 34.23263
# Shear Modulus (GPa) = 17.20668 25.42887 21.31777
#
# Velocity S-wave (km/s) = 2.97497 3.61658 3.31135
# Velocity P-wave (km/s) = 4.80413 6.43245 5.67698
#
# Compressibility (1/GPa) = 0.04560331
#
# Stress axis : x y z
#
# Youngs Moduli (GPa) = 64.45439 106.69572 30.23173
#
# Poissons Ratio (x) = 0.21892 -0.03453
# Poissons Ratio (y) = 0.13225 0.15936
# Poissons Ratio (z) = -0.07362 0.56243
#
# Static dielectric constant tensor:
#      x y z
#    x 3.570080 0.000000 -0.098750 
#    y 0.000000 3.491700 0.000000 
#    z -0.098750 0.000000 3.456490 
# 
# 
# High freq. dielectric constant tensor:
#      x y z
#    x 1.764360 0.000000 -0.007090 
#    y 0.000000 1.755060 0.000000 
#    z -0.007090 0.000000 1.751620 
# 
# From -- ./inp_files/65606.got.cif
#   From: 2010.03.12/outbox.cif.g09.slc.cpg/sg14_33_cif.got.tgz:65606.got - 2010.03.31 13:35:05.
