data_PCOD8124850
_publ_section_title
;
Structure prediction by ZEFSAII (Michael W. Deem and Ramdas Pophale) SiO2 
 PCOD8124850
Probable space group: P 21/C
;
_chemical_formula_sum "Si O2"
_cell_formula_units_Z 32
_cell_length_a 11.171109
_cell_length_b 22.153931
_cell_length_c 5.624670
_cell_angle_alpha 90.000000
_cell_angle_beta 61.273129
_cell_angle_gamma 90.000000
_cell_volume 1220.687594
_symmetry_space_group_name_H-M "P 21/C"
_symmetry_group_IT_number 14
_symmetry_cell_setting 'monoclinic'
loop_
_space_group_symop_operation_xyz
x,y,z
-x,1/2+y,1/2-z
-x,-y,-z
x,1/2-y,1/2+z
loop_
_atom_site_type_symbol
_atom_site_label
_atom_site_fract_x
_atom_site_fract_y
_atom_site_fract_z
Si Si1 0.320655 0.226813 0.743625
Si Si2 0.121056 0.719399 0.581359
Si Si3 0.576135 0.609385 0.985120
Si Si4 0.101781 0.477286 0.699143
Si Si5 0.075473 0.902388 0.954604
Si Si6 0.350263 0.488137 0.737233
Si Si7 0.586231 0.299640 0.547440
Si Si8 0.676582 0.112726 0.579398
O O1 0.252583 0.248985 0.058348
O O2 0.314682 0.154087 0.745592
O O3 0.483672 0.245076 0.567303
O O4 0.071469 0.750545 0.379337
O O5 0.045302 0.652684 0.666706
O O6 0.288517 0.719085 0.401201
O O7 0.649690 0.550095 0.018252
O O8 0.506719 0.646107 0.265954
O O9 0.462359 0.588807 0.908404
O O10 0.127964 0.534790 0.508542
O O11 0.249272 0.453655 0.651617
O O12 0.046571 0.418950 0.608758
O O13 0.000000 0.500000 0.000000
O O14 0.202926 0.868997 0.709066
O O15 0.500000 0.500000 0.500000
O O16 0.273516 0.552572 0.831986
O O17 0.657371 0.327231 0.247250
#
# Coordination Sequence:
#
# PCOD8124850 Si02
#       8
#     4   4   4   4   4   4   4   4
#     4  10  20  35  55  85 132 179 224 270 341 418
#     4  12  25  39  68 109 148 188 240 311 368 430
#     4  11  22  35  56  92 136 177 221 288 352 415
#     4  11  25  48  72  98 141 194 245 300 367 447
#     4  11  25  43  72 101 137 194 245 299 369 445
#     4  12  24  42  67 102 140 179 238 300 363 421
#     4  11  21  36  58  97 144 181 228 288 366 422
#     4  12  21  40  63  98 145 182 232 299 359 432
#
# _framework density 26.214732999999999
#
# number of rings (size 3 to 8) (size 9 to 14) (size 15 to 20)
#    0.000    0.750    5.000    4.125    1.750    0.000 
#    0.000    0.000    0.000    3.000    0.000    0.000 
#    0.000    0.000    0.000    0.000    0.000    0.000 
#
# Total GULP energy -396617.060499 kJ/mol
# GULP energy per Si atom -12394.283141 kJ/mol
# Density = 2.615507 g / cm^3
# Si number density = 26.214733 Si / 1000 Ang^3
#
#
#
# Elastic Constant Matrix: (Units=GPa)
#
#
# Indices 1 2 3 4 5 6 
#
# 1 100.0763 31.3100 21.9283 0.0000 31.9624 0.0000
# 2 31.3100 121.2320 10.4539 0.0000 19.7470 0.0000
# 3 21.9283 10.4539 83.6785 0.0000 26.6595 0.0000
# 4 0.0000 0.0000 0.0000 34.0829 0.0000 14.9358
# 5 31.9624 19.7470 26.6595 0.0000 37.5826 0.0000
# 6 0.0000 0.0000 0.0000 14.9358 0.0000 34.3174
#
#
#
# Elastic Compliance Matrix: (Units=1/GPa)
#
#
# Indices 1 2 3 4 5 6 
#
# 1 0.014086 -0.001843 0.000061 0.000000 -0.011055 0.000000
# 2 -0.001843 0.009278 0.000488 0.000000 -0.003654 0.000000
# 3 0.000061 0.000488 0.015467 0.000000 -0.011280 0.000000
# 4 0.000000 0.000000 0.000000 0.036255 0.000000 -0.015779
# 5 -0.011055 -0.003654 -0.011280 0.000000 0.045931 0.000000
# 6 0.000000 0.000000 0.000000 -0.015779 0.000000 0.036007
#
#
# Mechanical properties :
#
#
# Convention : Reuss Voigt Hill
#
# Bulk Modulus (GPa) = 27.59125 48.04123 37.81624
# Shear Modulus (GPa) = 29.12174 37.28288 33.20231
#
# Velocity S-wave (km/s) = 3.33662 3.77531 3.56273
# Velocity P-wave (km/s) = 5.03905 6.11308 5.60187
#
# Compressibility (1/GPa) = 0.03624338
#
# Stress axis : x y z
#
# Youngs Moduli (GPa) = 70.99168 107.78652 64.65233
#
# Poissons Ratio (x) = 0.19860 -0.00393
# Poissons Ratio (y) = 0.13081 -0.03154
# Poissons Ratio (z) = -0.00432 -0.05259
#
# Static dielectric constant tensor:
#      x y z
#    x 4.620760 0.000000 0.457860 
#    y 0.000000 5.045060 0.000000 
#    z 0.457860 0.000000 4.722200 
# 
# 
# High freq. dielectric constant tensor:
#      x y z
#    x 2.027930 0.000000 0.027700 
#    y 0.000000 2.065640 0.000000 
#    z 0.027700 0.000000 2.044760 
# 
# From -- ./inp_files/3206.got.cif
#   From: 2010.03.12/outbox.cif.g09.slc.cpg/sg14_2_cif.got.tgz:3206.got - 2010.03.31 13:35:05.
