data_PCOD8124753
_publ_section_title
;
Structure prediction by ZEFSAII (Michael W. Deem and Ramdas Pophale) SiO2 
 PCOD8124753
Probable space group: P 21/C
;
_chemical_formula_sum "Si O2"
_cell_formula_units_Z 28
_cell_length_a 21.325113
_cell_length_b 8.805859
_cell_length_c 14.281735
_cell_angle_alpha 90.000000
_cell_angle_beta 32.212988
_cell_angle_gamma 90.000000
_cell_volume 1429.640086
_symmetry_space_group_name_H-M "P 21/C"
_symmetry_group_IT_number 14
_symmetry_cell_setting 'monoclinic'
loop_
_space_group_symop_operation_xyz
x,y,z
-x,1/2+y,1/2-z
-x,-y,-z
x,1/2-y,1/2+z
loop_
_atom_site_type_symbol
_atom_site_label
_atom_site_fract_x
_atom_site_fract_y
_atom_site_fract_z
Si Si1 0.862865 0.510579 0.189061
Si Si2 0.749874 0.751400 0.702850
Si Si3 0.481440 0.680574 0.525888
Si Si4 0.309550 0.073199 0.551236
Si Si5 0.312234 0.743490 0.573098
Si Si6 0.248160 0.340286 0.494253
Si Si7 0.425944 0.606076 0.256114
O O1 0.799644 0.592251 0.181427
O O2 0.809821 0.342856 0.254982
O O3 0.841254 0.589882 0.317239
O O4 0.000000 0.500000 0.000000
O O5 0.768411 0.629761 0.762347
O O6 0.817021 0.709707 0.520487
O O7 0.612491 0.755942 0.849665
O O8 0.500000 0.500000 0.500000
O O9 0.393369 0.751570 0.561738
O O10 0.419903 0.743545 0.698488
O O11 0.304922 0.188966 0.469530
O O12 0.442770 0.045517 0.413732
O O13 0.267376 0.902205 0.584580
O O14 0.394611 0.651771 0.399768
O O15 0.342399 0.463710 0.337786
#
# Coordination Sequence:
#
# PCOD8124753 Si02
#       7
#     4   4   4   4   4   4   4
#     4  10  23  44  60  80 115 155 197 254 299 337
#     4  10  20  38  59  81 121 153 190 240 295 350
#     4  11  21  34  58  93 123 156 193 237 294 362
#     4  10  20  33  56  88 121 157 189 239 294 355
#     4  11  22  35  59  87 117 154 198 238 294 356
#     4  10  21  38  58  84 116 158 200 240 295 352
#     4  10  21  33  55  87 127 160 186 237 293 358
#
# _framework density 19.585348
#
# number of rings (size 3 to 8) (size 9 to 14) (size 15 to 20)
#    0.000    1.714    1.429    3.429    6.000    2.286 
#    0.000    8.571    0.000    0.000    0.000    0.000 
#    0.000    0.000    0.000    0.000    0.000    0.000 
#
# Total GULP energy -346910.010109 kJ/mol
# GULP energy per Si atom -12389.643218 kJ/mol
# Density = 1.954077 g / cm^3
# Si number density = 19.585348 Si / 1000 Ang^3
#
#
#
# Elastic Constant Matrix: (Units=GPa)
#
#
# Indices 1 2 3 4 5 6 
#
# 1 76.7276 24.9485 41.1688 0.0000 18.1510 0.0000
# 2 24.9485 140.6369 39.5431 0.0000 2.9376 0.0000
# 3 41.1688 39.5431 96.7585 0.0000 -0.2383 0.0000
# 4 0.0000 0.0000 0.0000 19.5670 0.0000 10.7565
# 5 18.1510 2.9376 -0.2383 0.0000 25.1589 0.0000
# 6 0.0000 0.0000 0.0000 10.7565 0.0000 23.9903
#
#
#
# Elastic Compliance Matrix: (Units=1/GPa)
#
#
# Indices 1 2 3 4 5 6 
#
# 1 0.021888 -0.001044 -0.008925 0.000000 -0.015754 0.000000
# 2 -0.001044 0.008107 -0.002869 0.000000 -0.000220 0.000000
# 3 -0.008925 -0.002869 0.015322 0.000000 0.006919 0.000000
# 4 0.000000 0.000000 0.000000 0.067824 0.000000 -0.030410
# 5 -0.015754 -0.000220 0.006919 0.000000 0.051204 0.000000
# 6 0.000000 0.000000 0.000000 -0.030410 0.000000 0.055318
#
#
# Mechanical properties :
#
#
# Convention : Reuss Voigt Hill
#
# Bulk Modulus (GPa) = 50.91652 58.38267 54.64959
# Shear Modulus (GPa) = 19.85006 27.64073 23.74540
#
# Velocity S-wave (km/s) = 3.18703 3.76080 3.48574
# Velocity P-wave (km/s) = 6.29258 6.98085 6.64563
#
# Compressibility (1/GPa) = 0.01963999
#
# Stress axis : x y z
#
# Youngs Moduli (GPa) = 45.68644 123.34745 65.26505
#
# Poissons Ratio (x) = 0.12882 0.58249
# Poissons Ratio (y) = 0.04771 0.18727
# Poissons Ratio (z) = 0.40775 0.35393
#
# Static dielectric constant tensor:
#      x y z
#    x 3.534210 0.000000 0.320760 
#    y 0.000000 4.165870 0.000000 
#    z 0.320760 0.000000 3.320840 
# 
# 
# High freq. dielectric constant tensor:
#      x y z
#    x 1.753390 0.000000 0.032920 
#    y 0.000000 1.779150 0.000000 
#    z 0.032920 0.000000 1.734620 
# 
# From -- ./inp_files/43314.got.cif
#   From: 2010.03.12/outbox.cif.g09.slc.cpg/sg14_22_cif.got.tgz:43314.got - 2010.03.31 13:35:05.
