data_PCOD8124223
_publ_section_title
;
Structure prediction by ZEFSAII (Michael W. Deem and Ramdas Pophale) SiO2 
 PCOD8124223
Probable space group: P 21/C
;
_chemical_formula_sum "Si O2"
_cell_formula_units_Z 32
_cell_length_a 12.524837
_cell_length_b 11.231651
_cell_length_c 14.840074
_cell_angle_alpha 90.000000
_cell_angle_beta 45.031330
_cell_angle_gamma 90.000000
_cell_volume 1476.978247
_symmetry_space_group_name_H-M "P 21/C"
_symmetry_group_IT_number 14
_symmetry_cell_setting 'monoclinic'
loop_
_space_group_symop_operation_xyz
x,y,z
-x,1/2+y,1/2-z
-x,-y,-z
x,1/2-y,1/2+z
loop_
_atom_site_type_symbol
_atom_site_label
_atom_site_fract_x
_atom_site_fract_y
_atom_site_fract_z
Si Si1 0.109424 0.304042 0.600971
Si Si2 0.740314 0.929980 0.479343
Si Si3 0.417216 0.889366 0.931314
Si Si4 0.790746 0.424553 0.773452
Si Si5 0.335303 0.404313 0.590532
Si Si6 0.305131 0.048044 0.843642
Si Si7 0.613218 0.155225 0.632784
Si Si8 0.542372 0.237333 0.359559
O O1 0.121133 0.160445 0.579476
O O2 0.181452 0.334472 0.657682
O O3 0.203265 0.369081 0.467002
O O4 0.941203 0.350123 0.701719
O O5 0.587246 0.857347 0.586826
O O6 0.762217 0.973403 0.363944
O O7 0.731491 0.046548 0.548803
O O8 0.600030 0.892074 0.846118
O O9 0.352895 0.755453 0.963168
O O10 0.392254 0.948184 0.849069
O O11 0.322238 0.958414 0.065641
O O12 0.798281 0.487866 0.671192
O O13 0.656924 0.329134 0.857469
O O14 0.472237 0.351343 0.448893
O O15 0.438677 0.122295 0.717687
O O16 0.632167 0.212732 0.719696
#
# Coordination Sequence:
#
# PCOD8124223 Si02
#       8
#     4   4   4   4   4   4   4   4
#     4  10  24  46  61  95 142 177 228 278 345 415
#     4  11  24  43  66 101 137 177 230 284 331 404
#     4  10  19  35  60  94 124 161 222 271 329 388
#     4  12  24  43  67 101 137 187 224 278 346 418
#     4   9  20  38  62  92 123 171 216 284 325 388
#     4  11  22  39  69  98 131 178 223 282 337 406
#     4  12  20  37  69 100 131 167 222 288 333 394
#     4  11  21  39  67  99 130 165 231 280 330 400
#
# _framework density 21.665859000000001
#
# number of rings (size 3 to 8) (size 9 to 14) (size 15 to 20)
#    0.000    1.250    6.250    1.500    3.500    0.000 
#   11.250    0.625    0.000    0.000    0.000    0.000 
#    0.000    0.000    0.000    0.000    0.000    0.000 
#
# Total GULP energy -396522.797594 kJ/mol
# GULP energy per Si atom -12391.337425 kJ/mol
# Density = 2.161655 g / cm^3
# Si number density = 21.665859 Si / 1000 Ang^3
#
#
#
# Elastic Constant Matrix: (Units=GPa)
#
#
# Indices 1 2 3 4 5 6 
#
# 1 93.1260 42.2544 28.0052 0.0000 9.2695 0.0000
# 2 42.2544 131.1218 34.1001 0.0000 7.5425 0.0000
# 3 28.0052 34.1001 51.3116 0.0000 12.2015 0.0000
# 4 0.0000 0.0000 0.0000 26.1339 0.0000 -1.3073
# 5 9.2695 7.5425 12.2015 0.0000 27.3381 0.0000
# 6 0.0000 0.0000 0.0000 -1.3073 0.0000 31.4273
#
#
#
# Elastic Compliance Matrix: (Units=1/GPa)
#
#
# Indices 1 2 3 4 5 6 
#
# 1 0.013816 -0.003020 -0.005166 0.000000 -0.001546 0.000000
# 2 -0.003020 0.009881 -0.005050 0.000000 0.000551 0.000000
# 3 -0.005166 -0.005050 0.027875 0.000000 -0.009296 0.000000
# 4 0.000000 0.000000 0.000000 0.038344 0.000000 0.001595
# 5 -0.001546 0.000551 -0.009296 0.000000 0.041100 0.000000
# 6 0.000000 0.000000 0.000000 0.001595 0.000000 0.031886
#
#
# Mechanical properties :
#
#
# Convention : Reuss Voigt Hill
#
# Bulk Modulus (GPa) = 39.83971 53.80875 46.82423
# Shear Modulus (GPa) = 25.28580 28.39318 26.83949
#
# Velocity S-wave (km/s) = 3.41996 3.62401 3.52347
# Velocity P-wave (km/s) = 5.83293 6.51160 6.18158
#
# Compressibility (1/GPa) = 0.02510058
#
# Stress axis : x y z
#
# Youngs Moduli (GPa) = 72.38140 101.20289 35.87473
#
# Poissons Ratio (x) = 0.30561 0.18533
# Poissons Ratio (y) = 0.21857 0.18116
# Poissons Ratio (z) = 0.37393 0.51104
#
# Static dielectric constant tensor:
#      x y z
#    x 4.071200 0.000000 0.195610 
#    y 0.000000 4.366970 0.000000 
#    z 0.195610 0.000000 3.573520 
# 
# 
# High freq. dielectric constant tensor:
#      x y z
#    x 1.836060 0.000000 0.022350 
#    y 0.000000 1.879500 0.000000 
#    z 0.022350 0.000000 1.810980 
# 
# From -- ./inp_files/44634.got.cif
#   From: 2010.03.12/outbox.cif.g09.slc.cpg/sg14_23_cif.got.tgz:44634.got - 2010.03.31 13:35:05.
