data_PCOD8124752
_publ_section_title
;
Structure prediction by ZEFSAII (Michael W. Deem and Ramdas Pophale) SiO2 
 PCOD8124752
Probable space group: P 21/C
;
_chemical_formula_sum "Si O2"
_cell_formula_units_Z 24
_cell_length_a 11.713352
_cell_length_b 21.733770
_cell_length_c 4.963539
_cell_angle_alpha 90.000000
_cell_angle_beta 84.828630
_cell_angle_gamma 90.000000
_cell_volume 1258.451039
_symmetry_space_group_name_H-M "P 21/C"
_symmetry_group_IT_number 14
_symmetry_cell_setting 'monoclinic'
loop_
_space_group_symop_operation_xyz
x,y,z
-x,1/2+y,1/2-z
-x,-y,-z
x,1/2-y,1/2+z
loop_
_atom_site_type_symbol
_atom_site_label
_atom_site_fract_x
_atom_site_fract_y
_atom_site_fract_z
Si Si1 0.656227 0.109665 0.306822
Si Si2 0.844139 0.209752 0.297594
Si Si3 0.510683 0.106527 0.812347
Si Si4 0.282235 0.103213 0.086580
Si Si5 0.107190 0.209540 0.239208
Si Si6 0.333334 0.028014 0.610428
O O1 0.767800 0.150947 0.247780
O O2 0.569611 0.141357 0.544267
O O3 0.692319 0.043844 0.423510
O O4 0.602971 0.097985 0.026375
O O5 0.816547 0.234677 0.599822
O O6 0.975576 0.188689 0.238867
O O7 0.463388 0.040890 0.700087
O O8 0.397305 0.140615 0.958342
O O9 0.181808 0.149619 0.173757
O O10 0.315848 0.062555 0.334542
O O11 0.244968 0.057241 0.851119
O O12 0.135870 0.235783 0.526402
#
# Coordination Sequence:
#
# PCOD8124752 Si02
#       6
#     4   4   4   4   4   4
#     4  12  20  35  59  83 110 156 177 216 282 325
#     4  10  23  42  58  79 106 145 193 231 263 328
#     4  10  20  33  56  83 114 144 178 214 271 329
#     4  10  20  35  54  85 112 136 182 235 262 317
#     4  10  21  40  63  75 102 151 192 224 274 331
#     4  10  20  33  56  86 116 142 182 218 272 334
#
# _framework density 19.071062999999999
#
# number of rings (size 3 to 8) (size 9 to 14) (size 15 to 20)
#    1.000    0.667    1.667    4.000    0.000    0.000 
#    0.000    6.667    0.000    0.000    0.000    0.000 
#    0.000    0.000    0.000    0.000    0.000    0.000 
#
# Total GULP energy -297381.597697 kJ/mol
# GULP energy per Si atom -12390.899904 kJ/mol
# Density = 1.902766 g / cm^3
# Si number density = 19.071063 Si / 1000 Ang^3
#
#
#
# Elastic Constant Matrix: (Units=GPa)
#
#
# Indices 1 2 3 4 5 6 
#
# 1 84.5397 53.3654 29.1306 0.0000 -7.5315 0.0000
# 2 53.3654 62.3524 16.0891 0.0000 -5.6885 0.0000
# 3 29.1306 16.0891 110.6633 0.0000 -6.4472 0.0000
# 4 0.0000 0.0000 0.0000 14.9317 0.0000 -0.9012
# 5 -7.5315 -5.6885 -6.4472 0.0000 23.5484 0.0000
# 6 0.0000 0.0000 0.0000 -0.9012 0.0000 16.0300
#
#
#
# Elastic Compliance Matrix: (Units=1/GPa)
#
#
# Indices 1 2 3 4 5 6 
#
# 1 0.027409 -0.022253 -0.003843 0.000000 0.002338 0.000000
# 2 -0.022253 0.035005 0.000860 0.000000 0.001574 0.000000
# 3 -0.003843 0.000860 0.010023 0.000000 0.001723 0.000000
# 4 0.000000 0.000000 0.000000 0.067200 0.000000 0.003778
# 5 0.002338 0.001574 0.001723 0.000000 0.044065 0.000000
# 6 0.000000 0.000000 0.000000 0.003778 0.000000 0.062596
#
#
# Mechanical properties :
#
#
# Convention : Reuss Voigt Hill
#
# Bulk Modulus (GPa) = 45.52752 50.52508 48.02630
# Shear Modulus (GPa) = 16.44239 21.50004 18.97121
#
# Velocity S-wave (km/s) = 2.93945 3.36127 3.15741
# Velocity P-wave (km/s) = 5.95356 6.45095 6.20724
#
# Compressibility (1/GPa) = 0.02196474
#
# Stress axis : x y z
#
# Youngs Moduli (GPa) = 36.48487 28.56713 99.76616
#
# Poissons Ratio (x) = 0.63571 0.38344
# Poissons Ratio (y) = 0.81190 -0.08582
# Poissons Ratio (z) = 0.14022 -0.02457
#
# Static dielectric constant tensor:
#      x y z
#    x 3.369450 0.000000 -0.150970 
#    y 0.000000 3.079000 0.000000 
#    z -0.150970 0.000000 3.878040 
# 
# 
# High freq. dielectric constant tensor:
#      x y z
#    x 1.722070 0.000000 -0.007760 
#    y 0.000000 1.703860 0.000000 
#    z -0.007760 0.000000 1.776340 
# 
# From -- ./inp_files/2781.got.cif
#   From: 2010.03.12/outbox.cif.g09.slc.cpg/sg14_2_cif.got.tgz:2781.got - 2010.03.31 13:35:05.
