data_PCOD8124125
_publ_section_title
;
Structure prediction by ZEFSAII (Michael W. Deem and Ramdas Pophale) SiO2 
 PCOD8124125
Probable space group: P 21/C
;
_chemical_formula_sum "Si O2"
_cell_formula_units_Z 28
_cell_length_a 7.766649
_cell_length_b 8.365941
_cell_length_c 25.745617
_cell_angle_alpha 90.000000
_cell_angle_beta 41.510955
_cell_angle_gamma 90.000000
_cell_volume 1108.690154
_symmetry_space_group_name_H-M "P 21/C"
_symmetry_group_IT_number 14
_symmetry_cell_setting 'monoclinic'
loop_
_space_group_symop_operation_xyz
x,y,z
-x,1/2+y,1/2-z
-x,-y,-z
x,1/2-y,1/2+z
loop_
_atom_site_type_symbol
_atom_site_label
_atom_site_fract_x
_atom_site_fract_y
_atom_site_fract_z
Si Si1 0.752640 0.277480 0.564123
Si Si2 0.279169 0.631966 0.540455
Si Si3 0.636499 0.208499 0.698259
Si Si4 0.882301 0.494235 0.909004
Si Si5 0.329682 0.251450 0.971836
Si Si6 0.637954 0.498974 0.858430
Si Si7 0.826023 0.996960 0.205133
O O1 0.691758 0.397445 0.529223
O O2 0.622646 0.322616 0.649066
O O3 0.629731 0.103350 0.580011
O O4 0.064303 0.290184 0.502989
O O5 0.554567 0.619650 0.511972
O O6 0.093606 0.510699 0.613356
O O7 0.145458 0.805968 0.575006
O O8 0.363284 0.135734 0.776959
O O9 0.729261 0.321374 0.723081
O O10 0.828980 0.058959 0.642769
O O11 0.827381 0.543703 0.862415
O O12 0.681245 0.588599 0.990499
O O13 0.548339 0.310357 0.881242
O O14 0.823265 0.534386 0.767404
#
# Coordination Sequence:
#
# PCOD8124125 Si02
#       7
#     4   4   4   4   4   4   4
#     4  10  20  36  67  90 122 161 208 255 302 353
#     4  11  21  38  63  93 124 158 209 255 301 364
#     4  10  24  41  61  90 124 164 207 252 311 371
#     4  10  19  37  66  94 118 155 215 256 296 366
#     4  10  19  34  65  96 116 156 213 254 294 362
#     4  10  19  36  62  90 126 160 208 251 306 359
#     4  11  25  40  59  89 129 167 199 256 315 371
#
# _framework density 25.255025
#
# number of rings (size 3 to 8) (size 9 to 14) (size 15 to 20)
#    0.000    1.714    2.857    2.143    6.000    2.857 
#    0.000    2.857    0.000    0.000    0.000    0.000 
#    0.000    0.000    0.000    0.000    0.000    0.000 
#
# Total GULP energy -346878.019339 kJ/mol
# GULP energy per Si atom -12388.500691 kJ/mol
# Density = 2.519754 g / cm^3
# Si number density = 25.255025 Si / 1000 Ang^3
#
#
#
# Elastic Constant Matrix: (Units=GPa)
#
#
# Indices 1 2 3 4 5 6 
#
# 1 129.9332 32.1450 30.3653 0.0000 6.5078 0.0000
# 2 32.1450 32.7782 15.5262 0.0000 3.3263 0.0000
# 3 30.3653 15.5262 92.3030 0.0000 -8.5126 0.0000
# 4 0.0000 0.0000 0.0000 26.7502 0.0000 -0.2759
# 5 6.5078 3.3263 -8.5126 0.0000 27.1534 0.0000
# 6 0.0000 0.0000 0.0000 -0.2759 0.0000 42.8529
#
#
#
# Elastic Compliance Matrix: (Units=1/GPa)
#
#
# Indices 1 2 3 4 5 6 
#
# 1 0.010558 -0.009135 -0.002128 0.000000 -0.002079 0.000000
# 2 -0.009135 0.042024 -0.004466 0.000000 -0.004359 0.000000
# 3 -0.002128 -0.004466 0.012751 0.000000 0.005055 0.000000
# 4 0.000000 0.000000 0.000000 0.037385 0.000000 0.000241
# 5 -0.002079 -0.004359 0.005055 0.000000 0.039445 0.000000
# 6 0.000000 0.000000 0.000000 0.000241 0.000000 0.023337
#
#
# Mechanical properties :
#
#
# Convention : Reuss Voigt Hill
#
# Bulk Modulus (GPa) = 29.51984 45.67636 37.59810
# Shear Modulus (GPa) = 24.00970 31.14984 27.57977
#
# Velocity S-wave (km/s) = 3.08667 3.51581 3.30820
# Velocity P-wave (km/s) = 4.94140 5.88273 5.43249
#
# Compressibility (1/GPa) = 0.03387553
#
# Stress axis : x y z
#
# Youngs Moduli (GPa) = 94.71823 23.79603 78.42276
#
# Poissons Ratio (x) = 0.21737 0.16691
# Poissons Ratio (y) = 0.86521 0.35021
# Poissons Ratio (z) = 0.20159 0.10627
#
# Static dielectric constant tensor:
#      x y z
#    x 4.802490 0.000000 0.264230 
#    y 0.000000 4.451980 0.000000 
#    z 0.264230 0.000000 4.434640 
# 
# 
# High freq. dielectric constant tensor:
#      x y z
#    x 2.017740 0.000000 0.012170 
#    y 0.000000 2.005450 0.000000 
#    z 0.012170 0.000000 2.000870 
# 
# From -- ./inp_files/76454.got.cif
#   From: 2010.03.12/outbox.cif.g09.slc.cpg/sg14_39_cif.got.tgz:76454.got - 2010.03.31 13:35:05.
