data_PCOD8124693
_publ_section_title
;
Structure prediction by ZEFSAII (Michael W. Deem and Ramdas Pophale) SiO2 
 PCOD8124693
Probable space group: P 21/C
;
_chemical_formula_sum "Si O2"
_cell_formula_units_Z 24
_cell_length_a 8.565954
_cell_length_b 9.654735
_cell_length_c 13.826903
_cell_angle_alpha 90.000000
_cell_angle_beta 104.111161
_cell_angle_gamma 90.000000
_cell_volume 1109.006730
_symmetry_space_group_name_H-M "P 21/C"
_symmetry_group_IT_number 14
_symmetry_cell_setting 'monoclinic'
loop_
_space_group_symop_operation_xyz
x,y,z
-x,1/2+y,1/2-z
-x,-y,-z
x,1/2-y,1/2+z
loop_
_atom_site_type_symbol
_atom_site_label
_atom_site_fract_x
_atom_site_fract_y
_atom_site_fract_z
Si Si1 0.830444 0.520553 0.923501
Si Si2 0.658087 0.723545 0.040461
Si Si3 0.705737 0.257513 0.977234
Si Si4 0.170026 0.389683 0.755314
Si Si5 0.185554 0.463856 0.545254
Si Si6 0.953355 0.163794 0.680410
O O1 0.876375 0.594845 0.830137
O O2 0.717070 0.611228 0.973655
O O3 0.738236 0.372888 0.898341
O O4 0.000000 0.500000 0.000000
O O5 0.692188 0.671509 0.154821
O O6 0.467577 0.732213 0.999466
O O7 0.745959 0.870059 0.032030
O O8 0.840627 0.280079 0.078708
O O9 0.716667 0.106183 0.932569
O O10 0.215057 0.378465 0.648832
O O11 0.139728 0.551554 0.770255
O O12 0.008899 0.297336 0.751246
O O13 0.000000 0.500000 0.500000
#
# Coordination Sequence:
#
# PCOD8124693 Si02
#       6
#     4   4   4   4   4   4
#     4  10  19  42  68  90 127 179 224 262 338 402
#     4  12  24  45  68  99 141 174 229 285 344 395
#     4  11  24  44  69  96 135 184 216 292 350 388
#     4  12  25  42  71 107 130 181 239 276 328 415
#     4  12  24  47  71  97 141 182 227 280 340 409
#     4  11  24  42  71  99 133 185 231 275 334 408
#
# _framework density 21.640988
#
# number of rings (size 3 to 8) (size 9 to 14) (size 15 to 20)
#    0.000    0.667    6.667    3.000    2.333    0.000 
#    6.000    0.000    0.000    0.000    0.000    0.000 
#    0.000    0.000    0.000    0.000    0.000    0.000 
#
# Total GULP energy -297526.724299 kJ/mol
# GULP energy per Si atom -12396.946846 kJ/mol
# Density = 2.159173 g / cm^3
# Si number density = 21.640988 Si / 1000 Ang^3
#
#
#
# Elastic Constant Matrix: (Units=GPa)
#
#
# Indices 1 2 3 4 5 6 
#
# 1 104.1581 33.9953 2.9921 0.0000 -9.8628 0.0000
# 2 33.9953 136.0556 14.2405 0.0000 1.7037 0.0000
# 3 2.9921 14.2405 65.4751 0.0000 -3.2805 0.0000
# 4 0.0000 0.0000 0.0000 30.9914 0.0000 -9.8054
# 5 -9.8628 1.7037 -3.2805 0.0000 19.0340 0.0000
# 6 0.0000 0.0000 0.0000 -9.8054 0.0000 37.1036
#
#
#
# Elastic Compliance Matrix: (Units=1/GPa)
#
#
# Indices 1 2 3 4 5 6 
#
# 1 0.011111 -0.002897 0.000428 0.000000 0.006090 0.000000
# 2 -0.002897 0.008294 -0.001799 0.000000 -0.002554 0.000000
# 3 0.000428 -0.001799 0.015800 0.000000 0.003106 0.000000
# 4 0.000000 0.000000 0.000000 0.035211 0.000000 0.009305
# 5 0.006090 -0.002554 0.003106 0.000000 0.056457 0.000000
# 6 0.000000 0.000000 0.000000 0.009305 0.000000 0.029411
#
#
# Mechanical properties :
#
#
# Convention : Reuss Voigt Hill
#
# Bulk Modulus (GPa) = 37.49945 45.34940 41.42442
# Shear Modulus (GPa) = 28.78333 34.38987 31.58660
#
# Velocity S-wave (km/s) = 3.65092 3.99069 3.82458
# Velocity P-wave (km/s) = 5.92773 6.49884 6.21984
#
# Compressibility (1/GPa) = 0.02666706
#
# Stress axis : x y z
#
# Youngs Moduli (GPa) = 90.00267 120.56678 63.28942
#
# Poissons Ratio (x) = 0.34930 -0.02706
# Poissons Ratio (y) = 0.26075 0.11389
# Poissons Ratio (z) = -0.03848 0.21696
#
# Static dielectric constant tensor:
#      x y z
#    x 3.625700 0.000000 -0.102550 
#    y 0.000000 4.536460 0.000000 
#    z -0.102550 0.000000 3.740240 
# 
# 
# High freq. dielectric constant tensor:
#      x y z
#    x 1.836880 0.000000 -0.008290 
#    y 0.000000 1.880750 0.000000 
#    z -0.008290 0.000000 1.823020 
# 
# From -- ./inp_files/39058.got.cif
#   From: 2010.03.12/outbox.cif.g09.slc.cpg/sg14_20_cif.got.tgz:39058.got - 2010.03.31 13:35:05.
