data_PCOD8124269
_publ_section_title
;
Structure prediction by ZEFSAII (Michael W. Deem and Ramdas Pophale) SiO2 
 PCOD8124269
Probable space group: P 21/C
;
_chemical_formula_sum "Si O2"
_cell_formula_units_Z 28
_cell_length_a 8.624006
_cell_length_b 13.328407
_cell_length_c 14.482755
_cell_angle_alpha 90.000000
_cell_angle_beta 112.045551
_cell_angle_gamma 90.000000
_cell_volume 1542.995581
_symmetry_space_group_name_H-M "P 21/C"
_symmetry_group_IT_number 14
_symmetry_cell_setting 'monoclinic'
loop_
_space_group_symop_operation_xyz
x,y,z
-x,1/2+y,1/2-z
-x,-y,-z
x,1/2-y,1/2+z
loop_
_atom_site_type_symbol
_atom_site_label
_atom_site_fract_x
_atom_site_fract_y
_atom_site_fract_z
Si Si1 0.994951 0.957805 0.643719
Si Si2 0.245466 0.794793 0.769731
Si Si3 0.692352 0.125818 0.845659
Si Si4 0.410070 0.251371 0.215178
Si Si5 0.192678 0.071580 0.215526
Si Si6 0.891791 0.178113 0.062978
Si Si7 0.110148 0.358428 0.062906
O O1 0.152413 0.889173 0.704570
O O2 0.861287 0.965582 0.695890
O O3 0.890984 0.916445 0.533712
O O4 0.068205 0.067192 0.638095
O O5 0.196626 0.695263 0.699343
O O6 0.447033 0.809643 0.809603
O O7 0.196163 0.780575 0.864745
O O8 0.501183 0.167778 0.803050
O O9 0.697160 0.012393 0.810208
O O10 0.758015 0.128200 0.964889
O O11 0.301163 0.173231 0.250682
O O12 0.293314 0.311421 0.117845
O O13 0.028959 0.093908 0.117632
O O14 0.971943 0.271909 0.028508
#
# Coordination Sequence:
#
# PCOD8124269 Si02
#       7
#     4   4   4   4   4   4   4
#     4  10  20  35  60  81 112 146 194 224 273 325
#     4   9  20  35  55  84 110 149 179 233 272 329
#     4  10  20  37  58  79 113 150 175 235 279 326
#     4   9  22  35  56  81 121 136 186 232 275 333
#     4  10  21  37  57  84 108 150 189 229 270 336
#     4  10  19  37  59  80 112 145 194 220 279 328
#     4  10  19  36  56  86 108 149 185 235 265 333
#
# _framework density 18.146519999999999
#
# number of rings (size 3 to 8) (size 9 to 14) (size 15 to 20)
#    0.857    1.429    1.429    1.286    2.000    1.143 
#    0.000    1.429    0.000    0.000    0.000    0.000 
#    0.000    0.000    0.000    0.000    0.000    0.000 
#
# Total GULP energy -347108.119805 kJ/mol
# GULP energy per Si atom -12396.718564 kJ/mol
# Density = 1.810522 g / cm^3
# Si number density = 18.146520 Si / 1000 Ang^3
#
#
#
# Elastic Constant Matrix: (Units=GPa)
#
#
# Indices 1 2 3 4 5 6 
#
# 1 69.4732 18.7799 44.4010 0.0000 15.5235 0.0000
# 2 18.7799 73.5995 34.7551 0.0000 4.3770 0.0000
# 3 44.4010 34.7551 103.1530 0.0000 1.7674 0.0000
# 4 0.0000 0.0000 0.0000 25.3609 0.0000 -0.2052
# 5 15.5235 4.3770 1.7674 0.0000 27.3761 0.0000
# 6 0.0000 0.0000 0.0000 -0.2052 0.0000 25.7701
#
#
#
# Elastic Compliance Matrix: (Units=1/GPa)
#
#
# Indices 1 2 3 4 5 6 
#
# 1 0.023618 -0.000684 -0.009719 0.000000 -0.012656 0.000000
# 2 -0.000684 0.016315 -0.005170 0.000000 -0.001887 0.000000
# 3 -0.009719 -0.005170 0.015528 0.000000 0.005335 0.000000
# 4 0.000000 0.000000 0.000000 0.039433 0.000000 0.000314
# 5 -0.012656 -0.001887 0.005335 0.000000 0.043662 0.000000
# 6 0.000000 0.000000 0.000000 0.000314 0.000000 0.038807
#
#
# Mechanical properties :
#
#
# Convention : Reuss Voigt Hill
#
# Bulk Modulus (GPa) = 41.12668 49.12195 45.12431
# Shear Modulus (GPa) = 23.08231 25.58740 24.33485
#
# Velocity S-wave (km/s) = 3.57038 3.75913 3.66597
# Velocity P-wave (km/s) = 6.30156 6.78010 6.54521
#
# Compressibility (1/GPa) = 0.02431512
#
# Stress axis : x y z
#
# Youngs Moduli (GPa) = 42.33998 61.29199 64.39891
#
# Poissons Ratio (x) = 0.04195 0.62588
# Poissons Ratio (y) = 0.02898 0.33295
# Poissons Ratio (z) = 0.41149 0.31689
#
# Static dielectric constant tensor:
#      x y z
#    x 3.182030 0.000000 0.036680 
#    y 0.000000 3.298310 0.000000 
#    z 0.036680 0.000000 3.216050 
# 
# 
# High freq. dielectric constant tensor:
#      x y z
#    x 1.689610 0.000000 0.003750 
#    y 0.000000 1.706860 0.000000 
#    z 0.003750 0.000000 1.699010 
# 
# From -- ./inp_files/40718.got.cif
#   From: 2010.03.12/outbox.cif.g09.slc.cpg/sg14_21_cif.got.tgz:40718.got - 2010.03.31 13:35:05.
