data_PCOD8124529
_publ_section_title
;
Structure prediction by ZEFSAII (Michael W. Deem and Ramdas Pophale) SiO2 
 PCOD8124529
Probable space group: P 21/C
;
_chemical_formula_sum "Si O2"
_cell_formula_units_Z 28
_cell_length_a 11.417871
_cell_length_b 10.032112
_cell_length_c 13.530563
_cell_angle_alpha 90.000000
_cell_angle_beta 110.672093
_cell_angle_gamma 90.000000
_cell_volume 1450.076960
_symmetry_space_group_name_H-M "P 21/C"
_symmetry_group_IT_number 14
_symmetry_cell_setting 'monoclinic'
loop_
_space_group_symop_operation_xyz
x,y,z
-x,1/2+y,1/2-z
-x,-y,-z
x,1/2-y,1/2+z
loop_
_atom_site_type_symbol
_atom_site_label
_atom_site_fract_x
_atom_site_fract_y
_atom_site_fract_z
Si Si1 0.448862 0.181413 0.454737
Si Si2 0.152130 0.685816 0.002846
Si Si3 0.691962 0.183342 0.109408
Si Si4 0.090203 0.759599 0.696279
Si Si5 0.963360 0.938796 0.296737
Si Si6 0.320928 0.409819 0.295039
Si Si7 0.623459 0.990798 0.398724
O O1 0.563267 0.242421 0.550787
O O2 0.372060 0.282887 0.366499
O O3 0.355657 0.120146 0.509551
O O4 0.499018 0.071254 0.392828
O O5 0.215126 0.802689 0.956950
O O6 0.047459 0.603706 0.913787
O O7 0.087184 0.753365 0.077541
O O8 0.255083 0.582661 0.072122
O O9 0.765217 0.250401 0.223559
O O10 0.661632 0.030595 0.122956
O O11 0.011229 0.634694 0.712350
O O12 0.032382 0.901146 0.716294
O O13 0.823208 0.889593 0.276986
O O14 0.399089 0.429605 0.216883
#
# Coordination Sequence:
#
# PCOD8124529 Si02
#       7
#     4   4   4   4   4   4   4
#     4  10  23  38  59  87 119 149 203 242 282 358
#     4  10  19  38  63  79 119 156 191 238 296 356
#     4   9  20  38  57  86 113 155 191 238 295 345
#     4  10  20  38  60  83 117 154 196 242 294 354
#     4  10  22  35  60  88 115 152 199 238 297 353
#     4  11  22  38  59  86 121 148 194 249 293 342
#     4  10  22  39  61  86 114 160 198 234 299 349
#
# _framework density 19.309318000000001
#
# number of rings (size 3 to 8) (size 9 to 14) (size 15 to 20)
#    0.000    2.000    2.857    0.857    4.000    0.000 
#    0.000    7.857    0.000    0.000    0.000    0.000 
#    0.000    0.000    0.000    0.000    0.000    0.000 
#
# Total GULP energy -347184.132681 kJ/mol
# GULP energy per Si atom -12399.433310 kJ/mol
# Density = 1.926537 g / cm^3
# Si number density = 19.309318 Si / 1000 Ang^3
#
#
#
# Elastic Constant Matrix: (Units=GPa)
#
#
# Indices 1 2 3 4 5 6 
#
# 1 48.5555 19.6754 19.0402 0.0000 -15.6399 0.0000
# 2 19.6754 79.2884 45.7609 0.0000 -21.5566 0.0000
# 3 19.0402 45.7609 94.7639 0.0000 -29.4621 0.0000
# 4 0.0000 0.0000 0.0000 34.8032 0.0000 -2.9536
# 5 -15.6399 -21.5566 -29.4621 0.0000 27.0461 0.0000
# 6 0.0000 0.0000 0.0000 -2.9536 0.0000 25.1547
#
#
#
# Elastic Compliance Matrix: (Units=1/GPa)
#
#
# Indices 1 2 3 4 5 6 
#
# 1 0.025861 -0.003101 0.000276 0.000000 0.012783 0.000000
# 2 -0.003101 0.018826 -0.006594 0.000000 0.006029 0.000000
# 3 0.000276 -0.006594 0.018292 0.000000 0.014830 0.000000
# 4 0.000000 0.000000 0.000000 0.029022 0.000000 0.003408
# 5 0.012783 0.006029 0.014830 0.000000 0.065326 0.000000
# 6 0.000000 0.000000 0.000000 0.003408 0.000000 0.040154
#
#
# Mechanical properties :
#
#
# Convention : Reuss Voigt Hill
#
# Bulk Modulus (GPa) = 22.65442 43.50677 33.08059
# Shear Modulus (GPa) = 21.64190 26.60956 24.12573
#
# Velocity S-wave (km/s) = 3.35147 3.71626 3.53857
# Velocity P-wave (km/s) = 5.17052 6.40270 5.81931
#
# Compressibility (1/GPa) = 0.04414149
#
# Stress axis : x y z
#
# Youngs Moduli (GPa) = 38.66826 53.11686 54.66956
#
# Poissons Ratio (x) = 0.16472 -0.01508
# Poissons Ratio (y) = 0.11991 0.36046
# Poissons Ratio (z) = -0.01066 0.35023
#
# Static dielectric constant tensor:
#      x y z
#    x 3.517040 0.000000 -0.068550 
#    y 0.000000 3.520440 0.000000 
#    z -0.068550 0.000000 3.628800 
# 
# 
# High freq. dielectric constant tensor:
#      x y z
#    x 1.748470 0.000000 -0.002450 
#    y 0.000000 1.742020 0.000000 
#    z -0.002450 0.000000 1.759750 
# 
# From -- ./inp_files/28647.got.cif
#   From: 2010.03.12/outbox.cif.g09.slc.cpg/sg14_15_cif.got.tgz:28647.got - 2010.03.31 13:35:05.
