data_PCOD8124395
_publ_section_title
;
Structure prediction by ZEFSAII (Michael W. Deem and Ramdas Pophale) SiO2 
 PCOD8124395
Probable space group: P 21/C
;
_chemical_formula_sum "Si O2"
_cell_formula_units_Z 28
_cell_length_a 10.676068
_cell_length_b 17.252637
_cell_length_c 11.233262
_cell_angle_alpha 90.000000
_cell_angle_beta 48.255512
_cell_angle_gamma 90.000000
_cell_volume 1543.768656
_symmetry_space_group_name_H-M "P 21/C"
_symmetry_group_IT_number 14
_symmetry_cell_setting 'monoclinic'
loop_
_space_group_symop_operation_xyz
x,y,z
-x,1/2+y,1/2-z
-x,-y,-z
x,1/2-y,1/2+z
loop_
_atom_site_type_symbol
_atom_site_label
_atom_site_fract_x
_atom_site_fract_y
_atom_site_fract_z
Si Si1 0.924149 0.077290 0.372092
Si Si2 0.343330 0.935738 0.815017
Si Si3 0.159992 0.425893 0.310881
Si Si4 0.848816 0.040862 0.850534
Si Si5 0.029621 0.655791 0.913731
Si Si6 0.932616 0.162561 0.120518
Si Si7 0.278219 0.420690 0.991977
O O1 0.902249 0.130086 0.501357
O O2 0.903821 0.131986 0.271446
O O3 0.781804 0.010391 0.465849
O O4 0.110180 0.035950 0.253666
O O5 0.533277 0.913423 0.670228
O O6 0.227567 0.861579 0.857785
O O7 0.288771 0.009464 0.773480
O O8 0.326788 0.956605 0.967304
O O9 0.106646 0.368026 0.450673
O O10 0.989728 0.464853 0.367363
O O11 0.255290 0.384197 0.139782
O O12 0.862234 0.116172 0.759594
O O13 0.053742 0.746042 0.883250
O O14 0.835530 0.630007 0.025188
#
# Coordination Sequence:
#
# PCOD8124395 Si02
#       7
#     4   4   4   4   4   4   4
#     4  10  19  37  58  77 108 148 191 215 266 338
#     4  11  18  35  59  86 107 137 188 240 267 310
#     4   9  17  33  55  83 104 140 185 225 261 318
#     4   9  17  35  57  79 106 144 194 217 258 330
#     4  10  23  36  55  80 115 149 180 220 277 338
#     4  11  20  34  59  84 107 146 184 226 276 327
#     4  10  21  36  58  83 111 141 186 236 270 308
#
# _framework density 18.137432
#
# number of rings (size 3 to 8) (size 9 to 14) (size 15 to 20)
#    0.000    2.286    4.286    3.000    6.000    0.000 
#    0.000    5.714    0.000    0.000    0.000    0.000 
#    0.000    0.000    0.000    0.000    0.000    0.000 
#
# Total GULP energy -346989.267118 kJ/mol
# GULP energy per Si atom -12392.473826 kJ/mol
# Density = 1.809615 g / cm^3
# Si number density = 18.137432 Si / 1000 Ang^3
#
#
#
# Elastic Constant Matrix: (Units=GPa)
#
#
# Indices 1 2 3 4 5 6 
#
# 1 46.1534 26.0724 41.6985 0.0000 0.8674 0.0000
# 2 26.0724 110.6959 23.0272 0.0000 3.8916 0.0000
# 3 41.6985 23.0272 114.7601 0.0000 -12.3624 0.0000
# 4 0.0000 0.0000 0.0000 17.9887 0.0000 5.3137
# 5 0.8674 3.8916 -12.3624 0.0000 28.6742 0.0000
# 6 0.0000 0.0000 0.0000 5.3137 0.0000 18.8760
#
#
#
# Elastic Compliance Matrix: (Units=1/GPa)
#
#
# Indices 1 2 3 4 5 6 
#
# 1 0.036547 -0.005750 -0.012753 0.000000 -0.005823 0.000000
# 2 -0.005750 0.010466 -0.000152 0.000000 -0.001312 0.000000
# 3 -0.012753 -0.000152 0.014076 0.000000 0.006475 0.000000
# 4 0.000000 0.000000 0.000000 0.060632 0.000000 -0.017068
# 5 -0.005823 -0.001312 0.006475 0.000000 0.038020 0.000000
# 6 0.000000 0.000000 0.000000 -0.017068 0.000000 0.057782
#
#
# Mechanical properties :
#
#
# Convention : Reuss Voigt Hill
#
# Bulk Modulus (GPa) = 42.05590 50.35620 46.20605
# Shear Modulus (GPa) = 19.02888 25.16187 22.09537
#
# Velocity S-wave (km/s) = 3.24257 3.72867 3.49409
# Velocity P-wave (km/s) = 6.10383 6.80891 6.46599
#
# Compressibility (1/GPa) = 0.02377788
#
# Stress axis : x y z
#
# Youngs Moduli (GPa) = 27.36240 95.54861 71.04504
#
# Poissons Ratio (x) = 0.54943 0.90602
# Poissons Ratio (y) = 0.15734 0.01080
# Poissons Ratio (z) = 0.34895 0.01452
#
# Static dielectric constant tensor:
#      x y z
#    x 3.074530 0.000000 0.241080 
#    y 0.000000 3.153100 0.000000 
#    z 0.241080 0.000000 3.754660 
# 
# 
# High freq. dielectric constant tensor:
#      x y z
#    x 1.668180 0.000000 0.024780 
#    y 0.000000 1.681690 0.000000 
#    z 0.024780 0.000000 1.721320 
# 
# From -- ./inp_files/30177.got.cif
#   From: 2010.03.12/outbox.cif.g09.slc.cpg/sg14_16_cif.got.tgz:30177.got - 2010.03.31 13:35:05.
