data_PCOD8124062
_publ_section_title
;
Structure prediction by ZEFSAII (Michael W. Deem and Ramdas Pophale) SiO2 
 PCOD8124062
Probable space group: P 21/C
;
_chemical_formula_sum "Si O2"
_cell_formula_units_Z 32
_cell_length_a 11.225563
_cell_length_b 19.932485
_cell_length_c 14.944500
_cell_angle_alpha 90.000000
_cell_angle_beta 29.818051
_cell_angle_gamma 90.000000
_cell_volume 1662.736470
_symmetry_space_group_name_H-M "P 21/C"
_symmetry_group_IT_number 14
_symmetry_cell_setting 'monoclinic'
loop_
_space_group_symop_operation_xyz
x,y,z
-x,1/2+y,1/2-z
-x,-y,-z
x,1/2-y,1/2+z
loop_
_atom_site_type_symbol
_atom_site_label
_atom_site_fract_x
_atom_site_fract_y
_atom_site_fract_z
Si Si1 0.254298 0.510156 0.108960
Si Si2 0.832261 0.256603 0.323512
Si Si3 0.265785 0.820803 0.788285
Si Si4 0.655595 0.723711 0.809039
Si Si5 0.559244 0.106239 0.664517
Si Si6 0.949388 0.560170 0.467067
Si Si7 0.213831 0.140582 0.607739
Si Si8 0.120352 0.787792 0.509202
O O1 0.063024 0.548490 0.295532
O O2 0.147462 0.438042 0.151799
O O3 0.500000 0.500000 0.000000
O O4 0.312076 0.555385 0.986094
O O5 0.850730 0.208719 0.226095
O O6 0.547963 0.272943 0.517027
O O7 0.915466 0.218767 0.359838
O O8 0.995674 0.322080 0.198807
O O9 0.075240 0.878435 0.936841
O O10 0.530337 0.850884 0.606119
O O11 0.289744 0.768839 0.854388
O O12 0.535025 0.676551 0.814244
O O13 0.771468 0.671151 0.802969
O O14 0.857297 0.773807 0.638013
O O15 0.774270 0.137945 0.585797
O O16 0.337580 0.070884 0.859114
O O17 0.000000 0.500000 0.500000
#
# Coordination Sequence:
#
# PCOD8124062 Si02
#       8
#     4   4   4   4   4   4   4   4
#     4  12  20  36  56  82 123 153 178 249 297 340
#     4   9  21  34  55  82 115 152 192 240 291 345
#     4  11  21  35  55  86 118 150 190 240 285 343
#     4   9  16  35  53  80 115 141 184 245 286 334
#     4  11  21  36  54  87 116 149 192 231 293 359
#     4  12  21  32  58  85 120 150 179 237 298 348
#     4  10  19  34  55  83 113 148 190 228 299 350
#     4  10  21  34  58  82 116 152 189 239 292 343
#
# _framework density 19.245384000000001
#
# number of rings (size 3 to 8) (size 9 to 14) (size 15 to 20)
#    0.000    1.500    5.000    1.500    3.500    0.000 
#    2.250    0.000    0.000    1.500    0.000    0.000 
#    0.000    0.000    0.000    0.000    0.000    0.000 
#
# Total GULP energy -396461.985841 kJ/mol
# GULP energy per Si atom -12389.437058 kJ/mol
# Density = 1.920158 g / cm^3
# Si number density = 19.245384 Si / 1000 Ang^3
#
#
#
# Elastic Constant Matrix: (Units=GPa)
#
#
# Indices 1 2 3 4 5 6 
#
# 1 31.2353 29.9818 13.0027 0.0000 0.2005 0.0000
# 2 29.9818 109.0916 45.2806 0.0000 -12.5479 0.0000
# 3 13.0027 45.2806 113.5591 0.0000 -6.9121 0.0000
# 4 0.0000 0.0000 0.0000 38.4734 0.0000 -6.3846
# 5 0.2005 -12.5479 -6.9121 0.0000 25.1543 0.0000
# 6 0.0000 0.0000 0.0000 -6.3846 0.0000 32.4465
#
#
#
# Elastic Compliance Matrix: (Units=1/GPa)
#
#
# Indices 1 2 3 4 5 6 
#
# 1 0.044590 -0.012887 -0.000387 0.000000 -0.006890 0.000000
# 2 -0.012887 0.015198 -0.004187 0.000000 0.006533 0.000000
# 3 -0.000387 -0.004187 0.010569 0.000000 0.000819 0.000000
# 4 0.000000 0.000000 0.000000 0.026869 0.000000 0.005287
# 5 -0.006890 0.006533 0.000819 0.000000 0.043294 0.000000
# 6 0.000000 0.000000 0.000000 0.005287 0.000000 0.031860
#
#
# Mechanical properties :
#
#
# Convention : Reuss Voigt Hill
#
# Bulk Modulus (GPa) = 28.21912 47.82402 38.02157
# Shear Modulus (GPa) = 22.81936 30.25623 26.53780
#
# Velocity S-wave (km/s) = 3.44714 3.96931 3.71741
# Velocity P-wave (km/s) = 5.52615 6.77575 6.18260
#
# Compressibility (1/GPa) = 0.03543697
#
# Stress axis : x y z
#
# Youngs Moduli (GPa) = 22.42669 65.80028 94.61212
#
# Poissons Ratio (x) = 0.84795 0.03657
# Poissons Ratio (y) = 0.28901 0.39611
# Poissons Ratio (z) = 0.00867 0.27548
#
# Static dielectric constant tensor:
#      x y z
#    x 3.333720 0.000000 -0.266270 
#    y 0.000000 4.495030 0.000000 
#    z -0.266270 0.000000 3.857510 
# 
# 
# High freq. dielectric constant tensor:
#      x y z
#    x 1.702800 0.000000 -0.007630 
#    y 0.000000 1.738280 0.000000 
#    z -0.007630 0.000000 1.772830 
# 
# From -- ./inp_files/45437.got.cif
#   From: 2010.03.12/outbox.cif.g09.slc.cpg/sg14_23_cif.got.tgz:45437.got - 2010.03.31 13:35:05.
