data_PCOD8124763
_publ_section_title
;
Structure prediction by ZEFSAII (Michael W. Deem and Ramdas Pophale) SiO2 
 PCOD8124763
Probable space group: P 21/C
;
_chemical_formula_sum "Si O2"
_cell_formula_units_Z 32
_cell_length_a 14.115579
_cell_length_b 9.133628
_cell_length_c 18.659727
_cell_angle_alpha 90.000000
_cell_angle_beta 132.514628
_cell_angle_gamma 90.000000
_cell_volume 1773.276909
_symmetry_space_group_name_H-M "P 21/C"
_symmetry_group_IT_number 14
_symmetry_cell_setting 'monoclinic'
loop_
_space_group_symop_operation_xyz
x,y,z
-x,1/2+y,1/2-z
-x,-y,-z
x,1/2-y,1/2+z
loop_
_atom_site_type_symbol
_atom_site_label
_atom_site_fract_x
_atom_site_fract_y
_atom_site_fract_z
Si Si1 0.744634 0.159473 0.282990
Si Si2 0.753017 0.815675 0.292125
Si Si3 0.002182 0.817532 0.329081
Si Si4 0.993440 0.337416 0.819578
Si Si5 0.489358 0.344840 0.817228
Si Si6 0.771709 0.165175 0.457996
Si Si7 0.498559 0.685364 0.826861
Si Si8 0.780414 0.673157 0.967247
O O1 0.860069 0.200234 0.289827
O O2 0.773626 0.225264 0.377230
O O3 0.615048 0.237404 0.185513
O O4 0.719620 0.986841 0.274593
O O5 0.626848 0.729646 0.197663
O O6 0.785400 0.759633 0.389446
O O7 0.870475 0.776300 0.301112
O O8 0.007099 0.733722 0.257721
O O9 0.120482 0.757482 0.438073
O O10 0.013268 0.989866 0.320673
O O11 0.108080 0.263186 0.924772
O O12 0.631081 0.315514 0.923433
O O13 0.463109 0.516766 0.795980
O O14 0.491732 0.271349 0.741662
O O15 0.810819 0.996727 0.472651
O O16 0.641341 0.698927 0.934567
#
# Coordination Sequence:
#
# PCOD8124763 Si02
#       8
#     4   4   4   4   4   4   4   4
#     4   9  17  31  52  74  95 123 159 198 238 280
#     4   9  17  31  52  74  95 123 159 198 238 280
#     4  10  20  34  50  69  96 128 162 199 237 280
#     4  10  20  34  50  69  96 128 162 199 237 280
#     4   9  16  28  49  75  99 122 153 196 240 281
#     4   8  15  30  52  73  92 122 162 196 230 278
#     4   9  16  28  49  75  99 122 153 196 240 281
#     4   8  15  30  52  73  92 122 162 196 230 278
#
# _framework density 18.045687000000001
#
# number of rings (size 3 to 8) (size 9 to 14) (size 15 to 20)
#    0.000    3.000    0.000    3.000    0.000    4.000 
#    0.000    7.500    0.000   15.000    0.000    0.000 
#    0.000    0.000    0.000    0.000    0.000    0.000 
#
# Total GULP energy -396515.568743 kJ/mol
# GULP energy per Si atom -12391.111523 kJ/mol
# Density = 1.800461 g / cm^3
# Si number density = 18.045687 Si / 1000 Ang^3
#
#
#
# Elastic Constant Matrix: (Units=GPa)
#
#
# Indices 1 2 3 4 5 6 
#
# 1 70.3556 3.0584 35.7718 0.0000 8.6138 0.0000
# 2 3.0584 18.3827 -0.5641 0.0000 5.7495 0.0000
# 3 35.7718 -0.5641 33.5196 0.0000 5.9522 0.0000
# 4 0.0000 0.0000 0.0000 23.4985 0.0000 3.4962
# 5 8.6138 5.7495 5.9522 0.0000 27.4021 0.0000
# 6 0.0000 0.0000 0.0000 3.4962 0.0000 32.9768
#
#
#
# Elastic Compliance Matrix: (Units=1/GPa)
#
#
# Indices 1 2 3 4 5 6 
#
# 1 0.031845 -0.005890 -0.033831 0.000000 -0.001426 0.000000
# 2 -0.005890 0.059657 0.009553 0.000000 -0.012741 0.000000
# 3 -0.033831 0.009553 0.067156 0.000000 -0.005957 0.000000
# 4 0.000000 0.000000 0.000000 0.043238 0.000000 -0.004584
# 5 -0.001426 -0.012741 -0.005957 0.000000 0.040909 0.000000
# 6 0.000000 0.000000 0.000000 -0.004584 0.000000 0.030810
#
#
# Mechanical properties :
#
#
# Convention : Reuss Voigt Hill
#
# Bulk Modulus (GPa) = 10.17079 22.08779 16.12929
# Shear Modulus (GPa) = 13.63413 22.37491 18.00452
#
# Velocity S-wave (km/s) = 2.75168 3.52505 3.16209
# Velocity P-wave (km/s) = 3.96787 5.36977 4.72115
#
# Compressibility (1/GPa) = 0.09832078
#
# Stress axis : x y z
#
# Youngs Moduli (GPa) = 31.40186 16.76246 14.89071
#
# Poissons Ratio (x) = 0.09874 0.50377
# Poissons Ratio (y) = 0.18497 -0.14224
# Poissons Ratio (z) = 1.06235 -0.16012
#
# Static dielectric constant tensor:
#      x y z
#    x 3.584290 0.000000 0.542860 
#    y 0.000000 3.234130 0.000000 
#    z 0.542860 0.000000 3.672180 
# 
# 
# High freq. dielectric constant tensor:
#      x y z
#    x 1.692530 0.000000 0.033700 
#    y 0.000000 1.673640 0.000000 
#    z 0.033700 0.000000 1.690750 
# 
# From -- ./inp_files/68195.got.cif
#   From: 2010.03.12/outbox.cif.g09.slc.cpg/sg14_35_cif.got.tgz:68195.got - 2010.03.31 13:35:05.
