data_PCOD8124617
_publ_section_title
;
Structure prediction by ZEFSAII (Michael W. Deem and Ramdas Pophale) SiO2 
 PCOD8124617
Probable space group: P 21/C
;
_chemical_formula_sum "Si O2"
_cell_formula_units_Z 32
_cell_length_a 9.013216
_cell_length_b 23.905786
_cell_length_c 11.362334
_cell_angle_alpha 90.000000
_cell_angle_beta 35.880609
_cell_angle_gamma 90.000000
_cell_volume 1434.896998
_symmetry_space_group_name_H-M "P 21/C"
_symmetry_group_IT_number 14
_symmetry_cell_setting 'monoclinic'
loop_
_space_group_symop_operation_xyz
x,y,z
-x,1/2+y,1/2-z
-x,-y,-z
x,1/2-y,1/2+z
loop_
_atom_site_type_symbol
_atom_site_label
_atom_site_fract_x
_atom_site_fract_y
_atom_site_fract_z
Si Si1 0.996804 0.321551 0.401717
Si Si2 0.199342 0.044954 0.409079
Si Si3 0.622665 0.993292 0.294335
Si Si4 0.926712 0.306071 0.970126
Si Si5 0.501199 0.129072 0.608391
Si Si6 0.088274 0.905665 0.835642
Si Si7 0.295963 0.115726 0.117516
Si Si8 0.868967 0.134944 0.734855
O O1 0.886736 0.259317 0.478796
O O2 0.920683 0.355936 0.565177
O O3 0.871994 0.347679 0.367512
O O4 0.302271 0.323241 0.196959
O O5 0.441099 0.016600 0.310337
O O6 0.285317 0.075705 0.236199
O O7 0.060338 0.083702 0.594150
O O8 0.000000 0.000000 0.500000
O O9 0.877341 0.032139 0.129367
O O10 0.500000 0.000000 0.500000
O O11 0.661474 0.926318 0.240941
O O12 0.685269 0.343734 0.086995
O O13 0.962950 0.316217 0.086190
O O14 0.171112 0.325103 0.737047
O O15 0.655411 0.108602 0.398059
O O16 0.853240 0.908847 0.898098
O O17 0.580215 0.120815 0.889628
#
# Coordination Sequence:
#
# PCOD8124617 Si02
#       8
#     4   4   4   4   4   4   4   4
#     4  12  26  40  69  99 129 178 228 279 338 406
#     4  11  22  41  68  99 136 178 220 277 341 403
#     4  10  19  39  69  94 133 177 213 277 336 402
#     4  10  25  43  64  93 133 179 221 281 337 397
#     4  10  23  46  65  94 135 175 221 274 338 399
#     4  10  22  41  67 101 132 175 226 275 337 407
#     4  10  23  43  67  97 139 176 226 278 338 406
#     4  11  24  43  64 100 133 172 229 273 333 407
#
# _framework density 22.301252000000002
#
# number of rings (size 3 to 8) (size 9 to 14) (size 15 to 20)
#    0.000    1.500    0.000    6.000    5.250    2.000 
#    0.000    3.750    0.000    0.000    0.000    0.000 
#    0.000    0.000    0.000    0.000    0.000    0.000 
#
# Total GULP energy -396742.875083 kJ/mol
# GULP energy per Si atom -12398.214846 kJ/mol
# Density = 2.225049 g / cm^3
# Si number density = 22.301252 Si / 1000 Ang^3
#
#
#
# Elastic Constant Matrix: (Units=GPa)
#
#
# Indices 1 2 3 4 5 6 
#
# 1 136.7401 51.7031 23.3211 0.0000 7.6835 0.0000
# 2 51.7031 145.2971 23.9858 0.0000 6.4618 0.0000
# 3 23.3211 23.9858 48.3235 0.0000 -2.3420 0.0000
# 4 0.0000 0.0000 0.0000 25.8653 0.0000 -8.1074
# 5 7.6835 6.4618 -2.3420 0.0000 30.4840 0.0000
# 6 0.0000 0.0000 0.0000 -8.1074 0.0000 30.7028
#
#
#
# Elastic Compliance Matrix: (Units=1/GPa)
#
#
# Indices 1 2 3 4 5 6 
#
# 1 0.008929 -0.002575 -0.003125 0.000000 -0.001945 0.000000
# 2 -0.002575 0.008348 -0.002966 0.000000 -0.001349 0.000000
# 3 -0.003125 -0.002966 0.023832 0.000000 0.003247 0.000000
# 4 0.000000 0.000000 0.000000 0.042151 0.000000 0.011130
# 5 -0.001945 -0.001349 0.003247 0.000000 0.033830 0.000000
# 6 0.000000 0.000000 0.000000 0.011130 0.000000 0.035509
#
#
# Mechanical properties :
#
#
# Convention : Reuss Voigt Hill
#
# Bulk Modulus (GPa) = 42.05939 58.70895 50.38417
# Shear Modulus (GPa) = 28.11231 32.83380 30.47306
#
# Velocity S-wave (km/s) = 3.55430 3.84120 3.70053
# Velocity P-wave (km/s) = 5.97869 6.78643 6.39532
#
# Compressibility (1/GPa) = 0.02377590
#
# Stress axis : x y z
#
# Youngs Moduli (GPa) = 111.99370 119.78335 41.96040
#
# Poissons Ratio (x) = 0.30843 0.13114
# Poissons Ratio (y) = 0.28837 0.12447
# Poissons Ratio (z) = 0.35002 0.35534
#
# Static dielectric constant tensor:
#      x y z
#    x 4.271260 0.000000 -0.119150 
#    y 0.000000 4.114150 0.000000 
#    z -0.119150 0.000000 4.092920 
# 
# 
# High freq. dielectric constant tensor:
#      x y z
#    x 1.890860 0.000000 0.004750 
#    y 0.000000 1.875740 0.000000 
#    z 0.004750 0.000000 1.891370 
# 
# From -- ./inp_files/27014.got.cif
#   From: 2010.03.12/outbox.cif.g09.slc.cpg/sg14_14_cif.got.tgz:27014.got - 2010.03.31 13:35:05.
