data_PCOD8124149
_publ_section_title
;
Structure prediction by ZEFSAII (Michael W. Deem and Ramdas Pophale) SiO2 
 PCOD8124149
Probable space group: P 21/C
;
_chemical_formula_sum "Si O2"
_cell_formula_units_Z 32
_cell_length_a 8.326935
_cell_length_b 28.487955
_cell_length_c 14.248782
_cell_angle_alpha 90.000000
_cell_angle_beta 31.176130
_cell_angle_gamma 90.000000
_cell_volume 1749.756846
_symmetry_space_group_name_H-M "P 21/C"
_symmetry_group_IT_number 14
_symmetry_cell_setting 'monoclinic'
loop_
_space_group_symop_operation_xyz
x,y,z
-x,1/2+y,1/2-z
-x,-y,-z
x,1/2-y,1/2+z
loop_
_atom_site_type_symbol
_atom_site_label
_atom_site_fract_x
_atom_site_fract_y
_atom_site_fract_z
Si Si1 0.367693 0.948345 0.569846
Si Si2 0.365908 0.124897 0.214568
Si Si3 0.365898 0.624897 0.919530
Si Si4 0.630705 0.625218 0.076655
Si Si5 0.632231 0.301629 0.930474
Si Si6 0.369309 0.874783 0.207354
Si Si7 0.367771 0.301630 0.562707
Si Si8 0.367696 0.051655 0.062457
O O1 0.473719 0.921475 0.422117
O O2 0.506111 0.921722 0.590230
O O3 0.999999 0.949209 0.763577
O O4 0.500000 0.000000 0.500000
O O5 0.504720 0.124996 0.249616
O O6 0.476096 0.170926 0.102309
O O7 0.473742 0.078528 0.104146
O O8 0.000002 0.125190 0.404639
O O9 0.504718 0.624999 0.745668
O O10 0.476093 0.670924 0.921603
O O11 0.000008 0.625283 0.889310
O O12 0.504707 0.672263 0.091551
O O13 0.000001 0.300683 0.736868
O O14 0.500014 0.249999 0.002400
O O15 0.495316 0.827740 0.096241
O O16 0.493911 0.921725 0.096338
O O17 0.500000 0.000000 0.000000
#
# Coordination Sequence:
#
# PCOD8124149 Si02
#       8
#     4   4   4   4   4   4   4   4
#     4  10  20  36  54  77 106 138 172 212 256 306
#     4   8  18  35  54  74 103 137 172 210 255 304
#     4   8  18  35  54  74 103 137 172 210 255 304
#     4  10  19  35  56  78 102 135 173 214 258 304
#     4  10  20  36  54  77 106 138 172 212 256 306
#     4  10  19  35  56  78 102 135 173 214 258 304
#     4  10  20  36  54  77 106 138 172 212 256 306
#     4  10  20  36  54  77 106 138 172 212 256 306
#
# _framework density 18.288254999999999
#
# number of rings (size 3 to 8) (size 9 to 14) (size 15 to 20)
#    0.000    2.500    0.000    3.750    0.000    2.000 
#    0.000   22.500    0.000    0.000    0.000    0.000 
#    0.000    0.000    0.000    0.000    0.000    0.000 
#
# Total GULP energy -396763.936456 kJ/mol
# GULP energy per Si atom -12398.873014 kJ/mol
# Density = 1.824663 g / cm^3
# Si number density = 18.288255 Si / 1000 Ang^3
#
#
#
# Elastic Constant Matrix: (Units=GPa)
#
#
# Indices 1 2 3 4 5 6 
#
# 1 146.5822 84.2730 62.8913 0.0000 33.9151 0.0000
# 2 84.2730 193.7747 62.2771 0.0000 22.2870 0.0000
# 3 62.8913 62.2771 95.4295 0.0000 17.9131 0.0000
# 4 0.0000 0.0000 0.0000 29.1891 0.0000 -10.0638
# 5 33.9151 22.2870 17.9131 0.0000 41.3191 0.0000
# 6 0.0000 0.0000 0.0000 -10.0638 0.0000 19.2503
#
#
#
# Elastic Compliance Matrix: (Units=1/GPa)
#
#
# Indices 1 2 3 4 5 6 
#
# 1 0.012032 -0.002969 -0.004832 0.000000 -0.006180 0.000000
# 2 -0.002969 0.007392 -0.002804 0.000000 -0.000334 0.000000
# 3 -0.004832 -0.002804 0.015746 0.000000 -0.001348 0.000000
# 4 0.000000 0.000000 0.000000 0.041792 0.000000 0.021848
# 5 -0.006180 -0.000334 -0.001348 0.000000 0.030039 0.000000
# 6 0.000000 0.000000 0.000000 0.021848 0.000000 0.063369
#
#
# Mechanical properties :
#
#
# Convention : Reuss Voigt Hill
#
# Bulk Modulus (GPa) = 71.63579 94.96324 83.29951
# Shear Modulus (GPa) = 25.47979 33.04136 29.26058
#
# Velocity S-wave (km/s) = 3.73665 4.25514 4.00430
# Velocity P-wave (km/s) = 7.60738 8.72812 8.18695
#
# Compressibility (1/GPa) = 0.01395950
#
# Stress axis : x y z
#
# Youngs Moduli (GPa) = 83.11130 135.28891 63.50641
#
# Poissons Ratio (x) = 0.40168 0.30686
# Poissons Ratio (y) = 0.24676 0.17809
# Poissons Ratio (z) = 0.40159 0.37939
#
# Static dielectric constant tensor:
#      x y z
#    x 3.649790 0.000000 0.220040 
#    y 0.000000 3.389100 0.000000 
#    z 0.220040 0.000000 3.432580 
# 
# 
# High freq. dielectric constant tensor:
#      x y z
#    x 1.712220 0.000000 0.004880 
#    y 0.000000 1.714720 0.000000 
#    z 0.004880 0.000000 1.707400 
# 
# From -- ./inp_files/42280.got.cif
#   From: 2010.03.12/outbox.cif.g09.slc.cpg/sg14_22_cif.got.tgz:42280.got - 2010.03.31 13:35:05.
