data_PCOD8124965
_publ_section_title
;
Structure prediction by ZEFSAII (Michael W. Deem and Ramdas Pophale) SiO2 
 PCOD8124965
Probable space group: P 21/C
;
_chemical_formula_sum "Si O2"
_cell_formula_units_Z 32
_cell_length_a 11.830675
_cell_length_b 8.885085
_cell_length_c 16.001964
_cell_angle_alpha 90.000000
_cell_angle_beta 89.897339
_cell_angle_gamma 90.000000
_cell_volume 1682.068597
_symmetry_space_group_name_H-M "P 21/C"
_symmetry_group_IT_number 14
_symmetry_cell_setting 'monoclinic'
loop_
_space_group_symop_operation_xyz
x,y,z
-x,1/2+y,1/2-z
-x,-y,-z
x,1/2-y,1/2+z
loop_
_atom_site_type_symbol
_atom_site_label
_atom_site_fract_x
_atom_site_fract_y
_atom_site_fract_z
Si Si1 0.996670 0.550517 0.210721
Si Si2 0.225695 0.670287 0.522585
Si Si3 0.193499 0.647581 0.861162
Si Si4 0.609763 0.098401 0.404937
Si Si5 0.012934 0.865212 0.136405
Si Si6 0.226863 0.101909 0.918173
Si Si7 0.758739 0.072286 0.249220
Si Si8 0.353897 0.089107 0.434747
O O1 0.972128 0.725565 0.194270
O O2 0.130651 0.518009 0.199284
O O3 0.921967 0.445741 0.150664
O O4 0.965844 0.512738 0.306900
O O5 0.173122 0.754729 0.443306
O O6 0.335007 0.748628 0.561282
O O7 0.128290 0.672147 0.590976
O O8 0.267055 0.505508 0.493774
O O9 0.220755 0.755920 0.782607
O O10 0.299102 0.536345 0.874718
O O11 0.653748 0.060558 0.312206
O O12 0.476577 0.125403 0.397747
O O13 0.638061 0.963714 0.469015
O O14 0.909677 0.895884 0.073617
O O15 0.277589 0.264132 0.933324
O O16 0.266516 0.037926 0.828305
#
# Coordination Sequence:
#
# PCOD8124965 Si02
#       8
#     4   4   4   4   4   4   4   4
#     4  11  19  34  56  80 112 144 180 220 276 331
#     4  10  21  38  56  78 114 149 179 223 281 330
#     4  10  20  36  56  79 111 148 181 228 275 329
#     4  10  21  40  58  79 110 149 188 229 281 325
#     4  11  21  36  55  84 114 144 176 224 274 335
#     4  10  22  38  56  86 114 141 186 230 269 330
#     4  10  21  38  57  80 115 149 181 223 282 330
#     4  10  22  38  58  82 110 143 191 237 270 322
#
# _framework density 19.024191999999999
#
# number of rings (size 3 to 8) (size 9 to 14) (size 15 to 20)
#    0.000    1.750    3.750    0.375    0.000    3.000 
#    4.500    0.000    0.000    0.000    0.000    0.000 
#    0.000    0.000    0.000    0.000    0.000    0.000 
#
# Total GULP energy -396815.770345 kJ/mol
# GULP energy per Si atom -12400.492823 kJ/mol
# Density = 1.898089 g / cm^3
# Si number density = 19.024192 Si / 1000 Ang^3
#
#
#
# Elastic Constant Matrix: (Units=GPa)
#
#
# Indices 1 2 3 4 5 6 
#
# 1 97.9083 32.8001 40.3488 0.0000 -9.3090 0.0000
# 2 32.8001 87.4630 31.7003 0.0000 -5.3972 0.0000
# 3 40.3488 31.7003 70.9699 0.0000 -13.1012 0.0000
# 4 0.0000 0.0000 0.0000 17.2778 0.0000 -0.4027
# 5 -9.3090 -5.3972 -13.1012 0.0000 29.5713 0.0000
# 6 0.0000 0.0000 0.0000 -0.4027 0.0000 21.2145
#
#
#
# Elastic Compliance Matrix: (Units=1/GPa)
#
#
# Indices 1 2 3 4 5 6 
#
# 1 0.013918 -0.002812 -0.006472 0.000000 0.001001 0.000000
# 2 -0.002812 0.014211 -0.004829 0.000000 -0.000431 0.000000
# 3 -0.006472 -0.004829 0.021115 0.000000 0.006436 0.000000
# 4 0.000000 0.000000 0.000000 0.057903 0.000000 0.001099
# 5 0.001001 -0.000431 0.006436 0.000000 0.036904 0.000000
# 6 0.000000 0.000000 0.000000 0.001099 0.000000 0.047158
#
#
# Mechanical properties :
#
#
# Convention : Reuss Voigt Hill
#
# Bulk Modulus (GPa) = 47.57591 51.78218 49.67904
# Shear Modulus (GPa) = 22.08065 23.71219 22.89642
#
# Velocity S-wave (km/s) = 3.41054 3.53430 3.47297
# Velocity P-wave (km/s) = 6.36957 6.62822 6.50018
#
# Compressibility (1/GPa) = 0.02101904
#
# Stress axis : x y z
#
# Youngs Moduli (GPa) = 71.84926 70.36558 47.35966
#
# Poissons Ratio (x) = 0.19787 0.30652
# Poissons Ratio (y) = 0.20204 0.22868
# Poissons Ratio (z) = 0.46501 0.33977
#
# Static dielectric constant tensor:
#      x y z
#    x 3.408000 0.000000 0.140600 
#    y 0.000000 3.627470 0.000000 
#    z 0.140600 0.000000 3.471340 
# 
# 
# High freq. dielectric constant tensor:
#      x y z
#    x 1.731210 0.000000 0.010270 
#    y 0.000000 1.745590 0.000000 
#    z 0.010270 0.000000 1.735080 
# 
# From -- ./inp_files/43729.got.cif
#   From: 2010.03.12/outbox.cif.g09.slc.cpg/sg14_22_cif.got.tgz:43729.got - 2010.03.31 13:35:05.
