data_PCOD8124595
_publ_section_title
;
Structure prediction by ZEFSAII (Michael W. Deem and Ramdas Pophale) SiO2 
 PCOD8124595
Probable space group: P 21/C
;
_chemical_formula_sum "Si O2"
_cell_formula_units_Z 32
_cell_length_a 12.816387
_cell_length_b 12.219750
_cell_length_c 11.407934
_cell_angle_alpha 90.000000
_cell_angle_beta 66.386898
_cell_angle_gamma 90.000000
_cell_volume 1637.038711
_symmetry_space_group_name_H-M "P 21/C"
_symmetry_group_IT_number 14
_symmetry_cell_setting 'monoclinic'
loop_
_space_group_symop_operation_xyz
x,y,z
-x,1/2+y,1/2-z
-x,-y,-z
x,1/2-y,1/2+z
loop_
_atom_site_type_symbol
_atom_site_label
_atom_site_fract_x
_atom_site_fract_y
_atom_site_fract_z
Si Si1 0.678115 0.976236 0.860419
Si Si2 0.417130 0.899237 0.529486
Si Si3 0.084725 0.034711 0.136099
Si Si4 0.293856 0.668146 0.310114
Si Si5 0.969015 0.401804 0.927523
Si Si6 0.960275 0.156257 0.992925
Si Si7 0.270582 0.905665 0.379486
Si Si8 0.538913 0.158318 0.045527
O O1 0.778332 0.956086 0.909331
O O2 0.593382 0.874556 0.881730
O O3 0.740069 0.994771 0.707126
O O4 0.601597 0.081532 0.923883
O O5 0.327287 0.897986 0.677444
O O6 0.373693 0.921901 0.419293
O O7 0.472946 0.779346 0.502368
O O8 0.500000 0.000000 0.500000
O O9 0.019915 0.079488 0.277846
O O10 0.054004 0.108396 0.038583
O O11 0.041621 0.910151 0.130126
O O12 0.166943 0.632057 0.402261
O O13 0.284678 0.797805 0.292903
O O14 0.389649 0.647420 0.366409
O O15 0.002284 0.280598 0.957514
O O16 0.833339 0.398918 0.983055
O O17 0.000000 0.500000 0.000000
#
# Coordination Sequence:
#
# PCOD8124595 Si02
#       8
#     4   4   4   4   4   4   4   4
#     4  11  20  40  62  84 124 157 209 247 303 374
#     4  11  22  38  59  92 124 155 201 257 310 359
#     4  11  23  42  64  93 129 164 205 267 318 375
#     4  10  19  39  64  86 120 156 211 254 292 368
#     4  11  23  39  66  93 124 164 214 260 312 370
#     4  10  24  41  65  95 122 168 215 255 321 376
#     4  10  21  37  64  90 114 164 205 251 301 365
#     4  10  22  37  61  89 111 168 202 248 301 368
#
# _framework density 19.547491000000001
#
# number of rings (size 3 to 8) (size 9 to 14) (size 15 to 20)
#    0.000    1.500    3.750    1.500    1.750    0.000 
#    2.250    2.500    0.000    0.000    0.000    0.000 
#    0.000    0.000    0.000    0.000    0.000    0.000 
#
# Total GULP energy -396528.647757 kJ/mol
# GULP energy per Si atom -12391.520242 kJ/mol
# Density = 1.950300 g / cm^3
# Si number density = 19.547491 Si / 1000 Ang^3
#
#
#
# Elastic Constant Matrix: (Units=GPa)
#
#
# Indices 1 2 3 4 5 6 
#
# 1 109.1102 50.9934 21.5944 0.0000 -2.6496 0.0000
# 2 50.9934 124.6527 32.9377 0.0000 -0.3190 0.0000
# 3 21.5944 32.9377 81.3155 0.0000 -4.3090 0.0000
# 4 0.0000 0.0000 0.0000 30.7510 0.0000 -1.6733
# 5 -2.6496 -0.3190 -4.3090 0.0000 18.9725 0.0000
# 6 0.0000 0.0000 0.0000 -1.6733 0.0000 28.5988
#
#
#
# Elastic Compliance Matrix: (Units=1/GPa)
#
#
# Indices 1 2 3 4 5 6 
#
# 1 0.011479 -0.004373 -0.001211 0.000000 0.001255 0.000000
# 2 -0.004373 0.010658 -0.003218 0.000000 -0.001162 0.000000
# 3 -0.001211 -0.003218 0.014080 0.000000 0.002975 0.000000
# 4 0.000000 0.000000 0.000000 0.032623 0.000000 0.001909
# 5 0.001255 -0.001162 0.002975 0.000000 0.053539 0.000000
# 6 0.000000 0.000000 0.000000 0.001909 0.000000 0.035078
#
#
# Mechanical properties :
#
#
# Convention : Reuss Voigt Hill
#
# Bulk Modulus (GPa) = 53.71895 58.45881 56.08888
# Shear Modulus (GPa) = 27.58399 29.63467 28.60933
#
# Velocity S-wave (km/s) = 3.76057 3.89785 3.82983
# Velocity P-wave (km/s) = 6.81152 7.08722 6.95073
#
# Compressibility (1/GPa) = 0.01861541
#
# Stress axis : x y z
#
# Youngs Moduli (GPa) = 87.11793 93.82357 71.02143
#
# Poissons Ratio (x) = 0.41026 0.08598
# Poissons Ratio (y) = 0.38094 0.22852
# Poissons Ratio (z) = 0.10547 0.30189
#
# Static dielectric constant tensor:
#      x y z
#    x 1.531960 0.000000 0.624320 
#    y 0.000000 3.576500 0.000000 
#    z 0.624320 0.000000 3.387090 
# 
# 
# High freq. dielectric constant tensor:
#      x y z
#    x 1.763500 0.000000 0.004900 
#    y 0.000000 1.759110 0.000000 
#    z 0.004900 0.000000 1.763130 
# 
# From -- ./inp_files/29372.got.cif
#   From: 2010.03.12/outbox.cif.g09.slc.cpg/sg14_15_cif.got.tgz:29372.got - 2010.03.31 13:35:05.
