data_PCOD8124080
_publ_section_title
;
Structure prediction by ZEFSAII (Michael W. Deem and Ramdas Pophale) SiO2 
 PCOD8124080
Probable space group: P 21/C
;
_chemical_formula_sum "Si O2"
_cell_formula_units_Z 16
_cell_length_a 5.934686
_cell_length_b 8.540742
_cell_length_c 19.137518
_cell_angle_alpha 90.000000
_cell_angle_beta 52.688524
_cell_angle_gamma 90.000000
_cell_volume 771.504364
_symmetry_space_group_name_H-M "P 21/C"
_symmetry_group_IT_number 14
_symmetry_cell_setting 'monoclinic'
loop_
_space_group_symop_operation_xyz
x,y,z
-x,1/2+y,1/2-z
-x,-y,-z
x,1/2-y,1/2+z
loop_
_atom_site_type_symbol
_atom_site_label
_atom_site_fract_x
_atom_site_fract_y
_atom_site_fract_z
Si Si1 0.805560 0.675926 0.909121
Si Si2 0.818678 0.727056 0.255037
Si Si3 0.371889 0.973631 0.311001
Si Si4 0.580105 0.349733 0.898429
O O1 0.774980 0.785277 0.846872
O O2 0.704094 0.502347 0.911307
O O3 0.132646 0.657790 0.871603
O O4 0.615918 0.743583 0.008694
O O5 0.667864 0.880511 0.251018
O O6 0.692938 0.565095 0.248622
O O7 0.151819 0.753687 0.176200
O O8 0.382962 0.103647 0.369960
#
# Coordination Sequence:
#
# PCOD8124080 Si02
#       4
#     4   4   4   4
#     4   9  18  33  54  79 106 140 183 223 261 314
#     4  10  20  34  54  82 112 140 178 222 266 318
#     4  10  19  34  57  80 108 144 177 220 271 316
#     4   9  18  33  54  79 106 140 183 223 261 314
#
# _framework density 20.738703000000001
#
# number of rings (size 3 to 8) (size 9 to 14) (size 15 to 20)
#    0.000    2.500    0.000    2.250    0.000    2.000 
#    0.000    1.250    0.000   28.500    0.000    0.000 
#    0.000    0.000    0.000    0.000    0.000    0.000 
#
# Total GULP energy -198346.551938 kJ/mol
# GULP energy per Si atom -12396.659496 kJ/mol
# Density = 2.069150 g / cm^3
# Si number density = 20.738703 Si / 1000 Ang^3
#
#
#
# Elastic Constant Matrix: (Units=GPa)
#
#
# Indices 1 2 3 4 5 6 
#
# 1 105.8284 19.4105 32.5849 0.0000 -13.4652 0.0000
# 2 19.4105 31.7342 28.5618 0.0000 -5.9691 0.0000
# 3 32.5849 28.5618 112.0667 0.0000 -23.2636 0.0000
# 4 0.0000 0.0000 0.0000 24.8915 0.0000 -0.6853
# 5 -13.4652 -5.9691 -23.2636 0.0000 15.2947 0.0000
# 6 0.0000 0.0000 0.0000 -0.6853 0.0000 41.6539
#
#
#
# Elastic Compliance Matrix: (Units=1/GPa)
#
#
# Indices 1 2 3 4 5 6 
#
# 1 0.011489 -0.005205 -0.000491 0.000000 0.007336 0.000000
# 2 -0.005205 0.043251 -0.010167 0.000000 -0.003167 0.000000
# 3 -0.000491 -0.010167 0.015701 0.000000 0.019482 0.000000
# 4 0.000000 0.000000 0.000000 0.040192 0.000000 0.000661
# 5 0.007336 -0.003167 0.019482 0.000000 0.100237 0.000000
# 6 0.000000 0.000000 0.000000 0.000661 0.000000 0.024018
#
#
# Mechanical properties :
#
#
# Convention : Reuss Voigt Hill
#
# Bulk Modulus (GPa) = 25.83042 45.63818 35.73430
# Shear Modulus (GPa) = 17.88782 27.63950 22.76366
#
# Velocity S-wave (km/s) = 2.94008 3.65465 3.31666
# Velocity P-wave (km/s) = 4.89976 6.31369 5.65112
#
# Compressibility (1/GPa) = 0.03871405
#
# Stress axis : x y z
#
# Youngs Moduli (GPa) = 87.04295 23.12109 63.68844
#
# Poissons Ratio (x) = 0.12035 0.03127
# Poissons Ratio (y) = 0.45309 0.64752
# Poissons Ratio (z) = 0.04273 0.23507
#
# Static dielectric constant tensor:
#      x y z
#    x 4.050140 0.000000 -0.170300 
#    y 0.000000 3.217390 0.000000 
#    z -0.170300 0.000000 4.208490 
# 
# 
# High freq. dielectric constant tensor:
#      x y z
#    x 1.831080 0.000000 -0.002790 
#    y 0.000000 1.758290 0.000000 
#    z -0.002790 0.000000 1.808050 
# 
# From -- ./inp_files/20224.got.cif
#   From: 2010.03.12/outbox.cif.g09.slc.cpg/sg14_11_cif.got.tgz:20224.got - 2010.03.31 13:35:05.
