data_PCOD8124746
_publ_section_title
;
Structure prediction by ZEFSAII (Michael W. Deem and Ramdas Pophale) SiO2 
 PCOD8124746
Probable space group: P 21/C
;
_chemical_formula_sum "Si O2"
_cell_formula_units_Z 32
_cell_length_a 10.839388
_cell_length_b 8.409274
_cell_length_c 20.145428
_cell_angle_alpha 90.000000
_cell_angle_beta 113.911319
_cell_angle_gamma 90.000000
_cell_volume 1678.682574
_symmetry_space_group_name_H-M "P 21/C"
_symmetry_group_IT_number 14
_symmetry_cell_setting 'monoclinic'
loop_
_space_group_symop_operation_xyz
x,y,z
-x,1/2+y,1/2-z
-x,-y,-z
x,1/2-y,1/2+z
loop_
_atom_site_type_symbol
_atom_site_label
_atom_site_fract_x
_atom_site_fract_y
_atom_site_fract_z
Si Si1 0.838871 0.024811 0.322198
Si Si2 0.813298 0.573031 0.232393
Si Si3 0.918745 0.268282 0.718157
Si Si4 0.245464 0.763017 0.573559
Si Si5 0.800788 0.921731 0.885405
Si Si6 0.950668 0.276526 0.083897
Si Si7 0.600996 0.812605 0.306248
Si Si8 0.480666 0.119681 0.332031
O O1 0.717184 0.900244 0.288388
O O2 0.976470 0.935058 0.372155
O O3 0.847133 0.113978 0.253670
O O4 0.807445 0.151294 0.372438
O O5 0.875226 0.412279 0.217736
O O6 0.787290 0.542606 0.304330
O O7 0.669126 0.623575 0.168369
O O8 0.917692 0.716130 0.239777
O O9 0.885595 0.313801 0.633889
O O10 0.217969 0.575844 0.573685
O O11 0.165978 0.827757 0.492199
O O12 0.404298 0.802177 0.596250
O O13 0.677042 0.802216 0.875689
O O14 0.944504 0.838945 0.931790
O O15 0.508293 0.713684 0.235408
O O16 0.509341 0.933350 0.326910
#
# Coordination Sequence:
#
# PCOD8124746 Si02
#       8
#     4   4   4   4   4   4   4   4
#     4  10  20  35  58  83 108 146 190 237 275 321
#     4  10  20  34  55  83 103 142 191 233 271 322
#     4  11  20  36  58  79 108 142 191 237 268 319
#     4  11  20  35  57  84 118 151 175 230 294 335
#     4   9  18  34  54  83 112 140 189 232 273 324
#     4  10  21  35  54  87 117 144 189 232 278 338
#     4   9  19  32  54  85 110 136 189 237 271 323
#     4  10  20  33  53  83 116 145 183 228 287 334
#
# _framework density 19.062567999999999
#
# number of rings (size 3 to 8) (size 9 to 14) (size 15 to 20)
#    0.000    2.000    2.500    3.000    1.750    0.000 
#    0.000    0.625    0.000    0.750    0.000    0.000 
#    0.000    0.000    0.000    0.000    0.000    0.000 
#
# Total GULP energy -396652.868780 kJ/mol
# GULP energy per Si atom -12395.402149 kJ/mol
# Density = 1.901918 g / cm^3
# Si number density = 19.062568 Si / 1000 Ang^3
#
#
#
# Elastic Constant Matrix: (Units=GPa)
#
#
# Indices 1 2 3 4 5 6 
#
# 1 81.0128 24.8848 32.9919 0.0000 17.1583 0.0000
# 2 24.8848 83.7723 25.5223 0.0000 10.7303 0.0000
# 3 32.9919 25.5223 76.4818 0.0000 19.7859 0.0000
# 4 0.0000 0.0000 0.0000 19.3157 0.0000 0.9282
# 5 17.1583 10.7303 19.7859 0.0000 28.9461 0.0000
# 6 0.0000 0.0000 0.0000 0.9282 0.0000 32.8109
#
#
#
# Elastic Compliance Matrix: (Units=1/GPa)
#
#
# Indices 1 2 3 4 5 6 
#
# 1 0.016233 -0.002696 -0.004704 0.000000 -0.005408 0.000000
# 2 -0.002696 0.013863 -0.003094 0.000000 -0.001426 0.000000
# 3 -0.004704 -0.003094 0.018366 0.000000 -0.008619 0.000000
# 4 0.000000 0.000000 0.000000 0.051842 0.000000 -0.001467
# 5 -0.005408 -0.001426 -0.008619 0.000000 0.044172 0.000000
# 6 0.000000 0.000000 0.000000 -0.001467 0.000000 0.030519
#
#
# Mechanical properties :
#
#
# Convention : Reuss Voigt Hill
#
# Bulk Modulus (GPa) = 36.39800 45.34053 40.86927
# Shear Modulus (GPa) = 24.37332 26.73908 25.55620
#
# Velocity S-wave (km/s) = 3.57963 3.74933 3.66546
# Velocity P-wave (km/s) = 6.01834 6.52534 6.27696
#
# Compressibility (1/GPa) = 0.02747403
#
# Stress axis : x y z
#
# Youngs Moduli (GPa) = 61.60367 72.13229 54.44747
#
# Poissons Ratio (x) = 0.19449 0.25610
# Poissons Ratio (y) = 0.16610 0.16848
# Poissons Ratio (z) = 0.28976 0.22320
#
# Static dielectric constant tensor:
#      x y z
#    x 3.612050 0.000000 0.225360 
#    y 0.000000 3.702000 0.000000 
#    z 0.225360 0.000000 3.224540 
# 
# 
# High freq. dielectric constant tensor:
#      x y z
#    x 1.734330 0.000000 0.021910 
#    y 0.000000 1.752650 0.000000 
#    z 0.021910 0.000000 1.704250 
# 
# From -- ./inp_files/66884.got.cif
#   From: 2010.03.12/outbox.cif.g09.slc.cpg/sg14_34_cif.got.tgz:66884.got - 2010.03.31 13:35:05.
