data_PCOD8124666
_publ_section_title
;
Structure prediction by ZEFSAII (Michael W. Deem and Ramdas Pophale) SiO2 
 PCOD8124666
Probable space group: P 21/C
;
_chemical_formula_sum "Si O2"
_cell_formula_units_Z 28
_cell_length_a 8.770471
_cell_length_b 9.127948
_cell_length_c 19.196540
_cell_angle_alpha 90.000000
_cell_angle_beta 64.315214
_cell_angle_gamma 90.000000
_cell_volume 1384.957441
_symmetry_space_group_name_H-M "P 21/C"
_symmetry_group_IT_number 14
_symmetry_cell_setting 'monoclinic'
loop_
_space_group_symop_operation_xyz
x,y,z
-x,1/2+y,1/2-z
-x,-y,-z
x,1/2-y,1/2+z
loop_
_atom_site_type_symbol
_atom_site_label
_atom_site_fract_x
_atom_site_fract_y
_atom_site_fract_z
Si Si1 0.303961 0.521525 0.271936
Si Si2 0.173386 0.174574 0.466929
Si Si3 0.493510 0.289621 0.330494
Si Si4 0.090960 0.132902 0.705409
Si Si5 0.094754 0.923399 0.583072
Si Si6 0.213510 0.653484 0.629688
Si Si7 0.060674 0.119528 0.107109
O O1 0.410594 0.411545 0.298172
O O2 0.415831 0.663822 0.232678
O O3 0.256172 0.434073 0.210638
O O4 0.135508 0.576130 0.344900
O O5 0.360460 0.217072 0.408768
O O6 0.080287 0.299829 0.529888
O O7 0.067856 0.155821 0.417204
O O8 0.186678 0.023910 0.507523
O O9 0.624536 0.372813 0.354558
O O10 0.130519 0.283436 0.657644
O O11 0.949983 0.167257 0.789509
O O12 0.024125 0.017051 0.661733
O O13 0.230081 0.803109 0.582161
O O14 0.184716 0.520297 0.581969
#
# Coordination Sequence:
#
# PCOD8124666 Si02
#       7
#     4   4   4   4   4   4   4
#     4  11  25  41  65  94 129 164 213 264 322 369
#     4  10  24  41  65  93 125 168 213 253 321 371
#     4  12  26  40  61 101 129 161 203 278 323 363
#     4  10  19  41  65  90 116 170 215 252 302 385
#     4  10  21  41  65  88 122 173 209 251 302 398
#     4  11  21  38  65  91 127 159 212 261 316 367
#     4  10  22  42  65  90 121 174 214 252 303 397
#
# _framework density 20.217227000000001
#
# number of rings (size 3 to 8) (size 9 to 14) (size 15 to 20)
#    0.000    1.429    2.857    2.571    4.000    4.571 
#    0.000    0.000    0.000    0.000    0.000    0.000 
#    0.000    0.000    0.000    0.000    0.000    0.000 
#
# Total GULP energy -347247.790040 kJ/mol
# GULP energy per Si atom -12401.706787 kJ/mol
# Density = 2.017121 g / cm^3
# Si number density = 20.217227 Si / 1000 Ang^3
#
#
#
# Elastic Constant Matrix: (Units=GPa)
#
#
# Indices 1 2 3 4 5 6 
#
# 1 119.7470 71.3630 50.6482 0.0000 10.8372 0.0000
# 2 71.3630 122.5555 41.2693 0.0000 3.9273 0.0000
# 3 50.6482 41.2693 71.3446 0.0000 5.5827 0.0000
# 4 0.0000 0.0000 0.0000 25.6732 0.0000 9.6094
# 5 10.8372 3.9273 5.5827 0.0000 33.9416 0.0000
# 6 0.0000 0.0000 0.0000 9.6094 0.0000 42.9662
#
#
#
# Elastic Compliance Matrix: (Units=1/GPa)
#
#
# Indices 1 2 3 4 5 6 
#
# 1 0.015487 -0.006580 -0.006950 0.000000 -0.003040 0.000000
# 2 -0.006580 0.012931 -0.002893 0.000000 0.001081 0.000000
# 3 -0.006950 -0.002893 0.020690 0.000000 -0.000849 0.000000
# 4 0.000000 0.000000 0.000000 0.042510 0.000000 -0.009507
# 5 -0.003040 0.001081 -0.000849 0.000000 0.030448 0.000000
# 6 0.000000 0.000000 0.000000 -0.009507 0.000000 0.025400
#
#
# Mechanical properties :
#
#
# Convention : Reuss Voigt Hill
#
# Bulk Modulus (GPa) = 61.49522 71.13422 66.31472
# Shear Modulus (GPa) = 26.92021 30.54062 28.73042
#
# Velocity S-wave (km/s) = 3.65300 3.89089 3.77382
# Velocity P-wave (km/s) = 6.94808 7.44625 7.20148
#
# Compressibility (1/GPa) = 0.01626143
#
# Stress axis : x y z
#
# Youngs Moduli (GPa) = 64.56911 77.33517 48.33143
#
# Poissons Ratio (x) = 0.50888 0.33592
# Poissons Ratio (y) = 0.42488 0.13982
# Poissons Ratio (z) = 0.44878 0.22373
#
# Static dielectric constant tensor:
#      x y z
#    x 3.665400 0.000000 0.218590 
#    y 0.000000 4.046900 0.000000 
#    z 0.218590 0.000000 3.606750 
# 
# 
# High freq. dielectric constant tensor:
#      x y z
#    x 1.782260 0.000000 0.020010 
#    y 0.000000 1.809970 0.000000 
#    z 0.020010 0.000000 1.783630 
# 
# From -- ./inp_files/64530.got.cif
#   From: 2010.03.12/outbox.cif.g09.slc.cpg/sg14_33_cif.got.tgz:64530.got - 2010.03.31 13:35:05.
