data_PCOD8124600
_publ_section_title
;
Structure prediction by ZEFSAII (Michael W. Deem and Ramdas Pophale) SiO2 
 PCOD8124600
Probable space group: P 21/C
;
_chemical_formula_sum "Si O2"
_cell_formula_units_Z 28
_cell_length_a 8.386861
_cell_length_b 17.608671
_cell_length_c 16.786982
_cell_angle_alpha 90.000000
_cell_angle_beta 148.656563
_cell_angle_gamma 90.000000
_cell_volume 1289.559045
_symmetry_space_group_name_H-M "P 21/C"
_symmetry_group_IT_number 14
_symmetry_cell_setting 'monoclinic'
loop_
_space_group_symop_operation_xyz
x,y,z
-x,1/2+y,1/2-z
-x,-y,-z
x,1/2-y,1/2+z
loop_
_atom_site_type_symbol
_atom_site_label
_atom_site_fract_x
_atom_site_fract_y
_atom_site_fract_z
Si Si1 0.805863 0.658937 0.327070
Si Si2 0.775307 0.974620 0.702333
Si Si3 0.772848 0.608526 0.613458
Si Si4 0.419562 0.723766 0.558129
Si Si5 0.400284 0.874751 0.802015
Si Si6 0.313464 0.716767 0.836797
Si Si7 0.264625 0.416302 0.984248
O O1 0.905369 0.584085 0.321273
O O2 0.596531 0.715352 0.186488
O O3 0.644752 0.626118 0.336254
O O4 0.119814 0.702263 0.481862
O O5 0.675011 0.924923 0.584219
O O6 0.477873 0.017670 0.614020
O O7 0.041330 0.032396 0.786382
O O8 0.605328 0.645297 0.619146
O O9 0.540782 0.588841 0.442314
O O10 0.004856 0.672968 0.682217
O O11 0.318093 0.761074 0.431561
O O12 0.299009 0.789368 0.775230
O O13 0.094691 0.922132 0.646208
O O14 0.607745 0.666538 0.938092
#
# Coordination Sequence:
#
# PCOD8124600 Si02
#       7
#     4   4   4   4   4   4   4
#     4  12  26  39  63  96 133 163 209 266 324 375
#     4  10  22  43  66  95 122 167 216 262 310 377
#     4  10  22  40  66  91 124 167 215 261 313 374
#     4  11  22  41  63  94 120 167 218 270 302 371
#     4  11  24  37  61  95 131 169 200 260 324 377
#     4  10  19  39  64  90 118 166 214 264 304 370
#     4  10  21  39  66  89 122 167 213 256 308 380
#
# _framework density 21.712848999999999
#
# number of rings (size 3 to 8) (size 9 to 14) (size 15 to 20)
#    0.000    1.429    2.857    3.429    4.000    3.429 
#    0.000    0.000    0.000    0.000    0.000    0.000 
#    0.000    0.000    0.000    0.000    0.000    0.000 
#
# Total GULP energy -347109.457203 kJ/mol
# GULP energy per Si atom -12396.766329 kJ/mol
# Density = 2.166343 g / cm^3
# Si number density = 21.712849 Si / 1000 Ang^3
#
#
#
# Elastic Constant Matrix: (Units=GPa)
#
#
# Indices 1 2 3 4 5 6 
#
# 1 65.7381 10.3002 4.8049 0.0000 18.6193 0.0000
# 2 10.3002 77.5089 23.8221 0.0000 9.3899 0.0000
# 3 4.8049 23.8221 77.8551 0.0000 28.2346 0.0000
# 4 0.0000 0.0000 0.0000 23.9131 0.0000 6.3133
# 5 18.6193 9.3899 28.2346 0.0000 33.7375 0.0000
# 6 0.0000 0.0000 0.0000 6.3133 0.0000 12.3707
#
#
#
# Elastic Compliance Matrix: (Units=1/GPa)
#
#
# Indices 1 2 3 4 5 6 
#
# 1 0.019105 -0.002257 0.004462 0.000000 -0.013650 0.000000
# 2 -0.002257 0.014512 -0.004721 0.000000 0.001157 0.000000
# 3 0.004462 -0.004721 0.020718 0.000000 -0.018487 0.000000
# 4 0.000000 0.000000 0.000000 0.048330 0.000000 -0.024665
# 5 -0.013650 0.001157 -0.018487 0.000000 0.052323 0.000000
# 6 0.000000 0.000000 0.000000 -0.024665 0.000000 0.093424
#
#
# Mechanical properties :
#
#
# Convention : Reuss Voigt Hill
#
# Bulk Modulus (GPa) = 20.28229 33.21739 26.74984
# Shear Modulus (GPa) = 18.52678 26.14925 22.33802
#
# Velocity S-wave (km/s) = 2.92424 3.47410 3.21096
# Velocity P-wave (km/s) = 4.55664 5.60573 5.10819
#
# Compressibility (1/GPa) = 0.04930409
#
# Stress axis : x y z
#
# Youngs Moduli (GPa) = 52.34105 68.90672 48.26735
#
# Poissons Ratio (x) = 0.15549 -0.21535
# Poissons Ratio (y) = 0.11811 0.22786
# Poissons Ratio (z) = -0.23352 0.32530
#
# Static dielectric constant tensor:
#      x y z
#    x 3.606460 0.000000 0.254830 
#    y 0.000000 4.039810 0.000000 
#    z 0.254830 0.000000 4.026200 
# 
# 
# High freq. dielectric constant tensor:
#      x y z
#    x 1.817530 0.000000 0.025750 
#    y 0.000000 1.859960 0.000000 
#    z 0.025750 0.000000 1.861960 
# 
# From -- ./inp_files/9515.got.cif
#   From: 2010.03.12/outbox.cif.g09.slc.cpg/sg14_5_cif.got.tgz:9515.got - 2010.03.31 13:35:05.
