data_PCOD8124665
_publ_section_title
;
Structure prediction by ZEFSAII (Michael W. Deem and Ramdas Pophale) SiO2 
 PCOD8124665
Probable space group: P 21/C
;
_chemical_formula_sum "Si O2"
_cell_formula_units_Z 32
_cell_length_a 9.138174
_cell_length_b 23.547972
_cell_length_c 13.826809
_cell_angle_alpha 90.000000
_cell_angle_beta 29.902102
_cell_angle_gamma 90.000000
_cell_volume 1483.259320
_symmetry_space_group_name_H-M "P 21/C"
_symmetry_group_IT_number 14
_symmetry_cell_setting 'monoclinic'
loop_
_space_group_symop_operation_xyz
x,y,z
-x,1/2+y,1/2-z
-x,-y,-z
x,1/2-y,1/2+z
loop_
_atom_site_type_symbol
_atom_site_label
_atom_site_fract_x
_atom_site_fract_y
_atom_site_fract_z
Si Si1 0.335980 0.178313 0.283070
Si Si2 0.445826 0.835540 0.527566
Si Si3 0.540790 0.213247 0.894877
Si Si4 0.853412 0.886484 0.882613
Si Si5 0.285176 0.717670 0.921423
Si Si6 0.174235 0.065267 0.299270
Si Si7 0.060016 0.357877 0.135147
Si Si8 0.310157 0.940943 0.271549
O O1 0.387269 0.118322 0.200202
O O2 0.284118 0.162917 0.423989
O O3 0.063186 0.213469 0.393208
O O4 0.622399 0.217779 0.104490
O O5 0.507170 0.777618 0.550225
O O6 0.390116 0.825895 0.445614
O O7 0.746939 0.870225 0.378575
O O8 0.180965 0.871061 0.729898
O O9 0.558766 0.201558 0.768993
O O10 0.834818 0.193620 0.781337
O O11 0.273098 0.173812 0.084633
O O12 0.878066 0.934274 0.785096
O O13 0.637239 0.913718 0.087635
O O14 0.857658 0.073835 0.532830
O O15 0.332518 0.008182 0.243308
O O16 0.877856 0.414085 0.209144
#
# Coordination Sequence:
#
# PCOD8124665 Si02
#       8
#     4   4   4   4   4   4   4   4
#     4  10  20  38  58  85 120 157 204 243 301 367
#     4  12  22  35  57  90 125 162 200 253 309 373
#     4  10  22  39  55  88 124 167 206 243 300 381
#     4  11  22  36  63  89 120 156 210 254 299 359
#     4  11  23  36  58  85 127 166 194 249 305 367
#     4  10  19  41  64  94 111 163 214 254 304 372
#     4   9  20  37  57  86 120 162 197 250 311 356
#     4   9  21  40  69  83 121 158 213 260 307 363
#
# _framework density 21.574110999999998
#
# number of rings (size 3 to 8) (size 9 to 14) (size 15 to 20)
#    0.000    1.750    2.500    2.625    3.500    0.000 
#    0.000    0.625    0.000    6.750    0.000    0.000 
#    0.000    0.000    0.000    0.000    0.000    0.000 
#
# Total GULP energy -396597.122394 kJ/mol
# GULP energy per Si atom -12393.660075 kJ/mol
# Density = 2.152501 g / cm^3
# Si number density = 21.574111 Si / 1000 Ang^3
#
#
#
# Elastic Constant Matrix: (Units=GPa)
#
#
# Indices 1 2 3 4 5 6 
#
# 1 88.8108 11.7402 28.7338 0.0000 -11.8401 0.0000
# 2 11.7402 95.9341 24.7066 0.0000 -10.7080 0.0000
# 3 28.7338 24.7066 49.3045 0.0000 -2.8545 0.0000
# 4 0.0000 0.0000 0.0000 30.4800 0.0000 3.6763
# 5 -11.8401 -10.7080 -2.8545 0.0000 30.8906 0.0000
# 6 0.0000 0.0000 0.0000 3.6763 0.0000 13.2213
#
#
#
# Elastic Compliance Matrix: (Units=1/GPa)
#
#
# Indices 1 2 3 4 5 6 
#
# 1 0.014644 0.001039 -0.008756 0.000000 0.005164 0.000000
# 2 0.001039 0.012457 -0.006610 0.000000 0.004106 0.000000
# 3 -0.008756 -0.006610 0.028523 0.000000 -0.003012 0.000000
# 4 0.000000 0.000000 0.000000 0.033947 0.000000 -0.009439
# 5 0.005164 0.004106 -0.003012 0.000000 0.035497 0.000000
# 6 0.000000 0.000000 0.000000 -0.009439 0.000000 0.078260
#
#
# Mechanical properties :
#
#
# Convention : Reuss Voigt Hill
#
# Bulk Modulus (GPa) = 37.07806 40.49005 38.78406
# Shear Modulus (GPa) = 20.74925 26.17630 23.46278
#
# Velocity S-wave (km/s) = 3.10460 3.48705 3.30137
# Velocity P-wave (km/s) = 5.48407 5.91788 5.70510
#
# Compressibility (1/GPa) = 0.02697013
#
# Stress axis : x y z
#
# Youngs Moduli (GPa) = 68.28786 80.27400 35.05928
#
# Poissons Ratio (x) = -0.08343 0.30698
# Poissons Ratio (y) = -0.07097 0.23176
# Poissons Ratio (z) = 0.59793 0.53064
#
# Static dielectric constant tensor:
#      x y z
#    x 3.818940 0.000000 0.080860 
#    y 0.000000 3.850420 0.000000 
#    z 0.080860 0.000000 3.890450 
# 
# 
# High freq. dielectric constant tensor:
#      x y z
#    x 1.826440 0.000000 0.011530 
#    y 0.000000 1.835000 0.000000 
#    z 0.011530 0.000000 1.844480 
# 
# From -- ./inp_files/42295.got.cif
#   From: 2010.03.12/outbox.cif.g09.slc.cpg/sg14_22_cif.got.tgz:42295.got - 2010.03.31 13:35:05.
