data_PCOD8124199
_publ_section_title
;
Structure prediction by ZEFSAII (Michael W. Deem and Ramdas Pophale) SiO2 
 PCOD8124199
Probable space group: P 21/C
;
_chemical_formula_sum "Si O2"
_cell_formula_units_Z 32
_cell_length_a 23.408869
_cell_length_b 14.410586
_cell_length_c 9.263206
_cell_angle_alpha 90.000000
_cell_angle_beta 148.920654
_cell_angle_gamma 90.000000
_cell_volume 1613.103060
_symmetry_space_group_name_H-M "P 21/C"
_symmetry_group_IT_number 14
_symmetry_cell_setting 'monoclinic'
loop_
_space_group_symop_operation_xyz
x,y,z
-x,1/2+y,1/2-z
-x,-y,-z
x,1/2-y,1/2+z
loop_
_atom_site_type_symbol
_atom_site_label
_atom_site_fract_x
_atom_site_fract_y
_atom_site_fract_z
Si Si1 0.786062 0.670935 0.771228
Si Si2 0.952813 0.167090 0.168462
Si Si3 0.712141 0.844286 0.793919
Si Si4 0.204000 0.959039 0.011295
Si Si5 0.256179 0.967580 0.792017
Si Si6 0.363204 0.801425 0.360068
Si Si7 0.843860 0.319948 0.122042
Si Si8 0.540226 0.158046 0.723065
O O1 0.746161 0.760152 0.768582
O O2 0.740907 0.687577 0.515252
O O3 0.735149 0.576353 0.728030
O O4 0.916878 0.660642 0.056836
O O5 0.919050 0.262100 0.173694
O O6 0.910390 0.079306 0.170453
O O7 0.905806 0.162278 0.905224
O O8 0.583062 0.869325 0.499837
O O9 0.779716 0.936503 0.896909
O O10 0.304362 0.895276 0.288706
O O11 0.201223 0.954185 0.831013
O O12 0.181194 0.917720 0.509529
O O13 0.379765 0.925929 0.057510
O O14 0.424792 0.753947 0.625923
O O15 0.453773 0.824840 0.434979
O O16 0.268860 0.735207 0.087181
#
# Coordination Sequence:
#
# PCOD8124199 Si02
#       8
#     4   4   4   4   4   4   4   4
#     4  11  25  40  55  82 115 150 190 231 277 336
#     4  11  21  36  60  83 114 151 181 231 285 322
#     4  11  24  39  56  81 114 148 190 231 278 338
#     4   9  20  37  58  83 110 148 193 229 272 336
#     4   9  21  38  58  85 113 144 191 233 274 334
#     4   9  17  33  57  85 109 137 187 229 272 332
#     4  10  19  35  59  88 114 143 188 232 275 334
#     4  10  19  35  59  82 111 148 178 230 285 321
#
# _framework density 19.837543
#
# number of rings (size 3 to 8) (size 9 to 14) (size 15 to 20)
#    0.000    2.000    0.000    5.250    0.000   10.000 
#    0.000    0.000    0.000    5.250    0.000    0.000 
#    0.000    0.000    0.000    0.000    0.000    0.000 
#
# Total GULP energy -396847.427272 kJ/mol
# GULP energy per Si atom -12401.482102 kJ/mol
# Density = 1.979239 g / cm^3
# Si number density = 19.837543 Si / 1000 Ang^3
#
#
#
# Elastic Constant Matrix: (Units=GPa)
#
#
# Indices 1 2 3 4 5 6 
#
# 1 81.4093 43.2651 49.4545 0.0000 14.9426 0.0000
# 2 43.2651 114.9896 38.7550 0.0000 5.3285 0.0000
# 3 49.4545 38.7550 103.9249 0.0000 1.1212 0.0000
# 4 0.0000 0.0000 0.0000 22.7868 0.0000 -6.3063
# 5 14.9426 5.3285 1.1212 0.0000 34.3739 0.0000
# 6 0.0000 0.0000 0.0000 -6.3063 0.0000 37.5462
#
#
#
# Elastic Compliance Matrix: (Units=1/GPa)
#
#
# Indices 1 2 3 4 5 6 
#
# 1 0.021440 -0.004888 -0.008290 0.000000 -0.008292 0.000000
# 2 -0.004888 0.011131 -0.001830 0.000000 0.000459 0.000000
# 3 -0.008290 -0.001830 0.014213 0.000000 0.003424 0.000000
# 4 0.000000 0.000000 0.000000 0.046025 0.000000 0.007730
# 5 -0.008292 0.000459 0.003424 0.000000 0.032513 0.000000
# 6 0.000000 0.000000 0.000000 0.007730 0.000000 0.027932
#
#
# Mechanical properties :
#
#
# Convention : Reuss Voigt Hill
#
# Bulk Modulus (GPa) = 59.64048 62.58588 61.11318
# Shear Modulus (GPa) = 26.47483 30.19796 28.33640
#
# Velocity S-wave (km/s) = 3.65716 3.90585 3.78355
# Velocity P-wave (km/s) = 6.92552 7.20823 7.06829
#
# Compressibility (1/GPa) = 0.01676713
#
# Stress axis : x y z
#
# Youngs Moduli (GPa) = 46.64285 89.83834 70.36008
#
# Poissons Ratio (x) = 0.43917 0.58328
# Poissons Ratio (y) = 0.22801 0.12873
# Poissons Ratio (z) = 0.38667 0.16437
#
# Static dielectric constant tensor:
#      x y z
#    x 2.789700 0.000000 -0.025160 
#    y 0.000000 3.802270 0.000000 
#    z -0.025160 0.000000 3.586890 
# 
# 
# High freq. dielectric constant tensor:
#      x y z
#    x 1.765970 0.000000 0.000670 
#    y 0.000000 1.779740 0.000000 
#    z 0.000670 0.000000 1.771660 
# 
# From -- ./inp_files/16239.got.cif
#   From: 2010.03.12/outbox.cif.g09.slc.cpg/sg14_9_cif.got.tgz:16239.got - 2010.03.31 13:35:05.
