data_PCOD8124169
_publ_section_title
;
Structure prediction by ZEFSAII (Michael W. Deem and Ramdas Pophale) SiO2 
 PCOD8124169
Probable space group: P 21/C
;
_chemical_formula_sum "Si O2"
_cell_formula_units_Z 24
_cell_length_a 14.540449
_cell_length_b 16.156882
_cell_length_c 8.788607
_cell_angle_alpha 90.000000
_cell_angle_beta 139.829859
_cell_angle_gamma 90.000000
_cell_volume 1331.849737
_symmetry_space_group_name_H-M "P 21/C"
_symmetry_group_IT_number 14
_symmetry_cell_setting 'monoclinic'
loop_
_space_group_symop_operation_xyz
x,y,z
-x,1/2+y,1/2-z
-x,-y,-z
x,1/2-y,1/2+z
loop_
_atom_site_type_symbol
_atom_site_label
_atom_site_fract_x
_atom_site_fract_y
_atom_site_fract_z
Si Si1 0.862326 0.452945 0.257338
Si Si2 0.392603 0.902272 0.988427
Si Si3 0.977260 0.591529 0.032795
Si Si4 0.150321 0.678757 0.006732
Si Si5 0.790671 0.130846 0.960222
Si Si6 0.306200 0.442385 0.199741
O O1 0.762654 0.412105 0.262517
O O2 0.000000 0.500000 0.500000
O O3 0.906404 0.375190 0.207108
O O4 0.762140 0.513519 0.033611
O O5 0.308413 0.845605 0.762579
O O6 0.360353 0.996562 0.901149
O O7 0.344887 0.883761 0.101230
O O8 0.562300 0.885413 0.189566
O O9 0.036149 0.662618 0.996380
O O10 0.068699 0.586269 0.301056
O O11 0.814368 0.612936 0.870060
O O12 0.000000 0.500000 0.000000
O O13 0.163304 0.773887 0.985067
#
# Coordination Sequence:
#
# PCOD8124169 Si02
#       6
#     4   4   4   4   4   4
#     4  11  19  31  56  86 109 135 189 243 264 308
#     4   9  20  36  56  76 108 151 182 218 274 342
#     4  11  17  36  58  82 106 148 188 228 270 329
#     4  10  21  35  56  81 109 154 185 217 284 336
#     4  11  20  34  56  82 114 145 184 230 279 330
#     4  10  19  35  57  82 105 139 191 228 270 321
#
# _framework density 18.020049
#
# number of rings (size 3 to 8) (size 9 to 14) (size 15 to 20)
#    0.000    1.667    6.667    2.000    0.000    0.667 
#    0.000    1.667    0.000    0.000    0.000    0.000 
#    0.000    0.000    0.000    0.000    0.000    0.000 
#
# Total GULP energy -297394.205601 kJ/mol
# GULP energy per Si atom -12391.425233 kJ/mol
# Density = 1.797903 g / cm^3
# Si number density = 18.020049 Si / 1000 Ang^3
#
#
#
# Elastic Constant Matrix: (Units=GPa)
#
#
# Indices 1 2 3 4 5 6 
#
# 1 154.4430 46.5058 64.5069 0.0000 16.3982 0.0000
# 2 46.5058 78.0606 34.0788 0.0000 1.4500 0.0000
# 3 64.5069 34.0788 82.2184 0.0000 9.0937 0.0000
# 4 0.0000 0.0000 0.0000 15.9821 0.0000 -2.8925
# 5 16.3982 1.4500 9.0937 0.0000 43.2306 0.0000
# 6 0.0000 0.0000 0.0000 -2.8925 0.0000 26.6791
#
#
#
# Elastic Compliance Matrix: (Units=1/GPa)
#
#
# Indices 1 2 3 4 5 6 
#
# 1 0.010487 -0.003333 -0.006572 0.000000 -0.002484 0.000000
# 2 -0.003333 0.016731 -0.004503 0.000000 0.001650 0.000000
# 3 -0.006572 -0.004503 0.019343 0.000000 -0.001425 0.000000
# 4 0.000000 0.000000 0.000000 0.063822 0.000000 0.006920
# 5 -0.002484 0.001650 -0.001425 0.000000 0.024318 0.000000
# 6 0.000000 0.000000 0.000000 0.006920 0.000000 0.038233
#
#
# Mechanical properties :
#
#
# Convention : Reuss Voigt Hill
#
# Bulk Modulus (GPa) = 56.34883 67.21168 61.78025
# Shear Modulus (GPa) = 24.07736 28.48707 26.28221
#
# Velocity S-wave (km/s) = 3.65929 3.98031 3.82317
# Velocity P-wave (km/s) = 7.01369 7.64873 7.33808
#
# Compressibility (1/GPa) = 0.01774660
#
# Stress axis : x y z
#
# Youngs Moduli (GPa) = 95.35616 59.76890 51.69880
#
# Poissons Ratio (x) = 0.19919 0.33976
# Poissons Ratio (y) = 0.31778 0.23279
# Poissons Ratio (z) = 0.62667 0.26912
#
# Static dielectric constant tensor:
#      x y z
#    x 3.739400 0.000000 -0.187030 
#    y 0.000000 2.341620 0.000000 
#    z -0.187030 0.000000 3.200250 
# 
# 
# High freq. dielectric constant tensor:
#      x y z
#    x 1.709050 0.000000 -0.012070 
#    y 0.000000 1.676000 0.000000 
#    z -0.012070 0.000000 1.691080 
# 
# From -- ./inp_files/9122.got.cif
#   From: 2010.03.12/outbox.cif.g09.slc.cpg/sg14_5_cif.got.tgz:9122.got - 2010.03.31 13:35:05.
