data_PCOD8124057
_publ_section_title
;
Structure prediction by ZEFSAII (Michael W. Deem and Ramdas Pophale) SiO2 
 PCOD8124057
Probable space group: P 21/C
;
_chemical_formula_sum "Si O2"
_cell_formula_units_Z 28
_cell_length_a 18.867724
_cell_length_b 14.725204
_cell_length_c 4.961354
_cell_angle_alpha 90.000000
_cell_angle_beta 74.243389
_cell_angle_gamma 90.000000
_cell_volume 1326.622792
_symmetry_space_group_name_H-M "P 21/C"
_symmetry_group_IT_number 14
_symmetry_cell_setting 'monoclinic'
loop_
_space_group_symop_operation_xyz
x,y,z
-x,1/2+y,1/2-z
-x,-y,-z
x,1/2-y,1/2+z
loop_
_atom_site_type_symbol
_atom_site_label
_atom_site_fract_x
_atom_site_fract_y
_atom_site_fract_z
Si Si1 0.371154 0.553346 0.398249
Si Si2 0.500037 0.810496 0.730666
Si Si3 0.226897 0.312727 0.898826
Si Si4 0.068371 0.309808 0.163142
Si Si5 0.759366 0.312114 0.441036
Si Si6 0.082710 0.689982 0.827013
Si Si7 0.362462 0.431852 0.898567
O O1 0.439433 0.613652 0.230439
O O2 0.302119 0.613971 0.556745
O O3 0.396059 0.495247 0.630693
O O4 0.347228 0.487969 0.182721
O O5 0.489708 0.725165 0.543983
O O6 0.580668 0.851308 0.598490
O O7 0.236964 0.228334 0.091583
O O8 0.145835 0.359792 0.018806
O O9 0.285446 0.391565 0.879715
O O10 0.066699 0.280926 0.476769
O O11 0.992862 0.366279 0.167992
O O12 0.750372 0.226381 0.250893
O O13 0.839820 0.360335 0.317367
O O14 0.081381 0.780702 0.639912
#
# Coordination Sequence:
#
# PCOD8124057 Si02
#       7
#     4   4   4   4   4   4   4
#     4  12  24  39  57  82 114 143 173 215 271 321
#     4  12  24  42  64  84 106 138 182 222 260 312
#     4  10  19  34  55  79 106 141 184 222 260 312
#     4   8  14  25  45  73 101 130 172 224 264 296
#     4  10  19  34  55  79 106 141 184 222 260 312
#     4   8  14  25  45  73 101 130 172 224 264 296
#     4  12  24  39  57  82 114 143 173 215 271 321
#
# _framework density 21.106224000000001
#
# number of rings (size 3 to 8) (size 9 to 14) (size 15 to 20)
#    0.000    1.714    0.000    6.000    0.000    0.000 
#    0.000    0.000    0.000    1.714    0.000    0.000 
#    0.000    0.000    0.000    0.000    0.000    0.000 
#
# Total GULP energy -347107.088116 kJ/mol
# GULP energy per Si atom -12396.681718 kJ/mol
# Density = 2.105819 g / cm^3
# Si number density = 21.106224 Si / 1000 Ang^3
#
#
#
# Elastic Constant Matrix: (Units=GPa)
#
#
# Indices 1 2 3 4 5 6 
#
# 1 109.7375 18.9151 9.8846 0.0000 -12.2816 0.0000
# 2 18.9151 44.5557 11.1263 0.0000 -2.8756 0.0000
# 3 9.8846 11.1263 74.6131 0.0000 2.4025 0.0000
# 4 0.0000 0.0000 0.0000 17.4396 0.0000 9.3035
# 5 -12.2816 -2.8756 2.4025 0.0000 34.4726 0.0000
# 6 0.0000 0.0000 0.0000 9.3035 0.0000 7.5350
#
#
#
# Elastic Compliance Matrix: (Units=1/GPa)
#
#
# Indices 1 2 3 4 5 6 
#
# 1 0.010245 -0.003910 -0.000883 0.000000 0.003385 0.000000
# 2 -0.003910 0.024971 -0.003235 0.000000 0.000915 0.000000
# 3 -0.000883 -0.003235 0.014052 0.000000 -0.001564 0.000000
# 4 0.000000 0.000000 0.000000 0.167994 0.000000 -0.207424
# 5 0.003385 0.000915 -0.001564 0.000000 0.030400 0.000000
# 6 0.000000 0.000000 0.000000 -0.207424 0.000000 0.388821
#
#
# Mechanical properties :
#
#
# Convention : Reuss Voigt Hill
#
# Bulk Modulus (GPa) = 30.11049 34.30649 32.20849
# Shear Modulus (GPa) = 7.53453 24.48813 16.01133
#
# Velocity S-wave (km/s) = 1.89145 3.40991 2.75727
# Velocity P-wave (km/s) = 4.36660 5.63851 5.04282
#
# Compressibility (1/GPa) = 0.03321102
#
# Stress axis : x y z
#
# Youngs Moduli (GPa) = 97.60765 40.04682 71.16305
#
# Poissons Ratio (x) = 0.15659 0.06285
# Poissons Ratio (y) = 0.38167 0.23022
# Poissons Ratio (z) = 0.08620 0.12956
#
# Static dielectric constant tensor:
#      x y z
#    x 4.348840 0.000000 -0.077110 
#    y 0.000000 3.231180 0.000000 
#    z -0.077110 0.000000 3.912640 
# 
# 
# High freq. dielectric constant tensor:
#      x y z
#    x 1.860510 0.000000 -0.001720 
#    y 0.000000 1.755950 0.000000 
#    z -0.001720 0.000000 1.849440 
# 
# From -- ./inp_files/4113.got.cif
#   From: 2010.03.12/outbox.cif.g09.slc.cpg/sg14_3_cif.got.tgz:4113.got - 2010.03.31 13:35:05.
