data_PCOD8124107
_publ_section_title
;
Structure prediction by ZEFSAII (Michael W. Deem and Ramdas Pophale) SiO2 
 PCOD8124107
Probable space group: P 21/C
;
_chemical_formula_sum "Si O2"
_cell_formula_units_Z 32
_cell_length_a 11.667914
_cell_length_b 11.336594
_cell_length_c 19.568977
_cell_angle_alpha 90.000000
_cell_angle_beta 141.073668
_cell_angle_gamma 90.000000
_cell_volume 1626.392164
_symmetry_space_group_name_H-M "P 21/C"
_symmetry_group_IT_number 14
_symmetry_cell_setting 'monoclinic'
loop_
_space_group_symop_operation_xyz
x,y,z
-x,1/2+y,1/2-z
-x,-y,-z
x,1/2-y,1/2+z
loop_
_atom_site_type_symbol
_atom_site_label
_atom_site_fract_x
_atom_site_fract_y
_atom_site_fract_z
Si Si1 0.637479 0.793806 0.052643
Si Si2 0.741525 0.383979 0.365768
Si Si3 0.878245 0.507911 0.613924
Si Si4 0.385146 0.544941 0.045850
Si Si5 0.339636 0.800324 0.031550
Si Si6 0.854008 0.628183 0.457830
Si Si7 0.750979 0.556487 0.152377
Si Si8 0.433377 0.194923 0.625244
O O1 0.504590 0.803647 0.055078
O O2 0.780658 0.688352 0.135545
O O3 0.735691 0.919821 0.094315
O O4 0.536004 0.760084 0.933742
O O5 0.618840 0.365007 0.377116
O O6 0.774269 0.525432 0.371061
O O7 0.631468 0.323487 0.252395
O O8 0.944350 0.326098 0.471829
O O9 0.823481 0.371322 0.580140
O O10 0.892186 0.575529 0.549693
O O11 0.069945 0.506867 0.739064
O O12 0.289842 0.665056 0.028012
O O13 0.605132 0.559261 0.146464
O O14 0.337502 0.433175 0.071254
O O15 0.320019 0.531145 0.938409
O O16 0.705465 0.732442 0.391009
#
# Coordination Sequence:
#
# PCOD8124107 Si02
#       8
#     4   4   4   4   4   4   4   4
#     4   9  20  38  55  88 119 146 199 238 289 360
#     4  10  21  39  62  85 115 162 195 245 294 347
#     4  10  19  34  60  83 117 150 193 243 291 340
#     4   9  19  35  53  81 117 143 196 232 283 354
#     4  10  21  36  57  86 119 148 190 243 288 347
#     4   9  21  39  59  89 113 150 217 233 284 371
#     4   9  18  33  55  83 109 157 183 233 291 341
#     4  10  20  38  64  81 116 159 191 248 294 342
#
# _framework density 19.675452
#
# number of rings (size 3 to 8) (size 9 to 14) (size 15 to 20)
#    0.000    2.500    0.000    1.875    3.500    0.000 
#    9.000    0.625    0.000    0.000    0.000    0.000 
#    0.000    0.000    0.000    0.000    0.000    0.000 
#
# Total GULP energy -396508.044128 kJ/mol
# GULP energy per Si atom -12390.876379 kJ/mol
# Density = 1.963067 g / cm^3
# Si number density = 19.675452 Si / 1000 Ang^3
#
#
#
# Elastic Constant Matrix: (Units=GPa)
#
#
# Indices 1 2 3 4 5 6 
#
# 1 73.1160 30.6360 32.2672 0.0000 5.7332 0.0000
# 2 30.6360 113.1335 45.5112 0.0000 14.4208 0.0000
# 3 32.2672 45.5112 115.0649 0.0000 12.9878 0.0000
# 4 0.0000 0.0000 0.0000 22.6475 0.0000 7.4351
# 5 5.7332 14.4208 12.9878 0.0000 16.2254 0.0000
# 6 0.0000 0.0000 0.0000 7.4351 0.0000 29.1009
#
#
#
# Elastic Compliance Matrix: (Units=1/GPa)
#
#
# Indices 1 2 3 4 5 6 
#
# 1 0.016474 -0.003055 -0.003365 0.000000 -0.000412 0.000000
# 2 -0.003055 0.011766 -0.003010 0.000000 -0.006968 0.000000
# 3 -0.003365 -0.003010 0.011421 0.000000 -0.005277 0.000000
# 4 0.000000 0.000000 0.000000 0.048198 0.000000 -0.012314
# 5 -0.000412 -0.006968 -0.005277 0.000000 0.072195 0.000000
# 6 0.000000 0.000000 0.000000 -0.012314 0.000000 0.037509
#
#
# Mechanical properties :
#
#
# Convention : Reuss Voigt Hill
#
# Bulk Modulus (GPa) = 48.07699 57.57145 52.82422
# Shear Modulus (GPa) = 22.38574 26.45475 24.42025
#
# Velocity S-wave (km/s) = 3.37671 3.67080 3.52682
# Velocity P-wave (km/s) = 6.30008 6.87680 6.59475
#
# Compressibility (1/GPa) = 0.02079997
#
# Stress axis : x y z
#
# Youngs Moduli (GPa) = 60.70071 84.99368 87.56011
#
# Poissons Ratio (x) = 0.25965 0.29463
# Poissons Ratio (y) = 0.18544 0.26359
# Poissons Ratio (z) = 0.20425 0.25587
#
# Static dielectric constant tensor:
#      x y z
#    x 3.563970 0.000000 -0.028940 
#    y 0.000000 3.945870 0.000000 
#    z -0.028940 0.000000 3.409660 
# 
# 
# High freq. dielectric constant tensor:
#      x y z
#    x 1.752900 0.000000 -0.010150 
#    y 0.000000 1.770710 0.000000 
#    z -0.010150 0.000000 1.751750 
# 
# From -- ./inp_files/67276.got.cif
#   From: 2010.03.12/outbox.cif.g09.slc.cpg/sg14_34_cif.got.tgz:67276.got - 2010.03.31 13:35:05.
