data_PCOD8124723
_publ_section_title
;
Structure prediction by ZEFSAII (Michael W. Deem and Ramdas Pophale) SiO2 
 PCOD8124723
Probable space group: P 21/C
;
_chemical_formula_sum "Si O2"
_cell_formula_units_Z 32
_cell_length_a 15.236394
_cell_length_b 13.512976
_cell_length_c 20.872551
_cell_angle_alpha 90.000000
_cell_angle_beta 21.020554
_cell_angle_gamma 90.000000
_cell_volume 1541.500037
_symmetry_space_group_name_H-M "P 21/C"
_symmetry_group_IT_number 14
_symmetry_cell_setting 'monoclinic'
loop_
_space_group_symop_operation_xyz
x,y,z
-x,1/2+y,1/2-z
-x,-y,-z
x,1/2-y,1/2+z
loop_
_atom_site_type_symbol
_atom_site_label
_atom_site_fract_x
_atom_site_fract_y
_atom_site_fract_z
Si Si1 0.567692 0.712656 0.183700
Si Si2 0.337220 0.333578 0.020363
Si Si3 0.119791 0.720234 0.177210
Si Si4 0.082428 0.115345 0.063788
Si Si5 0.522650 0.007206 0.729796
Si Si6 0.877601 0.326648 0.965616
Si Si7 0.644334 0.720917 0.852891
Si Si8 0.337381 0.005037 0.714654
O O1 0.623434 0.602537 0.170737
O O2 0.316057 0.740417 0.389036
O O3 0.525675 0.712340 0.135130
O O4 0.791507 0.784773 0.051390
O O5 0.401798 0.271229 0.039454
O O6 0.046230 0.319423 0.206337
O O7 0.414049 0.448227 0.977687
O O8 0.062501 0.642354 0.272792
O O9 0.081948 0.659809 0.137663
O O10 0.397651 0.758774 0.988422
O O11 0.892959 0.067626 0.142156
O O12 0.311463 0.041176 0.924074
O O13 0.769172 0.072421 0.568655
O O14 0.374132 0.025679 0.764606
O O15 0.136509 0.292695 0.819848
O O16 0.701619 0.606893 0.796272
#
# Coordination Sequence:
#
# PCOD8124723 Si02
#       8
#     4   4   4   4   4   4   4   4
#     4   9  20  38  53  83 119 158 188 241 293 342
#     4   9  20  34  55  81 121 152 192 238 290 337
#     4  10  20  37  53  84 122 157 188 238 294 341
#     4  10  20  32  56  85 115 147 194 239 284 344
#     4  10  20  37  58  86 119 151 191 240 294 345
#     4  10  21  37  57  85 121 154 191 243 293 346
#     4  11  20  34  58  88 119 154 194 240 290 344
#     4  11  19  33  60  94 113 149 197 248 283 343
#
# _framework density 20.759001999999999
#
# number of rings (size 3 to 8) (size 9 to 14) (size 15 to 20)
#    0.000    2.000    2.500    1.500    0.000    1.000 
#    0.000    0.000    0.000    9.000    3.250    0.000 
#    0.000    0.000    0.000    0.000    0.000    0.000 
#
# Total GULP energy -396523.928259 kJ/mol
# GULP energy per Si atom -12391.372758 kJ/mol
# Density = 2.071175 g / cm^3
# Si number density = 20.759002 Si / 1000 Ang^3
#
#
#
# Elastic Constant Matrix: (Units=GPa)
#
#
# Indices 1 2 3 4 5 6 
#
# 1 33.7331 13.2518 15.3983 0.0000 -10.1062 0.0000
# 2 13.2518 117.0413 48.1838 0.0000 -17.3195 0.0000
# 3 15.3983 48.1838 116.8816 0.0000 -17.5648 0.0000
# 4 0.0000 0.0000 0.0000 28.8748 0.0000 -8.7183
# 5 -10.1062 -17.3195 -17.5648 0.0000 31.7803 0.0000
# 6 0.0000 0.0000 0.0000 -8.7183 0.0000 23.8074
#
#
#
# Elastic Compliance Matrix: (Units=1/GPa)
#
#
# Indices 1 2 3 4 5 6 
#
# 1 0.033977 -0.001526 -0.002561 0.000000 0.008557 0.000000
# 2 -0.001526 0.010742 -0.003730 0.000000 0.003307 0.000000
# 3 -0.002561 -0.003730 0.010909 0.000000 0.003182 0.000000
# 4 0.000000 0.000000 0.000000 0.038938 0.000000 0.014259
# 5 0.008557 0.003307 0.003182 0.000000 0.037748 0.000000
# 6 0.000000 0.000000 0.000000 0.014259 0.000000 0.047226
#
#
# Mechanical properties :
#
#
# Convention : Reuss Voigt Hill
#
# Bulk Modulus (GPa) = 25.00462 46.81377 35.90919
# Shear Modulus (GPa) = 23.98023 29.61395 26.79709
#
# Velocity S-wave (km/s) = 3.40247 3.78108 3.59676
# Velocity P-wave (km/s) = 5.24472 6.45462 5.88087
#
# Compressibility (1/GPa) = 0.03999260
#
# Stress axis : x y z
#
# Youngs Moduli (GPa) = 29.43179 93.09403 91.66742
#
# Poissons Ratio (x) = 0.14210 0.23476
# Poissons Ratio (y) = 0.04492 0.34194
# Poissons Ratio (z) = 0.07537 0.34726
#
# Static dielectric constant tensor:
#      x y z
#    x 3.632290 0.000000 0.064810 
#    y 0.000000 3.666390 0.000000 
#    z 0.064810 0.000000 4.025780 
# 
# 
# High freq. dielectric constant tensor:
#      x y z
#    x 1.789950 0.000000 0.011140 
#    y 0.000000 1.792960 0.000000 
#    z 0.011140 0.000000 1.828620 
# 
# From -- ./inp_files/68715.got.cif
#   From: 2010.03.12/outbox.cif.g09.slc.cpg/sg14_35_cif.got.tgz:68715.got - 2010.03.31 13:35:05.
