data_PCOD8124501
_publ_section_title
;
Structure prediction by ZEFSAII (Michael W. Deem and Ramdas Pophale) SiO2 
 PCOD8124501
Probable space group: P 21/C
;
_chemical_formula_sum "Si O2"
_cell_formula_units_Z 24
_cell_length_a 21.593183
_cell_length_b 10.500993
_cell_length_c 30.099853
_cell_angle_alpha 90.000000
_cell_angle_beta 170.635380
_cell_angle_gamma 90.000000
_cell_volume 1110.564034
_symmetry_space_group_name_H-M "P 21/C"
_symmetry_group_IT_number 14
_symmetry_cell_setting 'monoclinic'
loop_
_space_group_symop_operation_xyz
x,y,z
-x,1/2+y,1/2-z
-x,-y,-z
x,1/2-y,1/2+z
loop_
_atom_site_type_symbol
_atom_site_label
_atom_site_fract_x
_atom_site_fract_y
_atom_site_fract_z
Si Si1 0.242354 0.428852 0.782714
Si Si2 0.105642 0.316270 0.483330
Si Si3 0.143590 0.907889 0.745906
Si Si4 0.405232 0.656594 0.613542
Si Si5 0.581066 0.198157 0.974589
Si Si6 0.222655 0.930665 0.582661
O O1 0.491916 0.342464 0.926433
O O2 0.050085 0.542037 0.617967
O O3 0.939693 0.340663 0.594953
O O4 0.500000 0.500000 0.000000
O O5 0.270687 0.261430 0.646123
O O6 0.466832 0.320503 0.704903
O O7 0.796891 0.219860 0.242308
O O8 0.101884 0.862278 0.767687
O O9 0.799206 0.986600 0.479491
O O10 0.500000 0.000000 0.000000
O O11 0.240736 0.690567 0.448425
O O12 0.612909 0.519550 0.761673
O O13 0.186648 0.120728 0.693718
#
# Coordination Sequence:
#
# PCOD8124501 Si02
#       6
#     4   4   4   4   4   4
#     4  11  22  40  63  87 131 166 195 260 318 359
#     4  10  19  38  60  86 124 163 201 248 312 371
#     4   9  19  35  59  84 118 165 204 246 313 368
#     4  10  22  38  62  91 117 158 208 251 305 371
#     4  11  20  39  61  90 119 159 206 253 301 371
#     4   9  19  37  61  84 119 159 202 252 309 362
#
# _framework density 21.610638000000002
#
# number of rings (size 3 to 8) (size 9 to 14) (size 15 to 20)
#    0.000    2.000    3.333    0.500    0.000    0.667 
#    3.000    1.667    0.000    0.000    0.000    0.000 
#    0.000    0.000    0.000    0.000    0.000    0.000 
#
# Total GULP energy -297342.412505 kJ/mol
# GULP energy per Si atom -12389.267188 kJ/mol
# Density = 2.156145 g / cm^3
# Si number density = 21.610638 Si / 1000 Ang^3
#
#
#
# Elastic Constant Matrix: (Units=GPa)
#
#
# Indices 1 2 3 4 5 6 
#
# 1 100.4982 45.4862 7.2239 0.0000 -30.6681 0.0000
# 2 45.4862 104.2859 20.1725 0.0000 -7.2364 0.0000
# 3 7.2239 20.1725 43.8095 0.0000 -11.7949 0.0000
# 4 0.0000 0.0000 0.0000 30.5360 0.0000 -5.5598
# 5 -30.6681 -7.2364 -11.7949 0.0000 28.5984 0.0000
# 6 0.0000 0.0000 0.0000 -5.5598 0.0000 23.8463
#
#
#
# Elastic Compliance Matrix: (Units=1/GPa)
#
#
# Indices 1 2 3 4 5 6 
#
# 1 0.020045 -0.008477 0.006533 0.000000 0.022045 0.000000
# 2 -0.008477 0.014126 -0.007415 0.000000 -0.008574 0.000000
# 3 0.006533 -0.007415 0.029860 0.000000 0.017445 0.000000
# 4 0.000000 0.000000 0.000000 0.034200 0.000000 0.007974
# 5 0.022045 -0.008574 0.017445 0.000000 0.063633 0.000000
# 6 0.000000 0.000000 0.000000 0.007974 0.000000 0.043794
#
#
# Mechanical properties :
#
#
# Convention : Reuss Voigt Hill
#
# Bulk Modulus (GPa) = 22.06870 43.81763 32.94317
# Shear Modulus (GPa) = 20.87862 28.31021 24.59441
#
# Velocity S-wave (km/s) = 3.11163 3.62334 3.37719
# Velocity P-wave (km/s) = 4.81080 6.15018 5.52126
#
# Compressibility (1/GPa) = 0.04531304
#
# Stress axis : x y z
#
# Youngs Moduli (GPa) = 49.88813 70.79270 33.48980
#
# Poissons Ratio (x) = 0.60011 -0.21880
# Poissons Ratio (y) = 0.42290 0.24833
# Poissons Ratio (z) = -0.32593 0.52493
#
# Static dielectric constant tensor:
#      x y z
#    x 3.691960 0.000000 -0.489180 
#    y 0.000000 4.423810 0.000000 
#    z -0.489180 0.000000 3.911980 
# 
# 
# High freq. dielectric constant tensor:
#      x y z
#    x 1.811100 0.000000 -0.039470 
#    y 0.000000 1.866570 0.000000 
#    z -0.039470 0.000000 1.836300 
# 
# From -- ./inp_files/44494.got.cif
#   From: 2010.03.12/outbox.cif.g09.slc.cpg/sg14_23_cif.got.tgz:44494.got - 2010.03.31 13:35:05.
