data_PCOD8124445
_publ_section_title
;
Structure prediction by ZEFSAII (Michael W. Deem and Ramdas Pophale) SiO2 
 PCOD8124445
Probable space group: P 21/C
;
_chemical_formula_sum "Si O2"
_cell_formula_units_Z 24
_cell_length_a 15.858337
_cell_length_b 10.933469
_cell_length_c 12.962177
_cell_angle_alpha 90.000000
_cell_angle_beta 28.777137
_cell_angle_gamma 90.000000
_cell_volume 1081.940121
_symmetry_space_group_name_H-M "P 21/C"
_symmetry_group_IT_number 14
_symmetry_cell_setting 'monoclinic'
loop_
_space_group_symop_operation_xyz
x,y,z
-x,1/2+y,1/2-z
-x,-y,-z
x,1/2-y,1/2+z
loop_
_atom_site_type_symbol
_atom_site_label
_atom_site_fract_x
_atom_site_fract_y
_atom_site_fract_z
Si Si1 0.473304 0.203648 0.706334
Si Si2 0.209019 0.414981 0.332828
Si Si3 0.358970 0.429631 0.716447
Si Si4 0.740346 0.780518 0.870336
Si Si5 0.171187 0.662639 0.273123
Si Si6 0.076840 0.601588 0.992656
O O1 0.355573 0.118636 0.759264
O O2 0.440610 0.348421 0.720281
O O3 0.675846 0.166662 0.477267
O O4 0.419960 0.185387 0.883213
O O5 0.247198 0.362413 0.175056
O O6 0.211709 0.561266 0.317468
O O7 0.017482 0.366527 0.576092
O O8 0.500000 0.500000 0.500000
O O9 0.268726 0.337205 0.733842
O O10 0.218095 0.528442 0.912222
O O11 0.921703 0.833626 0.725619
O O12 0.177978 0.794543 0.319737
O O13 0.000000 0.500000 0.000000
#
# Coordination Sequence:
#
# PCOD8124445 Si02
#       6
#     4   4   4   4   4   4
#     4  11  21  38  61  90 117 153 204 251 294 355
#     4   9  21  40  59  84 122 160 190 244 310 357
#     4  10  19  37  63  84 116 161 198 241 306 360
#     4   9  21  38  57  88 121 149 201 255 287 360
#     4  10  19  38  64  82 118 158 195 246 301 354
#     4   9  18  38  61  81 116 156 194 241 298 351
#
# _framework density 22.182372999999998
#
# number of rings (size 3 to 8) (size 9 to 14) (size 15 to 20)
#    0.000    2.333    1.667    1.500    0.000    1.333 
#   12.000    0.000    0.000    0.000    0.000    0.000 
#    0.000    0.000    0.000    0.000    0.000    0.000 
#
# Total GULP energy -297350.378491 kJ/mol
# GULP energy per Si atom -12389.599104 kJ/mol
# Density = 2.213188 g / cm^3
# Si number density = 22.182373 Si / 1000 Ang^3
#
#
#
# Elastic Constant Matrix: (Units=GPa)
#
#
# Indices 1 2 3 4 5 6 
#
# 1 25.6112 11.4881 25.4060 0.0000 -0.2185 0.0000
# 2 11.4881 110.3825 20.5257 0.0000 -2.2625 0.0000
# 3 25.4060 20.5257 162.8349 0.0000 -7.0214 0.0000
# 4 0.0000 0.0000 0.0000 31.0547 0.0000 -10.5127
# 5 -0.2185 -2.2625 -7.0214 0.0000 27.5011 0.0000
# 6 0.0000 0.0000 0.0000 -10.5127 0.0000 13.3117
#
#
#
# Elastic Compliance Matrix: (Units=1/GPa)
#
#
# Indices 1 2 3 4 5 6 
#
# 1 0.047676 -0.003687 -0.007048 0.000000 -0.001724 0.000000
# 2 -0.003687 0.009568 -0.000605 0.000000 0.000603 0.000000
# 3 -0.007048 -0.000605 0.007394 0.000000 0.001782 0.000000
# 4 0.000000 0.000000 0.000000 0.043951 0.000000 0.034710
# 5 -0.001724 0.000603 0.001782 0.000000 0.036853 0.000000
# 6 0.000000 0.000000 0.000000 0.034710 0.000000 0.102533
#
#
# Mechanical properties :
#
#
# Convention : Reuss Voigt Hill
#
# Bulk Modulus (GPa) = 23.83303 45.96316 34.89809
# Shear Modulus (GPa) = 17.56598 30.46743 24.01671
#
# Velocity S-wave (km/s) = 2.81711 3.71009 3.29400
# Velocity P-wave (km/s) = 4.62049 6.25449 5.49852
#
# Compressibility (1/GPa) = 0.04195858
#
# Stress axis : x y z
#
# Youngs Moduli (GPa) = 20.97491 104.51577 135.24579
#
# Poissons Ratio (x) = 0.38531 0.95324
# Poissons Ratio (y) = 0.07733 0.08180
# Poissons Ratio (z) = 0.14783 0.06322
#
# Static dielectric constant tensor:
#      x y z
#    x 3.557270 0.000000 -0.460890 
#    y 0.000000 3.859070 0.000000 
#    z -0.460890 0.000000 4.045370 
# 
# 
# High freq. dielectric constant tensor:
#      x y z
#    x 1.823210 0.000000 -0.034260 
#    y 0.000000 1.894920 0.000000 
#    z -0.034260 0.000000 1.874710 
# 
# From -- ./inp_files/39255.got.cif
#   From: 2010.03.12/outbox.cif.g09.slc.cpg/sg14_20_cif.got.tgz:39255.got - 2010.03.31 13:35:05.
