data_PCOD8124401
_publ_section_title
;
Structure prediction by ZEFSAII (Michael W. Deem and Ramdas Pophale) SiO2 
 PCOD8124401
Probable space group: P 21/C
;
_chemical_formula_sum "Si O2"
_cell_formula_units_Z 28
_cell_length_a 9.268031
_cell_length_b 12.510991
_cell_length_c 14.231745
_cell_angle_alpha 90.000000
_cell_angle_beta 61.398459
_cell_angle_gamma 90.000000
_cell_volume 1448.828796
_symmetry_space_group_name_H-M "P 21/C"
_symmetry_group_IT_number 14
_symmetry_cell_setting 'monoclinic'
loop_
_space_group_symop_operation_xyz
x,y,z
-x,1/2+y,1/2-z
-x,-y,-z
x,1/2-y,1/2+z
loop_
_atom_site_type_symbol
_atom_site_label
_atom_site_fract_x
_atom_site_fract_y
_atom_site_fract_z
Si Si1 0.211220 0.344785 0.597469
Si Si2 0.477322 0.992582 0.803650
Si Si3 0.100525 0.342638 0.242307
Si Si4 0.875356 0.906533 0.060295
Si Si5 0.554966 0.201551 0.051620
Si Si6 0.760672 0.078515 0.843210
Si Si7 0.455242 0.064965 0.606519
O O1 0.121608 0.280752 0.708104
O O2 0.121292 0.320856 0.526150
O O3 0.399924 0.311056 0.531463
O O4 0.197352 0.470296 0.616510
O O5 0.470356 0.871794 0.847031
O O6 0.309104 0.050469 0.879156
O O7 0.625595 0.059304 0.804941
O O8 0.500550 0.992623 0.683392
O O9 0.074355 0.344879 0.361934
O O10 0.259606 0.411599 0.162897
O O11 0.933514 0.383493 0.244087
O O12 0.000000 0.000000 0.000000
O O13 0.563312 0.325797 0.079606
O O14 0.706902 0.164300 0.939927
O O15 0.500000 0.000000 0.500000
#
# Coordination Sequence:
#
# PCOD8124401 Si02
#       7
#     4   4   4   4   4   4   4
#     4  10  19  37  58  86 120 152 201 254 298 358
#     4  10  20  38  63  86 116 159 205 246 300 367
#     4  10  23  37  59  91 119 158 201 249 313 353
#     4  11  18  37  65  86 115 159 206 251 298 367
#     4  10  19  38  64  86 115 159 202 245 309 358
#     4  11  19  39  61  88 117 158 206 254 297 366
#     4  10  24  42  57  89 128 158 198 253 305 361
#
# _framework density 19.325955
#
# number of rings (size 3 to 8) (size 9 to 14) (size 15 to 20)
#    0.000    1.714    4.286    0.857    0.000    2.286 
#   18.000    0.714    0.000    0.000    0.000    0.000 
#    0.000    0.000    0.000    0.000    0.000    0.000 
#
# Total GULP energy -347034.180262 kJ/mol
# GULP energy per Si atom -12394.077866 kJ/mol
# Density = 1.928197 g / cm^3
# Si number density = 19.325955 Si / 1000 Ang^3
#
#
#
# Elastic Constant Matrix: (Units=GPa)
#
#
# Indices 1 2 3 4 5 6 
#
# 1 111.3127 33.0978 57.2954 0.0000 1.4481 0.0000
# 2 33.0978 89.0689 53.7747 0.0000 12.8878 0.0000
# 3 57.2954 53.7747 127.4036 0.0000 17.9607 0.0000
# 4 0.0000 0.0000 0.0000 32.8029 0.0000 0.6683
# 5 1.4481 12.8878 17.9607 0.0000 35.6363 0.0000
# 6 0.0000 0.0000 0.0000 0.6683 0.0000 22.1460
#
#
#
# Elastic Compliance Matrix: (Units=1/GPa)
#
#
# Indices 1 2 3 4 5 6 
#
# 1 0.012092 -0.001841 -0.005044 0.000000 0.002717 0.000000
# 2 -0.001841 0.015543 -0.005329 0.000000 -0.002860 0.000000
# 3 -0.005044 -0.005329 0.012989 0.000000 -0.004414 0.000000
# 4 0.000000 0.000000 0.000000 0.030504 0.000000 -0.000921
# 5 0.002717 -0.002860 -0.004414 0.000000 0.031210 0.000000
# 6 0.000000 0.000000 0.000000 -0.000921 0.000000 0.045183
#
#
# Mechanical properties :
#
#
# Convention : Reuss Voigt Hill
#
# Bulk Modulus (GPa) = 61.74551 68.45787 65.10169
# Shear Modulus (GPa) = 28.19334 30.35819 29.27576
#
# Velocity S-wave (km/s) = 3.82361 3.96770 3.89632
# Velocity P-wave (km/s) = 7.17720 7.51597 7.34854
#
# Compressibility (1/GPa) = 0.01619551
#
# Stress axis : x y z
#
# Youngs Moduli (GPa) = 82.69937 64.33883 76.98890
#
# Poissons Ratio (x) = 0.11847 0.38831
# Poissons Ratio (y) = 0.15227 0.41027
# Poissons Ratio (z) = 0.41711 0.34286
#
# Static dielectric constant tensor:
#      x y z
#    x 3.801100 0.000000 0.090520 
#    y 0.000000 3.232850 0.000000 
#    z 0.090520 0.000000 3.553930 
# 
# 
# High freq. dielectric constant tensor:
#      x y z
#    x 1.763130 0.000000 -0.000620 
#    y 0.000000 1.732250 0.000000 
#    z -0.000620 0.000000 1.746100 
# 
# From -- ./inp_files/39958.got.cif
#   From: 2010.03.12/outbox.cif.g09.slc.cpg/sg14_20_cif.got.tgz:39958.got - 2010.03.31 13:35:05.
