data_PCOD8124426
_publ_section_title
;
Structure prediction by ZEFSAII (Michael W. Deem and Ramdas Pophale) SiO2 
 PCOD8124426
Probable space group: P 21/C
;
_chemical_formula_sum "Si O2"
_cell_formula_units_Z 28
_cell_length_a 13.849712
_cell_length_b 9.522212
_cell_length_c 19.217402
_cell_angle_alpha 90.000000
_cell_angle_beta 144.849313
_cell_angle_gamma 90.000000
_cell_volume 1459.120719
_symmetry_space_group_name_H-M "P 21/C"
_symmetry_group_IT_number 14
_symmetry_cell_setting 'monoclinic'
loop_
_space_group_symop_operation_xyz
x,y,z
-x,1/2+y,1/2-z
-x,-y,-z
x,1/2-y,1/2+z
loop_
_atom_site_type_symbol
_atom_site_label
_atom_site_fract_x
_atom_site_fract_y
_atom_site_fract_z
Si Si1 0.027909 0.969935 0.401978
Si Si2 0.322983 0.558358 0.752250
Si Si3 0.918334 0.775584 0.221985
Si Si4 0.969617 0.009908 0.819662
Si Si5 0.316873 0.160822 0.518295
Si Si6 0.899903 0.304500 0.925453
Si Si7 0.787630 0.632509 0.431194
O O1 0.127197 0.871991 0.515063
O O2 0.907406 0.877911 0.281644
O O3 0.167339 0.048929 0.438945
O O4 0.905028 0.076153 0.369303
O O5 0.211203 0.500442 0.749850
O O6 0.509797 0.580425 0.890858
O O7 0.255015 0.705485 0.683396
O O8 0.328932 0.446982 0.692681
O O9 0.005121 0.628959 0.295339
O O10 0.732127 0.747384 0.080615
O O11 0.028795 0.848935 0.226333
O O12 0.115517 0.019645 0.963555
O O13 0.328620 0.264172 0.591716
O O14 0.074623 0.220708 0.029946
#
# Coordination Sequence:
#
# PCOD8124426 Si02
#       7
#     4   4   4   4   4   4   4
#     4  10  19  37  61  82 114 153 201 240 285 345
#     4  11  21  36  58  86 124 147 191 250 301 341
#     4  11  20  39  59  84 114 159 198 239 284 356
#     4  10  21  36  64  81 114 158 201 236 287 355
#     4  10  23  35  55  91 119 151 195 243 293 354
#     4   9  19  35  63  87 107 153 203 240 285 351
#     4   9  19  38  57  85 113 153 201 239 287 352
#
# _framework density 19.189640000000001
#
# number of rings (size 3 to 8) (size 9 to 14) (size 15 to 20)
#    0.000    2.000    1.429    4.286    2.000    0.571 
#    0.000    0.714    0.000    0.000    0.000    0.000 
#    0.000    0.000    0.000    0.000    0.000    0.000 
#
# Total GULP energy -347207.175877 kJ/mol
# GULP energy per Si atom -12400.256281 kJ/mol
# Density = 1.914596 g / cm^3
# Si number density = 19.189640 Si / 1000 Ang^3
#
#
#
# Elastic Constant Matrix: (Units=GPa)
#
#
# Indices 1 2 3 4 5 6 
#
# 1 64.4636 32.6610 42.6937 0.0000 -13.3583 0.0000
# 2 32.6610 105.2678 46.5390 0.0000 -17.0127 0.0000
# 3 42.6937 46.5390 95.0584 0.0000 -9.1349 0.0000
# 4 0.0000 0.0000 0.0000 35.3047 0.0000 -15.6674
# 5 -13.3583 -17.0127 -9.1349 0.0000 22.4903 0.0000
# 6 0.0000 0.0000 0.0000 -15.6674 0.0000 27.3292
#
#
#
# Elastic Compliance Matrix: (Units=1/GPa)
#
#
# Indices 1 2 3 4 5 6 
#
# 1 0.024520 -0.002083 -0.009100 0.000000 0.009292 0.000000
# 2 -0.002083 0.013474 -0.004995 0.000000 0.006926 0.000000
# 3 -0.009100 -0.004995 0.016827 0.000000 -0.002349 0.000000
# 4 0.000000 0.000000 0.000000 0.037990 0.000000 0.021779
# 5 0.009292 0.006926 -0.002349 0.000000 0.054268 0.000000
# 6 0.000000 0.000000 0.000000 0.021779 0.000000 0.049077
#
#
# Mechanical properties :
#
#
# Convention : Reuss Voigt Hill
#
# Bulk Modulus (GPa) = 44.51556 56.50859 50.51207
# Shear Modulus (GPa) = 21.18643 26.55125 23.86884
#
# Velocity S-wave (km/s) = 3.32634 3.72375 3.53064
# Velocity P-wave (km/s) = 6.16448 6.92818 6.55746
#
# Compressibility (1/GPa) = 0.02246406
#
# Stress axis : x y z
#
# Youngs Moduli (GPa) = 40.78225 74.21908 59.42854
#
# Poissons Ratio (x) = 0.15459 0.54081
# Poissons Ratio (y) = 0.08495 0.29687
# Poissons Ratio (z) = 0.37113 0.37075
#
# Static dielectric constant tensor:
#      x y z
#    x 3.435630 0.000000 -0.333270 
#    y 0.000000 3.721270 0.000000 
#    z -0.333270 0.000000 3.266840 
# 
# 
# High freq. dielectric constant tensor:
#      x y z
#    x 1.735640 0.000000 -0.033360 
#    y 0.000000 1.760840 0.000000 
#    z -0.033360 0.000000 1.721820 
# 
# From -- ./inp_files/66974.got.cif
#   From: 2010.03.12/outbox.cif.g09.slc.cpg/sg14_34_cif.got.tgz:66974.got - 2010.03.31 13:35:05.
