data_PCOD8124998
_publ_section_title
;
Structure prediction by ZEFSAII (Michael W. Deem and Ramdas Pophale) SiO2 
 PCOD8124998
Probable space group: P 21/C
;
_chemical_formula_sum "Si O2"
_cell_formula_units_Z 32
_cell_length_a 6.558003
_cell_length_b 25.998652
_cell_length_c 13.720815
_cell_angle_alpha 90.000000
_cell_angle_beta 136.490000
_cell_angle_gamma 90.000000
_cell_volume 1610.624924
_symmetry_space_group_name_H-M "P 21/C"
_symmetry_group_IT_number 14
_symmetry_cell_setting 'monoclinic'
loop_
_space_group_symop_operation_xyz
x,y,z
-x,1/2+y,1/2-z
-x,-y,-z
x,1/2-y,1/2+z
loop_
_atom_site_type_symbol
_atom_site_label
_atom_site_fract_x
_atom_site_fract_y
_atom_site_fract_z
Si Si1 0.858209 0.887120 0.312225
Si Si2 0.086192 0.365352 0.528152
Si Si3 0.016232 0.894562 0.575536
Si Si4 0.644367 0.051209 0.951546
Si Si5 0.454893 0.943029 0.865685
Si Si6 0.535165 0.341975 0.036862
Si Si7 0.579878 0.196673 0.761982
Si Si8 0.487733 0.689001 0.186599
O O1 0.680958 0.925356 0.180817
O O2 0.672365 0.835478 0.270207
O O3 0.919472 0.916051 0.436272
O O4 0.160431 0.873734 0.361606
O O5 0.356093 0.390292 0.561361
O O6 0.211215 0.335734 0.666191
O O7 0.891018 0.414060 0.489005
O O8 0.904704 0.325608 0.399323
O O9 0.209761 0.937703 0.696248
O O10 0.201409 0.842516 0.621045
O O11 0.731848 0.882437 0.543636
O O12 0.653396 0.993413 0.910561
O O13 0.708667 0.048727 0.088711
O O14 0.486358 0.309287 0.921614
O O15 0.538905 0.304037 0.131073
O O16 0.554677 0.254262 0.788789
#
# Coordination Sequence:
#
# PCOD8124998 Si02
#       8
#     4   4   4   4   4   4   4   4
#     4   9  20  37  55  80 112 146 186 229 271 332
#     4  10  21  38  58  80 116 144 183 234 278 324
#     4   9  20  37  55  80 112 146 186 229 271 332
#     4  10  20  36  58  84 110 143 186 229 280 333
#     4  10  20  36  58  84 110 143 186 229 280 333
#     4  10  20  38  57  74 118 150 181 232 280 314
#     4  10  22  37  56  83 111 147 193 227 273 335
#     4  10  22  37  56  83 111 147 193 227 273 335
#
# _framework density 19.868062999999999
#
# number of rings (size 3 to 8) (size 9 to 14) (size 15 to 20)
#    0.000    2.250    0.000    1.875    5.250    1.500 
#    9.000    0.625    0.000    0.000    0.000    0.000 
#    0.000    0.000    0.000    0.000    0.000    0.000 
#
# Total GULP energy -396810.622327 kJ/mol
# GULP energy per Si atom -12400.331948 kJ/mol
# Density = 1.982284 g / cm^3
# Si number density = 19.868063 Si / 1000 Ang^3
#
#
#
# Elastic Constant Matrix: (Units=GPa)
#
#
# Indices 1 2 3 4 5 6 
#
# 1 72.5118 13.4073 16.4008 0.0000 0.0648 0.0000
# 2 13.4073 80.4895 33.3445 0.0000 -9.7722 0.0000
# 3 16.4008 33.3445 95.6197 0.0000 -5.3059 0.0000
# 4 0.0000 0.0000 0.0000 22.1814 0.0000 -3.8278
# 5 0.0648 -9.7722 -5.3059 0.0000 32.7538 0.0000
# 6 0.0000 0.0000 0.0000 -3.8278 0.0000 14.0246
#
#
#
# Elastic Compliance Matrix: (Units=1/GPa)
#
#
# Indices 1 2 3 4 5 6 
#
# 1 0.014550 -0.001723 -0.001942 0.000000 -0.000857 0.000000
# 2 -0.001723 0.015145 -0.004778 0.000000 0.003748 0.000000
# 3 -0.001942 -0.004778 0.012491 0.000000 0.000602 0.000000
# 4 0.000000 0.000000 0.000000 0.047311 0.000000 0.012913
# 5 -0.000857 0.003748 0.000602 0.000000 0.031748 0.000000
# 6 0.000000 0.000000 0.000000 0.012913 0.000000 0.074828
#
#
# Mechanical properties :
#
#
# Convention : Reuss Voigt Hill
#
# Bulk Modulus (GPa) = 39.52699 41.65845 40.59272
# Shear Modulus (GPa) = 22.58432 26.15651 24.37042
#
# Velocity S-wave (km/s) = 3.37518 3.63231 3.50610
# Velocity P-wave (km/s) = 5.92681 6.21326 6.07172
#
# Compressibility (1/GPa) = 0.02529917
#
# Stress axis : x y z
#
# Youngs Moduli (GPa) = 68.73081 66.02656 80.05881
#
# Poissons Ratio (x) = 0.11376 0.15550
# Poissons Ratio (y) = 0.11842 0.38252
# Poissons Ratio (z) = 0.13350 0.31547
#
# Static dielectric constant tensor:
#      x y z
#    x 3.501140 0.000000 0.104570 
#    y 0.000000 3.408910 0.000000 
#    z 0.104570 0.000000 3.966310 
# 
# 
# High freq. dielectric constant tensor:
#      x y z
#    x 1.769040 0.000000 0.003920 
#    y 0.000000 1.758780 0.000000 
#    z 0.003920 0.000000 1.794720 
# 
# From -- ./inp_files/22376.got.cif
#   From: 2010.03.12/outbox.cif.g09.slc.cpg/sg14_12_cif.got.tgz:22376.got - 2010.03.31 13:35:05.
