data_PCOD8124036
_publ_section_title
;
Structure prediction by ZEFSAII (Michael W. Deem and Ramdas Pophale) SiO2 
 PCOD8124036
Probable space group: P 21/C
;
_chemical_formula_sum "Si O2"
_cell_formula_units_Z 32
_cell_length_a 12.230182
_cell_length_b 10.886126
_cell_length_c 11.927461
_cell_angle_alpha 90.000000
_cell_angle_beta 79.736768
_cell_angle_gamma 90.000000
_cell_volume 1562.604942
_symmetry_space_group_name_H-M "P 21/C"
_symmetry_group_IT_number 14
_symmetry_cell_setting 'monoclinic'
loop_
_space_group_symop_operation_xyz
x,y,z
-x,1/2+y,1/2-z
-x,-y,-z
x,1/2-y,1/2+z
loop_
_atom_site_type_symbol
_atom_site_label
_atom_site_fract_x
_atom_site_fract_y
_atom_site_fract_z
Si Si1 0.907582 0.856479 0.245204
Si Si2 0.384512 0.599116 0.431331
Si Si3 0.705412 0.667068 0.947634
Si Si4 0.926791 0.580265 0.280034
Si Si5 0.800665 0.592853 0.529775
Si Si6 0.547818 0.744896 0.801323
Si Si7 0.437986 0.591530 0.656525
Si Si8 0.288719 0.057499 0.319715
O O1 0.803018 0.868500 0.345466
O O2 0.967892 0.723720 0.259360
O O3 0.870662 0.858824 0.122134
O O4 0.980522 0.976912 0.258631
O O5 0.274377 0.524061 0.417524
O O6 0.418512 0.711433 0.343961
O O7 0.373143 0.648062 0.561492
O O8 0.503048 0.530443 0.398953
O O9 0.588820 0.664366 0.900787
O O10 0.720451 0.801115 0.999361
O O11 0.702559 0.567622 0.047840
O O12 0.882044 0.554524 0.413728
O O13 0.837254 0.558824 0.198857
O O14 0.538605 0.671768 0.686864
O O15 0.648692 0.836745 0.760353
O O16 0.348728 0.568041 0.771724
#
# Coordination Sequence:
#
# PCOD8124036 Si02
#       8
#     4   4   4   4   4   4   4   4
#     4  11  24  41  67  93 123 163 215 264 316 378
#     4  10  19  33  61  87 116 162 204 250 300 376
#     4  11  20  36  63  87 120 166 204 251 316 377
#     4  11  23  43  65  94 120 164 210 268 318 371
#     4  11  19  41  64  90 120 161 215 255 310 381
#     4  11  20  35  58  91 121 163 205 250 305 376
#     4  10  20  34  56  88 120 155 206 248 302 372
#     4  11  20  38  60  83 123 164 197 257 310 372
#
# _framework density 20.478625000000001
#
# number of rings (size 3 to 8) (size 9 to 14) (size 15 to 20)
#    0.000    1.250    5.000    4.125    0.000    1.000 
#    2.250    2.500    0.000    0.000    0.000    0.000 
#    0.000    0.000    0.000    0.000    0.000    0.000 
#
# Total GULP energy -396437.129601 kJ/mol
# GULP energy per Si atom -12388.660300 kJ/mol
# Density = 2.043201 g / cm^3
# Si number density = 20.478625 Si / 1000 Ang^3
#
#
#
# Elastic Constant Matrix: (Units=GPa)
#
#
# Indices 1 2 3 4 5 6 
#
# 1 68.6250 48.7422 26.4813 0.0000 2.2911 0.0000
# 2 48.7422 71.2492 28.5376 0.0000 -2.7312 0.0000
# 3 26.4813 28.5376 86.8042 0.0000 2.8880 0.0000
# 4 0.0000 0.0000 0.0000 21.4590 0.0000 5.1469
# 5 2.2911 -2.7312 2.8880 0.0000 31.3823 0.0000
# 6 0.0000 0.0000 0.0000 5.1469 0.0000 25.0912
#
#
#
# Elastic Compliance Matrix: (Units=1/GPa)
#
#
# Indices 1 2 3 4 5 6 
#
# 1 0.029261 -0.019148 -0.002513 0.000000 -0.003571 0.000000
# 2 -0.019148 0.028808 -0.003771 0.000000 0.004252 0.000000
# 3 -0.002513 -0.003771 0.013573 0.000000 -0.001394 0.000000
# 4 0.000000 0.000000 0.000000 0.049012 0.000000 -0.010054
# 5 -0.003571 0.004252 -0.001394 0.000000 0.032624 0.000000
# 6 0.000000 0.000000 0.000000 -0.010054 0.000000 0.041917
#
#
# Mechanical properties :
#
#
# Convention : Reuss Voigt Hill
#
# Bulk Modulus (GPa) = 48.12683 48.24451 48.18567
# Shear Modulus (GPa) = 19.76404 23.78100 21.77252
#
# Velocity S-wave (km/s) = 3.10999 3.41142 3.26419
# Velocity P-wave (km/s) = 6.03722 6.25513 6.14714
#
# Compressibility (1/GPa) = 0.02077843
#
# Stress axis : x y z
#
# Youngs Moduli (GPa) = 34.17491 34.71247 73.67686
#
# Poissons Ratio (x) = 0.66469 0.18513
# Poissons Ratio (y) = 0.65439 0.27782
# Poissons Ratio (z) = 0.08587 0.13089
#
# Static dielectric constant tensor:
#      x y z
#    x 3.423360 0.000000 -0.085480 
#    y 0.000000 3.723670 0.000000 
#    z -0.085480 0.000000 4.074810 
# 
# 
# High freq. dielectric constant tensor:
#      x y z
#    x 1.776360 0.000000 0.002490 
#    y 0.000000 1.775920 0.000000 
#    z 0.002490 0.000000 1.820200 
# 
# From -- ./inp_files/29073.got.cif
#   From: 2010.03.12/outbox.cif.g09.slc.cpg/sg14_15_cif.got.tgz:29073.got - 2010.03.31 13:35:05.
