data_PCOD8124249
_publ_section_title
;
Structure prediction by ZEFSAII (Michael W. Deem and Ramdas Pophale) SiO2 
 PCOD8124249
Probable space group: P 21/C
;
_chemical_formula_sum "Si O2"
_cell_formula_units_Z 24
_cell_length_a 9.106361
_cell_length_b 17.184096
_cell_length_c 13.522922
_cell_angle_alpha 90.000000
_cell_angle_beta 147.641495
_cell_angle_gamma 90.000000
_cell_volume 1132.584234
_symmetry_space_group_name_H-M "P 21/C"
_symmetry_group_IT_number 14
_symmetry_cell_setting 'monoclinic'
loop_
_space_group_symop_operation_xyz
x,y,z
-x,1/2+y,1/2-z
-x,-y,-z
x,1/2-y,1/2+z
loop_
_atom_site_type_symbol
_atom_site_label
_atom_site_fract_x
_atom_site_fract_y
_atom_site_fract_z
Si Si1 0.914630 0.674670 0.322778
Si Si2 0.941619 0.494107 0.634762
Si Si3 0.590990 0.553373 0.779038
Si Si4 0.923263 0.066101 0.585966
Si Si5 0.810242 0.357043 0.327191
Si Si6 0.687107 0.284608 0.054025
O O1 0.875517 0.583926 0.272553
O O2 0.980207 0.682982 0.476734
O O3 0.166962 0.706266 0.399734
O O4 0.640673 0.723231 0.143088
O O5 0.633250 0.478801 0.424805
O O6 0.935087 0.519090 0.744743
O O7 0.074440 0.560392 0.642916
O O8 0.473604 0.624656 0.777163
O O9 0.849825 0.586312 0.866634
O O10 0.678212 0.483688 0.900459
O O11 0.792519 0.145821 0.546574
O O12 0.759953 0.297166 0.210248
#
# Coordination Sequence:
#
# PCOD8124249 Si02
#       6
#     4   4   4   4   4   4
#     4  11  24  41  65  91 125 165 204 256 306 374
#     4  10  20  39  65  88 118 160 213 254 303 358
#     4  10  19  35  63  93 118 156 205 253 303 354
#     4  10  21  37  61  92 123 156 204 259 299 362
#     4  10  22  42  67  87 123 165 212 253 306 367
#     4  11  25  42  61  91 127 164 203 250 316 368
#
# _framework density 21.190474999999999
#
# number of rings (size 3 to 8) (size 9 to 14) (size 15 to 20)
#    0.000    1.667    0.000    5.500    4.667    4.000 
#    6.000    0.000    0.000    0.000    0.000    0.000 
#    0.000    0.000    0.000    0.000    0.000    0.000 
#
# Total GULP energy -297716.440862 kJ/mol
# GULP energy per Si atom -12404.851703 kJ/mol
# Density = 2.114224 g / cm^3
# Si number density = 21.190475 Si / 1000 Ang^3
#
#
#
# Elastic Constant Matrix: (Units=GPa)
#
#
# Indices 1 2 3 4 5 6 
#
# 1 98.0006 34.9381 26.8300 0.0000 -8.7163 0.0000
# 2 34.9381 54.3970 32.1487 0.0000 -6.6950 0.0000
# 3 26.8300 32.1487 85.4374 0.0000 4.7888 0.0000
# 4 0.0000 0.0000 0.0000 16.1478 0.0000 -4.2804
# 5 -8.7163 -6.6950 4.7888 0.0000 27.0350 0.0000
# 6 0.0000 0.0000 0.0000 -4.2804 0.0000 23.0499
#
#
#
# Elastic Compliance Matrix: (Units=1/GPa)
#
#
# Indices 1 2 3 4 5 6 
#
# 1 0.013533 -0.007380 -0.001631 0.000000 0.002824 0.000000
# 2 -0.007380 0.029276 -0.009061 0.000000 0.006476 0.000000
# 3 -0.001631 -0.009061 0.015940 0.000000 -0.005593 0.000000
# 4 0.000000 0.000000 0.000000 0.065134 0.000000 0.012096
# 5 0.002824 0.006476 -0.005593 0.000000 0.040494 0.000000
# 6 0.000000 0.000000 0.000000 0.012096 0.000000 0.045630
#
#
# Mechanical properties :
#
#
# Convention : Reuss Voigt Hill
#
# Bulk Modulus (GPa) = 44.24143 47.29650 45.76897
# Shear Modulus (GPa) = 19.70933 22.84108 21.27521
#
# Velocity S-wave (km/s) = 3.05307 3.28669 3.17203
# Velocity P-wave (km/s) = 5.77508 6.06393 5.92127
#
# Compressibility (1/GPa) = 0.02260325
#
# Stress axis : x y z
#
# Youngs Moduli (GPa) = 73.89393 34.15780 62.73622
#
# Poissons Ratio (x) = 0.25210 0.10232
# Poissons Ratio (y) = 0.54537 0.56847
# Poissons Ratio (z) = 0.12051 0.30951
#
# Static dielectric constant tensor:
#      x y z
#    x 3.962770 0.000000 -0.133080 
#    y 0.000000 3.610490 0.000000 
#    z -0.133080 0.000000 3.911350 
# 
# 
# High freq. dielectric constant tensor:
#      x y z
#    x 1.842800 0.000000 -0.005700 
#    y 0.000000 1.815080 0.000000 
#    z -0.005700 0.000000 1.839290 
# 
# From -- ./inp_files/41862.got.cif
#   From: 2010.03.12/outbox.cif.g09.slc.cpg/sg14_21_cif.got.tgz:41862.got - 2010.03.31 13:35:05.
