data_PCOD8124926
_publ_section_title
;
Structure prediction by ZEFSAII (Michael W. Deem and Ramdas Pophale) SiO2 
 PCOD8124926
Probable space group: P 21/C
;
_chemical_formula_sum "Si O2"
_cell_formula_units_Z 28
_cell_length_a 8.647543
_cell_length_b 7.785421
_cell_length_c 28.307182
_cell_angle_alpha 90.000000
_cell_angle_beta 33.003886
_cell_angle_gamma 90.000000
_cell_volume 1038.067485
_symmetry_space_group_name_H-M "P 21/C"
_symmetry_group_IT_number 14
_symmetry_cell_setting 'monoclinic'
loop_
_space_group_symop_operation_xyz
x,y,z
-x,1/2+y,1/2-z
-x,-y,-z
x,1/2-y,1/2+z
loop_
_atom_site_type_symbol
_atom_site_label
_atom_site_fract_x
_atom_site_fract_y
_atom_site_fract_z
Si Si1 0.350015 0.077185 0.327911
Si Si2 0.557343 0.605006 0.629239
Si Si3 0.117469 0.745220 0.103589
Si Si4 0.315162 0.186286 0.494400
Si Si5 0.859808 0.427826 0.625925
Si Si6 0.547685 0.556851 0.866481
Si Si7 0.918865 0.646941 0.253893
O O1 0.412150 0.253177 0.338504
O O2 0.030900 0.089719 0.388165
O O3 0.573641 0.056291 0.229096
O O4 0.378411 0.924979 0.360010
O O5 0.642510 0.661687 0.555049
O O6 0.768499 0.453918 0.594299
O O7 0.232745 0.537391 0.711696
O O8 0.960685 0.749821 0.194424
O O9 0.447622 0.696186 0.025283
O O10 0.083670 0.928737 0.087176
O O11 0.332768 0.999598 0.463651
O O12 0.006556 0.238479 0.594841
O O13 0.712466 0.730818 0.838432
O O14 0.770660 0.394205 0.803820
#
# Coordination Sequence:
#
# PCOD8124926 Si02
#       7
#     4   4   4   4   4   4   4
#     4  10  20  36  60  92 115 156 211 251 298 352
#     4  10  22  37  62  89 121 165 206 249 296 375
#     4  10  20  35  61  91 116 158 203 252 297 361
#     4  10  22  39  60  90 129 159 199 247 317 363
#     4  11  20  37  63  92 124 159 201 260 305 358
#     4  10  21  36  62  86 120 157 203 250 301 367
#     4  11  19  38  61  90 111 158 213 247 296 361
#
# _framework density 26.973196999999999
#
# number of rings (size 3 to 8) (size 9 to 14) (size 15 to 20)
#    0.000    1.714    2.857    3.429    0.000    0.000 
#    0.000    0.714    3.143    2.571    0.000    0.000 
#    0.000    0.000    0.000    0.000    0.000    0.000 
#
# Total GULP energy -347105.354882 kJ/mol
# GULP energy per Si atom -12396.619817 kJ/mol
# Density = 2.691180 g / cm^3
# Si number density = 26.973197 Si / 1000 Ang^3
#
#
#
# Elastic Constant Matrix: (Units=GPa)
#
#
# Indices 1 2 3 4 5 6 
#
# 1 149.1567 -19.5680 14.7371 0.0000 -7.6159 0.0000
# 2 -19.5680 23.0438 -19.4199 0.0000 7.3406 0.0000
# 3 14.7371 -19.4199 50.7541 0.0000 -2.8899 0.0000
# 4 0.0000 0.0000 0.0000 33.2001 0.0000 -1.9418
# 5 -7.6159 7.3406 -2.8899 0.0000 28.6237 0.0000
# 6 0.0000 0.0000 0.0000 -1.9418 0.0000 25.5384
#
#
#
# Elastic Compliance Matrix: (Units=1/GPa)
#
#
# Indices 1 2 3 4 5 6 
#
# 1 0.007553 0.006598 0.000351 0.000000 0.000353 0.000000
# 2 0.006598 0.075952 0.026288 0.000000 -0.015068 0.000000
# 3 0.000351 0.026288 0.029450 0.000000 -0.003675 0.000000
# 4 0.000000 0.000000 0.000000 0.030255 0.000000 0.002300
# 5 0.000353 -0.015068 -0.003675 0.000000 0.038523 0.000000
# 6 0.000000 0.000000 0.000000 0.002300 0.000000 0.039332
#
#
# Mechanical properties :
#
#
# Convention : Reuss Voigt Hill
#
# Bulk Modulus (GPa) = 5.57328 19.38366 12.47847
# Shear Modulus (GPa) = 23.32077 33.95280 28.63679
#
# Velocity S-wave (km/s) = 2.94358 3.55175 3.26187
# Velocity P-wave (km/s) = 3.69102 4.90120 4.33851
#
# Compressibility (1/GPa) = 0.17942755
#
# Stress axis : x y z
#
# Youngs Moduli (GPa) = 132.39395 13.16627 33.95595
#
# Poissons Ratio (x) = -0.08686 -0.01193
# Poissons Ratio (y) = -0.87347 -0.89262
# Poissons Ratio (z) = -0.04651 -0.34611
#
# Static dielectric constant tensor:
#      x y z
#    x 5.380270 0.000000 -0.158450 
#    y 0.000000 4.837490 0.000000 
#    z -0.158450 0.000000 4.496980 
# 
# 
# High freq. dielectric constant tensor:
#      x y z
#    x 2.101430 0.000000 -0.015420 
#    y 0.000000 2.087990 0.000000 
#    z -0.015420 0.000000 2.062870 
# 
# From -- ./inp_files/76305.got.cif
#   From: 2010.03.12/outbox.cif.g09.slc.cpg/sg14_39_cif.got.tgz:76305.got - 2010.03.31 13:35:05.
