data_PCOD8124889
_publ_section_title
;
Structure prediction by ZEFSAII (Michael W. Deem and Ramdas Pophale) SiO2 
 PCOD8124889
Probable space group: P 21/C
;
_chemical_formula_sum "Si O2"
_cell_formula_units_Z 28
_cell_length_a 15.181634
_cell_length_b 17.451130
_cell_length_c 12.095098
_cell_angle_alpha 90.000000
_cell_angle_beta 26.483870
_cell_angle_gamma 90.000000
_cell_volume 1429.004483
_symmetry_space_group_name_H-M "P 21/C"
_symmetry_group_IT_number 14
_symmetry_cell_setting 'monoclinic'
loop_
_space_group_symop_operation_xyz
x,y,z
-x,1/2+y,1/2-z
-x,-y,-z
x,1/2-y,1/2+z
loop_
_atom_site_type_symbol
_atom_site_label
_atom_site_fract_x
_atom_site_fract_y
_atom_site_fract_z
Si Si1 0.951776 0.290234 0.647327
Si Si2 0.583535 0.351749 0.197675
Si Si3 0.299951 0.234813 0.409586
Si Si4 0.627392 0.276046 0.372676
Si Si5 0.626179 0.491734 0.019285
Si Si6 0.919047 0.883074 0.195714
Si Si7 0.644051 0.390714 0.781503
O O1 0.849020 0.230853 0.675366
O O2 0.111310 0.252116 0.546196
O O3 0.058065 0.357242 0.457955
O O4 0.776382 0.323506 0.917172
O O5 0.385283 0.309161 0.377749
O O6 0.620514 0.340424 0.286103
O O7 0.563424 0.442946 0.197756
O O8 0.234384 0.172592 0.571927
O O9 0.472236 0.198928 0.140613
O O10 0.559160 0.194797 0.394895
O O11 0.841626 0.529721 0.787846
O O12 0.626650 0.433484 0.917230
O O13 0.476259 0.562855 0.174707
O O14 0.132622 0.883508 0.014014
#
# Coordination Sequence:
#
# PCOD8124889 Si02
#       7
#     4   4   4   4   4   4   4
#     4  10  20  35  58  84 113 148 192 241 286 331
#     4  11  22  36  58  86 116 149 192 237 285 338
#     4  11  21  36  58  83 114 153 193 235 282 336
#     4  10  21  40  56  84 114 153 195 230 280 342
#     4  11  21  35  58  86 118 147 182 238 295 338
#     4  11  22  35  57  87 115 149 187 238 288 340
#     4  10  20  37  57  85 116 146 187 238 290 334
#
# _framework density 19.594059999999999
#
# number of rings (size 3 to 8) (size 9 to 14) (size 15 to 20)
#    0.000    1.429    4.286    4.714    2.000    1.143 
#    0.000    0.714    0.000    1.714    0.000    0.000 
#    0.000    0.000    0.000    0.000    0.000    0.000 
#
# Total GULP energy -347142.304292 kJ/mol
# GULP energy per Si atom -12397.939439 kJ/mol
# Density = 1.954946 g / cm^3
# Si number density = 19.594060 Si / 1000 Ang^3
#
#
#
# Elastic Constant Matrix: (Units=GPa)
#
#
# Indices 1 2 3 4 5 6 
#
# 1 56.3653 -10.2365 10.6865 0.0000 -16.1380 0.0000
# 2 -10.2365 33.9000 18.2099 0.0000 -7.5469 0.0000
# 3 10.6865 18.2099 77.4504 0.0000 -4.6036 0.0000
# 4 0.0000 0.0000 0.0000 25.9723 0.0000 -1.4489
# 5 -16.1380 -7.5469 -4.6036 0.0000 24.1765 0.0000
# 6 0.0000 0.0000 0.0000 -1.4489 0.0000 22.1742
#
#
#
# Elastic Compliance Matrix: (Units=1/GPa)
#
#
# Indices 1 2 3 4 5 6 
#
# 1 0.028954 0.017601 -0.006734 0.000000 0.023539 0.000000
# 2 0.017601 0.046580 -0.011953 0.000000 0.024013 0.000000
# 3 -0.006734 -0.011953 0.016347 0.000000 -0.005114 0.000000
# 4 0.000000 0.000000 0.000000 0.038643 0.000000 0.002525
# 5 0.023539 0.024013 -0.005114 0.000000 0.063597 0.000000
# 6 0.000000 0.000000 0.000000 0.002525 0.000000 0.045262
#
#
# Mechanical properties :
#
#
# Convention : Reuss Voigt Hill
#
# Bulk Modulus (GPa) = 11.14723 22.78173 16.96448
# Shear Modulus (GPa) = 18.41895 24.40165 21.41030
#
# Velocity S-wave (km/s) = 3.06931 3.53279 3.30918
# Velocity P-wave (km/s) = 4.27345 5.31911 4.82469
#
# Compressibility (1/GPa) = 0.08970837
#
# Stress axis : x y z
#
# Youngs Moduli (GPa) = 34.53733 21.46854 61.17315
#
# Poissons Ratio (x) = -0.37786 0.41195
# Poissons Ratio (y) = -0.60788 0.73120
# Poissons Ratio (z) = 0.23258 0.25661
#
# Static dielectric constant tensor:
#      x y z
#    x 3.679370 0.000000 -0.175070 
#    y 0.000000 3.586150 0.000000 
#    z -0.175070 0.000000 3.726530 
# 
# 
# High freq. dielectric constant tensor:
#      x y z
#    x 1.758820 0.000000 -0.015220 
#    y 0.000000 1.741120 0.000000 
#    z -0.015220 0.000000 1.766270 
# 
# From -- ./inp_files/32907.got.cif
#   From: 2010.03.12/outbox.cif.g09.slc.cpg/sg14_17_cif.got.tgz:32907.got - 2010.03.31 13:35:05.
