data_PCOD8124182
_publ_section_title
;
Structure prediction by ZEFSAII (Michael W. Deem and Ramdas Pophale) SiO2 
 PCOD8124182
Probable space group: P 21/C
;
_chemical_formula_sum "Si O2"
_cell_formula_units_Z 24
_cell_length_a 17.489379
_cell_length_b 15.236683
_cell_length_c 8.883091
_cell_angle_alpha 90.000000
_cell_angle_beta 29.564428
_cell_angle_gamma 90.000000
_cell_volume 1167.964899
_symmetry_space_group_name_H-M "P 21/C"
_symmetry_group_IT_number 14
_symmetry_cell_setting 'monoclinic'
loop_
_space_group_symop_operation_xyz
x,y,z
-x,1/2+y,1/2-z
-x,-y,-z
x,1/2-y,1/2+z
loop_
_atom_site_type_symbol
_atom_site_label
_atom_site_fract_x
_atom_site_fract_y
_atom_site_fract_z
Si Si1 0.929603 0.014670 0.956750
Si Si2 0.433876 0.977011 0.449661
Si Si3 0.425238 0.700899 0.084291
Si Si4 0.945517 0.356392 0.940328
Si Si5 0.577968 0.361942 0.591828
Si Si6 0.060266 0.688939 0.722547
O O1 0.997335 0.949168 0.716829
O O2 0.979988 0.112474 0.825863
O O3 0.746010 0.002290 0.265550
O O4 0.000000 0.000000 0.000000
O O5 0.500000 0.000000 0.500000
O O6 0.463149 0.871711 0.387949
O O7 0.521761 0.036428 0.172997
O O8 0.486860 0.796689 0.926925
O O9 0.495163 0.674742 0.126270
O O10 0.242712 0.701916 0.423849
O O11 0.008098 0.280627 0.721387
O O12 0.761404 0.359856 0.269091
O O13 0.013519 0.335539 0.989512
#
# Coordination Sequence:
#
# PCOD8124182 Si02
#       6
#     4   4   4   4   4   4
#     4  11  22  37  56  83 116 147 182 230 279 329
#     4   9  19  37  56  77 109 147 180 222 276 327
#     4   8  16  31  53  76 103 139 178 215 265 327
#     4  10  19  35  58  82 108 146 191 228 270 331
#     4   9  17  33  55  77 101 139 183 220 261 320
#     4   9  18  33  55  79 108 148 186 223 275 336
#
# _framework density 20.548563999999999
#
# number of rings (size 3 to 8) (size 9 to 14) (size 15 to 20)
#    0.000    2.667    0.000    2.500    0.000    4.000 
#    0.000   11.667    0.000    0.000    0.000    0.000 
#    0.000    0.000    0.000    0.000    0.000    0.000 
#
# Total GULP energy -297334.815226 kJ/mol
# GULP energy per Si atom -12388.950634 kJ/mol
# Density = 2.050179 g / cm^3
# Si number density = 20.548564 Si / 1000 Ang^3
#
#
#
# Elastic Constant Matrix: (Units=GPa)
#
#
# Indices 1 2 3 4 5 6 
#
# 1 76.4169 -8.6574 23.4414 0.0000 -0.3912 0.0000
# 2 -8.6574 66.1670 28.1956 0.0000 3.7694 0.0000
# 3 23.4414 28.1956 43.5565 0.0000 12.8067 0.0000
# 4 0.0000 0.0000 0.0000 38.7604 0.0000 10.6086
# 5 -0.3912 3.7694 12.8067 0.0000 24.3822 0.0000
# 6 0.0000 0.0000 0.0000 10.6086 0.0000 31.5548
#
#
#
# Elastic Compliance Matrix: (Units=1/GPa)
#
#
# Indices 1 2 3 4 5 6 
#
# 1 0.021076 0.011422 -0.021662 0.000000 0.009950 0.000000
# 2 0.011422 0.027501 -0.026909 0.000000 0.010065 0.000000
# 3 -0.021662 -0.026909 0.060214 0.000000 -0.027815 0.000000
# 4 0.000000 0.000000 0.000000 0.028414 0.000000 -0.009553
# 5 0.009950 0.010065 -0.027815 0.000000 0.054227 0.000000
# 6 0.000000 0.000000 0.000000 -0.009553 0.000000 0.034902
#
#
# Mechanical properties :
#
#
# Convention : Reuss Voigt Hill
#
# Bulk Modulus (GPa) = 28.99164 30.23329 29.61247
# Shear Modulus (GPa) = 16.01895 28.48354 22.25124
#
# Velocity S-wave (km/s) = 2.79510 3.72715 3.29426
# Velocity P-wave (km/s) = 4.95543 5.76778 5.37696
#
# Compressibility (1/GPa) = 0.03449270
#
# Stress axis : x y z
#
# Youngs Moduli (GPa) = 47.44728 36.36256 16.60739
#
# Poissons Ratio (x) = -0.41532 0.35975
# Poissons Ratio (y) = -0.54192 0.44688
# Poissons Ratio (z) = 1.02781 0.97847
#
# Static dielectric constant tensor:
#      x y z
#    x 3.709030 0.000000 0.231710 
#    y 0.000000 4.226850 0.000000 
#    z 0.231710 0.000000 3.451970 
# 
# 
# High freq. dielectric constant tensor:
#      x y z
#    x 1.787100 0.000000 0.015490 
#    y 0.000000 1.823880 0.000000 
#    z 0.015490 0.000000 1.765290 
# 
# From -- ./inp_files/8418.got.cif
#   From: 2010.03.12/outbox.cif.g09.slc.cpg/sg14_5_cif.got.tgz:8418.got - 2010.03.31 13:35:05.
