data_PCOD8124045
_publ_section_title
;
Structure prediction by ZEFSAII (Michael W. Deem and Ramdas Pophale) SiO2 
 PCOD8124045
Probable space group: P 21/C
;
_chemical_formula_sum "Si O2"
_cell_formula_units_Z 28
_cell_length_a 18.479085
_cell_length_b 11.641224
_cell_length_c 18.903294
_cell_angle_alpha 90.000000
_cell_angle_beta 22.910575
_cell_angle_gamma 90.000000
_cell_volume 1583.048679
_symmetry_space_group_name_H-M "P 21/C"
_symmetry_group_IT_number 14
_symmetry_cell_setting 'monoclinic'
loop_
_space_group_symop_operation_xyz
x,y,z
-x,1/2+y,1/2-z
-x,-y,-z
x,1/2-y,1/2+z
loop_
_atom_site_type_symbol
_atom_site_label
_atom_site_fract_x
_atom_site_fract_y
_atom_site_fract_z
Si Si1 0.821653 0.176615 0.004296
Si Si2 0.923979 0.715284 0.851215
Si Si3 0.259079 0.070825 0.946064
Si Si4 0.098450 0.562461 0.810784
Si Si5 0.456512 0.283848 0.746499
Si Si6 0.452205 0.994636 0.916363
Si Si7 0.176834 0.622718 0.894563
O O1 0.647071 0.223257 0.117597
O O2 0.841172 0.249113 0.058283
O O3 0.006169 0.190701 0.790648
O O4 0.798745 0.042136 0.045760
O O5 0.060710 0.654139 0.783440
O O6 0.922467 0.853327 0.868399
O O7 0.711024 0.669442 0.051467
O O8 0.363256 0.032594 0.922984
O O9 0.398884 0.153443 0.774839
O O10 0.299208 0.505455 0.616065
O O11 0.096834 0.626820 0.887416
O O12 0.943084 0.463555 0.949183
O O13 0.467816 0.365343 0.667439
O O14 0.610139 0.082497 0.798033
#
# Coordination Sequence:
#
# PCOD8124045 Si02
#       7
#     4   4   4   4   4   4   4
#     4  11  20  34  56  77 107 141 175 222 266 309
#     4  10  19  34  53  77 106 139 176 217 264 321
#     4   9  19  33  51  82 101 129 186 219 256 315
#     4  11  22  34  55  83 108 145 178 211 279 319
#     4   9  19  32  54  76 102 136 176 222 260 308
#     4  11  18  36  55  79 107 144 176 221 273 312
#     4  11  22  35  54  82 114 139 177 227 259 320
#
# _framework density 17.687390000000001
#
# number of rings (size 3 to 8) (size 9 to 14) (size 15 to 20)
#    0.857    0.857    5.714    1.286    0.000    0.000 
#    0.000    0.714    0.000    0.857    0.000    0.000 
#    0.000    0.000    0.000    0.000    0.000    0.000 
#
# Total GULP energy -347025.963920 kJ/mol
# GULP energy per Si atom -12393.784426 kJ/mol
# Density = 1.764713 g / cm^3
# Si number density = 17.687390 Si / 1000 Ang^3
#
#
#
# Elastic Constant Matrix: (Units=GPa)
#
#
# Indices 1 2 3 4 5 6 
#
# 1 25.0578 8.3362 -2.8513 0.0000 4.8651 0.0000
# 2 8.3362 107.8877 12.1792 0.0000 1.2590 0.0000
# 3 -2.8513 12.1792 94.4561 0.0000 -3.8178 0.0000
# 4 0.0000 0.0000 0.0000 23.6291 0.0000 -0.3610
# 5 4.8651 1.2590 -3.8178 0.0000 16.0532 0.0000
# 6 0.0000 0.0000 0.0000 -0.3610 0.0000 17.7698
#
#
#
# Elastic Compliance Matrix: (Units=1/GPa)
#
#
# Indices 1 2 3 4 5 6 
#
# 1 0.043626 -0.003363 0.001239 0.000000 -0.012663 0.000000
# 2 -0.003363 0.009682 -0.001352 0.000000 -0.000062 0.000000
# 3 0.001239 -0.001352 0.010893 0.000000 0.002321 0.000000
# 4 0.000000 0.000000 0.000000 0.042334 0.000000 0.000860
# 5 -0.012663 -0.000062 0.002321 0.000000 0.066688 0.000000
# 6 0.000000 0.000000 0.000000 0.000860 0.000000 0.056293
#
#
# Mechanical properties :
#
#
# Convention : Reuss Voigt Hill
#
# Bulk Modulus (GPa) = 17.46805 29.19221 23.33013
# Shear Modulus (GPa) = 19.56559 25.47291 22.51925
#
# Velocity S-wave (km/s) = 3.32955 3.79908 3.57204
# Velocity P-wave (km/s) = 4.96776 5.98200 5.49832
#
# Compressibility (1/GPa) = 0.05724739
#
# Stress axis : x y z
#
# Youngs Moduli (GPa) = 22.92209 103.28298 91.80613
#
# Poissons Ratio (x) = 0.34733 -0.11372
# Poissons Ratio (y) = 0.07709 0.12416
# Poissons Ratio (z) = -0.02839 0.13968
#
# Static dielectric constant tensor:
#      x y z
#    x 2.893860 0.000000 -0.042490 
#    y 0.000000 3.492760 0.000000 
#    z -0.042490 0.000000 3.411110 
# 
# 
# High freq. dielectric constant tensor:
#      x y z
#    x 1.643020 0.000000 -0.008190 
#    y 0.000000 1.682060 0.000000 
#    z -0.008190 0.000000 1.695240 
# 
# From -- ./inp_files/69872.got.cif
#   From: 2010.03.12/outbox.cif.g09.slc.cpg/sg14_35_cif.got.tgz:69872.got - 2010.03.31 13:35:05.
