data_PCOD8124885
_publ_section_title
;
Structure prediction by ZEFSAII (Michael W. Deem and Ramdas Pophale) SiO2 
 PCOD8124885
Probable space group: P 21/C
;
_chemical_formula_sum "Si O2"
_cell_formula_units_Z 28
_cell_length_a 20.283098
_cell_length_b 9.189366
_cell_length_c 15.404023
_cell_angle_alpha 90.000000
_cell_angle_beta 28.998707
_cell_angle_gamma 90.000000
_cell_volume 1391.898428
_symmetry_space_group_name_H-M "P 21/C"
_symmetry_group_IT_number 14
_symmetry_cell_setting 'monoclinic'
loop_
_space_group_symop_operation_xyz
x,y,z
-x,1/2+y,1/2-z
-x,-y,-z
x,1/2-y,1/2+z
loop_
_atom_site_type_symbol
_atom_site_label
_atom_site_fract_x
_atom_site_fract_y
_atom_site_fract_z
Si Si1 0.742560 0.818506 0.252308
Si Si2 0.275930 0.572795 0.111169
Si Si3 0.176486 0.889114 0.232097
Si Si4 0.574975 0.684492 0.779366
Si Si5 0.396522 0.377872 0.448414
Si Si6 0.895496 0.959921 0.516410
Si Si7 0.670763 0.991327 0.637424
O O1 0.667182 0.871889 0.252134
O O2 0.645009 0.748890 0.438036
O O3 0.795673 0.968725 0.234602
O O4 0.857677 0.700887 0.096682
O O5 0.189112 0.718424 0.198694
O O6 0.427155 0.618314 0.965814
O O7 0.279452 0.479903 0.018551
O O8 0.056227 0.951321 0.307467
O O9 0.125915 0.913794 0.388475
O O10 0.319373 0.970961 0.056530
O O11 0.637874 0.646968 0.613051
O O12 0.579744 0.858716 0.777499
O O13 0.560599 0.379259 0.272284
O O14 0.806540 0.010032 0.537289
#
# Coordination Sequence:
#
# PCOD8124885 Si02
#       7
#     4   4   4   4   4   4   4
#     4  10  21  36  60  86 118 152 186 246 293 337
#     4  11  21  36  58  91 116 147 190 246 293 339
#     4  10  21  40  59  81 116 153 194 236 289 349
#     4  10  20  35  57  89 119 146 195 237 285 354
#     4  10  20  37  62  82 117 158 188 236 292 340
#     4   9  22  41  58  80 113 158 197 231 287 354
#     4  10  20  37  59  86 115 150 197 235 283 357
#
# _framework density 20.116410999999999
#
# number of rings (size 3 to 8) (size 9 to 14) (size 15 to 20)
#    0.000    2.000    2.857    0.429    2.000    2.286 
#    7.714    0.000    0.000    0.000    0.000    0.000 
#    0.000    0.000    0.000    0.000    0.000    0.000 
#
# Total GULP energy -346964.632377 kJ/mol
# GULP energy per Si atom -12391.594013 kJ/mol
# Density = 2.007062 g / cm^3
# Si number density = 20.116411 Si / 1000 Ang^3
#
#
#
# Elastic Constant Matrix: (Units=GPa)
#
#
# Indices 1 2 3 4 5 6 
#
# 1 131.9565 20.8905 35.7002 0.0000 -6.5568 0.0000
# 2 20.8905 43.1756 0.3770 0.0000 -0.7621 0.0000
# 3 35.7002 0.3770 44.9609 0.0000 -7.4445 0.0000
# 4 0.0000 0.0000 0.0000 19.5593 0.0000 5.9291
# 5 -6.5568 -0.7621 -7.4445 0.0000 28.7364 0.0000
# 6 0.0000 0.0000 0.0000 5.9291 0.0000 26.9648
#
#
#
# Elastic Compliance Matrix: (Units=1/GPa)
#
#
# Indices 1 2 3 4 5 6 
#
# 1 0.010663 -0.005084 -0.008404 0.000000 0.000121 0.000000
# 2 -0.005084 0.025596 0.003910 0.000000 0.000532 0.000000
# 3 -0.008404 0.003910 0.029862 0.000000 0.005922 0.000000
# 4 0.000000 0.000000 0.000000 0.054778 0.000000 -0.012045
# 5 0.000121 0.000532 0.005922 0.000000 0.036375 0.000000
# 6 0.000000 0.000000 0.000000 -0.012045 0.000000 0.039734
#
#
# Mechanical properties :
#
#
# Convention : Reuss Voigt Hill
#
# Bulk Modulus (GPa) = 21.29195 37.11425 29.20310
# Shear Modulus (GPa) = 21.56866 25.92713 23.74790
#
# Velocity S-wave (km/s) = 3.27799 3.59396 3.43960
# Velocity P-wave (km/s) = 4.99342 5.97594 5.50664
#
# Compressibility (1/GPa) = 0.04696611
#
# Stress axis : x y z
#
# Youngs Moduli (GPa) = 93.78507 39.06837 33.48715
#
# Poissons Ratio (x) = 0.19861 0.28142
# Poissons Ratio (y) = 0.47677 -0.13093
# Poissons Ratio (z) = 0.78815 -0.15275
#
# Static dielectric constant tensor:
#      x y z
#    x 3.749050 0.000000 0.016240 
#    y 0.000000 3.526310 0.000000 
#    z 0.016240 0.000000 3.498810 
# 
# 
# High freq. dielectric constant tensor:
#      x y z
#    x 1.787800 0.000000 0.002060 
#    y 0.000000 1.778150 0.000000 
#    z 0.002060 0.000000 1.767230 
# 
# From -- ./inp_files/50030.got.cif
#   From: 2010.03.12/outbox.cif.g09.slc.cpg/sg14_26_cif.got.tgz:50030.got - 2010.03.31 13:35:05.
