data_PCOD8124382
_publ_section_title
;
Structure prediction by ZEFSAII (Michael W. Deem and Ramdas Pophale) SiO2 
 PCOD8124382
Probable space group: P 21/C
;
_chemical_formula_sum "Si O2"
_cell_formula_units_Z 32
_cell_length_a 14.347481
_cell_length_b 23.162421
_cell_length_c 5.236582
_cell_angle_alpha 90.000000
_cell_angle_beta 79.160852
_cell_angle_gamma 90.000000
_cell_volume 1709.185952
_symmetry_space_group_name_H-M "P 21/C"
_symmetry_group_IT_number 14
_symmetry_cell_setting 'monoclinic'
loop_
_space_group_symop_operation_xyz
x,y,z
-x,1/2+y,1/2-z
-x,-y,-z
x,1/2-y,1/2+z
loop_
_atom_site_type_symbol
_atom_site_label
_atom_site_fract_x
_atom_site_fract_y
_atom_site_fract_z
Si Si1 0.166222 0.714511 0.654202
Si Si2 0.349686 0.356233 0.568885
Si Si3 0.136371 0.182918 0.201332
Si Si4 0.315750 0.617509 0.593667
Si Si5 0.593034 0.923253 0.458739
Si Si6 0.055159 0.309952 0.242926
Si Si7 0.468890 0.714469 0.545323
Si Si8 0.375314 0.941799 0.563038
O O1 0.197319 0.752274 0.881978
O O2 0.218847 0.653517 0.636813
O O3 0.055061 0.703373 0.718246
O O4 0.247095 0.327990 0.629903
O O5 0.366032 0.395357 0.807135
O O6 0.421168 0.302407 0.527786
O O7 0.359731 0.394391 0.311105
O O8 0.115322 0.250990 0.229013
O O9 0.090509 0.153895 0.478746
O O10 0.081590 0.154976 0.986224
O O11 0.407095 0.657907 0.539810
O O12 0.319370 0.576221 0.346225
O O13 0.316571 0.579155 0.848013
O O14 0.480047 0.913866 0.505283
O O15 0.619520 0.989802 0.447198
O O16 0.444058 0.741012 0.833147
#
# Coordination Sequence:
#
# PCOD8124382 Si02
#       8
#     4   4   4   4   4   4   4   4
#     4  12  21  38  60  86 123 157 196 239 287 352
#     4  12  23  37  59  88 117 162 200 232 302 356
#     4  10  20  33  55  79 117 146 191 239 276 336
#     4  12  23  39  57  88 117 160 200 237 299 356
#     4  11  22  41  62  84 116 155 205 258 294 338
#     4  10  19  37  53  83 114 151 195 239 271 337
#     4  12  24  36  49  80 127 162 186 218 277 359
#     4  11  22  41  62  84 116 155 203 262 292 338
#
# _framework density 18.722362
#
# number of rings (size 3 to 8) (size 9 to 14) (size 15 to 20)
#    0.000    0.750    5.000    4.500    3.500    2.000 
#    0.000    0.000    0.000    0.000    0.000   17.500 
#    0.000    0.000    0.000    0.000    0.000    0.000 
#
# Total GULP energy -396853.184144 kJ/mol
# GULP energy per Si atom -12401.662004 kJ/mol
# Density = 1.867975 g / cm^3
# Si number density = 18.722362 Si / 1000 Ang^3
#
#
#
# Elastic Constant Matrix: (Units=GPa)
#
#
# Indices 1 2 3 4 5 6 
#
# 1 79.1942 23.0418 26.8644 0.0000 1.5073 0.0000
# 2 23.0418 37.7028 13.6477 0.0000 -1.3265 0.0000
# 3 26.8644 13.6477 121.3066 0.0000 27.8172 0.0000
# 4 0.0000 0.0000 0.0000 28.9339 0.0000 1.2463
# 5 1.5073 -1.3265 27.8172 0.0000 29.6993 0.0000
# 6 0.0000 0.0000 0.0000 1.2463 0.0000 21.0739
#
#
#
# Elastic Compliance Matrix: (Units=1/GPa)
#
#
# Indices 1 2 3 4 5 6 
#
# 1 0.016141 -0.008743 -0.002946 0.000000 0.001550 0.000000
# 2 -0.008743 0.033052 -0.002830 0.000000 0.004571 0.000000
# 3 -0.002946 -0.002830 0.011728 0.000000 -0.010962 0.000000
# 4 0.000000 0.000000 0.000000 0.034650 0.000000 -0.002049
# 5 0.001550 0.004571 -0.010962 0.000000 0.044063 0.000000
# 6 0.000000 0.000000 0.000000 -0.002049 0.000000 0.047573
#
#
# Mechanical properties :
#
#
# Convention : Reuss Voigt Hill
#
# Bulk Modulus (GPa) = 31.36666 40.59014 35.97840
# Shear Modulus (GPa) = 22.03853 27.58474 24.81164
#
# Velocity S-wave (km/s) = 3.43465 3.84260 3.64433
# Velocity P-wave (km/s) = 5.70254 6.43541 6.08003
#
# Compressibility (1/GPa) = 0.03188098
#
# Stress axis : x y z
#
# Youngs Moduli (GPa) = 61.95372 30.25521 85.26469
#
# Poissons Ratio (x) = 0.26454 0.25121
# Poissons Ratio (y) = 0.54169 0.24134
# Poissons Ratio (z) = 0.18253 0.08564
#
# Static dielectric constant tensor:
#      x y z
#    x 3.515310 0.000000 0.647290 
#    y 0.000000 3.193220 0.000000 
#    z 0.647290 0.000000 5.863300 
# 
# 
# High freq. dielectric constant tensor:
#      x y z
#    x 1.724520 0.000000 0.012710 
#    y 0.000000 1.693260 0.000000 
#    z 0.012710 0.000000 1.761300 
# 
# From -- ./inp_files/3908.got.cif
#   From: 2010.03.12/outbox.cif.g09.slc.cpg/sg14_2_cif.got.tgz:3908.got - 2010.03.31 13:35:05.
