data_PCOD8124359
_publ_section_title
;
Structure prediction by ZEFSAII (Michael W. Deem and Ramdas Pophale) SiO2 
 PCOD8124359
Probable space group: P 21/C
;
_chemical_formula_sum "Si O2"
_cell_formula_units_Z 28
_cell_length_a 21.011534
_cell_length_b 10.043995
_cell_length_c 8.475333
_cell_angle_alpha 90.000000
_cell_angle_beta 43.629747
_cell_angle_gamma 90.000000
_cell_volume 1234.147968
_symmetry_space_group_name_H-M "P 21/C"
_symmetry_group_IT_number 14
_symmetry_cell_setting 'monoclinic'
loop_
_space_group_symop_operation_xyz
x,y,z
-x,1/2+y,1/2-z
-x,-y,-z
x,1/2-y,1/2+z
loop_
_atom_site_type_symbol
_atom_site_label
_atom_site_fract_x
_atom_site_fract_y
_atom_site_fract_z
Si Si1 0.030979 0.686167 0.437068
Si Si2 0.222838 0.600287 0.100065
Si Si3 0.599635 0.061096 0.302281
Si Si4 0.104169 0.183153 0.559569
Si Si5 0.672083 0.202427 0.877642
Si Si6 0.896898 0.043373 0.661155
Si Si7 0.768346 0.574324 0.632577
O O1 0.114087 0.584782 0.249559
O O2 0.954019 0.624532 0.690171
O O3 0.973149 0.729952 0.389813
O O4 0.092874 0.804069 0.406224
O O5 0.248304 0.730525 0.158816
O O6 0.245985 0.466791 0.158605
O O7 0.281517 0.604468 0.833924
O O8 0.610939 0.184230 0.403229
O O9 0.500000 0.000000 0.500000
O O10 0.672214 0.942412 0.211471
O O11 0.610065 0.111029 0.103336
O O12 0.147467 0.058521 0.386829
O O13 0.189806 0.276823 0.458797
O O14 0.839515 0.031690 0.926548
O O15 0.000000 0.000000 0.500000
#
# Coordination Sequence:
#
# PCOD8124359 Si02
#       7
#     4   4   4   4   4   4   4
#     4  11  21  35  58  81 123 171 213 252 309 379
#     4  10  19  36  63  94 118 168 217 259 307 367
#     4  10  22  44  71  96 128 165 207 273 333 386
#     4  11  22  37  52  84 122 169 211 260 315 376
#     4   9  19  40  67  99 125 157 220 263 310 399
#     4  10  19  38  56  75 124 165 202 249 315 373
#     4  11  22  41  59  85 127 161 209 271 317 380
#
# _framework density 22.687719000000001
#
# number of rings (size 3 to 8) (size 9 to 14) (size 15 to 20)
#    0.000    1.714    2.857    5.143    0.000    0.571 
#    7.714    6.429    0.000    0.000    0.000    0.000 
#    0.000    0.000    0.000    0.000    0.000    0.000 
#
# Total GULP energy -346934.126152 kJ/mol
# GULP energy per Si atom -12390.504505 kJ/mol
# Density = 2.263608 g / cm^3
# Si number density = 22.687719 Si / 1000 Ang^3
#
#
#
# Elastic Constant Matrix: (Units=GPa)
#
#
# Indices 1 2 3 4 5 6 
#
# 1 91.2346 30.0690 69.3351 0.0000 -14.1487 0.0000
# 2 30.0690 65.7632 40.7534 0.0000 -7.6005 0.0000
# 3 69.3351 40.7534 152.8277 0.0000 -0.9486 0.0000
# 4 0.0000 0.0000 0.0000 15.2178 0.0000 4.1800
# 5 -14.1487 -7.6005 -0.9486 0.0000 39.1995 0.0000
# 6 0.0000 0.0000 0.0000 4.1800 0.0000 37.0662
#
#
#
# Elastic Compliance Matrix: (Units=1/GPa)
#
#
# Indices 1 2 3 4 5 6 
#
# 1 0.018705 -0.003148 -0.007610 0.000000 0.005957 0.000000
# 2 -0.003148 0.019215 -0.003680 0.000000 0.002500 0.000000
# 3 -0.007610 -0.003680 0.010957 0.000000 -0.003195 0.000000
# 4 0.000000 0.000000 0.000000 0.067813 0.000000 -0.007647
# 5 0.005957 0.002500 -0.003195 0.000000 0.028068 0.000000
# 6 0.000000 0.000000 0.000000 -0.007647 0.000000 0.027841
#
#
# Mechanical properties :
#
#
# Convention : Reuss Voigt Hill
#
# Bulk Modulus (GPa) = 49.99693 65.57117 57.78405
# Shear Modulus (GPa) = 24.02191 29.60791 26.81491
#
# Velocity S-wave (km/s) = 3.25746 3.61642 3.44163
# Velocity P-wave (km/s) = 6.01938 6.81193 6.42788
#
# Compressibility (1/GPa) = 0.02000123
#
# Stress axis : x y z
#
# Youngs Moduli (GPa) = 53.46072 52.04234 91.26422
#
# Poissons Ratio (x) = 0.16385 0.69449
# Poissons Ratio (y) = 0.16832 0.33586
# Poissons Ratio (z) = 0.40682 0.19152
#
# Static dielectric constant tensor:
#      x y z
#    x 4.137070 0.000000 0.367030 
#    y 0.000000 5.350740 0.000000 
#    z 0.367030 0.000000 4.168320 
# 
# 
# High freq. dielectric constant tensor:
#      x y z
#    x 1.885560 0.000000 0.020940 
#    y 0.000000 1.885280 0.000000 
#    z 0.020940 0.000000 1.885250 
# 
# From -- ./inp_files/18925.got.cif
#   From: 2010.03.12/outbox.cif.g09.slc.cpg/sg14_10_cif.got.tgz:18925.got - 2010.03.31 13:35:05.
