data_PCOD8124050
_publ_section_title
;
Structure prediction by ZEFSAII (Michael W. Deem and Ramdas Pophale) SiO2 
 PCOD8124050
Probable space group: P 21/C
;
_chemical_formula_sum "Si O2"
_cell_formula_units_Z 24
_cell_length_a 9.897896
_cell_length_b 18.748073
_cell_length_c 14.871495
_cell_angle_alpha 90.000000
_cell_angle_beta 156.496849
_cell_angle_gamma 90.000000
_cell_volume 1100.547418
_symmetry_space_group_name_H-M "P 21/C"
_symmetry_group_IT_number 14
_symmetry_cell_setting 'monoclinic'
loop_
_space_group_symop_operation_xyz
x,y,z
-x,1/2+y,1/2-z
-x,-y,-z
x,1/2-y,1/2+z
loop_
_atom_site_type_symbol
_atom_site_label
_atom_site_fract_x
_atom_site_fract_y
_atom_site_fract_z
Si Si1 0.804183 0.083537 0.256409
Si Si2 0.910403 0.559195 0.731629
Si Si3 0.436164 0.832120 0.520375
Si Si4 0.859806 0.644909 0.877324
Si Si5 0.093833 0.220979 0.349007
Si Si6 0.499416 0.765302 0.733859
O O1 0.995305 0.083739 0.468429
O O2 0.850805 0.161074 0.241429
O O3 0.969608 0.022946 0.293965
O O4 0.405194 0.066543 0.029962
O O5 0.780643 0.605645 0.737054
O O6 0.264849 0.589312 0.909013
O O7 0.645442 0.817672 0.558833
O O8 0.630917 0.820651 0.734969
O O9 0.128184 0.775876 0.342770
O O10 0.519252 0.683409 0.707527
O O11 0.122235 0.711232 0.030282
O O12 0.276564 0.267026 0.538713
#
# Coordination Sequence:
#
# PCOD8124050 Si02
#       6
#     4   4   4   4   4   4
#     4  10  21  36  54  77 108 146 184 222 269 324
#     4  10  21  36  54  77 108 146 184 222 269 324
#     4  11  21  35  56  81 109 141 180 226 275 324
#     4  10  19  34  54  78 107 140 180 224 271 318
#     4  11  21  35  56  81 109 141 180 226 275 324
#     4  10  20  32  52  80 106 134 174 222 268 316
#
# _framework density 21.80733
#
# number of rings (size 3 to 8) (size 9 to 14) (size 15 to 20)
#    0.000    1.667    0.000    7.500    0.000    0.667 
#    0.000    0.000    0.000    0.000    0.000   24.500 
#    0.000    0.000    0.000    0.000    0.000    0.000 
#
# Total GULP energy -297444.708169 kJ/mol
# GULP energy per Si atom -12393.529507 kJ/mol
# Density = 2.175770 g / cm^3
# Si number density = 21.807330 Si / 1000 Ang^3
#
#
#
# Elastic Constant Matrix: (Units=GPa)
#
#
# Indices 1 2 3 4 5 6 
#
# 1 65.0630 -11.6518 6.4393 0.0000 -8.4925 0.0000
# 2 -11.6518 64.6687 15.2029 0.0000 -3.2181 0.0000
# 3 6.4393 15.2029 45.4836 0.0000 -4.2996 0.0000
# 4 0.0000 0.0000 0.0000 33.6785 0.0000 0.6445
# 5 -8.4925 -3.2181 -4.2996 0.0000 18.0435 0.0000
# 6 0.0000 0.0000 0.0000 0.6445 0.0000 23.0595
#
#
#
# Elastic Compliance Matrix: (Units=1/GPa)
#
#
# Indices 1 2 3 4 5 6 
#
# 1 0.017532 0.004309 -0.003140 0.000000 0.008272 0.000000
# 2 0.004309 0.017892 -0.006238 0.000000 0.003733 0.000000
# 3 -0.003140 -0.006238 0.024830 0.000000 0.003326 0.000000
# 4 0.000000 0.000000 0.000000 0.029708 0.000000 -0.000830
# 5 0.008272 0.003733 0.003326 0.000000 0.060773 0.000000
# 6 0.000000 0.000000 0.000000 -0.000830 0.000000 0.043389
#
#
# Mechanical properties :
#
#
# Convention : Reuss Voigt Hill
#
# Bulk Modulus (GPa) = 19.95396 21.68846 20.82121
# Shear Modulus (GPa) = 22.62773 25.97130 24.29951
#
# Velocity S-wave (km/s) = 3.22471 3.45475 3.34171
# Velocity P-wave (km/s) = 4.79947 5.08732 4.94549
#
# Compressibility (1/GPa) = 0.05011536
#
# Stress axis : x y z
#
# Youngs Moduli (GPa) = 57.03907 55.89133 40.27410
#
# Poissons Ratio (x) = -0.24082 0.12647
# Poissons Ratio (y) = -0.24576 0.25121
# Poissons Ratio (z) = 0.17912 0.34862
#
# Static dielectric constant tensor:
#      x y z
#    x 3.916710 0.000000 -0.237980 
#    y 0.000000 3.926990 0.000000 
#    z -0.237980 0.000000 3.923180 
# 
# 
# High freq. dielectric constant tensor:
#      x y z
#    x 1.852440 0.000000 -0.020520 
#    y 0.000000 1.843540 0.000000 
#    z -0.020520 0.000000 1.851420 
# 
# From -- ./inp_files/14097.got.cif
#   From: 2010.03.12/outbox.cif.g09.slc.cpg/sg14_8_cif.got.tgz:14097.got - 2010.03.31 13:35:05.
