data_PCOD8124394
_publ_section_title
;
Structure prediction by ZEFSAII (Michael W. Deem and Ramdas Pophale) SiO2 
 PCOD8124394
Probable space group: P 21/C
;
_chemical_formula_sum "Si O2"
_cell_formula_units_Z 28
_cell_length_a 27.874546
_cell_length_b 8.713789
_cell_length_c 9.713949
_cell_angle_alpha 90.000000
_cell_angle_beta 143.777025
_cell_angle_gamma 90.000000
_cell_volume 1394.267531
_symmetry_space_group_name_H-M "P 21/C"
_symmetry_group_IT_number 14
_symmetry_cell_setting 'monoclinic'
loop_
_space_group_symop_operation_xyz
x,y,z
-x,1/2+y,1/2-z
-x,-y,-z
x,1/2-y,1/2+z
loop_
_atom_site_type_symbol
_atom_site_label
_atom_site_fract_x
_atom_site_fract_y
_atom_site_fract_z
Si Si1 0.389958 0.539605 0.148171
Si Si2 0.528701 0.751786 0.063622
Si Si3 0.392860 0.957048 0.355165
Si Si4 0.987565 0.851322 0.063621
Si Si5 0.158863 0.805884 0.942883
Si Si6 0.264398 0.758737 0.936004
Si Si7 0.934514 0.907671 0.258824
O O1 0.407285 0.360185 0.209735
O O2 0.473656 0.636391 0.343919
O O3 0.352550 0.563128 0.910515
O O4 0.322110 0.608566 0.094908
O O5 0.582125 0.634165 0.099256
O O6 0.472436 0.651119 0.033801
O O7 0.323037 0.907746 0.085495
O O8 0.073599 0.770190 0.281304
O O9 0.956437 0.881172 0.147684
O O10 0.924970 0.749526 0.824986
O O11 0.000000 0.000000 0.000000
O O12 0.228524 0.740212 0.201386
O O13 0.187247 0.758513 0.856938
O O14 0.148134 0.991230 0.931277
O O15 0.000000 0.000000 0.500000
#
# Coordination Sequence:
#
# PCOD8124394 Si02
#       7
#     4   4   4   4   4   4   4
#     4  10  19  37  57  89 117 154 210 245 305 352
#     4   9  20  34  60  85 116 156 200 265 295 342
#     4  10  19  37  57  89 116 156 208 247 303 353
#     4  11  21  39  66  97 117 157 205 259 305 360
#     4  11  22  41  61  88 123 159 195 240 314 362
#     4  11  22  38  61  82 123 166 195 248 300 379
#     4  10  21  38  63  92 125 152 203 254 295 370
#
# _framework density 20.082229000000002
#
# number of rings (size 3 to 8) (size 9 to 14) (size 15 to 20)
#    0.000    1.714    1.429    5.143    0.000    0.000 
#    5.143    4.286    0.000    0.000    0.000    0.000 
#    0.000    0.000    0.000    0.000    0.000    0.000 
#
# Total GULP energy -346910.140330 kJ/mol
# GULP energy per Si atom -12389.647869 kJ/mol
# Density = 2.003652 g / cm^3
# Si number density = 20.082229 Si / 1000 Ang^3
#
#
#
# Elastic Constant Matrix: (Units=GPa)
#
#
# Indices 1 2 3 4 5 6 
#
# 1 107.8312 41.9308 30.7599 0.0000 -13.1862 0.0000
# 2 41.9308 134.8736 41.8473 0.0000 -6.6513 0.0000
# 3 30.7599 41.8473 71.3691 0.0000 -7.0227 0.0000
# 4 0.0000 0.0000 0.0000 29.5694 0.0000 -1.1912
# 5 -13.1862 -6.6513 -7.0227 0.0000 35.5564 0.0000
# 6 0.0000 0.0000 0.0000 -1.1912 0.0000 25.3862
#
#
#
# Elastic Compliance Matrix: (Units=1/GPa)
#
#
# Indices 1 2 3 4 5 6 
#
# 1 0.011528 -0.002423 -0.003234 0.000000 0.003183 0.000000
# 2 -0.002423 0.009588 -0.004578 0.000000 -0.000009 0.000000
# 3 -0.003234 -0.004578 0.018242 0.000000 0.001547 0.000000
# 4 0.000000 0.000000 0.000000 0.033883 0.000000 0.001590
# 5 0.003183 -0.000009 0.001547 0.000000 0.029609 0.000000
# 6 0.000000 0.000000 0.000000 0.001590 0.000000 0.039466
#
#
# Mechanical properties :
#
#
# Convention : Reuss Voigt Hill
#
# Bulk Modulus (GPa) = 52.94902 60.34999 56.64950
# Shear Modulus (GPa) = 29.57128 31.40480 30.48804
#
# Velocity S-wave (km/s) = 3.84149 3.95879 3.90058
# Velocity P-wave (km/s) = 6.78966 7.14232 6.96822
#
# Compressibility (1/GPa) = 0.01888609
#
# Stress axis : x y z
#
# Youngs Moduli (GPa) = 86.74540 104.29922 54.81753
#
# Poissons Ratio (x) = 0.25276 0.17730
# Poissons Ratio (y) = 0.21022 0.25097
# Poissons Ratio (z) = 0.28056 0.47751
#
# Static dielectric constant tensor:
#      x y z
#    x 3.558250 0.000000 -0.069540 
#    y 0.000000 4.081990 0.000000 
#    z -0.069540 0.000000 3.659830 
# 
# 
# High freq. dielectric constant tensor:
#      x y z
#    x 1.776340 0.000000 -0.008320 
#    y 0.000000 1.786890 0.000000 
#    z -0.008320 0.000000 1.779300 
# 
# From -- ./inp_files/19767.got.cif
#   From: 2010.03.12/outbox.cif.g09.slc.cpg/sg14_10_cif.got.tgz:19767.got - 2010.03.31 13:35:05.
