data_PCOD8124989
_publ_section_title
;
Structure prediction by ZEFSAII (Michael W. Deem and Ramdas Pophale) SiO2 
 PCOD8124989
Probable space group: P 21/C
;
_chemical_formula_sum "Si O2"
_cell_formula_units_Z 24
_cell_length_a 14.373077
_cell_length_b 8.244320
_cell_length_c 16.107197
_cell_angle_alpha 90.000000
_cell_angle_beta 142.016905
_cell_angle_gamma 90.000000
_cell_volume 1174.633772
_symmetry_space_group_name_H-M "P 21/C"
_symmetry_group_IT_number 14
_symmetry_cell_setting 'monoclinic'
loop_
_space_group_symop_operation_xyz
x,y,z
-x,1/2+y,1/2-z
-x,-y,-z
x,1/2-y,1/2+z
loop_
_atom_site_type_symbol
_atom_site_label
_atom_site_fract_x
_atom_site_fract_y
_atom_site_fract_z
Si Si1 0.426568 0.738455 0.461635
Si Si2 0.319661 0.437023 0.801610
Si Si3 0.452176 0.327403 0.616144
Si Si4 0.680741 0.091206 0.864174
Si Si5 0.169396 0.121822 0.360899
Si Si6 0.847319 0.251708 0.119374
O O1 0.557922 0.790103 0.619101
O O2 0.484096 0.614242 0.430113
O O3 0.276608 0.678560 0.403145
O O4 0.400182 0.899995 0.388510
O O5 0.255508 0.473245 0.664081
O O6 0.189073 0.387070 0.774746
O O7 0.575547 0.232151 0.755649
O O8 0.417090 0.491218 0.639017
O O9 0.301875 0.220332 0.498242
O O10 0.822441 0.171686 0.011625
O O11 0.011693 0.208866 0.270109
O O12 0.170962 0.943741 0.401544
#
# Coordination Sequence:
#
# PCOD8124989 Si02
#       6
#     4   4   4   4   4   4
#     4   8  16  33  55  77 105 141 177 213 262 323
#     4   8  16  33  55  76 104 144 178 207 261 333
#     4  10  20  36  58  82 108 140 178 220 266 318
#     4  11  20  33  58  84 106 136 180 229 264 305
#     4  10  21  38  56  77 109 146 180 214 265 326
#     4  11  21  35  56  80 108 141 181 223 264 314
#
# _framework density 20.431902000000001
#
# number of rings (size 3 to 8) (size 9 to 14) (size 15 to 20)
#    0.000    2.333    0.000    6.000    0.000    1.333 
#    0.000    3.333    0.000   11.000    0.000    0.000 
#    0.000    0.000    0.000    0.000    0.000    0.000 
#
# Total GULP energy -297518.068748 kJ/mol
# GULP energy per Si atom -12396.586198 kJ/mol
# Density = 2.038540 g / cm^3
# Si number density = 20.431902 Si / 1000 Ang^3
#
#
#
# Elastic Constant Matrix: (Units=GPa)
#
#
# Indices 1 2 3 4 5 6 
#
# 1 68.0278 0.8230 8.6562 0.0000 0.2784 0.0000
# 2 0.8230 17.0413 -0.5394 0.0000 -8.1223 0.0000
# 3 8.6562 -0.5394 55.5639 0.0000 -5.9769 0.0000
# 4 0.0000 0.0000 0.0000 26.9479 0.0000 -2.2070
# 5 0.2784 -8.1223 -5.9769 0.0000 28.6308 0.0000
# 6 0.0000 0.0000 0.0000 -2.2070 0.0000 33.2394
#
#
#
# Elastic Compliance Matrix: (Units=1/GPa)
#
#
# Indices 1 2 3 4 5 6 
#
# 1 0.015033 -0.001294 -0.002465 0.000000 -0.001028 0.000000
# 2 -0.001294 0.068394 0.003022 0.000000 0.020046 0.000000
# 3 -0.002465 0.003022 0.018931 0.000000 0.004833 0.000000
# 4 0.000000 0.000000 0.000000 0.037312 0.000000 0.002477
# 5 -0.001028 0.020046 0.004833 0.000000 0.041633 0.000000
# 6 0.000000 0.000000 0.000000 0.002477 0.000000 0.030249
#
#
# Mechanical properties :
#
#
# Convention : Reuss Voigt Hill
#
# Bulk Modulus (GPa) = 9.91247 17.61251 13.76249
# Shear Modulus (GPa) = 20.27130 26.54315 23.40723
#
# Velocity S-wave (km/s) = 3.15324 3.60822 3.38838
# Velocity P-wave (km/s) = 4.25667 5.09880 4.69665
#
# Compressibility (1/GPa) = 0.10088306
#
# Stress axis : x y z
#
# Youngs Moduli (GPa) = 66.51850 14.62123 52.82461
#
# Poissons Ratio (x) = 0.01892 0.13022
# Poissons Ratio (y) = 0.08607 -0.15963
# Poissons Ratio (z) = 0.16398 -0.04418
#
# Static dielectric constant tensor:
#      x y z
#    x 3.879380 0.000000 -0.237560 
#    y 0.000000 3.609540 0.000000 
#    z -0.237560 0.000000 3.633920 
# 
# 
# High freq. dielectric constant tensor:
#      x y z
#    x 1.797580 0.000000 -0.010650 
#    y 0.000000 1.795040 0.000000 
#    z -0.010650 0.000000 1.784180 
# 
# From -- ./inp_files/46629.got.cif
#   From: 2010.03.12/outbox.cif.g09.slc.cpg/sg14_24_cif.got.tgz:46629.got - 2010.03.31 13:35:05.
