data_PCOD8124110
_publ_section_title
;
Structure prediction by ZEFSAII (Michael W. Deem and Ramdas Pophale) SiO2 
 PCOD8124110
Probable space group: P 21/C
;
_chemical_formula_sum "Si O2"
_cell_formula_units_Z 32
_cell_length_a 9.412676
_cell_length_b 22.501888
_cell_length_c 11.734360
_cell_angle_alpha 90.000000
_cell_angle_beta 38.730163
_cell_angle_gamma 90.000000
_cell_volume 1554.981766
_symmetry_space_group_name_H-M "P 21/C"
_symmetry_group_IT_number 14
_symmetry_cell_setting 'monoclinic'
loop_
_space_group_symop_operation_xyz
x,y,z
-x,1/2+y,1/2-z
-x,-y,-z
x,1/2-y,1/2+z
loop_
_atom_site_type_symbol
_atom_site_label
_atom_site_fract_x
_atom_site_fract_y
_atom_site_fract_z
Si Si1 0.638815 0.806315 0.015491
Si Si2 0.944851 0.876711 0.368453
Si Si3 0.146957 0.682390 0.170763
Si Si4 0.081908 0.919457 0.530586
Si Si5 0.462490 0.680855 0.180495
Si Si6 0.816192 0.014746 0.829979
Si Si7 0.490737 0.435774 0.358365
Si Si8 0.328226 0.696332 0.508782
O O1 0.505197 0.751713 0.156098
O O2 0.585430 0.867950 0.113397
O O3 0.562193 0.812605 0.931779
O O4 0.903270 0.792024 0.859659
O O5 0.689092 0.855765 0.511917
O O6 0.999748 0.886672 0.467504
O O7 0.114991 0.827719 0.213005
O O8 0.980697 0.938279 0.273629
O O9 0.279882 0.662165 0.200655
O O10 0.285825 0.733307 0.017799
O O11 0.110308 0.626227 0.114481
O O12 0.327848 0.950820 0.354321
O O13 0.898716 0.968181 0.682439
O O14 0.359339 0.663967 0.368174
O O15 0.612140 0.055228 0.905803
O O16 0.727704 0.980588 0.999692
#
# Coordination Sequence:
#
# PCOD8124110 Si02
#       8
#     4   4   4   4   4   4   4   4
#     4  11  20  41  63  89 122 161 206 256 305 364
#     4  11  22  41  62  95 124 159 211 256 309 366
#     4  11  24  40  62  93 128 163 208 251 317 379
#     4  11  21  39  67  93 123 163 209 263 306 362
#     4  11  26  40  61  92 129 168 198 254 321 380
#     4  10  21  35  64  98 120 156 214 268 302 351
#     4  10  19  34  60  95 120 146 211 265 302 344
#     4  11  23  40  62  90 124 164 205 256 308 365
#
# _framework density 20.57902
#
# number of rings (size 3 to 8) (size 9 to 14) (size 15 to 20)
#    0.000    1.250    5.000    3.000    1.750    2.000 
#    2.250    0.625    0.000    1.500    0.000    0.000 
#    0.000    0.000    0.000    0.000    0.000    0.000 
#
# Total GULP energy -396687.903276 kJ/mol
# GULP energy per Si atom -12396.496977 kJ/mol
# Density = 2.053218 g / cm^3
# Si number density = 20.579020 Si / 1000 Ang^3
#
#
#
# Elastic Constant Matrix: (Units=GPa)
#
#
# Indices 1 2 3 4 5 6 
#
# 1 94.1794 23.4738 40.7688 0.0000 -14.8613 0.0000
# 2 23.4738 86.7921 19.3720 0.0000 -6.3639 0.0000
# 3 40.7688 19.3720 96.4396 0.0000 -11.6734 0.0000
# 4 0.0000 0.0000 0.0000 35.1432 0.0000 -8.1370
# 5 -14.8613 -6.3639 -11.6734 0.0000 25.7221 0.0000
# 6 0.0000 0.0000 0.0000 -8.1370 0.0000 21.4005
#
#
#
# Elastic Compliance Matrix: (Units=1/GPa)
#
#
# Indices 1 2 3 4 5 6 
#
# 1 0.014159 -0.002349 -0.004861 0.000000 0.005393 0.000000
# 2 -0.002349 0.012550 -0.001393 0.000000 0.001116 0.000000
# 3 -0.004861 -0.001393 0.013038 0.000000 0.002764 0.000000
# 4 0.000000 0.000000 0.000000 0.031202 0.000000 0.011864
# 5 0.005393 0.001116 0.002764 0.000000 0.043524 0.000000
# 6 0.000000 0.000000 0.000000 0.011864 0.000000 0.051239
#
#
# Mechanical properties :
#
#
# Convention : Reuss Voigt Hill
#
# Bulk Modulus (GPa) = 44.36227 49.40450 46.88339
# Shear Modulus (GPa) = 26.25634 29.37294 27.81464
#
# Velocity S-wave (km/s) = 3.57582 3.78209 3.68040
# Velocity P-wave (km/s) = 6.21711 6.56747 6.39469
#
# Compressibility (1/GPa) = 0.02254168
#
# Stress axis : x y z
#
# Youngs Moduli (GPa) = 70.62790 79.68262 76.69650
#
# Poissons Ratio (x) = 0.18717 0.37280
# Poissons Ratio (y) = 0.16590 0.10683
# Poissons Ratio (z) = 0.34331 0.11099
#
# Static dielectric constant tensor:
#      x y z
#    x 3.385330 0.000000 -0.198320 
#    y 0.000000 3.935760 0.000000 
#    z -0.198320 0.000000 3.923270 
# 
# 
# High freq. dielectric constant tensor:
#      x y z
#    x 1.756580 0.000000 -0.012500 
#    y 0.000000 1.814970 0.000000 
#    z -0.012500 0.000000 1.819940 
# 
# From -- ./inp_files/27003.got.cif
#   From: 2010.03.12/outbox.cif.g09.slc.cpg/sg14_14_cif.got.tgz:27003.got - 2010.03.31 13:35:05.
