data_PCOD8124604
_publ_section_title
;
Structure prediction by ZEFSAII (Michael W. Deem and Ramdas Pophale) SiO2 
 PCOD8124604
Probable space group: P 21/C
;
_chemical_formula_sum "Si O2"
_cell_formula_units_Z 32
_cell_length_a 6.831672
_cell_length_b 13.949833
_cell_length_c 17.037170
_cell_angle_alpha 90.000000
_cell_angle_beta 102.659985
_cell_angle_gamma 90.000000
_cell_volume 1584.179420
_symmetry_space_group_name_H-M "P 21/C"
_symmetry_group_IT_number 14
_symmetry_cell_setting 'monoclinic'
loop_
_space_group_symop_operation_xyz
x,y,z
-x,1/2+y,1/2-z
-x,-y,-z
x,1/2-y,1/2+z
loop_
_atom_site_type_symbol
_atom_site_label
_atom_site_fract_x
_atom_site_fract_y
_atom_site_fract_z
Si Si1 0.441907 0.008122 0.865997
Si Si2 0.360423 0.686058 0.310454
Si Si3 0.019047 0.210792 0.661653
Si Si4 0.790277 0.961028 0.005339
Si Si5 0.426135 0.374954 0.939779
Si Si6 0.392714 0.282600 0.301509
Si Si7 0.828193 0.046933 0.540768
Si Si8 0.294800 0.267097 0.549292
O O1 0.280466 0.991031 0.920759
O O2 0.465848 0.115903 0.839318
O O3 0.375708 0.929379 0.793943
O O4 0.659452 0.984120 0.917730
O O5 0.138021 0.719283 0.310816
O O6 0.443439 0.747708 0.246222
O O7 0.488425 0.703306 0.399840
O O8 0.925226 0.114625 0.615956
O O9 0.179277 0.191846 0.744314
O O10 0.128323 0.266166 0.601706
O O11 0.783889 0.846238 0.019554
O O12 0.000000 0.000000 0.000000
O O13 0.385877 0.299759 0.866863
O O14 0.296974 0.471416 0.916898
O O15 0.664915 0.396461 0.971710
O O16 0.326739 0.334115 0.010572
O O17 0.000000 0.000000 0.500000
#
# Coordination Sequence:
#
# PCOD8124604 Si02
#       8
#     4   4   4   4   4   4   4   4
#     4  10  22  40  60  90 125 165 209 259 326 382
#     4  10  23  42  61  89 129 173 204 268 329 395
#     4  11  23  41  64  94 130 175 215 266 334 397
#     4  10  20  35  64  94 122 158 212 268 316 381
#     4  11  23  42  66  99 128 169 227 282 324 392
#     4  11  26  41  64  95 135 168 212 273 333 399
#     4  11  24  41  70  98 129 175 227 279 327 400
#     4  10  19  39  65  89 127 162 218 267 321 379
#
# _framework density 20.199732999999998
#
# number of rings (size 3 to 8) (size 9 to 14) (size 15 to 20)
#    0.000    1.500    3.750    0.750    0.000    6.000 
#    0.000    0.000    0.000    0.000    0.000    0.000 
#    0.000    0.000    0.000    0.000    0.000    0.000 
#
# Total GULP energy -396589.498911 kJ/mol
# GULP energy per Si atom -12393.421841 kJ/mol
# Density = 2.015376 g / cm^3
# Si number density = 20.199733 Si / 1000 Ang^3
#
#
#
# Elastic Constant Matrix: (Units=GPa)
#
#
# Indices 1 2 3 4 5 6 
#
# 1 131.8218 46.2032 36.5368 0.0000 -4.7302 0.0000
# 2 46.2032 127.7788 41.7122 0.0000 8.8207 0.0000
# 3 36.5368 41.7122 68.1949 0.0000 6.5218 0.0000
# 4 0.0000 0.0000 0.0000 33.5281 0.0000 -2.3839
# 5 -4.7302 8.8207 6.5218 0.0000 23.3954 0.0000
# 6 0.0000 0.0000 0.0000 -2.3839 0.0000 30.6430
#
#
#
# Elastic Compliance Matrix: (Units=1/GPa)
#
#
# Indices 1 2 3 4 5 6 
#
# 1 0.009727 -0.002460 -0.004093 0.000000 0.004035 0.000000
# 2 -0.002460 0.010499 -0.004806 0.000000 -0.003116 0.000000
# 3 -0.004093 -0.004806 0.020242 0.000000 -0.004658 0.000000
# 4 0.000000 0.000000 0.000000 0.029992 0.000000 0.002333
# 5 0.004035 -0.003116 -0.004658 0.000000 0.046033 0.000000
# 6 0.000000 0.000000 0.000000 0.002333 0.000000 0.032815
#
#
# Mechanical properties :
#
#
# Convention : Reuss Voigt Hill
#
# Bulk Modulus (GPa) = 56.33514 64.07775 60.20645
# Shear Modulus (GPa) = 28.09879 31.06953 29.58416
#
# Velocity S-wave (km/s) = 3.73372 3.92614 3.83114
# Velocity P-wave (km/s) = 6.82182 7.23489 7.03139
#
# Compressibility (1/GPa) = 0.01775091
#
# Stress axis : x y z
#
# Youngs Moduli (GPa) = 102.80283 95.24264 49.40207
#
# Poissons Ratio (x) = 0.23427 0.20220
# Poissons Ratio (y) = 0.25287 0.23744
# Poissons Ratio (z) = 0.42077 0.45776
#
# Static dielectric constant tensor:
#      x y z
#    x 3.660160 0.000000 -0.051520 
#    y 0.000000 3.693320 0.000000 
#    z -0.051520 0.000000 3.321450 
# 
# 
# High freq. dielectric constant tensor:
#      x y z
#    x 1.798000 0.000000 -0.004450 
#    y 0.000000 1.807420 0.000000 
#    z -0.004450 0.000000 1.770960 
# 
# From -- ./inp_files/53486.got.cif
#   From: 2010.03.12/outbox.cif.g09.slc.cpg/sg14_27_cif.got.tgz:53486.got - 2010.03.31 13:35:05.
