data_PCOD8124788
_publ_section_title
;
Structure prediction by ZEFSAII (Michael W. Deem and Ramdas Pophale) SiO2 
 PCOD8124788
Probable space group: P 21/C
;
_chemical_formula_sum "Si O2"
_cell_formula_units_Z 32
_cell_length_a 4.987023
_cell_length_b 22.144818
_cell_length_c 13.054983
_cell_angle_alpha 90.000000
_cell_angle_beta 85.188649
_cell_angle_gamma 90.000000
_cell_volume 1436.669112
_symmetry_space_group_name_H-M "P 21/C"
_symmetry_group_IT_number 14
_symmetry_cell_setting 'monoclinic'
loop_
_space_group_symop_operation_xyz
x,y,z
-x,1/2+y,1/2-z
-x,-y,-z
x,1/2-y,1/2+z
loop_
_atom_site_type_symbol
_atom_site_label
_atom_site_fract_x
_atom_site_fract_y
_atom_site_fract_z
Si Si1 0.283933 0.155230 0.275007
Si Si2 0.238208 0.026638 0.900370
Si Si3 0.765031 0.407065 0.319235
Si Si4 0.426637 0.180438 0.490908
Si Si5 0.882983 0.343729 0.119315
Si Si6 0.346568 0.686888 0.515950
Si Si7 0.386687 0.421899 0.597837
Si Si8 0.182733 0.717600 0.313931
O O1 0.322216 0.144448 0.394288
O O2 0.239197 0.093069 0.211200
O O3 0.546084 0.185574 0.223189
O O4 0.037032 0.199736 0.262558
O O5 0.460750 0.070037 0.840539
O O6 0.955743 0.039774 0.855535
O O7 0.334785 0.957242 0.885431
O O8 0.204855 0.038750 0.024719
O O9 0.798432 0.343768 0.381246
O O10 0.850747 0.399900 0.197491
O O11 0.190622 0.172015 0.581680
O O12 0.496298 0.250418 0.461966
O O13 0.695003 0.147441 0.525056
O O14 0.766698 0.288726 0.190639
O O15 0.561067 0.640211 0.463502
O O16 0.119208 0.700090 0.435483
#
# Coordination Sequence:
#
# PCOD8124788 Si02
#       8
#     4   4   4   4   4   4   4   4
#     4  11  21  36  58  83 115 151 186 231 283 338
#     4  10  22  37  58  88 112 145 191 238 290 345
#     4  11  22  37  59  81 113 152 190 233 285 335
#     4  11  23  37  56  84 116 151 193 225 273 345
#     4  11  22  38  55  78 115 154 192 235 273 328
#     4   9  20  36  57  87 117 146 179 228 289 351
#     4   9  20  37  59  85 118 145 183 239 294 340
#     4  10  20  34  54  83 112 143 182 223 283 349
#
# _framework density 22.273743
#
# number of rings (size 3 to 8) (size 9 to 14) (size 15 to 20)
#    0.000    1.750    0.000    5.250    0.000   12.500 
#    0.000    0.000    0.000    4.500    0.000    0.000 
#    0.000    0.000    0.000    0.000    0.000    0.000 
#
# Total GULP energy -396595.706913 kJ/mol
# GULP energy per Si atom -12393.615841 kJ/mol
# Density = 2.222305 g / cm^3
# Si number density = 22.273743 Si / 1000 Ang^3
#
#
#
# Elastic Constant Matrix: (Units=GPa)
#
#
# Indices 1 2 3 4 5 6 
#
# 1 71.0579 -8.2198 12.6581 0.0000 14.3252 0.0000
# 2 -8.2198 49.3245 26.6658 0.0000 0.1531 0.0000
# 3 12.6581 26.6658 113.5829 0.0000 15.5789 0.0000
# 4 0.0000 0.0000 0.0000 27.2946 0.0000 -0.2071
# 5 14.3252 0.1531 15.5789 0.0000 34.3641 0.0000
# 6 0.0000 0.0000 0.0000 -0.2071 0.0000 24.5637
#
#
#
# Elastic Compliance Matrix: (Units=1/GPa)
#
#
# Indices 1 2 3 4 5 6 
#
# 1 0.016008 0.003684 -0.001846 0.000000 -0.005853 0.000000
# 2 0.003684 0.024276 -0.006275 0.000000 0.001201 0.000000
# 3 -0.001846 -0.006275 0.011061 0.000000 -0.004217 0.000000
# 4 0.000000 0.000000 0.000000 0.036640 0.000000 0.000309
# 5 -0.005853 0.001201 -0.004217 0.000000 0.033446 0.000000
# 6 0.000000 0.000000 0.000000 0.000309 0.000000 0.040713
#
#
# Mechanical properties :
#
#
# Convention : Reuss Voigt Hill
#
# Bulk Modulus (GPa) = 23.54495 32.90818 28.22657
# Shear Modulus (GPa) = 27.00143 30.76856 28.88499
#
# Velocity S-wave (km/s) = 3.48552 3.72073 3.60504
# Velocity P-wave (km/s) = 5.17611 5.76758 5.47983
#
# Compressibility (1/GPa) = 0.04247195
#
# Stress axis : x y z
#
# Youngs Moduli (GPa) = 62.46909 41.19256 90.40480
#
# Poissons Ratio (x) = -0.15175 0.16690
# Poissons Ratio (y) = -0.23013 0.56725
# Poissons Ratio (z) = 0.11532 0.25846
#
# Static dielectric constant tensor:
#      x y z
#    x 3.826450 0.000000 0.131710 
#    y 0.000000 4.054720 0.000000 
#    z 0.131710 0.000000 4.430590 
# 
# 
# High freq. dielectric constant tensor:
#      x y z
#    x 1.877240 0.000000 0.006140 
#    y 0.000000 1.853480 0.000000 
#    z 0.006140 0.000000 1.870440 
# 
# From -- ./inp_files/22112.got.cif
#   From: 2010.03.12/outbox.cif.g09.slc.cpg/sg14_12_cif.got.tgz:22112.got - 2010.03.31 13:35:05.
