data_PCOD8124425
_publ_section_title
;
Structure prediction by ZEFSAII (Michael W. Deem and Ramdas Pophale) SiO2 
 PCOD8124425
Probable space group: P 21/C
;
_chemical_formula_sum "Si O2"
_cell_formula_units_Z 32
_cell_length_a 27.697723
_cell_length_b 9.241880
_cell_length_c 17.578316
_cell_angle_alpha 90.000000
_cell_angle_beta 159.641590
_cell_angle_gamma 90.000000
_cell_volume 1565.400981
_symmetry_space_group_name_H-M "P 21/C"
_symmetry_group_IT_number 14
_symmetry_cell_setting 'monoclinic'
loop_
_space_group_symop_operation_xyz
x,y,z
-x,1/2+y,1/2-z
-x,-y,-z
x,1/2-y,1/2+z
loop_
_atom_site_type_symbol
_atom_site_label
_atom_site_fract_x
_atom_site_fract_y
_atom_site_fract_z
Si Si1 0.760878 0.196956 0.319055
Si Si2 0.929484 0.922323 0.609672
Si Si3 0.252460 0.292849 0.897283
Si Si4 0.177899 0.353730 0.625247
Si Si5 0.997030 0.877845 0.874125
Si Si6 0.460136 0.795747 0.131024
Si Si7 0.755324 0.035547 0.913173
Si Si8 0.382739 0.021367 0.134908
O O1 0.726630 0.305049 0.337551
O O2 0.871946 0.269590 0.425414
O O3 0.820298 0.051804 0.443060
O O4 0.621676 0.162287 0.066032
O O5 0.887911 0.801570 0.488100
O O6 0.920734 0.851451 0.680722
O O7 0.085478 0.977727 0.822784
O O8 0.275014 0.337589 0.842722
O O9 0.106089 0.352635 0.708999
O O10 0.381136 0.358078 0.137027
O O11 0.257512 0.117533 0.913508
O O12 0.268767 0.416789 0.689442
O O13 0.048800 0.457799 0.453160
O O14 0.475100 0.619765 0.161833
O O15 0.388840 0.869608 0.099336
O O16 0.647790 0.007931 0.821609
#
# Coordination Sequence:
#
# PCOD8124425 Si02
#       8
#     4   4   4   4   4   4   4   4
#     4  10  21  39  64  94 123 159 212 257 314 375
#     4  10  19  37  60  95 126 147 209 263 308 364
#     4  10  22  39  61  88 125 165 207 258 315 369
#     4  10  20  35  62  93 123 160 208 252 312 376
#     4  10  20  38  63  89 124 166 202 257 312 380
#     4  10  25  42  61  88 126 165 207 268 308 379
#     4  10  21  40  65  90 119 170 202 258 314 385
#     4  10  23  44  63  83 126 165 209 258 324 362
#
# _framework density 20.442046999999999
#
# number of rings (size 3 to 8) (size 9 to 14) (size 15 to 20)
#    0.750    1.500    0.000    5.625    3.500    1.500 
#    4.500    3.125    0.000    0.000    0.000    0.000 
#    0.000    0.000    0.000    0.000    0.000    0.000 
#
# Total GULP energy -396591.609877 kJ/mol
# GULP energy per Si atom -12393.487809 kJ/mol
# Density = 2.039552 g / cm^3
# Si number density = 20.442047 Si / 1000 Ang^3
#
#
#
# Elastic Constant Matrix: (Units=GPa)
#
#
# Indices 1 2 3 4 5 6 
#
# 1 119.6566 54.7918 38.5312 0.0000 1.4101 0.0000
# 2 54.7918 103.3480 34.6557 0.0000 -0.0497 0.0000
# 3 38.5312 34.6557 100.7397 0.0000 -18.9478 0.0000
# 4 0.0000 0.0000 0.0000 17.4155 0.0000 -4.0534
# 5 1.4101 -0.0497 -18.9478 0.0000 21.5772 0.0000
# 6 0.0000 0.0000 0.0000 -4.0534 0.0000 25.6634
#
#
#
# Elastic Compliance Matrix: (Units=1/GPa)
#
#
# Indices 1 2 3 4 5 6 
#
# 1 0.011879 -0.005123 -0.003509 0.000000 -0.003869 0.000000
# 2 -0.005123 0.013432 -0.003106 0.000000 -0.002361 0.000000
# 3 -0.003509 -0.003106 0.014828 0.000000 0.013243 0.000000
# 4 0.000000 0.000000 0.000000 0.059611 0.000000 0.009415
# 5 -0.003869 -0.002361 0.013243 0.000000 0.058222 0.000000
# 6 0.000000 0.000000 0.000000 0.009415 0.000000 0.040453
#
#
# Mechanical properties :
#
#
# Convention : Reuss Voigt Hill
#
# Bulk Modulus (GPa) = 60.00905 64.41129 62.21017
# Shear Modulus (GPa) = 21.98241 25.98225 23.98233
#
# Velocity S-wave (km/s) = 3.28281 3.56900 3.42890
# Velocity P-wave (km/s) = 6.61729 6.96860 6.79522
#
# Compressibility (1/GPa) = 0.01666415
#
# Stress axis : x y z
#
# Youngs Moduli (GPa) = 84.18546 74.44734 67.44070
#
# Poissons Ratio (x) = 0.38139 0.23663
# Poissons Ratio (y) = 0.43127 0.20944
# Poissons Ratio (z) = 0.29539 0.23120
#
# Static dielectric constant tensor:
#      x y z
#    x 3.434750 0.000000 -0.152670 
#    y 0.000000 3.670830 0.000000 
#    z -0.152670 0.000000 3.606630 
# 
# 
# High freq. dielectric constant tensor:
#      x y z
#    x 1.776540 0.000000 -0.015200 
#    y 0.000000 1.799570 0.000000 
#    z -0.015200 0.000000 1.792350 
# 
# From -- ./inp_files/62692.got.cif
#   From: 2010.03.12/outbox.cif.g09.slc.cpg/sg14_32_cif.got.tgz:62692.got - 2010.03.31 13:35:05.
