data_PCOD8124910
_publ_section_title
;
Structure prediction by ZEFSAII (Michael W. Deem and Ramdas Pophale) SiO2 
 PCOD8124910
Probable space group: P 21/C
;
_chemical_formula_sum "Si O2"
_cell_formula_units_Z 20
_cell_length_a 8.627637
_cell_length_b 5.074472
_cell_length_c 22.680331
_cell_angle_alpha 90.000000
_cell_angle_beta 98.807524
_cell_angle_gamma 90.000000
_cell_volume 981.252108
_symmetry_space_group_name_H-M "P 21/C"
_symmetry_group_IT_number 14
_symmetry_cell_setting 'monoclinic'
loop_
_space_group_symop_operation_xyz
x,y,z
-x,1/2+y,1/2-z
-x,-y,-z
x,1/2-y,1/2+z
loop_
_atom_site_type_symbol
_atom_site_label
_atom_site_fract_x
_atom_site_fract_y
_atom_site_fract_z
Si Si1 0.890640 0.556499 0.663658
Si Si2 0.421908 0.224685 0.565199
Si Si3 0.202532 0.184036 0.159396
Si Si4 0.177932 0.801917 0.727775
Si Si5 0.622844 0.735440 0.568704
O O1 0.786553 0.372331 0.701748
O O2 0.785440 0.728144 0.613742
O O3 0.017883 0.377297 0.635576
O O4 0.987773 0.763562 0.710571
O O5 0.291500 0.323364 0.602818
O O6 0.555592 0.442997 0.568154
O O7 0.339939 0.185195 0.496713
O O8 0.504170 0.950851 0.589637
O O9 0.234951 0.465380 0.189097
O O10 0.267021 0.960684 0.209350
#
# Coordination Sequence:
#
# PCOD8124910 Si02
#       5
#     4   4   4   4   4
#     4  10  21  37  63  86 113 157 197 242 301 356
#     4  10  22  42  55  88 121 157 196 248 293 358
#     4  10  20  36  61  83 121 147 194 251 291 343
#     4  10  20  35  60  86 115 148 192 250 292 352
#     4  10  23  38  63  81 121 161 197 238 306 357
#
# _framework density 20.382121999999999
#
# number of rings (size 3 to 8) (size 9 to 14) (size 15 to 20)
#    1.200    0.800    2.000    1.200    2.800    0.800 
#    0.000    5.000    0.000    0.000    0.000    0.000 
#    0.000    0.000    0.000    0.000    0.000    0.000 
#
# Total GULP energy -247870.205633 kJ/mol
# GULP energy per Si atom -12393.510282 kJ/mol
# Density = 2.033573 g / cm^3
# Si number density = 20.382122 Si / 1000 Ang^3
#
#
#
# Elastic Constant Matrix: (Units=GPa)
#
#
# Indices 1 2 3 4 5 6 
#
# 1 55.3473 8.3296 40.4971 0.0000 -17.3970 0.0000
# 2 8.3296 103.1550 13.9787 0.0000 -4.0065 0.0000
# 3 40.4971 13.9787 63.7811 0.0000 -17.7787 0.0000
# 4 0.0000 0.0000 0.0000 26.5561 0.0000 -5.8904
# 5 -17.3970 -4.0065 -17.7787 0.0000 36.7099 0.0000
# 6 0.0000 0.0000 0.0000 -5.8904 0.0000 26.4084
#
#
#
# Elastic Compliance Matrix: (Units=1/GPa)
#
#
# Indices 1 2 3 4 5 6 
#
# 1 0.035142 0.000199 -0.020472 0.000000 0.006761 0.000000
# 2 0.000199 0.009992 -0.002296 0.000000 0.000073 0.000000
# 3 -0.020472 -0.002296 0.030527 0.000000 0.004832 0.000000
# 4 0.000000 0.000000 0.000000 0.039616 0.000000 0.008836
# 5 0.006761 0.000073 0.004832 0.000000 0.032793 0.000000
# 6 0.000000 0.000000 0.000000 0.008836 0.000000 0.039838
#
#
# Mechanical properties :
#
#
# Convention : Reuss Voigt Hill
#
# Bulk Modulus (GPa) = 32.76171 38.65491 35.70831
# Shear Modulus (GPa) = 20.55740 28.56673 24.56207
#
# Velocity S-wave (km/s) = 3.17929 3.74780 3.47519
# Velocity P-wave (km/s) = 5.43929 6.14282 5.80173
#
# Compressibility (1/GPa) = 0.03052344
#
# Stress axis : x y z
#
# Youngs Moduli (GPa) = 28.45571 100.07970 32.75747
#
# Poissons Ratio (x) = -0.01993 0.67062
# Poissons Ratio (y) = -0.00567 0.07521
# Poissons Ratio (z) = 0.58255 0.22979
#
# Static dielectric constant tensor:
#      x y z
#    x 3.227600 0.000000 -0.108170 
#    y 0.000000 3.793030 0.000000 
#    z -0.108170 0.000000 3.574600 
# 
# 
# High freq. dielectric constant tensor:
#      x y z
#    x 1.758520 0.000000 -0.017750 
#    y 0.000000 1.814610 0.000000 
#    z -0.017750 0.000000 1.785460 
# 
# From -- ./inp_files/49779.got.cif
#   From: 2010.03.12/outbox.cif.g09.slc.cpg/sg14_25_cif.got.tgz:49779.got - 2010.03.31 13:35:05.
