data_PCOD8124403
_publ_section_title
;
Structure prediction by ZEFSAII (Michael W. Deem and Ramdas Pophale) SiO2 
 PCOD8124403
Probable space group: P 21/C
;
_chemical_formula_sum "Si O2"
_cell_formula_units_Z 28
_cell_length_a 6.938269
_cell_length_b 8.519519
_cell_length_c 27.908309
_cell_angle_alpha 90.000000
_cell_angle_beta 119.648220
_cell_angle_gamma 90.000000
_cell_volume 1433.702191
_symmetry_space_group_name_H-M "P 21/C"
_symmetry_group_IT_number 14
_symmetry_cell_setting 'monoclinic'
loop_
_space_group_symop_operation_xyz
x,y,z
-x,1/2+y,1/2-z
-x,-y,-z
x,1/2-y,1/2+z
loop_
_atom_site_type_symbol
_atom_site_label
_atom_site_fract_x
_atom_site_fract_y
_atom_site_fract_z
Si Si1 0.985357 0.631586 0.567658
Si Si2 0.243114 0.354187 0.238924
Si Si3 0.642741 0.948623 0.103952
Si Si4 0.835351 0.141768 0.210663
Si Si5 0.423961 0.725970 0.149014
Si Si6 0.229865 0.344610 0.555854
Si Si7 0.416502 0.364650 0.156853
O O1 0.769264 0.612485 0.573269
O O2 0.913283 0.706015 0.507806
O O3 0.158783 0.747665 0.614918
O O4 0.094306 0.461629 0.573456
O O5 0.169791 0.531314 0.243001
O O6 0.479493 0.315478 0.292566
O O7 0.262068 0.342062 0.184258
O O8 0.068341 0.229010 0.237365
O O9 0.531732 0.796822 0.114409
O O10 0.812105 0.032057 0.161207
O O11 0.453820 0.071489 0.065020
O O12 0.639382 0.266513 0.190433
O O13 0.483581 0.544039 0.158374
O O14 0.281365 0.191112 0.593557
#
# Coordination Sequence:
#
# PCOD8124403 Si02
#       7
#     4   4   4   4   4   4   4
#     4  10  19  37  59  80 110 146 182 228 273 316
#     4  11  22  38  58  81 111 145 180 227 275 323
#     4   9  19  37  57  81 110 143 182 228 272 320
#     4  10  22  35  55  81 106 141 185 223 271 332
#     4  10  23  35  54  84 111 143 185 220 269 336
#     4   9  20  36  59  85 107 142 190 224 268 332
#     4  11  22  38  55  81 114 144 180 227 274 323
#
# _framework density 19.529857
#
# number of rings (size 3 to 8) (size 9 to 14) (size 15 to 20)
#    0.000    2.000    0.000    3.857    0.000    7.429 
#    0.000    0.714    0.000    0.000    0.000    0.000 
#    0.000    0.000    0.000    0.000    0.000    0.000 
#
# Total GULP energy -347325.965784 kJ/mol
# GULP energy per Si atom -12404.498778 kJ/mol
# Density = 1.948541 g / cm^3
# Si number density = 19.529857 Si / 1000 Ang^3
#
#
#
# Elastic Constant Matrix: (Units=GPa)
#
#
# Indices 1 2 3 4 5 6 
#
# 1 95.1632 37.3934 38.7412 0.0000 -2.8073 0.0000
# 2 37.3934 107.7481 35.1406 0.0000 -4.4864 0.0000
# 3 38.7412 35.1406 86.3970 0.0000 7.7648 0.0000
# 4 0.0000 0.0000 0.0000 26.9050 0.0000 6.7946
# 5 -2.8073 -4.4864 7.7648 0.0000 25.2882 0.0000
# 6 0.0000 0.0000 0.0000 6.7946 0.0000 23.5601
#
#
#
# Elastic Compliance Matrix: (Units=1/GPa)
#
#
# Indices 1 2 3 4 5 6 
#
# 1 0.013902 -0.003004 -0.005248 0.000000 0.002622 0.000000
# 2 -0.003004 0.011629 -0.003639 0.000000 0.002847 0.000000
# 3 -0.005248 -0.003639 0.015958 0.000000 -0.006128 0.000000
# 4 0.000000 0.000000 0.000000 0.040087 0.000000 -0.011561
# 5 0.002622 0.002847 -0.006128 0.000000 0.042222 0.000000
# 6 0.000000 0.000000 0.000000 -0.011561 0.000000 0.045779
#
#
# Mechanical properties :
#
#
# Convention : Reuss Voigt Hill
#
# Bulk Modulus (GPa) = 56.46980 56.87320 56.67150
# Shear Modulus (GPa) = 25.09271 27.01953 26.05612
#
# Velocity S-wave (km/s) = 3.58835 3.72358 3.65659
# Velocity P-wave (km/s) = 6.79307 6.90442 6.84897
#
# Compressibility (1/GPa) = 0.01770858
#
# Stress axis : x y z
#
# Youngs Moduli (GPa) = 71.92999 85.99439 62.66352
#
# Poissons Ratio (x) = 0.25834 0.32884
# Poissons Ratio (y) = 0.21609 0.22800
# Poissons Ratio (z) = 0.37747 0.31289
#
# Static dielectric constant tensor:
#      x y z
#    x 3.440330 0.000000 0.099580 
#    y 0.000000 3.471570 0.000000 
#    z 0.099580 0.000000 3.605620 
# 
# 
# High freq. dielectric constant tensor:
#      x y z
#    x 1.759700 0.000000 0.004640 
#    y 0.000000 1.752170 0.000000 
#    z 0.004640 0.000000 1.764360 
# 
# From -- ./inp_files/75648.got.cif
#   From: 2010.03.12/outbox.cif.g09.slc.cpg/sg14_38_cif.got.tgz:75648.got - 2010.03.31 13:35:05.
