data_PCOD8124092
_publ_section_title
;
Structure prediction by ZEFSAII (Michael W. Deem and Ramdas Pophale) SiO2 
 PCOD8124092
Probable space group: P 21/C
;
_chemical_formula_sum "Si O2"
_cell_formula_units_Z 32
_cell_length_a 9.213389
_cell_length_b 23.605547
_cell_length_c 8.395565
_cell_angle_alpha 90.000000
_cell_angle_beta 117.092194
_cell_angle_gamma 90.000000
_cell_volume 1625.576883
_symmetry_space_group_name_H-M "P 21/C"
_symmetry_group_IT_number 14
_symmetry_cell_setting 'monoclinic'
loop_
_space_group_symop_operation_xyz
x,y,z
-x,1/2+y,1/2-z
-x,-y,-z
x,1/2-y,1/2+z
loop_
_atom_site_type_symbol
_atom_site_label
_atom_site_fract_x
_atom_site_fract_y
_atom_site_fract_z
Si Si1 0.646679 0.610317 0.966703
Si Si2 0.821265 0.887389 0.863911
Si Si3 0.530037 0.198221 0.823627
Si Si4 0.665256 0.996245 0.277365
Si Si5 0.285335 0.503132 0.551406
Si Si6 0.485551 0.321332 0.671876
Si Si7 0.819446 0.375963 0.363614
Si Si8 0.333151 0.598045 0.020069
O O1 0.797677 0.619118 0.161754
O O2 0.494642 0.587227 0.994167
O O3 0.602922 0.668331 0.855782
O O4 0.695548 0.566776 0.853796
O O5 0.813816 0.953468 0.910054
O O6 0.690685 0.848729 0.888875
O O7 0.997524 0.862872 0.994111
O O8 0.510007 0.264250 0.783096
O O9 0.710080 0.175345 0.874708
O O10 0.500829 0.186624 0.993122
O O11 0.475149 0.010928 0.163435
O O12 0.735719 0.039397 0.443996
O O13 0.760061 0.003326 0.158327
O O14 0.243631 0.563798 0.603250
O O15 0.627419 0.361968 0.809872
O O16 0.806154 0.376228 0.164176
#
# Coordination Sequence:
#
# PCOD8124092 Si02
#       8
#     4   4   4   4   4   4   4   4
#     4  10  19  34  58  84 116 157 199 238 286 348
#     4  11  23  39  59  90 125 156 191 246 303 346
#     4  11  22  41  64  87 112 151 204 246 285 352
#     4  11  18  32  58  90 116 159 208 240 273 350
#     4  11  20  33  58  89 126 156 196 240 293 348
#     4  11  22  41  64  87 112 151 204 246 285 352
#     4  11  23  39  59  90 125 156 191 246 303 346
#     4  10  19  34  58  84 116 157 199 238 286 348
#
# _framework density 19.685319
#
# number of rings (size 3 to 8) (size 9 to 14) (size 15 to 20)
#    0.000    1.250    5.000    5.250    0.000    0.000 
#    0.000   11.250    0.000    0.000    0.000    0.000 
#    0.000    0.000    0.000    0.000    0.000    0.000 
#
# Total GULP energy -396854.821713 kJ/mol
# GULP energy per Si atom -12401.713179 kJ/mol
# Density = 1.964051 g / cm^3
# Si number density = 19.685319 Si / 1000 Ang^3
#
#
#
# Elastic Constant Matrix: (Units=GPa)
#
#
# Indices 1 2 3 4 5 6 
#
# 1 31.9559 8.6423 40.0091 0.0000 4.0653 0.0000
# 2 8.6423 70.7822 4.2846 0.0000 6.8247 0.0000
# 3 40.0091 4.2846 131.5249 0.0000 1.4804 0.0000
# 4 0.0000 0.0000 0.0000 34.6544 0.0000 -11.2687
# 5 4.0653 6.8247 1.4804 0.0000 36.5075 0.0000
# 6 0.0000 0.0000 0.0000 -11.2687 0.0000 16.8189
#
#
#
# Elastic Compliance Matrix: (Units=1/GPa)
#
#
# Indices 1 2 3 4 5 6 
#
# 1 0.053230 -0.005115 -0.015977 0.000000 -0.004323 0.000000
# 2 -0.005115 0.014904 0.001096 0.000000 -0.002261 0.000000
# 3 -0.015977 0.001096 0.012415 0.000000 0.001071 0.000000
# 4 0.000000 0.000000 0.000000 0.036895 0.000000 0.024719
# 5 -0.004323 -0.002261 0.001071 0.000000 0.028252 0.000000
# 6 0.000000 0.000000 0.000000 0.024719 0.000000 0.076019
#
#
# Mechanical properties :
#
#
# Convention : Reuss Voigt Hill
#
# Bulk Modulus (GPa) = 24.65671 37.79280 31.22475
# Shear Modulus (GPa) = 18.16685 29.68461 23.92573
#
# Velocity S-wave (km/s) = 3.04116 3.88745 3.49005
# Velocity P-wave (km/s) = 4.98840 6.27614 5.66895
#
# Compressibility (1/GPa) = 0.04055692
#
# Stress axis : x y z
#
# Youngs Moduli (GPa) = 18.78648 67.09578 80.54487
#
# Poissons Ratio (x) = 0.34321 1.28686
# Poissons Ratio (y) = 0.09610 -0.08827
# Poissons Ratio (z) = 0.30015 -0.07353
#
# Static dielectric constant tensor:
#      x y z
#    x 3.249320 0.000000 -0.146920 
#    y 0.000000 3.614170 0.000000 
#    z -0.146920 0.000000 4.019380 
# 
# 
# High freq. dielectric constant tensor:
#      x y z
#    x 1.727830 0.000000 -0.019600 
#    y 0.000000 1.766320 0.000000 
#    z -0.019600 0.000000 1.789230 
# 
# From -- ./inp_files/10818.got.cif
#   From: 2010.03.12/outbox.cif.g09.slc.cpg/sg14_6_cif.got.tgz:10818.got - 2010.03.31 13:35:05.
