data_PCOD8124825
_publ_section_title
;
Structure prediction by ZEFSAII (Michael W. Deem and Ramdas Pophale) SiO2 
 PCOD8124825
Probable space group: P 21/C
;
_chemical_formula_sum "Si O2"
_cell_formula_units_Z 32
_cell_length_a 15.590033
_cell_length_b 24.014668
_cell_length_c 9.399298
_cell_angle_alpha 90.000000
_cell_angle_beta 25.262912
_cell_angle_gamma 90.000000
_cell_volume 1501.811835
_symmetry_space_group_name_H-M "P 21/C"
_symmetry_group_IT_number 14
_symmetry_cell_setting 'monoclinic'
loop_
_space_group_symop_operation_xyz
x,y,z
-x,1/2+y,1/2-z
-x,-y,-z
x,1/2-y,1/2+z
loop_
_atom_site_type_symbol
_atom_site_label
_atom_site_fract_x
_atom_site_fract_y
_atom_site_fract_z
Si Si1 0.774056 0.107110 0.750511
Si Si2 0.774058 0.892891 0.927316
Si Si3 0.594351 0.323549 0.078996
Si Si4 0.221035 0.077726 0.769947
Si Si5 0.594353 0.823548 0.637946
Si Si6 0.221036 0.922273 0.566947
Si Si7 0.459303 0.000000 0.811049
Si Si8 0.500002 0.750000 0.531288
O O1 0.774291 0.115100 0.581055
O O2 0.999998 0.111265 0.474711
O O3 0.639190 0.155981 0.020303
O O4 0.686061 0.045586 0.904753
O O5 0.639192 0.844019 0.062125
O O6 0.774288 0.884902 0.096076
O O7 0.686066 0.954415 0.037050
O O8 0.637943 0.286402 0.154303
O O9 0.732308 0.378871 0.873927
O O10 0.633299 0.289235 0.874531
O O11 0.267690 0.121129 0.570856
O O12 0.388166 0.029134 0.530383
O O13 0.999999 0.051387 0.077390
O O14 0.637947 0.786402 0.431860
O O15 0.633301 0.789235 0.725567
O O16 0.388169 0.970865 0.305109
#
# Coordination Sequence:
#
# PCOD8124825 Si02
#       8
#     4   4   4   4   4   4   4   4
#     4  10  20  36  57  86 118 152 192 236 283 341
#     4  10  20  36  57  86 118 152 192 236 283 341
#     4  10  20  38  60  84 116 150 188 240 290 338
#     4  10  20  36  57  86 118 152 192 236 283 341
#     4  10  20  38  60  84 116 150 188 240 290 338
#     4  10  20  36  57  86 118 152 192 236 283 341
#     4  10  20  34  60  82 120 152 194 228 288 338
#     4  10  20  38  62  84 112 152 188 238 298 340
#
# _framework density 21.307596
#
# number of rings (size 3 to 8) (size 9 to 14) (size 15 to 20)
#    0.000    2.000    2.500    1.500    0.000    0.000 
#    0.000    8.750    0.000    0.000    0.000    0.000 
#    0.000    0.000    0.000    0.000    0.000    0.000 
#
# Total GULP energy -396444.608072 kJ/mol
# GULP energy per Si atom -12388.894002 kJ/mol
# Density = 2.125910 g / cm^3
# Si number density = 21.307596 Si / 1000 Ang^3
#
#
#
# Elastic Constant Matrix: (Units=GPa)
#
#
# Indices 1 2 3 4 5 6 
#
# 1 75.3597 26.1900 39.5689 0.0000 8.1109 0.0000
# 2 26.1900 94.5752 30.8787 0.0000 -3.4511 0.0000
# 3 39.5689 30.8787 94.5638 0.0000 -22.2390 0.0000
# 4 0.0000 0.0000 0.0000 19.8936 0.0000 9.0826
# 5 8.1109 -3.4511 -22.2390 0.0000 34.7034 0.0000
# 6 0.0000 0.0000 0.0000 9.0826 0.0000 32.2427
#
#
#
# Elastic Compliance Matrix: (Units=1/GPa)
#
#
# Indices 1 2 3 4 5 6 
#
# 1 0.021247 -0.002787 -0.010848 0.000000 -0.012195 0.000000
# 2 -0.002787 0.012270 -0.002827 0.000000 0.000060 0.000000
# 3 -0.010848 -0.002827 0.019507 0.000000 0.014755 0.000000
# 4 0.000000 0.000000 0.000000 0.057686 0.000000 -0.016250
# 5 -0.012195 0.000060 0.014755 0.000000 0.041127 0.000000
# 6 0.000000 0.000000 0.000000 -0.016250 0.000000 0.035592
#
#
# Mechanical properties :
#
#
# Convention : Reuss Voigt Hill
#
# Bulk Modulus (GPa) = 49.74835 50.86375 50.30605
# Shear Modulus (GPa) = 22.02117 28.55869 25.28993
#
# Velocity S-wave (km/s) = 3.21828 3.66499 3.44888
# Velocity P-wave (km/s) = 6.09985 6.46781 6.28652
#
# Compressibility (1/GPa) = 0.02010117
#
# Stress axis : x y z
#
# Youngs Moduli (GPa) = 47.06580 81.49724 51.26296
#
# Poissons Ratio (x) = 0.22711 0.55612
# Poissons Ratio (y) = 0.13116 0.14490
# Poissons Ratio (z) = 0.51059 0.23035
#
# Static dielectric constant tensor:
#      x y z
#    x 3.715530 0.000000 0.017730 
#    y 0.000000 3.924810 0.000000 
#    z 0.017730 0.000000 3.691400 
# 
# 
# High freq. dielectric constant tensor:
#      x y z
#    x 1.817810 0.000000 0.006310 
#    y 0.000000 1.849790 0.000000 
#    z 0.006310 0.000000 1.809230 
# 
# From -- ./inp_files/17079.got.cif
#   From: 2010.03.12/outbox.cif.g09.slc.cpg/sg14_9_cif.got.tgz:17079.got - 2010.03.31 13:35:05.
