data_PCOD8124859
_publ_section_title
;
Structure prediction by ZEFSAII (Michael W. Deem and Ramdas Pophale) SiO2 
 PCOD8124859
Probable space group: P 21/C
;
_chemical_formula_sum "Si O2"
_cell_formula_units_Z 32
_cell_length_a 11.110901
_cell_length_b 17.674010
_cell_length_c 8.966988
_cell_angle_alpha 90.000000
_cell_angle_beta 113.798539
_cell_angle_gamma 90.000000
_cell_volume 1611.156759
_symmetry_space_group_name_H-M "P 21/C"
_symmetry_group_IT_number 14
_symmetry_cell_setting 'monoclinic'
loop_
_space_group_symop_operation_xyz
x,y,z
-x,1/2+y,1/2-z
-x,-y,-z
x,1/2-y,1/2+z
loop_
_atom_site_type_symbol
_atom_site_label
_atom_site_fract_x
_atom_site_fract_y
_atom_site_fract_z
Si Si1 0.018720 0.171257 0.582968
Si Si2 0.230903 0.068838 0.190590
Si Si3 0.477159 0.172101 0.314324
Si Si4 0.230903 0.068838 0.540313
Si Si5 0.018720 0.328743 0.435752
Si Si6 0.522841 0.672101 0.837165
Si Si7 0.254907 0.898144 0.553831
Si Si8 0.254907 0.601856 0.701075
O O1 0.114125 0.105989 0.574394
O O2 0.060624 0.250000 0.530312
O O3 0.871162 0.150133 0.458773
O O4 0.031274 0.178798 0.765637
O O5 0.367555 0.109972 0.224203
O O6 0.195907 0.072092 0.347954
O O7 0.114125 0.105989 0.039731
O O8 0.243857 0.983618 0.135853
O O9 0.490189 0.187530 0.495094
O O10 0.434960 0.250000 0.217480
O O11 0.615125 0.142077 0.315377
O O12 0.367555 0.109972 0.643352
O O13 0.243857 0.983618 0.608003
O O14 0.871162 0.349868 0.412389
O O15 0.384875 0.642078 0.700252
O O16 0.267449 0.902341 0.383725
#
# Coordination Sequence:
#
# PCOD8124859 Si02
#       8
#     4   4   4   4   4   4   4   4
#     4  11  22  36  55  79 109 142 178 219 264 316
#     4  10  20  36  58  81 107 139 177 221 267 315
#     4  10  20  35  56  80 107 140 178 219 264 315
#     4  10  20  36  58  81 107 139 177 221 267 315
#     4  11  22  36  55  79 109 142 178 219 264 316
#     4  10  20  35  56  80 107 140 178 219 264 315
#     4   9  19  36  57  80 105 139 181 221 263 313
#     4   9  19  36  57  80 105 139 181 221 263 313
#
# _framework density 19.861505000000001
#
# number of rings (size 3 to 8) (size 9 to 14) (size 15 to 20)
#    0.000    2.000    0.000    3.750    0.000    6.000 
#    0.000    3.750    0.000    3.000    0.000    0.000 
#    0.000    0.000    0.000    0.000    0.000    0.000 
#
# Total GULP energy -396939.442674 kJ/mol
# GULP energy per Si atom -12404.357584 kJ/mol
# Density = 1.981630 g / cm^3
# Si number density = 19.861505 Si / 1000 Ang^3
#
#
#
# Elastic Constant Matrix: (Units=GPa)
#
#
# Indices 1 2 3 4 5 6 
#
# 1 80.9712 3.7832 24.2119 0.0000 2.9804 0.0000
# 2 3.7832 98.3743 18.4848 0.0000 -9.2974 0.0000
# 3 24.2119 18.4848 56.4669 0.0000 12.5162 0.0000
# 4 0.0000 0.0000 0.0000 31.8476 0.0000 13.3008
# 5 2.9804 -9.2974 12.5162 0.0000 19.9928 0.0000
# 6 0.0000 0.0000 0.0000 13.3008 0.0000 52.8796
#
#
#
# Elastic Compliance Matrix: (Units=1/GPa)
#
#
# Indices 1 2 3 4 5 6 
#
# 1 0.014323 0.001049 -0.007106 0.000000 0.002801 0.000000
# 2 0.001049 0.012286 -0.006623 0.000000 0.009703 0.000000
# 3 -0.007106 -0.006623 0.027138 0.000000 -0.019010 0.000000
# 4 0.000000 0.000000 0.000000 0.035085 0.000000 -0.008825
# 5 0.002801 0.009703 -0.019010 0.000000 0.066014 0.000000
# 6 0.000000 0.000000 0.000000 -0.008825 0.000000 0.021131
#
#
# Mechanical properties :
#
#
# Convention : Reuss Voigt Hill
#
# Bulk Modulus (GPa) = 35.22539 36.53022 35.87781
# Shear Modulus (GPa) = 23.71946 33.56618 28.64282
#
# Velocity S-wave (km/s) = 3.45953 4.11544 3.80165
# Velocity P-wave (km/s) = 5.80791 6.40428 6.11337
#
# Compressibility (1/GPa) = 0.02838861
#
# Stress axis : x y z
#
# Youngs Moduli (GPa) = 69.81948 81.39097 36.84898
#
# Poissons Ratio (x) = -0.08539 0.26183
# Poissons Ratio (y) = -0.07325 0.24404
# Poissons Ratio (z) = 0.49611 0.53902
#
# Static dielectric constant tensor:
#      x y z
#    x 3.757240 0.000000 0.233380 
#    y 0.000000 3.721740 0.000000 
#    z 0.233380 0.000000 3.388210 
# 
# 
# High freq. dielectric constant tensor:
#      x y z
#    x 1.782080 0.000000 0.019310 
#    y 0.000000 1.791260 0.000000 
#    z 0.019310 0.000000 1.751540 
# 
# From -- ./inp_files/13899.got.cif
#   From: 2010.03.12/outbox.cif.g09.slc.cpg/sg14_7_cif.got.tgz:13899.got - 2010.03.31 13:35:05.
