data_PCOD8124400
_publ_section_title
;
Structure prediction by ZEFSAII (Michael W. Deem and Ramdas Pophale) SiO2 
 PCOD8124400
Probable space group: P 21/C
;
_chemical_formula_sum "Si O2"
_cell_formula_units_Z 32
_cell_length_a 14.762769
_cell_length_b 7.893421
_cell_length_c 20.542312
_cell_angle_alpha 90.000000
_cell_angle_beta 136.798530
_cell_angle_gamma 90.000000
_cell_volume 1638.693066
_symmetry_space_group_name_H-M "P 21/C"
_symmetry_group_IT_number 14
_symmetry_cell_setting 'monoclinic'
loop_
_space_group_symop_operation_xyz
x,y,z
-x,1/2+y,1/2-z
-x,-y,-z
x,1/2-y,1/2+z
loop_
_atom_site_type_symbol
_atom_site_label
_atom_site_fract_x
_atom_site_fract_y
_atom_site_fract_z
Si Si1 0.617961 0.956826 0.014545
Si Si2 0.407218 0.643070 0.635190
Si Si3 0.987587 0.114203 0.827789
Si Si4 0.872177 0.378780 0.681723
Si Si5 0.752885 0.704290 0.004780
Si Si6 0.342894 0.181758 0.176979
Si Si7 0.063227 0.379955 0.587521
Si Si8 0.158959 0.830284 0.464775
O O1 0.590287 0.052295 0.932848
O O2 0.653973 0.759671 0.013191
O O3 0.736666 0.023599 0.121586
O O4 0.500000 0.000000 0.000000
O O5 0.545491 0.738164 0.718684
O O6 0.380190 0.511515 0.679471
O O7 0.289342 0.779202 0.573495
O O8 0.905527 0.280834 0.765774
O O9 0.010648 0.012025 0.772349
O O10 0.130691 0.153562 0.935523
O O11 0.905621 0.999590 0.834412
O O12 0.853783 0.262466 0.609642
O O13 0.668038 0.709867 0.894670
O O14 0.827322 0.526080 0.048352
O O15 0.202616 0.197158 0.139562
O O16 0.000000 0.500000 0.500000
O O17 0.967298 0.221487 0.556365
#
# Coordination Sequence:
#
# PCOD8124400 Si02
#       8
#     4   4   4   4   4   4   4   4
#     4   9  20  42  58  81 122 159 200 256 303 360
#     4  10  21  39  61  82 121 161 200 250 316 375
#     4  10  19  37  58  85 115 153 197 250 310 361
#     4   9  19  36  58  79 115 151 194 246 303 363
#     4  10  20  36  62  82 116 160 197 246 311 371
#     4  11  21  40  59  87 120 161 203 250 314 370
#     4  11  20  40  61  86 128 158 197 266 310 363
#     4  10  20  38  61  86 115 159 202 250 310 374
#
# _framework density 19.527756
#
# number of rings (size 3 to 8) (size 9 to 14) (size 15 to 20)
#    0.000    2.000    2.500    3.000    0.000    0.500 
#   20.250    1.250    0.000    0.000    0.000    0.000 
#    0.000    0.000    0.000    0.000    0.000    0.000 
#
# Total GULP energy -396525.611823 kJ/mol
# GULP energy per Si atom -12391.425369 kJ/mol
# Density = 1.948331 g / cm^3
# Si number density = 19.527756 Si / 1000 Ang^3
#
#
#
# Elastic Constant Matrix: (Units=GPa)
#
#
# Indices 1 2 3 4 5 6 
#
# 1 124.5968 44.1365 27.5768 0.0000 18.9039 0.0000
# 2 44.1365 98.3061 23.4257 0.0000 8.0820 0.0000
# 3 27.5768 23.4257 93.3312 0.0000 11.9341 0.0000
# 4 0.0000 0.0000 0.0000 32.6083 0.0000 4.9539
# 5 18.9039 8.0820 11.9341 0.0000 21.8899 0.0000
# 6 0.0000 0.0000 0.0000 4.9539 0.0000 25.6904
#
#
#
# Elastic Compliance Matrix: (Units=1/GPa)
#
#
# Indices 1 2 3 4 5 6 
#
# 1 0.010797 -0.003953 -0.001282 0.000000 -0.007166 0.000000
# 2 -0.003953 0.012417 -0.001934 0.000000 -0.000117 0.000000
# 3 -0.001282 -0.001934 0.012196 0.000000 -0.004828 0.000000
# 4 0.000000 0.000000 0.000000 0.031593 0.000000 -0.006092
# 5 -0.007166 -0.000117 -0.004828 0.000000 0.054547 0.000000
# 6 0.000000 0.000000 0.000000 -0.006092 0.000000 0.040100
#
#
# Mechanical properties :
#
#
# Convention : Reuss Voigt Hill
#
# Bulk Modulus (GPa) = 47.45313 56.27912 51.86612
# Shear Modulus (GPa) = 27.32070 30.77740 29.04905
#
# Velocity S-wave (km/s) = 3.74447 3.97430 3.86110
# Velocity P-wave (km/s) = 6.56109 7.06702 6.81875
#
# Compressibility (1/GPa) = 0.02107343
#
# Stress axis : x y z
#
# Youngs Moduli (GPa) = 92.61759 80.53157 81.99403
#
# Poissons Ratio (x) = 0.31834 0.10510
# Poissons Ratio (y) = 0.36612 0.15856
# Poissons Ratio (z) = 0.11871 0.15573
#
# Static dielectric constant tensor:
#      x y z
#    x 3.478550 0.000000 0.070620 
#    y 0.000000 3.900690 0.000000 
#    z 0.070620 0.000000 3.611440 
# 
# 
# High freq. dielectric constant tensor:
#      x y z
#    x 1.742270 0.000000 0.001720 
#    y 0.000000 1.758330 0.000000 
#    z 0.001720 0.000000 1.767250 
# 
# From -- ./inp_files/68104.got.cif
#   From: 2010.03.12/outbox.cif.g09.slc.cpg/sg14_35_cif.got.tgz:68104.got - 2010.03.31 13:35:05.
