data_PCOD8124737
_publ_section_title
;
Structure prediction by ZEFSAII (Michael W. Deem and Ramdas Pophale) SiO2 
 PCOD8124737
Probable space group: P 21/C
;
_chemical_formula_sum "Si O2"
_cell_formula_units_Z 24
_cell_length_a 12.747834
_cell_length_b 20.915929
_cell_length_c 4.960095
_cell_angle_alpha 90.000000
_cell_angle_beta 75.418378
_cell_angle_gamma 90.000000
_cell_volume 1279.925441
_symmetry_space_group_name_H-M "P 21/C"
_symmetry_group_IT_number 14
_symmetry_cell_setting 'monoclinic'
loop_
_space_group_symop_operation_xyz
x,y,z
-x,1/2+y,1/2-z
-x,-y,-z
x,1/2-y,1/2+z
loop_
_atom_site_type_symbol
_atom_site_label
_atom_site_fract_x
_atom_site_fract_y
_atom_site_fract_z
Si Si1 0.519129 0.416502 0.238043
Si Si2 0.842526 0.791157 0.228390
Si Si3 0.138298 0.501796 0.688447
Si Si4 0.630265 0.034933 0.165835
Si Si5 0.072874 0.426893 0.219006
Si Si6 0.592203 0.709403 0.888664
O O1 0.415755 0.463135 0.306720
O O2 0.565305 0.416814 0.510918
O O3 0.482760 0.347619 0.162638
O O4 0.616053 0.439580 0.978412
O O5 0.870175 0.732597 0.410707
O O6 0.912762 0.850965 0.281954
O O7 0.717059 0.812150 0.304069
O O8 0.246518 0.534457 0.509686
O O9 0.093639 0.451103 0.504991
O O10 0.050493 0.558113 0.791607
O O11 0.155009 0.462236 0.956267
O O12 0.566880 0.769568 0.710129
#
# Coordination Sequence:
#
# PCOD8124737 Si02
#       6
#     4   4   4   4   4   4
#     4  10  20  33  51  75 103 134 168 208 253 300
#     4  10  20  33  52  76 102 134 168 208 255 302
#     4  10  20  34  54  79 104 134 168 211 260 305
#     4  10  20  33  52  77 103 133 167 209 256 300
#     4  10  20  34  54  78 105 134 168 211 259 307
#     4  10  20  33  51  74 101 134 169 208 253 301
#
# _framework density 18.751093000000001
#
# number of rings (size 3 to 8) (size 9 to 14) (size 15 to 20)
#    0.000    2.000    0.000    4.000    0.000    5.333 
#    0.000    0.000    0.000    6.000    0.000    0.000 
#    0.000    0.000    0.000    0.000    0.000    0.000 
#
# Total GULP energy -297593.907908 kJ/mol
# GULP energy per Si atom -12399.746163 kJ/mol
# Density = 1.870842 g / cm^3
# Si number density = 18.751093 Si / 1000 Ang^3
#
#
#
# Elastic Constant Matrix: (Units=GPa)
#
#
# Indices 1 2 3 4 5 6 
#
# 1 50.6312 37.6473 15.9309 0.0000 -12.5169 0.0000
# 2 37.6473 82.7015 5.7859 0.0000 -4.9533 0.0000
# 3 15.9309 5.7859 76.6627 0.0000 -2.3094 0.0000
# 4 0.0000 0.0000 0.0000 15.1056 0.0000 7.9419
# 5 -12.5169 -4.9533 -2.3094 0.0000 30.2402 0.0000
# 6 0.0000 0.0000 0.0000 7.9419 0.0000 23.3324
#
#
#
# Elastic Compliance Matrix: (Units=1/GPa)
#
#
# Indices 1 2 3 4 5 6 
#
# 1 0.035864 -0.015197 -0.005947 0.000000 0.011901 0.000000
# 2 -0.015197 0.018708 0.001653 0.000000 -0.003100 0.000000
# 3 -0.005947 0.001653 0.014122 0.000000 -0.001113 0.000000
# 4 0.000000 0.000000 0.000000 0.080630 0.000000 -0.027445
# 5 0.011901 -0.003100 -0.001113 0.000000 0.037402 0.000000
# 6 0.000000 0.000000 0.000000 -0.027445 0.000000 0.052200
#
#
# Mechanical properties :
#
#
# Convention : Reuss Voigt Hill
#
# Bulk Modulus (GPa) = 33.65765 36.52484 35.09125
# Shear Modulus (GPa) = 17.37233 23.77774 20.57504
#
# Velocity S-wave (km/s) = 3.04710 3.56486 3.31610
# Velocity P-wave (km/s) = 5.51076 6.03866 5.78074
#
# Compressibility (1/GPa) = 0.02971093
#
# Stress axis : x y z
#
# Youngs Moduli (GPa) = 27.88296 53.45183 70.81262
#
# Poissons Ratio (x) = 0.81232 0.42114
# Poissons Ratio (y) = 0.42374 -0.11703
# Poissons Ratio (z) = 0.16583 -0.08834
#
# Static dielectric constant tensor:
#      x y z
#    x 3.264470 0.000000 0.148050 
#    y 0.000000 3.155540 0.000000 
#    z 0.148050 0.000000 3.694630 
# 
# 
# High freq. dielectric constant tensor:
#      x y z
#    x 1.706490 0.000000 0.015380 
#    y 0.000000 1.710300 0.000000 
#    z 0.015380 0.000000 1.750280 
# 
# From -- ./inp_files/2650.got.cif
#   From: 2010.03.12/outbox.cif.g09.slc.cpg/sg14_2_cif.got.tgz:2650.got - 2010.03.31 13:35:05.
