data_PCOD8124728
_publ_section_title
;
Structure prediction by ZEFSAII (Michael W. Deem and Ramdas Pophale) SiO2 
 PCOD8124728
Probable space group: P 21/C
;
_chemical_formula_sum "Si O2"
_cell_formula_units_Z 32
_cell_length_a 10.834453
_cell_length_b 17.562172
_cell_length_c 9.705656
_cell_angle_alpha 90.000000
_cell_angle_beta 99.519843
_cell_angle_gamma 90.000000
_cell_volume 1821.325664
_symmetry_space_group_name_H-M "P 21/C"
_symmetry_group_IT_number 14
_symmetry_cell_setting 'monoclinic'
loop_
_space_group_symop_operation_xyz
x,y,z
-x,1/2+y,1/2-z
-x,-y,-z
x,1/2-y,1/2+z
loop_
_atom_site_type_symbol
_atom_site_label
_atom_site_fract_x
_atom_site_fract_y
_atom_site_fract_z
Si Si1 0.859612 0.820396 0.423067
Si Si2 0.383959 0.614211 0.113863
Si Si3 0.258867 0.770997 0.148747
Si Si4 0.090176 0.744929 0.368342
Si Si5 0.155712 0.314796 0.759510
Si Si6 0.317167 0.049650 0.615138
Si Si7 0.650820 0.936952 0.700347
Si Si8 0.583551 0.399523 0.204371
O O1 0.825303 0.801973 0.574472
O O2 0.789614 0.758327 0.312834
O O3 0.809804 0.904423 0.371765
O O4 0.009625 0.813917 0.424977
O O5 0.316141 0.686905 0.164908
O O6 0.305957 0.539638 0.150787
O O7 0.522189 0.608488 0.206371
O O8 0.388088 0.621532 0.949205
O O9 0.156439 0.780849 0.248739
O O10 0.367856 0.832613 0.188233
O O11 0.191758 0.788451 0.991669
O O12 0.992616 0.677969 0.304825
O O13 0.230018 0.389651 0.722185
O O14 0.345635 0.051893 0.460585
O O15 0.436077 0.090464 0.708301
O O16 0.651341 0.021756 0.763902
#
# Coordination Sequence:
#
# PCOD8124728 Si02
#       8
#     4   4   4   4   4   4   4   4
#     4   9  17  32  55  73  99 132 168 216 248 289
#     4   9  18  32  54  79 104 129 168 215 250 307
#     4  12  20  33  52  74 107 139 166 203 260 300
#     4  10  20  33  48  74 107 134 176 208 237 305
#     4   9  17  32  55  72 100 133 169 213 246 292
#     4   8  16  33  54  80  99 126 175 216 250 290
#     4   8  16  33  54  79  99 130 172 211 255 297
#     4   9  18  32  54  78 105 130 167 212 254 309
#
# _framework density 17.56962
#
# number of rings (size 3 to 8) (size 9 to 14) (size 15 to 20)
#    0.750    2.000    2.500    1.500    1.750    0.000 
#    0.000    2.500    2.750    1.500    0.000    0.000 
#    0.000    0.000    0.000    0.000    0.000    0.000 
#
# Total GULP energy -396472.751236 kJ/mol
# GULP energy per Si atom -12389.773476 kJ/mol
# Density = 1.752963 g / cm^3
# Si number density = 17.569620 Si / 1000 Ang^3
#
#
#
# Elastic Constant Matrix: (Units=GPa)
#
#
# Indices 1 2 3 4 5 6 
#
# 1 61.2684 46.4380 16.4482 0.0000 12.7601 0.0000
# 2 46.4380 115.6462 27.8853 0.0000 13.5688 0.0000
# 3 16.4482 27.8853 49.5172 0.0000 6.6813 0.0000
# 4 0.0000 0.0000 0.0000 17.5931 0.0000 0.0144
# 5 12.7601 13.5688 6.6813 0.0000 25.0581 0.0000
# 6 0.0000 0.0000 0.0000 0.0144 0.0000 22.9395
#
#
#
# Elastic Compliance Matrix: (Units=1/GPa)
#
#
# Indices 1 2 3 4 5 6 
#
# 1 0.025045 -0.008586 -0.002480 0.000000 -0.007443 0.000000
# 2 -0.008586 0.013364 -0.004447 0.000000 -0.001679 0.000000
# 3 -0.002480 -0.004447 0.023887 0.000000 -0.002698 0.000000
# 4 0.000000 0.000000 0.000000 0.056841 0.000000 -0.000036
# 5 -0.007443 -0.001679 -0.002698 0.000000 0.045326 0.000000
# 6 0.000000 0.000000 0.000000 -0.000036 0.000000 0.043593
#
#
# Mechanical properties :
#
#
# Convention : Reuss Voigt Hill
#
# Bulk Modulus (GPa) = 31.97927 45.33052 38.65490
# Shear Modulus (GPa) = 20.03967 22.16215 21.10091
#
# Velocity S-wave (km/s) = 3.38092 3.55546 3.46929
# Velocity P-wave (km/s) = 5.78635 6.53541 6.17225
#
# Compressibility (1/GPa) = 0.03127026
#
# Stress axis : x y z
#
# Youngs Moduli (GPa) = 39.92827 74.82803 41.86305
#
# Poissons Ratio (x) = 0.64244 0.10382
# Poissons Ratio (y) = 0.34281 0.18618
# Poissons Ratio (z) = 0.09902 0.33279
#
# Static dielectric constant tensor:
#      x y z
#    x 3.267210 0.000000 0.118460 
#    y 0.000000 3.302200 0.000000 
#    z 0.118460 0.000000 2.992190 
# 
# 
# High freq. dielectric constant tensor:
#      x y z
#    x 1.674490 0.000000 0.009120 
#    y 0.000000 1.668360 0.000000 
#    z 0.009120 0.000000 1.651540 
# 
# From -- ./inp_files/13774.got.cif
#   From: 2010.03.12/outbox.cif.g09.slc.cpg/sg14_7_cif.got.tgz:13774.got - 2010.03.31 13:35:05.
