data_PCOD8124327
_publ_section_title
;
Structure prediction by ZEFSAII (Michael W. Deem and Ramdas Pophale) SiO2 
 PCOD8124327
Probable space group: P 21/C
;
_chemical_formula_sum "Si O2"
_cell_formula_units_Z 28
_cell_length_a 11.475375
_cell_length_b 11.687233
_cell_length_c 17.900229
_cell_angle_alpha 90.000000
_cell_angle_beta 142.125334
_cell_angle_gamma 90.000000
_cell_volume 1473.874293
_symmetry_space_group_name_H-M "P 21/C"
_symmetry_group_IT_number 14
_symmetry_cell_setting 'monoclinic'
loop_
_space_group_symop_operation_xyz
x,y,z
-x,1/2+y,1/2-z
-x,-y,-z
x,1/2-y,1/2+z
loop_
_atom_site_type_symbol
_atom_site_label
_atom_site_fract_x
_atom_site_fract_y
_atom_site_fract_z
Si Si1 0.825910 0.178319 0.983147
Si Si2 0.572726 0.097630 0.134098
Si Si3 0.748982 0.670913 0.273402
Si Si4 0.659331 0.424061 0.264075
Si Si5 0.106775 0.780686 0.632121
Si Si6 0.506385 0.336145 0.435353
Si Si7 0.320053 0.261084 0.098734
O O1 0.026880 0.147895 0.122220
O O2 0.740865 0.071200 0.891291
O O3 0.854629 0.283516 0.938696
O O4 0.682755 0.212120 0.976519
O O5 0.783775 0.113995 0.274621
O O6 0.412936 0.151423 0.106424
O O7 0.545289 0.963186 0.116135
O O8 0.560838 0.162645 0.049252
O O9 0.650117 0.547124 0.221393
O O10 0.670080 0.749360 0.166083
O O11 0.698170 0.735490 0.323442
O O12 0.800124 0.338183 0.289651
O O13 0.446759 0.374040 0.154241
O O14 0.885677 0.786383 0.540956
#
# Coordination Sequence:
#
# PCOD8124327 Si02
#       7
#     4   4   4   4   4   4   4
#     4   9  19  34  59  83 105 145 186 230 274 322
#     4  10  22  38  56  78 115 150 183 220 285 338
#     4  11  20  35  58  89 109 139 197 230 269 333
#     4   9  18  33  56  89 104 142 181 231 285 306
#     4   8  19  37  57  83 104 143 189 225 278 326
#     4  11  22  37  55  82 112 152 182 226 277 337
#     4  10  19  36  61  79 112 144 180 233 280 324
#
# _framework density 18.99755
#
# number of rings (size 3 to 8) (size 9 to 14) (size 15 to 20)
#    0.857    1.429    1.429    1.286    2.000    1.143 
#    2.571    4.286    0.000    0.000    0.000    0.000 
#    0.000    0.000    0.000    0.000    0.000    0.000 
#
# Total GULP energy -347012.010949 kJ/mol
# GULP energy per Si atom -12393.286105 kJ/mol
# Density = 1.895431 g / cm^3
# Si number density = 18.997550 Si / 1000 Ang^3
#
#
#
# Elastic Constant Matrix: (Units=GPa)
#
#
# Indices 1 2 3 4 5 6 
#
# 1 50.2697 22.8482 50.9770 0.0000 18.8177 0.0000
# 2 22.8482 62.3227 49.3520 0.0000 11.4250 0.0000
# 3 50.9770 49.3520 103.9337 0.0000 35.0419 0.0000
# 4 0.0000 0.0000 0.0000 23.7938 0.0000 -2.3420
# 5 18.8177 11.4250 35.0419 0.0000 34.2733 0.0000
# 6 0.0000 0.0000 0.0000 -2.3420 0.0000 17.5410
#
#
#
# Elastic Compliance Matrix: (Units=1/GPa)
#
#
# Indices 1 2 3 4 5 6 
#
# 1 0.039804 0.001034 -0.019121 0.000000 -0.002650 0.000000
# 2 0.001034 0.026568 -0.015177 0.000000 0.006093 0.000000
# 3 -0.019121 -0.015177 0.031988 0.000000 -0.017148 0.000000
# 4 0.000000 0.000000 0.000000 0.042587 0.000000 0.005686
# 5 -0.002650 0.006093 -0.017148 0.000000 0.046133 0.000000
# 6 0.000000 0.000000 0.000000 0.005686 0.000000 0.057768
#
#
# Mechanical properties :
#
#
# Convention : Reuss Voigt Hill
#
# Bulk Modulus (GPa) = 31.41407 51.43116 41.42262
# Shear Modulus (GPa) = 15.52855 21.34490 18.43673
#
# Velocity S-wave (km/s) = 2.86212 3.35559 3.11863
# Velocity P-wave (km/s) = 5.24348 6.49189 5.90079
#
# Compressibility (1/GPa) = 0.03183287
#
# Stress axis : x y z
#
# Youngs Moduli (GPa) = 25.12288 37.63965 31.26157
#
# Poissons Ratio (x) = -0.03894 0.59775
# Poissons Ratio (y) = -0.02599 0.47446
# Poissons Ratio (z) = 0.48037 0.57126
#
# Static dielectric constant tensor:
#      x y z
#    x 3.371990 0.000000 0.149610 
#    y 0.000000 3.177900 0.000000 
#    z 0.149610 0.000000 3.537900 
# 
# 
# High freq. dielectric constant tensor:
#      x y z
#    x 1.723140 0.000000 0.018380 
#    y 0.000000 1.717850 0.000000 
#    z 0.018380 0.000000 1.735840 
# 
# From -- ./inp_files/57602.got.cif
#   From: 2010.03.12/outbox.cif.g09.slc.cpg/sg14_29_cif.got.tgz:57602.got - 2010.03.31 13:35:05.
