data_PCOD8124200
_publ_section_title
;
Structure prediction by ZEFSAII (Michael W. Deem and Ramdas Pophale) SiO2 
 PCOD8124200
Probable space group: P 21/C
;
_chemical_formula_sum "Si O2"
_cell_formula_units_Z 20
_cell_length_a 6.759986
_cell_length_b 8.346559
_cell_length_c 19.511781
_cell_angle_alpha 90.000000
_cell_angle_beta 54.256123
_cell_angle_gamma 90.000000
_cell_volume 893.535271
_symmetry_space_group_name_H-M "P 21/C"
_symmetry_group_IT_number 14
_symmetry_cell_setting 'monoclinic'
loop_
_space_group_symop_operation_xyz
x,y,z
-x,1/2+y,1/2-z
-x,-y,-z
x,1/2-y,1/2+z
loop_
_atom_site_type_symbol
_atom_site_label
_atom_site_fract_x
_atom_site_fract_y
_atom_site_fract_z
Si Si1 0.490724 0.127767 0.062187
Si Si2 0.744714 0.437371 0.988676
Si Si3 0.412634 0.589856 0.703123
Si Si4 0.452534 0.059388 0.342524
Si Si5 0.879618 0.599906 0.838452
O O1 0.721816 0.245702 0.003621
O O2 0.239594 0.230228 0.114787
O O3 0.518805 0.040413 0.129289
O O4 0.500000 0.000000 0.000000
O O5 0.768531 0.517650 0.059574
O O6 0.500000 0.500000 0.000000
O O7 0.951659 0.494181 0.892767
O O8 0.564028 0.751350 0.663564
O O9 0.441800 0.530498 0.773661
O O10 0.127947 0.628848 0.746582
O O11 0.703217 0.001284 0.325812
#
# Coordination Sequence:
#
# PCOD8124200 Si02
#       5
#     4   4   4   4   4
#     4  10  19  35  59  83 113 150 184 228 285 334
#     4   8  17  36  56  78 112 148 180 225 279 328
#     4  12  22  36  60  85 113 149 189 234 278 332
#     4  10  21  37  56  83 116 146 185 232 282 330
#     4  10  21  38  61  84 111 149 190 231 278 333
#
# _framework density 22.382999000000002
#
# number of rings (size 3 to 8) (size 9 to 14) (size 15 to 20)
#    0.000    2.400    0.000    7.200    0.000    0.800 
#    0.000    2.000    0.000   19.200    0.000    0.000 
#    0.000    0.000    0.000    0.000    0.000    0.000 
#
# Total GULP energy -247896.253777 kJ/mol
# GULP energy per Si atom -12394.812689 kJ/mol
# Density = 2.233205 g / cm^3
# Si number density = 22.382999 Si / 1000 Ang^3
#
#
#
# Elastic Constant Matrix: (Units=GPa)
#
#
# Indices 1 2 3 4 5 6 
#
# 1 17.5220 14.6630 28.0911 0.0000 16.6710 0.0000
# 2 14.6630 177.8851 69.3574 0.0000 10.6297 0.0000
# 3 28.0911 69.3574 136.0316 0.0000 31.5463 0.0000
# 4 0.0000 0.0000 0.0000 54.4920 0.0000 13.6066
# 5 16.6710 10.6297 31.5463 0.0000 39.5032 0.0000
# 6 0.0000 0.0000 0.0000 13.6066 0.0000 20.6390
#
#
#
# Elastic Compliance Matrix: (Units=1/GPa)
#
#
# Indices 1 2 3 4 5 6 
#
# 1 0.117838 -0.001716 -0.014769 0.000000 -0.037474 0.000000
# 2 -0.001716 0.007087 -0.003663 0.000000 0.001742 0.000000
# 3 -0.014769 -0.003663 0.013003 0.000000 -0.003165 0.000000
# 4 0.000000 0.000000 0.000000 0.021968 0.000000 -0.014482
# 5 -0.037474 0.001742 -0.003165 0.000000 0.043188 0.000000
# 6 0.000000 0.000000 0.000000 -0.014482 0.000000 0.058000
#
#
# Mechanical properties :
#
#
# Convention : Reuss Voigt Hill
#
# Bulk Modulus (GPa) = 10.24251 61.74020 35.99136
# Shear Modulus (GPa) = 14.97351 37.54868 26.26109
#
# Velocity S-wave (km/s) = 2.58925 4.10024 3.42901
# Velocity P-wave (km/s) = 3.67762 7.07526 5.63845
#
# Compressibility (1/GPa) = 0.09763227
#
# Stress axis : x y z
#
# Youngs Moduli (GPa) = 8.48622 141.09895 76.90575
#
# Poissons Ratio (x) = 0.24207 1.13583
# Poissons Ratio (y) = 0.01456 0.28173
# Poissons Ratio (z) = 0.12533 0.51689
#
# Static dielectric constant tensor:
#      x y z
#    x 3.755520 0.000000 -0.107900 
#    y 0.000000 4.178180 0.000000 
#    z -0.107900 0.000000 4.913490 
# 
# 
# High freq. dielectric constant tensor:
#      x y z
#    x 1.859960 0.000000 0.013150 
#    y 0.000000 1.885740 0.000000 
#    z 0.013150 0.000000 1.906680 
# 
# From -- ./inp_files/54442.got.cif
#   From: 2010.03.12/outbox.cif.g09.slc.cpg/sg14_28_cif.got.tgz:54442.got - 2010.03.31 13:35:05.
