data_PCOD8124108
_publ_section_title
;
Structure prediction by ZEFSAII (Michael W. Deem and Ramdas Pophale) SiO2 
 PCOD8124108
Probable space group: P 21/C
;
_chemical_formula_sum "Si O2"
_cell_formula_units_Z 32
_cell_length_a 16.589207
_cell_length_b 6.644865
_cell_length_c 21.320645
_cell_angle_alpha 90.000000
_cell_angle_beta 141.063899
_cell_angle_gamma 90.000000
_cell_volume 1477.015766
_symmetry_space_group_name_H-M "P 21/C"
_symmetry_group_IT_number 14
_symmetry_cell_setting 'monoclinic'
loop_
_space_group_symop_operation_xyz
x,y,z
-x,1/2+y,1/2-z
-x,-y,-z
x,1/2-y,1/2+z
loop_
_atom_site_type_symbol
_atom_site_label
_atom_site_fract_x
_atom_site_fract_y
_atom_site_fract_z
Si Si1 0.725887 0.005077 0.220354
Si Si2 0.693447 0.511624 0.080135
Si Si3 0.435904 0.362989 0.871281
Si Si4 0.100578 0.782942 0.359965
Si Si5 0.110768 0.262489 0.089645
Si Si6 0.840899 0.387057 0.965709
Si Si7 0.176619 0.403419 0.347785
Si Si8 0.725340 0.382673 0.306105
O O1 0.593000 0.877088 0.150201
O O2 0.839196 0.870197 0.317339
O O3 0.752590 0.034677 0.162937
O O4 0.726598 0.225807 0.249430
O O5 0.651561 0.536940 0.126827
O O6 0.824213 0.386033 0.152237
O O7 0.724764 0.731837 0.069736
O O8 0.584856 0.400337 0.973617
O O9 0.397121 0.472952 0.782023
O O10 0.147912 0.883157 0.453112
O O11 0.138146 0.546387 0.382449
O O12 0.950012 0.802059 0.258470
O O13 0.167309 0.380776 0.062524
O O14 0.150888 0.029428 0.115056
O O15 0.957863 0.279538 0.999643
O O16 0.719904 0.251907 0.866883
#
# Coordination Sequence:
#
# PCOD8124108 Si02
#       8
#     4   4   4   4   4   4   4   4
#     4   9  18  34  59  89 116 148 198 255 300 367
#     4  10  22  41  59  88 118 160 200 255 309 369
#     4   9  20  39  65  83 117 155 208 254 300 363
#     4  12  23  37  57  85 124 159 194 251 319 377
#     4   9  18  35  54  84 119 158 196 253 296 361
#     4  10  21  34  54  84 123 157 203 246 307 373
#     4  11  22  36  57  88 122 157 196 245 318 379
#     4  10  19  34  60  87 111 152 205 250 306 358
#
# _framework density 21.665306999999999
#
# number of rings (size 3 to 8) (size 9 to 14) (size 15 to 20)
#    0.000    2.000    2.500    1.125    0.000    3.000 
#    0.000    3.750   11.000    0.000    0.000    0.000 
#    0.000    0.000    0.000    0.000    0.000    0.000 
#
# Total GULP energy -396498.161752 kJ/mol
# GULP energy per Si atom -12390.567555 kJ/mol
# Density = 2.161600 g / cm^3
# Si number density = 21.665307 Si / 1000 Ang^3
#
#
#
# Elastic Constant Matrix: (Units=GPa)
#
#
# Indices 1 2 3 4 5 6 
#
# 1 46.6852 27.3124 17.3090 0.0000 -1.8440 0.0000
# 2 27.3124 133.6069 33.0195 0.0000 -3.4541 0.0000
# 3 17.3090 33.0195 71.9534 0.0000 -2.6356 0.0000
# 4 0.0000 0.0000 0.0000 42.5912 0.0000 -4.7930
# 5 -1.8440 -3.4541 -2.6356 0.0000 19.7221 0.0000
# 6 0.0000 0.0000 0.0000 -4.7930 0.0000 20.5747
#
#
#
# Elastic Compliance Matrix: (Units=1/GPa)
#
#
# Indices 1 2 3 4 5 6 
#
# 1 0.025434 -0.004138 -0.004179 0.000000 0.001095 0.000000
# 2 -0.004138 0.009134 -0.003167 0.000000 0.000790 0.000000
# 3 -0.004179 -0.003167 0.016402 0.000000 0.001246 0.000000
# 4 0.000000 0.000000 0.000000 0.024111 0.000000 0.005617
# 5 0.001095 0.000790 0.001246 0.000000 0.051112 0.000000
# 6 0.000000 0.000000 0.000000 0.005617 0.000000 0.049912
#
#
# Mechanical properties :
#
#
# Convention : Reuss Voigt Hill
#
# Bulk Modulus (GPa) = 35.71318 45.28083 40.49701
# Shear Modulus (GPa) = 23.99152 28.21790 26.10471
#
# Velocity S-wave (km/s) = 3.33133 3.61286 3.47494
# Velocity P-wave (km/s) = 5.59614 6.19267 5.90195
#
# Compressibility (1/GPa) = 0.02800087
#
# Stress axis : x y z
#
# Youngs Moduli (GPa) = 39.31787 109.48475 60.96713
#
# Poissons Ratio (x) = 0.45306 0.25480
# Poissons Ratio (y) = 0.16270 0.19309
# Poissons Ratio (z) = 0.16432 0.34675
#
# Static dielectric constant tensor:
#      x y z
#    x 3.436950 0.000000 -0.022770 
#    y 0.000000 4.091640 0.000000 
#    z -0.022770 0.000000 3.865530 
# 
# 
# High freq. dielectric constant tensor:
#      x y z
#    x 1.800400 0.000000 -0.004850 
#    y 0.000000 1.868440 0.000000 
#    z -0.004850 0.000000 1.847740 
# 
# From -- ./inp_files/74077.got.cif
#   From: 2010.03.12/outbox.cif.g09.slc.cpg/sg14_38_cif.got.tgz:74077.got - 2010.03.31 13:35:05.
