data_PCOD8124094
_publ_section_title
;
Structure prediction by ZEFSAII (Michael W. Deem and Ramdas Pophale) SiO2 
 PCOD8124094
Probable space group: P 21/C
;
_chemical_formula_sum "Si O2"
_cell_formula_units_Z 32
_cell_length_a 14.924114
_cell_length_b 15.868139
_cell_length_c 8.862482
_cell_angle_alpha 90.000000
_cell_angle_beta 45.714056
_cell_angle_gamma 90.000000
_cell_volume 1502.451540
_symmetry_space_group_name_H-M "P 21/C"
_symmetry_group_IT_number 14
_symmetry_cell_setting 'monoclinic'
loop_
_space_group_symop_operation_xyz
x,y,z
-x,1/2+y,1/2-z
-x,-y,-z
x,1/2-y,1/2+z
loop_
_atom_site_type_symbol
_atom_site_label
_atom_site_fract_x
_atom_site_fract_y
_atom_site_fract_z
Si Si1 0.207504 0.426135 0.849538
Si Si2 0.657359 0.086205 0.829522
Si Si3 0.973375 0.681096 0.092530
Si Si4 0.141433 0.765744 0.648245
Si Si5 0.690836 0.221257 0.299384
Si Si6 0.408196 0.326725 0.157908
Si Si7 0.566955 0.560049 0.607078
Si Si8 0.744556 0.701548 0.954416
O O1 0.222213 0.527201 0.854039
O O2 0.086027 0.408085 0.887738
O O3 0.329694 0.390718 0.615719
O O4 0.200654 0.376678 0.015202
O O5 0.702638 0.178135 0.819935
O O6 0.568587 0.091680 0.787042
O O7 0.582242 0.041009 0.058118
O O8 0.861597 0.745426 0.259427
O O9 0.062273 0.671169 0.133886
O O10 0.047156 0.714016 0.861138
O O11 0.225550 0.702063 0.446680
O O12 0.239100 0.819765 0.637215
O O13 0.549314 0.194664 0.443070
O O14 0.412477 0.415995 0.242091
O O15 0.353322 0.255286 0.332044
O O16 0.326140 0.338104 0.105897
#
# Coordination Sequence:
#
# PCOD8124094 Si02
#       8
#     4   4   4   4   4   4   4   4
#     4  10  19  34  58  89 116 151 190 245 308 352
#     4   9  19  37  61  82 129 160 195 229 311 385
#     4  11  19  36  58  86 115 143 202 259 295 330
#     4  10  23  37  57  83 113 156 211 249 277 340
#     4  11  22  39  60  85 119 167 195 245 294 366
#     4  12  21  33  61  95 120 148 204 244 310 364
#     4   9  19  35  56  91 123 155 183 249 298 378
#     4  12  19  31  59  93 115 144 186 266 311 341
#
# _framework density 21.298522999999999
#
# number of rings (size 3 to 8) (size 9 to 14) (size 15 to 20)
#    0.750    0.750    3.750    3.000    0.000    0.000 
#    0.000    3.125    5.500    0.750    0.000    0.000 
#    0.000    0.000    0.000    0.000    0.000    0.000 
#
# Total GULP energy -396499.524166 kJ/mol
# GULP energy per Si atom -12390.610130 kJ/mol
# Density = 2.125005 g / cm^3
# Si number density = 21.298523 Si / 1000 Ang^3
#
#
#
# Elastic Constant Matrix: (Units=GPa)
#
#
# Indices 1 2 3 4 5 6 
#
# 1 97.3023 -0.3719 27.3427 0.0000 8.2959 0.0000
# 2 -0.3719 47.1737 6.4240 0.0000 -2.0420 0.0000
# 3 27.3427 6.4240 105.4625 0.0000 -7.6324 0.0000
# 4 0.0000 0.0000 0.0000 17.7672 0.0000 -4.9389
# 5 8.2959 -2.0420 -7.6324 0.0000 35.0957 0.0000
# 6 0.0000 0.0000 0.0000 -4.9389 0.0000 19.1982
#
#
#
# Elastic Compliance Matrix: (Units=1/GPa)
#
#
# Indices 1 2 3 4 5 6 
#
# 1 0.011480 0.000385 -0.003246 0.000000 -0.003397 0.000000
# 2 0.000385 0.021421 -0.001342 0.000000 0.000863 0.000000
# 3 -0.003246 -0.001342 0.010622 0.000000 0.002999 0.000000
# 4 0.000000 0.000000 0.000000 0.060618 0.000000 0.015595
# 5 -0.003397 0.000863 0.002999 0.000000 0.029999 0.000000
# 6 0.000000 0.000000 0.000000 0.015595 0.000000 0.056100
#
#
# Mechanical properties :
#
#
# Convention : Reuss Voigt Hill
#
# Bulk Modulus (GPa) = 28.47462 35.19202 31.83332
# Shear Modulus (GPa) = 23.76950 28.84845 26.30898
#
# Velocity S-wave (km/s) = 3.34431 3.68432 3.51842
# Velocity P-wave (km/s) = 5.32079 5.88711 5.61110
#
# Compressibility (1/GPa) = 0.03511899
#
# Stress axis : x y z
#
# Youngs Moduli (GPa) = 87.10447 46.68222 94.14081
#
# Poissons Ratio (x) = -0.01799 0.30556
# Poissons Ratio (y) = -0.03357 0.12636
# Poissons Ratio (z) = 0.28273 0.06266
#
# Static dielectric constant tensor:
#      x y z
#    x 4.178960 0.000000 -0.076370 
#    y 0.000000 3.472620 0.000000 
#    z -0.076370 0.000000 3.980100 
# 
# 
# High freq. dielectric constant tensor:
#      x y z
#    x 1.855280 0.000000 -0.007170 
#    y 0.000000 1.786490 0.000000 
#    z -0.007170 0.000000 1.838570 
# 
# From -- ./inp_files/16771.got.cif
#   From: 2010.03.12/outbox.cif.g09.slc.cpg/sg14_9_cif.got.tgz:16771.got - 2010.03.31 13:35:05.
