data_PCOD8124611
_publ_section_title
;
Structure prediction by ZEFSAII (Michael W. Deem and Ramdas Pophale) SiO2 
 PCOD8124611
Probable space group: P 21/C
;
_chemical_formula_sum "Si O2"
_cell_formula_units_Z 20
_cell_length_a 14.408524
_cell_length_b 14.275777
_cell_length_c 10.206678
_cell_angle_alpha 90.000000
_cell_angle_beta 26.825184
_cell_angle_gamma 90.000000
_cell_volume 947.414354
_symmetry_space_group_name_H-M "P 21/C"
_symmetry_group_IT_number 14
_symmetry_cell_setting 'monoclinic'
loop_
_space_group_symop_operation_xyz
x,y,z
-x,1/2+y,1/2-z
-x,-y,-z
x,1/2-y,1/2+z
loop_
_atom_site_type_symbol
_atom_site_label
_atom_site_fract_x
_atom_site_fract_y
_atom_site_fract_z
Si Si1 0.299851 0.082985 0.330390
Si Si2 0.846089 0.176695 0.301080
Si Si3 0.918673 0.524751 0.351937
Si Si4 0.550815 0.929332 0.132285
Si Si5 0.938299 0.324410 0.398402
O O1 0.396064 0.120095 0.073745
O O2 0.183917 0.166451 0.555301
O O3 0.129941 0.001784 0.508385
O O4 0.474827 0.035945 0.200823
O O5 0.024020 0.101897 0.111335
O O6 0.622069 0.129936 0.575799
O O7 0.833535 0.259590 0.422046
O O8 0.902661 0.218966 0.087147
O O9 0.752815 0.569768 0.465769
O O10 0.835562 0.428894 0.524901
#
# Coordination Sequence:
#
# PCOD8124611 Si02
#       5
#     4   4   4   4   4
#     4   8  20  38  63  93 127 161 207 257 321 369
#     4  11  24  43  62  96 130 165 218 257 318 379
#     4   9  21  41  69  87 128 167 212 257 326 359
#     4  10  19  39  67  95 121 167 214 260 308 388
#     4  10  24  44  62  90 137 167 205 272 313 376
#
# _framework density 21.110087
#
# number of rings (size 3 to 8) (size 9 to 14) (size 15 to 20)
#    1.200    1.200    0.000    1.200    2.800    4.000 
#    7.200    0.000    0.000    0.000    0.000    0.000 
#    0.000    0.000    0.000    0.000    0.000    0.000 
#
# Total GULP energy -247858.835561 kJ/mol
# GULP energy per Si atom -12392.941778 kJ/mol
# Density = 2.106204 g / cm^3
# Si number density = 21.110087 Si / 1000 Ang^3
#
#
#
# Elastic Constant Matrix: (Units=GPa)
#
#
# Indices 1 2 3 4 5 6 
#
# 1 104.2303 26.0029 50.5342 0.0000 17.7889 0.0000
# 2 26.0029 66.8436 5.7482 0.0000 7.8470 0.0000
# 3 50.5342 5.7482 85.4022 0.0000 9.1303 0.0000
# 4 0.0000 0.0000 0.0000 16.0963 0.0000 4.3091
# 5 17.7889 7.8470 9.1303 0.0000 41.8129 0.0000
# 6 0.0000 0.0000 0.0000 4.3091 0.0000 21.3284
#
#
#
# Elastic Compliance Matrix: (Units=1/GPa)
#
#
# Indices 1 2 3 4 5 6 
#
# 1 0.015581 -0.004879 -0.008478 0.000000 -0.003862 0.000000
# 2 -0.004879 0.016871 0.001913 0.000000 -0.001508 0.000000
# 3 -0.008478 0.001913 0.016639 0.000000 -0.000385 0.000000
# 4 0.000000 0.000000 0.000000 0.065678 0.000000 -0.013269
# 5 -0.003862 -0.001508 -0.000385 0.000000 0.025926 0.000000
# 6 0.000000 0.000000 0.000000 -0.013269 0.000000 0.049567
#
#
# Mechanical properties :
#
#
# Convention : Reuss Voigt Hill
#
# Bulk Modulus (GPa) = 38.16615 46.78298 42.47456
# Shear Modulus (GPa) = 22.53432 27.46026 24.99729
#
# Velocity S-wave (km/s) = 3.27076 3.61059 3.44487
# Velocity P-wave (km/s) = 5.69057 6.29217 5.99892
#
# Compressibility (1/GPa) = 0.02620123
#
# Stress axis : x y z
#
# Youngs Moduli (GPa) = 64.18118 59.27426 60.10148
#
# Poissons Ratio (x) = 0.28918 0.50956
# Poissons Ratio (y) = 0.31312 -0.11495
# Poissons Ratio (z) = 0.54415 -0.11336
#
# Static dielectric constant tensor:
#      x y z
#    x 3.483750 0.000000 0.012270 
#    y 0.000000 3.538100 0.000000 
#    z 0.012270 0.000000 3.728360 
# 
# 
# High freq. dielectric constant tensor:
#      x y z
#    x 1.815180 0.000000 0.001820 
#    y 0.000000 1.803050 0.000000 
#    z 0.001820 0.000000 1.823670 
# 
# From -- ./inp_files/32090.got.cif
#   From: 2010.03.12/outbox.cif.g09.slc.cpg/sg14_17_cif.got.tgz:32090.got - 2010.03.31 13:35:05.
