data_PCOD8124514
_publ_section_title
;
Structure prediction by ZEFSAII (Michael W. Deem and Ramdas Pophale) SiO2 
 PCOD8124514
Probable space group: P 21/C
;
_chemical_formula_sum "Si O2"
_cell_formula_units_Z 24
_cell_length_a 9.452811
_cell_length_b 13.951659
_cell_length_c 12.416764
_cell_angle_alpha 90.000000
_cell_angle_beta 131.112730
_cell_angle_gamma 90.000000
_cell_volume 1233.760475
_symmetry_space_group_name_H-M "P 21/C"
_symmetry_group_IT_number 14
_symmetry_cell_setting 'monoclinic'
loop_
_space_group_symop_operation_xyz
x,y,z
-x,1/2+y,1/2-z
-x,-y,-z
x,1/2-y,1/2+z
loop_
_atom_site_type_symbol
_atom_site_label
_atom_site_fract_x
_atom_site_fract_y
_atom_site_fract_z
Si Si1 0.665704 0.674607 0.803974
Si Si2 0.818824 0.993040 0.150268
Si Si3 0.952506 0.362527 0.113875
Si Si4 0.319789 0.809505 0.971932
Si Si5 0.424277 0.341581 0.597808
Si Si6 0.302264 0.532080 0.170777
O O1 0.472197 0.689564 0.642792
O O2 0.689988 0.753065 0.909664
O O3 0.659598 0.571802 0.863029
O O4 0.845073 0.683039 0.814019
O O5 0.021317 0.944733 0.279690
O O6 0.815272 0.095676 0.088001
O O7 0.713564 0.008171 0.210419
O O8 0.713497 0.914862 0.027347
O O9 0.812016 0.282532 0.084817
O O10 0.878483 0.416841 0.970517
O O11 0.419979 0.801896 0.906847
O O12 0.522541 0.395410 0.748720
#
# Coordination Sequence:
#
# PCOD8124514 Si02
#       6
#     4   4   4   4   4   4
#     4  11  21  39  61  89 121 155 197 247 294 346
#     4  10  20  38  63  86 114 161 204 233 287 365
#     4  11  23  37  63  93 118 149 207 245 287 352
#     4  11  21  41  60  88 122 155 196 247 296 349
#     4  11  20  37  67  84 116 162 197 238 298 349
#     4  10  19  38  61  88 114 159 200 239 284 361
#
# _framework density 19.452722000000001
#
# number of rings (size 3 to 8) (size 9 to 14) (size 15 to 20)
#    0.000    1.333    6.667    3.000    0.000    4.000 
#    0.000    3.333    0.000    0.000    0.000    0.000 
#    0.000    0.000    0.000    0.000    0.000    0.000 
#
# Total GULP energy -297385.381535 kJ/mol
# GULP energy per Si atom -12391.057564 kJ/mol
# Density = 1.940845 g / cm^3
# Si number density = 19.452722 Si / 1000 Ang^3
#
#
#
# Elastic Constant Matrix: (Units=GPa)
#
#
# Indices 1 2 3 4 5 6 
#
# 1 16.2466 -2.5136 0.0118 0.0000 1.8322 0.0000
# 2 -2.5136 65.0157 25.0056 0.0000 0.2915 0.0000
# 3 0.0118 25.0056 104.7688 0.0000 7.1859 0.0000
# 4 0.0000 0.0000 0.0000 21.1367 0.0000 36.3453
# 5 1.8322 0.2915 7.1859 0.0000 10.6510 0.0000
# 6 0.0000 0.0000 0.0000 36.3453 0.0000 -13.3933
#
#
#
# Elastic Compliance Matrix: (Units=1/GPa)
#
#
# Indices 1 2 3 4 5 6 
#
# 1 0.063173 0.002426 0.000172 0.000000 -0.011049 0.000000
# 2 0.002426 0.017086 -0.004213 0.000000 0.001957 0.000000
# 3 0.000172 -0.004213 0.011056 0.000000 -0.007373 0.000000
# 4 0.000000 0.000000 0.000000 0.008350 0.000000 0.022658
# 5 -0.011049 0.001957 -0.007373 0.000000 0.100710 0.000000
# 6 0.000000 0.000000 0.000000 0.022658 0.000000 -0.013177
#
#
# Mechanical properties :
#
#
# Convention : Reuss Voigt Hill
#
# Bulk Modulus (GPa) = 11.35269 25.67098 18.51183
# Shear Modulus (GPa) = 22.74911 14.58070 18.66491
#
# Velocity S-wave (km/s) = 3.42344 2.74075 3.10094
# Velocity P-wave (km/s) = 4.63415 4.82088 4.72844
#
# Compressibility (1/GPa) = 0.08808486
#
# Stress axis : x y z
#
# Youngs Moduli (GPa) = 15.82963 58.52721 90.44900
#
# Poissons Ratio (x) = -0.14198 -0.01553
# Poissons Ratio (y) = -0.03840 0.38102
# Poissons Ratio (z) = -0.00272 0.24655
#
# Static dielectric constant tensor:
#      x y z
#    x 3.032170 0.000000 0.083680 
#    y 0.000000 4.158430 0.000000 
#    z 0.083680 0.000000 3.827600 
# 
# 
# High freq. dielectric constant tensor:
#      x y z
#    x 1.694220 0.000000 0.008110 
#    y 0.000000 1.781700 0.000000 
#    z 0.008110 0.000000 1.778210 
# 
# From -- ./inp_files/40579.got.cif
#   From: 2010.03.12/outbox.cif.g09.slc.cpg/sg14_21_cif.got.tgz:40579.got - 2010.03.31 13:35:05.
