data_PCOD8124705
_publ_section_title
;
Structure prediction by ZEFSAII (Michael W. Deem and Ramdas Pophale) SiO2 
 PCOD8124705
Probable space group: P 21/C
;
_chemical_formula_sum "Si O2"
_cell_formula_units_Z 28
_cell_length_a 6.368930
_cell_length_b 11.642784
_cell_length_c 18.668894
_cell_angle_alpha 90.000000
_cell_angle_beta 66.690806
_cell_angle_gamma 90.000000
_cell_volume 1271.351658
_symmetry_space_group_name_H-M "P 21/C"
_symmetry_group_IT_number 14
_symmetry_cell_setting 'monoclinic'
loop_
_space_group_symop_operation_xyz
x,y,z
-x,1/2+y,1/2-z
-x,-y,-z
x,1/2-y,1/2+z
loop_
_atom_site_type_symbol
_atom_site_label
_atom_site_fract_x
_atom_site_fract_y
_atom_site_fract_z
Si Si1 0.953866 0.241639 0.379269
Si Si2 0.602131 0.078281 0.886529
Si Si3 0.445953 0.591218 0.111917
Si Si4 0.448339 0.232247 0.785976
Si Si5 0.385893 0.848107 0.385622
Si Si6 0.375371 0.159670 0.060628
Si Si7 0.903512 0.812424 0.486572
O O1 0.839420 0.355303 0.363204
O O2 0.788665 0.129218 0.396018
O O3 0.187531 0.232931 0.301899
O O4 0.030646 0.257434 0.450970
O O5 0.469935 0.118055 0.832837
O O6 0.654975 0.941938 0.877184
O O7 0.448066 0.108879 0.974867
O O8 0.444761 0.659312 0.186839
O O9 0.443138 0.455523 0.127572
O O10 0.668960 0.617099 0.032474
O O11 0.585702 0.208466 0.695570
O O12 0.437608 0.750302 0.437079
O O13 0.121682 0.889063 0.432349
O O14 0.138571 0.224915 0.074326
#
# Coordination Sequence:
#
# PCOD8124705 Si02
#       7
#     4   4   4   4   4   4   4
#     4  10  19  44  66  87 128 173 215 263 339 392
#     4  10  21  43  64  93 131 169 221 272 322 397
#     4  10  23  44  67  94 130 174 218 275 331 399
#     4  10  24  44  65  92 129 179 212 271 352 382
#     4  12  26  41  66 101 132 169 229 276 327 411
#     4  11  23  38  66 101 126 165 227 269 318 401
#     4  11  21  42  67 100 126 172 221 274 334 391
#
# _framework density 22.023803999999998
#
# number of rings (size 3 to 8) (size 9 to 14) (size 15 to 20)
#    0.000    1.429    5.714    0.429    2.000    8.571 
#    2.571    0.000    0.000    0.000    0.000    0.000 
#    0.000    0.000    0.000    0.000    0.000    0.000 
#
# Total GULP energy -347045.938511 kJ/mol
# GULP energy per Si atom -12394.497804 kJ/mol
# Density = 2.197368 g / cm^3
# Si number density = 22.023804 Si / 1000 Ang^3
#
#
#
# Elastic Constant Matrix: (Units=GPa)
#
#
# Indices 1 2 3 4 5 6 
#
# 1 98.5960 8.6202 24.3863 0.0000 -3.3917 0.0000
# 2 8.6202 92.0232 2.9763 0.0000 8.8070 0.0000
# 3 24.3863 2.9763 76.8123 0.0000 -9.5944 0.0000
# 4 0.0000 0.0000 0.0000 14.6880 0.0000 -0.0507
# 5 -3.3917 8.8070 -9.5944 0.0000 20.1691 0.0000
# 6 0.0000 0.0000 0.0000 -0.0507 0.0000 26.7802
#
#
#
# Elastic Compliance Matrix: (Units=1/GPa)
#
#
# Indices 1 2 3 4 5 6 
#
# 1 0.011093 -0.000995 -0.003398 0.000000 0.000683 0.000000
# 2 -0.000995 0.011522 -0.000829 0.000000 -0.005593 0.000000
# 3 -0.003398 -0.000829 0.014994 0.000000 0.006924 0.000000
# 4 0.000000 0.000000 0.000000 0.068083 0.000000 0.000129
# 5 0.000683 -0.005593 0.006924 0.000000 0.055431 0.000000
# 6 0.000000 0.000000 0.000000 0.000129 0.000000 0.037341
#
#
# Mechanical properties :
#
#
# Convention : Reuss Voigt Hill
#
# Bulk Modulus (GPa) = 36.81067 37.71078 37.26072
# Shear Modulus (GPa) = 22.93947 27.75738 25.34843
#
# Velocity S-wave (km/s) = 3.23085 3.55397 3.39625
# Velocity P-wave (km/s) = 5.53788 5.83103 5.68634
#
# Compressibility (1/GPa) = 0.02716604
#
# Stress axis : x y z
#
# Youngs Moduli (GPa) = 90.14440 86.78975 66.69124
#
# Poissons Ratio (x) = 0.08633 0.22662
# Poissons Ratio (y) = 0.08966 0.05530
# Poissons Ratio (z) = 0.30631 0.07197
#
# Static dielectric constant tensor:
#      x y z
#    x 4.229980 0.000000 0.042930 
#    y 0.000000 4.129510 0.000000 
#    z 0.042930 0.000000 3.743360 
# 
# 
# High freq. dielectric constant tensor:
#      x y z
#    x 1.875990 0.000000 0.009040 
#    y 0.000000 1.853230 0.000000 
#    z 0.009040 0.000000 1.846610 
# 
# From -- ./inp_files/63282.got.cif
#   From: 2010.03.12/outbox.cif.g09.slc.cpg/sg14_32_cif.got.tgz:63282.got - 2010.03.31 13:35:05.
