data_PCOD8124256
_publ_section_title
;
Structure prediction by ZEFSAII (Michael W. Deem and Ramdas Pophale) SiO2 
 PCOD8124256
Probable space group: P 21/C
;
_chemical_formula_sum "Si O2"
_cell_formula_units_Z 28
_cell_length_a 16.179294
_cell_length_b 11.456363
_cell_length_c 15.588109
_cell_angle_alpha 90.000000
_cell_angle_beta 27.622137
_cell_angle_gamma 90.000000
_cell_volume 1339.612411
_symmetry_space_group_name_H-M "P 21/C"
_symmetry_group_IT_number 14
_symmetry_cell_setting 'monoclinic'
loop_
_space_group_symop_operation_xyz
x,y,z
-x,1/2+y,1/2-z
-x,-y,-z
x,1/2-y,1/2+z
loop_
_atom_site_type_symbol
_atom_site_label
_atom_site_fract_x
_atom_site_fract_y
_atom_site_fract_z
Si Si1 0.759269 0.232433 0.393124
Si Si2 0.867108 0.498568 0.000133
Si Si3 0.106236 0.132213 0.161994
Si Si4 0.637741 0.506170 0.046829
Si Si5 0.908333 0.661051 0.708374
Si Si6 0.050722 0.811216 0.439496
Si Si7 0.280876 0.924122 0.934818
O O1 0.787427 0.263817 0.267461
O O2 0.687709 0.345754 0.509419
O O3 0.951873 0.185211 0.245430
O O4 0.615609 0.129352 0.539990
O O5 0.700445 0.515628 0.089323
O O6 0.848269 0.386225 0.079712
O O7 0.034886 0.475659 0.784759
O O8 0.907101 0.614111 0.017576
O O9 0.178407 0.236728 0.153690
O O10 0.261669 0.064506 0.968759
O O11 0.452986 0.578111 0.213782
O O12 0.774746 0.554695 0.848202
O O13 0.928123 0.707763 0.592798
O O14 0.109887 0.627407 0.545264
#
# Coordination Sequence:
#
# PCOD8124256 Si02
#       7
#     4   4   4   4   4   4   4
#     4  10  20  38  60  90 121 158 201 251 302 358
#     4   9  17  37  61  93 110 159 209 248 293 357
#     4   9  17  36  64  81 113 157 204 243 290 348
#     4  11  23  39  62  90 119 161 215 239 297 368
#     4  10  21  38  60  88 119 160 197 249 306 361
#     4  10  19  35  67  84 129 159 192 256 318 347
#     4  11  21  39  63  87 119 159 207 255 288 357
#
# _framework density 20.901568999999999
#
# number of rings (size 3 to 8) (size 9 to 14) (size 15 to 20)
#    0.000    2.000    4.286    1.714    2.000    0.571 
#    0.000    2.857    0.000    0.000    0.000    0.000 
#    0.000    0.000    0.000    0.000    0.000    0.000 
#
# Total GULP energy -346921.108414 kJ/mol
# GULP energy per Si atom -12390.039586 kJ/mol
# Density = 2.085400 g / cm^3
# Si number density = 20.901569 Si / 1000 Ang^3
#
#
#
# Elastic Constant Matrix: (Units=GPa)
#
#
# Indices 1 2 3 4 5 6 
#
# 1 36.6788 15.9427 34.0833 0.0000 13.4008 0.0000
# 2 15.9427 86.4667 42.3677 0.0000 -0.9106 0.0000
# 3 34.0833 42.3677 113.5711 0.0000 7.5592 0.0000
# 4 0.0000 0.0000 0.0000 35.2390 0.0000 10.1091
# 5 13.4008 -0.9106 7.5592 0.0000 23.7364 0.0000
# 6 0.0000 0.0000 0.0000 10.1091 0.0000 25.7149
#
#
#
# Elastic Compliance Matrix: (Units=1/GPa)
#
#
# Indices 1 2 3 4 5 6 
#
# 1 0.048176 -0.003449 -0.011598 0.000000 -0.023637 0.000000
# 2 -0.003449 0.014520 -0.004647 0.000000 0.003984 0.000000
# 3 -0.011598 -0.004647 0.013890 0.000000 0.001946 0.000000
# 4 0.000000 0.000000 0.000000 0.031985 0.000000 -0.012574
# 5 -0.023637 0.003984 0.001946 0.000000 0.055007 0.000000
# 6 0.000000 0.000000 0.000000 -0.012574 0.000000 0.043831
#
#
# Mechanical properties :
#
#
# Convention : Reuss Voigt Hill
#
# Bulk Modulus (GPa) = 26.88284 46.83379 36.85831
# Shear Modulus (GPa) = 19.29044 26.55957 22.92501
#
# Velocity S-wave (km/s) = 3.04125 3.56855 3.31540
# Velocity P-wave (km/s) = 5.02214 6.27972 5.68580
#
# Compressibility (1/GPa) = 0.03719846
#
# Stress axis : x y z
#
# Youngs Moduli (GPa) = 20.75713 68.87116 71.99587
#
# Poissons Ratio (x) = 0.23751 0.83502
# Poissons Ratio (y) = 0.07158 0.33455
# Poissons Ratio (z) = 0.24074 0.32003
#
# Static dielectric constant tensor:
#      x y z
#    x 3.584090 0.000000 0.384330 
#    y 0.000000 4.048190 0.000000 
#    z 0.384330 0.000000 3.603830 
# 
# 
# High freq. dielectric constant tensor:
#      x y z
#    x 1.778630 0.000000 0.025870 
#    y 0.000000 1.837870 0.000000 
#    z 0.025870 0.000000 1.799970 
# 
# From -- ./inp_files/61249.got.cif
#   From: 2010.03.12/outbox.cif.g09.slc.cpg/sg14_31_cif.got.tgz:61249.got - 2010.03.31 13:35:05.
