data_PCOD8124911
_publ_section_title
;
Structure prediction by ZEFSAII (Michael W. Deem and Ramdas Pophale) SiO2 
 PCOD8124911
Probable space group: P 21/C
;
_chemical_formula_sum "Si O2"
_cell_formula_units_Z 24
_cell_length_a 17.525000
_cell_length_b 17.641663
_cell_length_c 11.497908
_cell_angle_alpha 90.000000
_cell_angle_beta 20.308381
_cell_angle_gamma 90.000000
_cell_volume 1233.777953
_symmetry_space_group_name_H-M "P 21/C"
_symmetry_group_IT_number 14
_symmetry_cell_setting 'monoclinic'
loop_
_space_group_symop_operation_xyz
x,y,z
-x,1/2+y,1/2-z
-x,-y,-z
x,1/2-y,1/2+z
loop_
_atom_site_type_symbol
_atom_site_label
_atom_site_fract_x
_atom_site_fract_y
_atom_site_fract_z
Si Si1 0.310088 0.156821 0.420496
Si Si2 0.677346 0.247653 0.309852
Si Si3 0.406918 0.395296 0.229255
Si Si4 0.061316 0.848774 0.221410
Si Si5 0.516917 0.438363 0.824250
Si Si6 0.101505 0.301065 0.813433
O O1 0.092935 0.124988 0.666317
O O2 0.419963 0.092016 0.341759
O O3 0.247703 0.225699 0.595439
O O4 0.479616 0.191293 0.081546
O O5 0.594484 0.167656 0.480557
O O6 0.800613 0.227439 0.011888
O O7 0.846204 0.284519 0.157886
O O8 0.489149 0.471021 0.175687
O O9 0.181373 0.365602 0.608888
O O10 0.370764 0.409905 0.142744
O O11 0.887722 0.830765 0.570695
O O12 0.228741 0.914666 0.019264
#
# Coordination Sequence:
#
# PCOD8124911 Si02
#       6
#     4   4   4   4   4   4
#     4  10  21  35  59  84 114 149 195 239 287 346
#     4   9  19  36  55  86 109 149 191 233 290 337
#     4   9  21  37  61  83 117 160 190 230 301 343
#     4  10  21  34  58  85 113 145 196 238 286 343
#     4  10  20  41  60  80 122 156 186 242 289 347
#     4  10  20  35  60  87 110 149 194 241 281 343
#
# _framework density 19.452448
#
# number of rings (size 3 to 8) (size 9 to 14) (size 15 to 20)
#    0.000    2.333    1.667    0.000    9.333    0.667 
#    0.000   14.167    0.000    0.000    0.000    0.000 
#    0.000    0.000    0.000    0.000    0.000    0.000 
#
# Total GULP energy -297479.416580 kJ/mol
# GULP energy per Si atom -12394.975691 kJ/mol
# Density = 1.940817 g / cm^3
# Si number density = 19.452448 Si / 1000 Ang^3
#
#
#
# Elastic Constant Matrix: (Units=GPa)
#
#
# Indices 1 2 3 4 5 6 
#
# 1 84.5568 38.9872 48.6427 0.0000 -1.4845 0.0000
# 2 38.9872 81.7409 38.6385 0.0000 4.1557 0.0000
# 3 48.6427 38.6385 95.5430 0.0000 0.2165 0.0000
# 4 0.0000 0.0000 0.0000 16.1910 0.0000 0.0004
# 5 -1.4845 4.1557 0.2165 0.0000 28.8459 0.0000
# 6 0.0000 0.0000 0.0000 0.0004 0.0000 25.1503
#
#
#
# Elastic Compliance Matrix: (Units=1/GPa)
#
#
# Indices 1 2 3 4 5 6 
#
# 1 0.018560 -0.005534 -0.007216 0.000000 0.001807 0.000000
# 2 -0.005534 0.016907 -0.004014 0.000000 -0.002690 0.000000
# 3 -0.007216 -0.004014 0.015763 0.000000 0.000089 0.000000
# 4 0.000000 0.000000 0.000000 0.061763 0.000000 -0.000001
# 5 0.001807 -0.002690 0.000089 0.000000 0.035147 0.000000
# 6 0.000000 0.000000 0.000000 -0.000001 0.000000 0.039761
#
#
# Mechanical properties :
#
#
# Convention : Reuss Voigt Hill
#
# Bulk Modulus (GPa) = 56.48386 57.15305 56.81845
# Shear Modulus (GPa) = 21.99445 23.07558 22.53502
#
# Velocity S-wave (km/s) = 3.36620 3.44794 3.40732
# Velocity P-wave (km/s) = 6.64894 6.73021 6.68970
#
# Compressibility (1/GPa) = 0.01770417
#
# Stress axis : x y z
#
# Youngs Moduli (GPa) = 53.87795 59.14590 63.43845
#
# Poissons Ratio (x) = 0.32729 0.45775
# Poissons Ratio (y) = 0.29814 0.25465
# Poissons Ratio (z) = 0.38877 0.23742
#
# Static dielectric constant tensor:
#      x y z
#    x 3.273440 0.000000 0.136670 
#    y 0.000000 3.424420 0.000000 
#    z 0.136670 0.000000 3.766210 
# 
# 
# High freq. dielectric constant tensor:
#      x y z
#    x 1.736320 0.000000 0.007810 
#    y 0.000000 1.737780 0.000000 
#    z 0.007810 0.000000 1.769620 
# 
# From -- ./inp_files/25968.got.cif
#   From: 2010.03.12/outbox.cif.g09.slc.cpg/sg14_13_cif.got.tgz:25968.got - 2010.03.31 13:35:05.
