data_PCOD8124681
_publ_section_title
;
Structure prediction by ZEFSAII (Michael W. Deem and Ramdas Pophale) SiO2 
 PCOD8124681
Probable space group: P 21/C
;
_chemical_formula_sum "Si O2"
_cell_formula_units_Z 32
_cell_length_a 34.124152
_cell_length_b 9.134415
_cell_length_c 13.606872
_cell_angle_alpha 90.000000
_cell_angle_beta 22.906293
_cell_angle_gamma 90.000000
_cell_volume 1650.827796
_symmetry_space_group_name_H-M "P 21/C"
_symmetry_group_IT_number 14
_symmetry_cell_setting 'monoclinic'
loop_
_space_group_symop_operation_xyz
x,y,z
-x,1/2+y,1/2-z
-x,-y,-z
x,1/2-y,1/2+z
loop_
_atom_site_type_symbol
_atom_site_label
_atom_site_fract_x
_atom_site_fract_y
_atom_site_fract_z
Si Si1 0.881523 0.841924 0.592095
Si Si2 0.383508 0.397254 0.176213
Si Si3 0.197078 0.926662 0.073744
Si Si4 0.796105 0.990789 0.601950
Si Si5 0.264149 0.820050 0.555972
Si Si6 0.256626 0.377360 0.982380
Si Si7 0.391926 0.923191 0.850130
Si Si8 0.112644 0.702161 0.580010
O O1 0.836639 0.879763 0.589865
O O2 0.827215 0.696057 0.755155
O O3 0.998612 0.811942 0.309249
O O4 0.863580 0.975028 0.708662
O O5 0.303905 0.496572 0.300059
O O6 0.351683 0.228112 0.245781
O O7 0.383187 0.447629 0.290479
O O8 0.494093 0.412698 0.873160
O O9 0.214654 0.768087 0.080334
O O10 0.133630 0.908557 0.121347
O O11 0.798528 0.909760 0.492849
O O12 0.867567 0.131771 0.433061
O O13 0.681330 0.039653 0.890532
O O14 0.360462 0.731744 0.374384
O O15 0.299593 0.976439 0.433679
O O16 0.181740 0.844364 0.830000
#
# Coordination Sequence:
#
# PCOD8124681 Si02
#       8
#     4   4   4   4   4   4   4   4
#     4  11  24  41  61  90 124 162 206 249 306 363
#     4   9  19  39  65  87 118 162 197 248 307 360
#     4  10  19  42  60  88 118 161 202 241 301 369
#     4  11  22  43  60  89 129 159 200 259 310 357
#     4  10  21  37  62  88 125 153 202 252 298 362
#     4  11  23  38  62  94 125 157 206 260 298 364
#     4   9  18  42  65  81 122 167 191 247 315 357
#     4  11  23  38  66  87 120 167 205 248 302 364
#
# _framework density 19.384215000000001
#
# number of rings (size 3 to 8) (size 9 to 14) (size 15 to 20)
#    0.000    1.750    6.250    0.375    1.750    4.000 
#    4.500    0.000    0.000    0.000    0.000    0.000 
#    0.000    0.000    0.000    0.000    0.000    0.000 
#
# Total GULP energy -396878.744156 kJ/mol
# GULP energy per Si atom -12402.460755 kJ/mol
# Density = 1.934010 g / cm^3
# Si number density = 19.384215 Si / 1000 Ang^3
#
#
#
# Elastic Constant Matrix: (Units=GPa)
#
#
# Indices 1 2 3 4 5 6 
#
# 1 87.6349 43.1556 34.3235 0.0000 0.4342 0.0000
# 2 43.1556 117.9832 21.3978 0.0000 6.4217 0.0000
# 3 34.3235 21.3978 75.1889 0.0000 -14.2628 0.0000
# 4 0.0000 0.0000 0.0000 22.9385 0.0000 4.8146
# 5 0.4342 6.4217 -14.2628 0.0000 18.7303 0.0000
# 6 0.0000 0.0000 0.0000 4.8146 0.0000 23.1949
#
#
#
# Elastic Compliance Matrix: (Units=1/GPa)
#
#
# Indices 1 2 3 4 5 6 
#
# 1 0.016384 -0.004499 -0.006988 0.000000 -0.004158 0.000000
# 2 -0.004499 0.010756 -0.001972 0.000000 -0.005085 0.000000
# 3 -0.006988 -0.001972 0.020115 0.000000 0.016155 0.000000
# 4 0.000000 0.000000 0.000000 0.045581 0.000000 -0.009461
# 5 -0.004158 -0.005085 0.016155 0.000000 0.067531 0.000000
# 6 0.000000 0.000000 0.000000 -0.009461 0.000000 0.045077
#
#
# Mechanical properties :
#
#
# Convention : Reuss Voigt Hill
#
# Bulk Modulus (GPa) = 49.16847 53.17340 51.17094
# Shear Modulus (GPa) = 20.90822 25.10141 23.00482
#
# Velocity S-wave (km/s) = 3.28780 3.60243 3.44871
# Velocity P-wave (km/s) = 6.31135 6.69285 6.50489
#
# Compressibility (1/GPa) = 0.02033824
#
# Stress axis : x y z
#
# Youngs Moduli (GPa) = 61.03497 92.97264 49.71342
#
# Poissons Ratio (x) = 0.41831 0.34738
# Poissons Ratio (y) = 0.27461 0.09801
# Poissons Ratio (z) = 0.42649 0.18330
#
# Static dielectric constant tensor:
#      x y z
#    x 3.436000 0.000000 -0.065730 
#    y 0.000000 3.602810 0.000000 
#    z -0.065730 0.000000 3.529010 
# 
# 
# High freq. dielectric constant tensor:
#      x y z
#    x 1.745450 0.000000 -0.001740 
#    y 0.000000 1.760610 0.000000 
#    z -0.001740 0.000000 1.749590 
# 
# From -- ./inp_files/36428.got.cif
#   From: 2010.03.12/outbox.cif.g09.slc.cpg/sg14_19_cif.got.tgz:36428.got - 2010.03.31 13:35:05.
