data_PCOD8124375
_publ_section_title
;
Structure prediction by ZEFSAII (Michael W. Deem and Ramdas Pophale) SiO2 
 PCOD8124375
Probable space group: P 21/C
;
_chemical_formula_sum "Si O2"
_cell_formula_units_Z 28
_cell_length_a 8.869159
_cell_length_b 14.031605
_cell_length_c 18.825836
_cell_angle_alpha 90.000000
_cell_angle_beta 38.020656
_cell_angle_gamma 90.000000
_cell_volume 1443.066572
_symmetry_space_group_name_H-M "P 21/C"
_symmetry_group_IT_number 14
_symmetry_cell_setting 'monoclinic'
loop_
_space_group_symop_operation_xyz
x,y,z
-x,1/2+y,1/2-z
-x,-y,-z
x,1/2-y,1/2+z
loop_
_atom_site_type_symbol
_atom_site_label
_atom_site_fract_x
_atom_site_fract_y
_atom_site_fract_z
Si Si1 0.425698 0.779289 0.895352
Si Si2 0.204536 0.130583 0.761451
Si Si3 0.633400 0.605323 0.521013
Si Si4 0.990069 0.888765 0.009807
Si Si5 0.734157 0.466165 0.867089
Si Si6 0.736679 0.947855 0.827410
Si Si7 0.236130 0.751280 0.117357
O O1 0.539621 0.684348 0.820298
O O2 0.658469 0.846157 0.826140
O O3 0.276954 0.742011 0.018447
O O4 0.247305 0.832904 0.906065
O O5 0.092800 0.125697 0.879743
O O6 0.019392 0.190035 0.777452
O O7 0.267358 0.026691 0.705352
O O8 0.818117 0.648905 0.510462
O O9 0.476752 0.520724 0.614729
O O10 0.767984 0.560505 0.401915
O O11 0.458312 0.690796 0.566874
O O12 0.000000 0.000000 0.000000
O O13 0.744832 0.351624 0.850881
O O14 0.004184 0.483785 0.802180
O O15 0.500000 0.500000 0.000000
#
# Coordination Sequence:
#
# PCOD8124375 Si02
#       7
#     4   4   4   4   4   4   4
#     4  10  20  38  61  87 122 162 197 252 306 366
#     4  11  22  39  60  91 124 166 201 249 313 367
#     4  10  20  39  61  94 115 152 210 264 296 349
#     4  11  22  39  62  90 122 159 207 249 310 367
#     4  12  22  36  61  93 121 158 202 254 308 366
#     4  10  19  36  66  90 115 151 211 260 295 352
#     4  10  21  37  62  87 119 153 211 256 299 355
#
# _framework density 19.403122
#
# number of rings (size 3 to 8) (size 9 to 14) (size 15 to 20)
#    0.000    1.429    5.714    0.857    0.000    0.000 
#    5.143    0.000    0.000    1.714    0.000    0.000 
#    0.000    0.000    0.000    0.000    0.000    0.000 
#
# Total GULP energy -346876.292412 kJ/mol
# GULP energy per Si atom -12388.439015 kJ/mol
# Density = 1.935896 g / cm^3
# Si number density = 19.403122 Si / 1000 Ang^3
#
#
#
# Elastic Constant Matrix: (Units=GPa)
#
#
# Indices 1 2 3 4 5 6 
#
# 1 109.1064 35.8552 36.6482 0.0000 -15.0071 0.0000
# 2 35.8552 115.0815 31.2898 0.0000 -8.3562 0.0000
# 3 36.6482 31.2898 75.5515 0.0000 -21.8543 0.0000
# 4 0.0000 0.0000 0.0000 33.0799 0.0000 -4.5335
# 5 -15.0071 -8.3562 -21.8543 0.0000 22.5259 0.0000
# 6 0.0000 0.0000 0.0000 -4.5335 0.0000 23.8797
#
#
#
# Elastic Compliance Matrix: (Units=1/GPa)
#
#
# Indices 1 2 3 4 5 6 
#
# 1 0.011646 -0.002380 -0.003718 0.000000 0.003269 0.000000
# 2 -0.002380 0.010281 -0.003418 0.000000 -0.001088 0.000000
# 3 -0.003718 -0.003418 0.021369 0.000000 0.016987 0.000000
# 4 0.000000 0.000000 0.000000 0.031037 0.000000 0.005892
# 5 0.003269 -0.001088 0.016987 0.000000 0.062648 0.000000
# 6 0.000000 0.000000 0.000000 0.005892 0.000000 0.042995
#
#
# Mechanical properties :
#
#
# Convention : Reuss Voigt Hill
#
# Bulk Modulus (GPa) = 41.21412 56.36952 48.79182
# Shear Modulus (GPa) = 24.14329 28.96020 26.55174
#
# Velocity S-wave (km/s) = 3.53129 3.86755 3.70324
# Velocity P-wave (km/s) = 6.15741 7.00420 6.59441
#
# Compressibility (1/GPa) = 0.02426353
#
# Stress axis : x y z
#
# Youngs Moduli (GPa) = 85.86646 97.26230 46.79727
#
# Poissons Ratio (x) = 0.23151 0.17399
# Poissons Ratio (y) = 0.20438 0.15996
# Poissons Ratio (z) = 0.31924 0.33246
#
# Static dielectric constant tensor:
#      x y z
#    x 3.507690 0.000000 -0.357340 
#    y 0.000000 3.691290 0.000000 
#    z -0.357340 0.000000 3.614460 
# 
# 
# High freq. dielectric constant tensor:
#      x y z
#    x 1.732390 0.000000 -0.029380 
#    y 0.000000 1.765070 0.000000 
#    z -0.029380 0.000000 1.748760 
# 
# From -- ./inp_files/24872.got.cif
#   From: 2010.03.12/outbox.cif.g09.slc.cpg/sg14_13_cif.got.tgz:24872.got - 2010.03.31 13:35:05.
