data_PCOD8124344
_publ_section_title
;
Structure prediction by ZEFSAII (Michael W. Deem and Ramdas Pophale) SiO2 
 PCOD8124344
Probable space group: P 21/C
;
_chemical_formula_sum "Si O2"
_cell_formula_units_Z 24
_cell_length_a 11.449428
_cell_length_b 11.775885
_cell_length_c 9.111546
_cell_angle_alpha 90.000000
_cell_angle_beta 106.543508
_cell_angle_gamma 90.000000
_cell_volume 1177.629183
_symmetry_space_group_name_H-M "P 21/C"
_symmetry_group_IT_number 14
_symmetry_cell_setting 'monoclinic'
loop_
_space_group_symop_operation_xyz
x,y,z
-x,1/2+y,1/2-z
-x,-y,-z
x,1/2-y,1/2+z
loop_
_atom_site_type_symbol
_atom_site_label
_atom_site_fract_x
_atom_site_fract_y
_atom_site_fract_z
Si Si1 0.131409 0.450951 0.419508
Si Si2 0.942438 0.423730 0.102798
Si Si3 0.995500 0.323976 0.605597
Si Si4 0.194833 0.371284 0.882178
Si Si5 0.593673 0.899038 0.044020
Si Si6 0.660694 0.750866 0.316826
O O1 0.110494 0.362161 0.544773
O O2 0.267672 0.441487 0.411562
O O3 0.038286 0.410594 0.265191
O O4 0.108911 0.581633 0.454687
O O5 0.818249 0.489898 0.108975
O O6 0.925350 0.293640 0.042963
O O7 0.000000 0.500000 0.000000
O O8 0.058264 0.324556 0.790706
O O9 0.288148 0.336087 0.787909
O O10 0.234608 0.318163 0.053096
O O11 0.572505 0.815380 0.897998
O O12 0.576709 0.839264 0.196200
O O13 0.500000 0.000000 0.000000
#
# Coordination Sequence:
#
# PCOD8124344 Si02
#       6
#     4   4   4   4   4   4
#     4  10  22  37  60  86 125 163 198 248 304 360
#     4  11  22  32  57  96 127 164 201 243 303 374
#     4  10  21  36  56  91 129 160 197 244 304 363
#     4  10  19  36  61  93 122 167 202 242 307 376
#     4  11  23  43  66  90 116 163 216 258 310 366
#     4  10  21  40  67  87 124 165 204 256 310 378
#
# _framework density 20.379930000000002
#
# number of rings (size 3 to 8) (size 9 to 14) (size 15 to 20)
#    0.000    1.667    1.667    4.000    7.000    0.000 
#    0.000    8.333    0.000    0.000    0.000    0.000 
#    0.000    0.000    0.000    0.000    0.000    0.000 
#
# Total GULP energy -297315.620192 kJ/mol
# GULP energy per Si atom -12388.150841 kJ/mol
# Density = 2.033354 g / cm^3
# Si number density = 20.379930 Si / 1000 Ang^3
#
#
#
# Elastic Constant Matrix: (Units=GPa)
#
#
# Indices 1 2 3 4 5 6 
#
# 1 55.3488 45.3939 30.8557 0.0000 -2.0228 0.0000
# 2 45.3939 194.7169 64.3940 0.0000 -3.9537 0.0000
# 3 30.8557 64.3940 117.3390 0.0000 -11.8561 0.0000
# 4 0.0000 0.0000 0.0000 32.7213 0.0000 0.4330
# 5 -2.0228 -3.9537 -11.8561 0.0000 14.8306 0.0000
# 6 0.0000 0.0000 0.0000 0.4330 0.0000 34.6131
#
#
#
# Elastic Compliance Matrix: (Units=1/GPa)
#
#
# Indices 1 2 3 4 5 6 
#
# 1 0.023740 -0.004221 -0.004039 0.000000 -0.001116 0.000000
# 2 -0.004221 0.007044 -0.002855 0.000000 -0.000980 0.000000
# 3 -0.004039 -0.002855 0.011987 0.000000 0.008271 0.000000
# 4 0.000000 0.000000 0.000000 0.030566 0.000000 -0.000382
# 5 -0.001116 -0.000980 0.008271 0.000000 0.073627 0.000000
# 6 0.000000 0.000000 0.000000 -0.000382 0.000000 0.028896
#
#
# Mechanical properties :
#
#
# Convention : Reuss Voigt Hill
#
# Bulk Modulus (GPa) = 48.68320 72.07688 60.38004
# Shear Modulus (GPa) = 24.39785 31.55040 27.97412
#
# Velocity S-wave (km/s) = 3.46374 3.93887 3.70892
# Velocity P-wave (km/s) = 6.31952 7.49197 6.93058
#
# Compressibility (1/GPa) = 0.02054097
#
# Stress axis : x y z
#
# Youngs Moduli (GPa) = 42.12253 141.96642 83.42643
#
# Poissons Ratio (x) = 0.59931 0.33695
# Poissons Ratio (y) = 0.17782 0.23814
# Poissons Ratio (z) = 0.17013 0.40525
#
# Static dielectric constant tensor:
#      x y z
#    x 3.192850 0.000000 -0.171630 
#    y 0.000000 4.279560 0.000000 
#    z -0.171630 0.000000 3.995560 
# 
# 
# High freq. dielectric constant tensor:
#      x y z
#    x 1.734040 0.000000 -0.023230 
#    y 0.000000 1.811520 0.000000 
#    z -0.023230 0.000000 1.815980 
# 
# From -- ./inp_files/12511.got.cif
#   From: 2010.03.12/outbox.cif.g09.slc.cpg/sg14_7_cif.got.tgz:12511.got - 2010.03.31 13:35:05.
