data_PCOD8124651
_publ_section_title
;
Structure prediction by ZEFSAII (Michael W. Deem and Ramdas Pophale) SiO2 
 PCOD8124651
Probable space group: P 21/C
;
_chemical_formula_sum "Si O2"
_cell_formula_units_Z 32
_cell_length_a 11.621992
_cell_length_b 13.341287
_cell_length_c 16.785327
_cell_angle_alpha 90.000000
_cell_angle_beta 31.226926
_cell_angle_gamma 90.000000
_cell_volume 1349.265241
_symmetry_space_group_name_H-M "P 21/C"
_symmetry_group_IT_number 14
_symmetry_cell_setting 'monoclinic'
loop_
_space_group_symop_operation_xyz
x,y,z
-x,1/2+y,1/2-z
-x,-y,-z
x,1/2-y,1/2+z
loop_
_atom_site_type_symbol
_atom_site_label
_atom_site_fract_x
_atom_site_fract_y
_atom_site_fract_z
Si Si1 0.432453 0.566304 0.796419
Si Si2 0.704240 0.178614 0.769238
Si Si3 0.508043 0.815038 0.398782
Si Si4 0.094593 0.820847 0.746670
Si Si5 0.081157 0.133060 0.739254
Si Si6 0.016574 0.492419 0.131964
Si Si7 0.313282 0.417279 0.571593
Si Si8 0.628682 0.404073 0.567433
O O1 0.415582 0.659554 0.744159
O O2 0.569175 0.609847 0.790044
O O3 0.543474 0.465729 0.694883
O O4 0.186773 0.539246 0.970143
O O5 0.794663 0.292189 0.732120
O O6 0.903641 0.099884 0.654181
O O7 0.513861 0.162964 0.951198
O O8 0.280460 0.857020 0.573186
O O9 0.700190 0.825134 0.349572
O O10 0.493902 0.701807 0.372685
O O11 0.012955 0.714343 0.764541
O O12 0.880070 0.892098 0.880854
O O13 0.123492 0.038098 0.655249
O O14 0.894725 0.110502 0.916972
O O15 0.821878 0.575863 0.264950
O O16 0.415385 0.526359 0.485597
#
# Coordination Sequence:
#
# PCOD8124651 Si02
#       8
#     4   4   4   4   4   4   4   4
#     4  11  23  43  65  99 139 174 220 280 350 397
#     4  10  22  39  64  97 130 170 218 276 339 398
#     4  11  22  44  68  96 135 178 230 285 335 403
#     4  10  20  39  65  99 127 169 230 273 324 400
#     4   9  21  40  68  95 128 176 223 272 330 400
#     4  10  20  40  65 100 126 169 223 276 332 399
#     4  10  19  40  70  92 129 173 227 275 328 407
#     4   9  23  45  64  95 133 180 223 274 343 406
#
# _framework density 23.716612999999999
#
# number of rings (size 3 to 8) (size 9 to 14) (size 15 to 20)
#    0.000    2.000    1.250    2.250    0.000    5.000 
#   15.750    0.000    0.000    0.000    0.000    0.000 
#    0.000    0.000    0.000    0.000    0.000    0.000 
#
# Total GULP energy -396460.597643 kJ/mol
# GULP energy per Si atom -12389.393676 kJ/mol
# Density = 2.366263 g / cm^3
# Si number density = 23.716613 Si / 1000 Ang^3
#
#
#
# Elastic Constant Matrix: (Units=GPa)
#
#
# Indices 1 2 3 4 5 6 
#
# 1 52.3553 15.3638 15.1088 0.0000 -0.3687 0.0000
# 2 15.3638 61.6135 21.1167 0.0000 1.6014 0.0000
# 3 15.1088 21.1167 101.4065 0.0000 8.4891 0.0000
# 4 0.0000 0.0000 0.0000 34.0222 0.0000 1.7926
# 5 -0.3687 1.6014 8.4891 0.0000 30.5435 0.0000
# 6 0.0000 0.0000 0.0000 1.7926 0.0000 31.0631
#
#
#
# Elastic Compliance Matrix: (Units=1/GPa)
#
#
# Indices 1 2 3 4 5 6 
#
# 1 0.021093 -0.004501 -0.002300 0.000000 0.001130 0.000000
# 2 -0.004501 0.018438 -0.003157 0.000000 -0.000144 0.000000
# 3 -0.002300 -0.003157 0.011108 0.000000 -0.002950 0.000000
# 4 0.000000 0.000000 0.000000 0.029482 0.000000 -0.001701
# 5 0.001130 -0.000144 -0.002950 0.000000 0.033581 0.000000
# 6 0.000000 0.000000 0.000000 -0.001701 0.000000 0.032291
#
#
# Mechanical properties :
#
#
# Convention : Reuss Voigt Hill
#
# Bulk Modulus (GPa) = 32.54795 35.39485 33.97140
# Shear Modulus (GPa) = 28.38493 30.04485 29.21489
#
# Velocity S-wave (km/s) = 3.46329 3.56311 3.51355
# Velocity P-wave (km/s) = 5.45399 5.64661 5.55113
#
# Compressibility (1/GPa) = 0.03072390
#
# Stress axis : x y z
#
# Youngs Moduli (GPa) = 47.40978 54.23520 90.02279
#
# Poissons Ratio (x) = 0.24410 0.20705
# Poissons Ratio (y) = 0.21338 0.28420
# Poissons Ratio (z) = 0.10904 0.17122
#
# Static dielectric constant tensor:
#      x y z
#    x 4.241610 0.000000 -0.183470 
#    y 0.000000 4.411920 0.000000 
#    z -0.183470 0.000000 4.381650 
# 
# 
# High freq. dielectric constant tensor:
#      x y z
#    x 1.920840 0.000000 -0.014500 
#    y 0.000000 1.934760 0.000000 
#    z -0.014500 0.000000 1.939990 
# 
# From -- ./inp_files/57918.got.cif
#   From: 2010.03.12/outbox.cif.g09.slc.cpg/sg14_29_cif.got.tgz:57918.got - 2010.03.31 13:35:05.
