data_PCOD8124614
_publ_section_title
;
Structure prediction by ZEFSAII (Michael W. Deem and Ramdas Pophale) SiO2 
 PCOD8124614
Probable space group: P 21/C
;
_chemical_formula_sum "Si O2"
_cell_formula_units_Z 28
_cell_length_a 9.078862
_cell_length_b 8.729613
_cell_length_c 28.100297
_cell_angle_alpha 90.000000
_cell_angle_beta 39.177613
_cell_angle_gamma 90.000000
_cell_volume 1406.910224
_symmetry_space_group_name_H-M "P 21/C"
_symmetry_group_IT_number 14
_symmetry_cell_setting 'monoclinic'
loop_
_space_group_symop_operation_xyz
x,y,z
-x,1/2+y,1/2-z
-x,-y,-z
x,1/2-y,1/2+z
loop_
_atom_site_type_symbol
_atom_site_label
_atom_site_fract_x
_atom_site_fract_y
_atom_site_fract_z
Si Si1 0.572490 0.917060 0.833557
Si Si2 0.150167 0.098580 0.903799
Si Si3 0.212273 0.126714 0.041557
Si Si4 0.933626 0.545927 0.938559
Si Si5 0.191420 0.812218 0.457426
Si Si6 0.086602 0.203473 0.329238
Si Si7 0.268563 0.562006 0.617355
O O1 0.420262 0.791292 0.899670
O O2 0.703525 0.829922 0.758812
O O3 0.407935 0.051499 0.854828
O O4 0.761027 0.994217 0.822015
O O5 0.175385 0.177639 0.846356
O O6 0.989857 0.945593 0.941266
O O7 0.038759 0.215733 0.969707
O O8 0.205811 0.309002 0.045820
O O9 0.173710 0.062686 0.104066
O O10 0.456945 0.080130 0.958400
O O11 0.149055 0.604423 0.917466
O O12 0.017645 0.455818 0.871054
O O13 0.764369 0.439585 0.012859
O O14 0.869105 0.278205 0.354996
#
# Coordination Sequence:
#
# PCOD8124614 Si02
#       7
#     4   4   4   4   4   4   4
#     4  12  22  39  68  87 124 164 205 252 308 368
#     4  10  20  40  68  92 116 160 215 254 301 370
#     4  10  19  39  68  88 117 162 208 255 302 356
#     4  10  21  38  61  93 123 148 201 267 300 348
#     4  10  20  37  64  97 115 149 211 262 300 348
#     4  10  26  41  56  92 131 160 200 248 318 374
#     4  10  23  41  60  88 123 168 205 240 304 387
#
# _framework density 19.901765999999999
#
# number of rings (size 3 to 8) (size 9 to 14) (size 15 to 20)
#    0.000    1.714    2.857    1.286    4.000    1.714 
#    2.571    1.429    0.000    0.000    0.000    0.000 
#    0.000    0.000    0.000    0.000    0.000    0.000 
#
# Total GULP energy -347239.407297 kJ/mol
# GULP energy per Si atom -12401.407403 kJ/mol
# Density = 1.985647 g / cm^3
# Si number density = 19.901766 Si / 1000 Ang^3
#
#
#
# Elastic Constant Matrix: (Units=GPa)
#
#
# Indices 1 2 3 4 5 6 
#
# 1 86.2708 40.9316 31.0341 0.0000 7.0515 0.0000
# 2 40.9316 133.9455 42.6692 0.0000 10.4304 0.0000
# 3 31.0341 42.6692 89.0012 0.0000 13.6757 0.0000
# 4 0.0000 0.0000 0.0000 27.8315 0.0000 4.2702
# 5 7.0515 10.4304 13.6757 0.0000 12.8971 0.0000
# 6 0.0000 0.0000 0.0000 4.2702 0.0000 36.0011
#
#
#
# Elastic Compliance Matrix: (Units=1/GPa)
#
#
# Indices 1 2 3 4 5 6 
#
# 1 0.014433 -0.003249 -0.003185 0.000000 -0.001886 0.000000
# 2 -0.003249 0.009652 -0.003068 0.000000 -0.002777 0.000000
# 3 -0.003185 -0.003068 0.015732 0.000000 -0.012459 0.000000
# 4 0.000000 0.000000 0.000000 0.036596 0.000000 -0.004341
# 5 -0.001886 -0.002777 -0.012459 0.000000 0.094024 0.000000
# 6 0.000000 0.000000 0.000000 -0.004341 0.000000 0.028292
#
#
# Mechanical properties :
#
#
# Convention : Reuss Voigt Hill
#
# Bulk Modulus (GPa) = 48.04802 59.83192 53.93997
# Shear Modulus (GPa) = 22.25480 28.31813 25.28646
#
# Velocity S-wave (km/s) = 3.34763 3.77622 3.56836
# Velocity P-wave (km/s) = 6.25597 7.01014 6.64376
#
# Compressibility (1/GPa) = 0.02081251
#
# Stress axis : x y z
#
# Youngs Moduli (GPa) = 69.28643 103.60498 63.56607
#
# Poissons Ratio (x) = 0.33660 0.20247
# Poissons Ratio (y) = 0.22510 0.19501
# Poissons Ratio (z) = 0.22069 0.31785
#
# Static dielectric constant tensor:
#      x y z
#    x 3.611160 0.000000 0.205330 
#    y 0.000000 3.805920 0.000000 
#    z 0.205330 0.000000 3.346440 
# 
# 
# High freq. dielectric constant tensor:
#      x y z
#    x 1.775800 0.000000 0.020550 
#    y 0.000000 1.790130 0.000000 
#    z 0.020550 0.000000 1.751650 
# 
# From -- ./inp_files/76459.got.cif
#   From: 2010.03.12/outbox.cif.g09.slc.cpg/sg14_39_cif.got.tgz:76459.got - 2010.03.31 13:35:05.
