data_PCOD8124571
_publ_section_title
;
Structure prediction by ZEFSAII (Michael W. Deem and Ramdas Pophale) SiO2 
 PCOD8124571
Probable space group: P 21/C
;
_chemical_formula_sum "Si O2"
_cell_formula_units_Z 28
_cell_length_a 13.377015
_cell_length_b 16.230164
_cell_length_c 8.778069
_cell_angle_alpha 90.000000
_cell_angle_beta 45.430695
_cell_angle_gamma 90.000000
_cell_volume 1357.707785
_symmetry_space_group_name_H-M "P 21/C"
_symmetry_group_IT_number 14
_symmetry_cell_setting 'monoclinic'
loop_
_space_group_symop_operation_xyz
x,y,z
-x,1/2+y,1/2-z
-x,-y,-z
x,1/2-y,1/2+z
loop_
_atom_site_type_symbol
_atom_site_label
_atom_site_fract_x
_atom_site_fract_y
_atom_site_fract_z
Si Si1 0.779290 0.244179 0.664463
Si Si2 0.615717 0.339314 0.593715
Si Si3 0.398529 0.479768 0.320208
Si Si4 0.703976 0.004315 0.411589
Si Si5 0.688275 0.822161 0.453981
Si Si6 0.086617 0.645388 0.236348
Si Si7 0.229274 0.168295 0.969126
O O1 0.723964 0.314163 0.610219
O O2 0.858736 0.172823 0.487527
O O3 0.888475 0.284795 0.664071
O O4 0.651036 0.204443 0.896626
O O5 0.624902 0.437722 0.556007
O O6 0.464951 0.309199 0.811800
O O7 0.332665 0.496673 0.225763
O O8 0.317246 0.399762 0.473546
O O9 0.564290 0.458803 0.140298
O O10 0.836687 0.061467 0.298947
O O11 0.742444 0.913975 0.437348
O O12 0.789896 0.752441 0.415289
O O13 0.684147 0.811382 0.276509
O O14 0.921288 0.629005 0.407567
#
# Coordination Sequence:
#
# PCOD8124571 Si02
#       7
#     4   4   4   4   4   4   4
#     4  10  22  35  63  83 118 153 194 241 289 346
#     4  10  19  39  60  91 111 150 199 246 288 338
#     4   9  19  36  60  86 114 150 198 242 286 340
#     4   9  19  38  60  85 116 151 199 238 286 346
#     4  10  22  38  62  86 116 152 194 243 293 340
#     4  11  22  40  57  88 119 155 194 235 291 356
#     4  11  23  39  60  86 120 156 191 238 296 349
#
# _framework density 20.622993999999998
#
# number of rings (size 3 to 8) (size 9 to 14) (size 15 to 20)
#    0.000    2.000    1.429    2.571    4.000    2.286 
#    7.714    2.143    0.000    0.000    0.000    0.000 
#    0.000    0.000    0.000    0.000    0.000    0.000 
#
# Total GULP energy -347178.179021 kJ/mol
# GULP energy per Si atom -12399.220679 kJ/mol
# Density = 2.057605 g / cm^3
# Si number density = 20.622994 Si / 1000 Ang^3
#
#
#
# Elastic Constant Matrix: (Units=GPa)
#
#
# Indices 1 2 3 4 5 6 
#
# 1 55.0644 39.0900 10.9450 0.0000 -12.2793 0.0000
# 2 39.0900 120.4880 23.0547 0.0000 -10.5340 0.0000
# 3 10.9450 23.0547 69.1361 0.0000 1.0905 0.0000
# 4 0.0000 0.0000 0.0000 22.7867 0.0000 -7.3660
# 5 -12.2793 -10.5340 1.0905 0.0000 31.1186 0.0000
# 6 0.0000 0.0000 0.0000 -7.3660 0.0000 30.9435
#
#
#
# Elastic Compliance Matrix: (Units=1/GPa)
#
#
# Indices 1 2 3 4 5 6 
#
# 1 0.025326 -0.007222 -0.001721 0.000000 0.007609 0.000000
# 2 -0.007222 0.011235 -0.002620 0.000000 0.001045 0.000000
# 3 -0.001721 -0.002620 0.015644 0.000000 -0.002114 0.000000
# 4 0.000000 0.000000 0.000000 0.047544 0.000000 0.011318
# 5 0.007609 0.001045 -0.002114 0.000000 0.035566 0.000000
# 6 0.000000 0.000000 0.000000 0.011318 0.000000 0.035011
#
#
# Mechanical properties :
#
#
# Convention : Reuss Voigt Hill
#
# Bulk Modulus (GPa) = 34.38854 43.42975 38.90915
# Shear Modulus (GPa) = 24.61295 28.40968 26.51131
#
# Velocity S-wave (km/s) = 3.45841 3.71559 3.58931
# Velocity P-wave (km/s) = 5.71477 6.28587 6.00711
#
# Compressibility (1/GPa) = 0.02907945
#
# Stress axis : x y z
#
# Youngs Moduli (GPa) = 39.48436 89.00504 63.92373
#
# Poissons Ratio (x) = 0.64280 0.11002
# Poissons Ratio (y) = 0.28516 0.16747
# Poissons Ratio (z) = 0.06796 0.23317
#
# Static dielectric constant tensor:
#      x y z
#    x 3.418230 0.000000 -0.020140 
#    y 0.000000 3.990480 0.000000 
#    z -0.020140 0.000000 3.688240 
# 
# 
# High freq. dielectric constant tensor:
#      x y z
#    x 1.783230 0.000000 -0.007580 
#    y 0.000000 1.816450 0.000000 
#    z -0.007580 0.000000 1.799400 
# 
# From -- ./inp_files/13011.got.cif
#   From: 2010.03.12/outbox.cif.g09.slc.cpg/sg14_7_cif.got.tgz:13011.got - 2010.03.31 13:35:05.
