data_PCOD8124177
_publ_section_title
;
Structure prediction by ZEFSAII (Michael W. Deem and Ramdas Pophale) SiO2 
 PCOD8124177
Probable space group: P 21/C
;
_chemical_formula_sum "Si O2"
_cell_formula_units_Z 20
_cell_length_a 17.675457
_cell_length_b 10.064740
_cell_length_c 13.552376
_cell_angle_alpha 90.000000
_cell_angle_beta 24.101945
_cell_angle_gamma 90.000000
_cell_volume 984.540053
_symmetry_space_group_name_H-M "P 21/C"
_symmetry_group_IT_number 14
_symmetry_cell_setting 'monoclinic'
loop_
_space_group_symop_operation_xyz
x,y,z
-x,1/2+y,1/2-z
-x,-y,-z
x,1/2-y,1/2+z
loop_
_atom_site_type_symbol
_atom_site_label
_atom_site_fract_x
_atom_site_fract_y
_atom_site_fract_z
Si Si1 0.377811 0.322726 0.837460
Si Si2 0.871728 0.637514 0.042376
Si Si3 0.255909 0.580961 0.661529
Si Si4 0.690397 0.633204 0.861380
Si Si5 0.615304 0.156609 0.426614
O O1 0.207151 0.375826 0.974125
O O2 0.549461 0.428288 0.629129
O O3 0.455909 0.182784 0.700554
O O4 0.306365 0.305859 0.032939
O O5 0.753384 0.544906 0.256408
O O6 0.844188 0.788195 0.114793
O O7 0.084708 0.590081 0.788617
O O8 0.248126 0.716093 0.737293
O O9 0.733977 0.475294 0.809983
O O10 0.484393 0.648252 0.060869
#
# Coordination Sequence:
#
# PCOD8124177 Si02
#       5
#     4   4   4   4   4
#     4   9  20  34  57  77 107 140 178 215 262 313
#     4  10  20  37  55  80 106 142 177 218 261 315
#     4   9  20  37  55  77 109 135 184 216 259 313
#     4  10  19  35  58  77 110 140 176 216 270 310
#     4   8  20  35  53  82 104 140 174 216 268 311
#
# _framework density 20.314053999999999
#
# number of rings (size 3 to 8) (size 9 to 14) (size 15 to 20)
#    1.200    1.600    0.000    0.600    2.800    0.800 
#    3.600    2.000    0.000    0.000    0.000    0.000 
#    0.000    0.000    0.000    0.000    0.000    0.000 
#
# Total GULP energy -247811.750450 kJ/mol
# GULP energy per Si atom -12390.587523 kJ/mol
# Density = 2.026782 g / cm^3
# Si number density = 20.314054 Si / 1000 Ang^3
#
#
#
# Elastic Constant Matrix: (Units=GPa)
#
#
# Indices 1 2 3 4 5 6 
#
# 1 127.6294 10.2372 30.6963 0.0000 1.9366 0.0000
# 2 10.2372 81.3999 -13.7135 0.0000 -1.4136 0.0000
# 3 30.6963 -13.7135 21.9919 0.0000 -6.1164 0.0000
# 4 0.0000 0.0000 0.0000 17.1750 0.0000 -4.4698
# 5 1.9366 -1.4136 -6.1164 0.0000 21.6571 0.0000
# 6 0.0000 0.0000 0.0000 -4.4698 0.0000 21.2086
#
#
#
# Elastic Compliance Matrix: (Units=1/GPa)
#
#
# Indices 1 2 3 4 5 6 
#
# 1 0.015420 -0.006930 -0.028600 0.000000 -0.009908 0.000000
# 2 -0.006930 0.017104 0.022596 0.000000 0.008118 0.000000
# 3 -0.028600 0.022596 0.109179 0.000000 0.034867 0.000000
# 4 0.000000 0.000000 0.000000 0.061603 0.000000 0.012983
# 5 -0.009908 0.008118 0.034867 0.000000 0.057437 0.000000
# 6 0.000000 0.000000 0.000000 0.012983 0.000000 0.049887
#
#
# Mechanical properties :
#
#
# Convention : Reuss Voigt Hill
#
# Bulk Modulus (GPa) = 8.63299 31.71792 20.17546
# Shear Modulus (GPa) = 13.32945 25.59490 19.46217
#
# Velocity S-wave (km/s) = 2.56436 3.55344 3.09862
# Velocity P-wave (km/s) = 3.60928 5.69944 4.77025
#
# Compressibility (1/GPa) = 0.11583466
#
# Stress axis : x y z
#
# Youngs Moduli (GPa) = 64.85078 58.46516 9.15931
#
# Poissons Ratio (x) = 0.40514 0.26196
# Poissons Ratio (y) = 0.44939 -0.20696
# Poissons Ratio (z) = 1.85474 -1.32106
#
# Static dielectric constant tensor:
#      x y z
#    x 3.584740 0.000000 -0.201260 
#    y 0.000000 3.665170 0.000000 
#    z -0.201260 0.000000 3.101140 
# 
# 
# High freq. dielectric constant tensor:
#      x y z
#    x 1.794400 0.000000 -0.018260 
#    y 0.000000 1.793460 0.000000 
#    z -0.018260 0.000000 1.746720 
# 
# From -- ./inp_files/32305.got.cif
#   From: 2010.03.12/outbox.cif.g09.slc.cpg/sg14_17_cif.got.tgz:32305.got - 2010.03.31 13:35:05.
