data_PCOD8124475
_publ_section_title
;
Structure prediction by ZEFSAII (Michael W. Deem and Ramdas Pophale) SiO2 
 PCOD8124475
Probable space group: P 21/C
;
_chemical_formula_sum "Si O2"
_cell_formula_units_Z 28
_cell_length_a 8.968319
_cell_length_b 14.059404
_cell_length_c 12.914519
_cell_angle_alpha 90.000000
_cell_angle_beta 126.573190
_cell_angle_gamma 90.000000
_cell_volume 1307.747381
_symmetry_space_group_name_H-M "P 21/C"
_symmetry_group_IT_number 14
_symmetry_cell_setting 'monoclinic'
loop_
_space_group_symop_operation_xyz
x,y,z
-x,1/2+y,1/2-z
-x,-y,-z
x,1/2-y,1/2+z
loop_
_atom_site_type_symbol
_atom_site_label
_atom_site_fract_x
_atom_site_fract_y
_atom_site_fract_z
Si Si1 0.131666 0.915503 0.024896
Si Si2 0.352164 0.241760 0.217159
Si Si3 0.503034 0.937210 0.257015
Si Si4 0.091590 0.365416 0.758372
Si Si5 0.681706 0.449379 0.110024
Si Si6 0.294638 0.625463 0.095287
Si Si7 0.013715 0.261433 0.934954
O O1 0.340289 0.958916 0.106209
O O2 0.110920 0.833144 0.104002
O O3 0.080700 0.872058 0.891955
O O4 0.000000 0.000000 0.000000
O O5 0.373495 0.354254 0.241084
O O6 0.264975 0.187932 0.278407
O O7 0.557743 0.197836 0.292066
O O8 0.218466 0.233238 0.061993
O O9 0.377197 0.904485 0.304312
O O10 0.644803 0.021787 0.338914
O O11 0.152733 0.472276 0.815087
O O12 0.028329 0.296977 0.824112
O O13 0.500000 0.500000 0.000000
O O14 0.723711 0.371469 0.038042
O O15 0.088175 0.652210 0.046947
#
# Coordination Sequence:
#
# PCOD8124475 Si02
#       7
#     4   4   4   4   4   4   4
#     4  11  22  45  68  95 139 184 229 278 353 408
#     4  11  23  42  66  99 134 174 227 283 338 410
#     4  11  21  40  69  97 133 179 220 284 343 406
#     4  11  23  44  67 100 136 183 231 281 353 413
#     4  10  19  37  71  94 127 178 224 274 346 407
#     4  11  23  44  70 103 133 175 236 282 342 418
#     4  11  25  44  67  98 140 175 228 291 340 414
#
# _framework density 21.410862999999999
#
# number of rings (size 3 to 8) (size 9 to 14) (size 15 to 20)
#    0.000    1.143    5.714    2.571    0.000    4.571 
#    5.143    0.714    0.000    0.000    0.000    0.000 
#    0.000    0.000    0.000    0.000    0.000    0.000 
#
# Total GULP energy -346888.331730 kJ/mol
# GULP energy per Si atom -12388.868990 kJ/mol
# Density = 2.136213 g / cm^3
# Si number density = 21.410863 Si / 1000 Ang^3
#
#
#
# Elastic Constant Matrix: (Units=GPa)
#
#
# Indices 1 2 3 4 5 6 
#
# 1 37.2114 12.1672 38.6343 0.0000 -4.0944 0.0000
# 2 12.1672 95.2592 28.2356 0.0000 -2.4492 0.0000
# 3 38.6343 28.2356 96.7723 0.0000 -5.4563 0.0000
# 4 0.0000 0.0000 0.0000 41.8928 0.0000 4.2170
# 5 -4.0944 -2.4492 -5.4563 0.0000 29.9830 0.0000
# 6 0.0000 0.0000 0.0000 4.2170 0.0000 29.4399
#
#
#
# Elastic Compliance Matrix: (Units=1/GPa)
#
#
# Indices 1 2 3 4 5 6 
#
# 1 0.046177 -0.000446 -0.018138 0.000000 0.002969 0.000000
# 2 -0.000446 0.011499 -0.003160 0.000000 0.000303 0.000000
# 3 -0.018138 -0.003160 0.018533 0.000000 0.000638 0.000000
# 4 0.000000 0.000000 0.000000 0.024220 0.000000 -0.003469
# 5 0.002969 0.000303 0.000638 0.000000 0.033898 0.000000
# 6 0.000000 0.000000 0.000000 -0.003469 0.000000 0.034464
#
#
# Mechanical properties :
#
#
# Convention : Reuss Voigt Hill
#
# Bulk Modulus (GPa) = 30.56063 43.03525 36.79794
# Shear Modulus (GPa) = 22.40282 30.27686 26.33984
#
# Velocity S-wave (km/s) = 3.23821 3.76452 3.51124
# Velocity P-wave (km/s) = 5.31844 6.24810 5.80192
#
# Compressibility (1/GPa) = 0.03272184
#
# Stress axis : x y z
#
# Youngs Moduli (GPa) = 21.65566 86.96349 53.95862
#
# Poissons Ratio (x) = 0.03875 0.97870
# Poissons Ratio (y) = 0.00965 0.17052
# Poissons Ratio (z) = 0.39279 0.27482
#
# Static dielectric constant tensor:
#      x y z
#    x 12.057810 0.000000 -9.460930 
#    y 0.000000 2.302220 0.000000 
#    z -9.460930 0.000000 15.779970 
# 
# 
# High freq. dielectric constant tensor:
#      x y z
#    x 1.818930 0.000000 0.021620 
#    y 0.000000 1.841590 0.000000 
#    z 0.021620 0.000000 1.852850 
# 
# From -- ./inp_files/25593.got.cif
#   From: 2010.03.12/outbox.cif.g09.slc.cpg/sg14_13_cif.got.tgz:25593.got - 2010.03.31 13:35:05.
