data_PCOD8124789
_publ_section_title
;
Structure prediction by ZEFSAII (Michael W. Deem and Ramdas Pophale) SiO2 
 PCOD8124789
Probable space group: P 21/C
;
_chemical_formula_sum "Si O2"
_cell_formula_units_Z 28
_cell_length_a 20.965904
_cell_length_b 5.527965
_cell_length_c 24.185958
_cell_angle_alpha 90.000000
_cell_angle_beta 150.096209
_cell_angle_gamma 90.000000
_cell_volume 1397.483284
_symmetry_space_group_name_H-M "P 21/C"
_symmetry_group_IT_number 14
_symmetry_cell_setting 'monoclinic'
loop_
_space_group_symop_operation_xyz
x,y,z
-x,1/2+y,1/2-z
-x,-y,-z
x,1/2-y,1/2+z
loop_
_atom_site_type_symbol
_atom_site_label
_atom_site_fract_x
_atom_site_fract_y
_atom_site_fract_z
Si Si1 0.973497 0.928103 0.812478
Si Si2 0.832607 0.366316 0.111490
Si Si3 0.348542 0.928108 0.687522
Si Si4 0.902090 0.760048 0.368790
Si Si5 0.835490 0.239952 0.868791
Si Si6 0.609626 0.133690 0.888510
Si Si7 0.806803 0.749997 0.500000
O O1 0.916649 0.734634 0.812814
O O2 0.060205 0.819664 0.828948
O O3 0.858593 0.069266 0.695103
O O4 0.066067 0.098524 0.919442
O O5 0.691080 0.250000 0.000000
O O6 0.842399 0.599581 0.080670
O O7 0.291021 0.734635 0.687185
O O8 0.402310 0.819676 0.671052
O O9 0.468387 0.069270 0.804897
O O10 0.227181 0.098528 0.580556
O O11 0.826791 0.510209 0.327587
O O12 0.038869 0.750000 0.500000
O O13 0.828382 0.010209 0.327587
O O14 0.681058 0.900429 0.919327
#
# Coordination Sequence:
#
# PCOD8124789 Si02
#       7
#     4   4   4   4   4   4   4
#     4  11  21  36  59  84 120 153 196 245 305 362
#     4  10  21  35  56  87 114 153 189 247 306 363
#     4  11  21  36  59  84 120 153 196 245 305 362
#     4  10  23  38  58  86 121 162 203 247 300 362
#     4  10  23  38  58  86 121 162 203 247 300 362
#     4  10  21  35  56  87 114 153 189 247 306 363
#     4  10  20  34  54  86 114 148 188 242 298 372
#
# _framework density 20.036017000000001
#
# number of rings (size 3 to 8) (size 9 to 14) (size 15 to 20)
#    0.000    1.714    2.857    2.571   10.000    0.000 
#    0.000    0.000    0.000    1.714    0.000    0.000 
#    0.000    0.000    0.000    0.000    0.000    0.000 
#
# Total GULP energy -347102.022438 kJ/mol
# GULP energy per Si atom -12396.500801 kJ/mol
# Density = 1.999041 g / cm^3
# Si number density = 20.036017 Si / 1000 Ang^3
#
#
#
# Elastic Constant Matrix: (Units=GPa)
#
#
# Indices 1 2 3 4 5 6 
#
# 1 57.1959 18.3035 35.3140 0.0000 0.0281 0.0000
# 2 18.3035 99.2897 30.6722 0.0000 0.1099 0.0000
# 3 35.3140 30.6722 94.3266 0.0000 0.3040 0.0000
# 4 0.0000 0.0000 0.0000 24.7942 0.0000 0.1195
# 5 0.0281 0.1099 0.3040 0.0000 12.4881 0.0000
# 6 0.0000 0.0000 0.0000 0.1195 0.0000 11.5790
#
#
#
# Elastic Compliance Matrix: (Units=1/GPa)
#
#
# Indices 1 2 3 4 5 6 
#
# 1 0.023013 -0.001757 -0.008045 0.000000 0.000160 0.000000
# 2 -0.001757 0.011330 -0.003026 0.000000 -0.000022 0.000000
# 3 -0.008045 -0.003026 0.014598 0.000000 -0.000311 0.000000
# 4 0.000000 0.000000 0.000000 0.040334 0.000000 -0.000416
# 5 0.000160 -0.000022 -0.000311 0.000000 0.080084 0.000000
# 6 0.000000 0.000000 0.000000 -0.000416 0.000000 0.086367
#
#
# Mechanical properties :
#
#
# Convention : Reuss Voigt Hill
#
# Bulk Modulus (GPa) = 42.94611 46.59907 44.77259
# Shear Modulus (GPa) = 17.29236 20.87377 19.08306
#
# Velocity S-wave (km/s) = 2.94098 3.23121 3.08951
# Velocity P-wave (km/s) = 5.74574 6.10157 5.92632
#
# Compressibility (1/GPa) = 0.02328499
#
# Stress axis : x y z
#
# Youngs Moduli (GPa) = 43.45355 88.25813 68.50103
#
# Poissons Ratio (x) = 0.15510 0.55107
# Poissons Ratio (y) = 0.07636 0.20731
# Poissons Ratio (z) = 0.34957 0.26710
#
# Static dielectric constant tensor:
#      x y z
#    x 3.265620 0.000000 0.003070 
#    y 0.000000 4.029320 0.000000 
#    z 0.003070 0.000000 3.608930 
# 
# 
# High freq. dielectric constant tensor:
#      x y z
#    x 1.744760 0.000000 0.000150 
#    y 0.000000 1.798420 0.000000 
#    z 0.000150 0.000000 1.761500 
# 
# From -- ./inp_files/63603.got.cif
#   From: 2010.03.12/outbox.cif.g09.slc.cpg/sg14_32_cif.got.tgz:63603.got - 2010.03.31 13:35:05.
