data_PCOD8124386
_publ_section_title
;
Structure prediction by ZEFSAII (Michael W. Deem and Ramdas Pophale) SiO2 
 PCOD8124386
Probable space group: P 21/C
;
_chemical_formula_sum "Si O2"
_cell_formula_units_Z 32
_cell_length_a 19.482384
_cell_length_b 8.533465
_cell_length_c 15.244157
_cell_angle_alpha 90.000000
_cell_angle_beta 42.019321
_cell_angle_gamma 90.000000
_cell_volume 1696.463084
_symmetry_space_group_name_H-M "P 21/C"
_symmetry_group_IT_number 14
_symmetry_cell_setting 'monoclinic'
loop_
_space_group_symop_operation_xyz
x,y,z
-x,1/2+y,1/2-z
-x,-y,-z
x,1/2-y,1/2+z
loop_
_atom_site_type_symbol
_atom_site_label
_atom_site_fract_x
_atom_site_fract_y
_atom_site_fract_z
Si Si1 0.391174 0.756242 0.283714
Si Si2 0.294097 0.072287 0.370835
Si Si3 0.100875 0.880034 0.499326
Si Si4 0.257576 0.215242 0.742486
Si Si5 0.720251 0.044966 0.989800
Si Si6 0.882504 0.523530 0.200995
Si Si7 0.624811 0.767012 0.537934
Si Si8 0.215908 0.927014 0.889321
O O1 0.343451 0.703138 0.424415
O O2 0.506335 0.694100 0.166652
O O3 0.321524 0.673361 0.274336
O O4 0.384644 0.943116 0.278238
O O5 0.307655 0.194029 0.277775
O O6 0.303994 0.154948 0.455427
O O7 0.184876 0.983934 0.470437
O O8 0.121246 0.694048 0.487865
O O9 0.990091 0.927024 0.644104
O O10 0.098995 0.910277 0.397646
O O11 0.170719 0.315909 0.777947
O O12 0.344688 0.173499 0.588143
O O13 0.203539 0.053742 0.824289
O O14 0.811232 0.076361 0.834416
O O15 0.640890 0.919633 0.026370
O O16 0.774098 0.979721 0.027747
#
# Coordination Sequence:
#
# PCOD8124386 Si02
#       8
#     4   4   4   4   4   4   4   4
#     4   9  20  34  58  79 111 152 188 237 281 336
#     4  10  19  37  55  79 114 150 187 237 288 331
#     4   9  19  37  58  79 114 141 185 234 281 344
#     4  10  21  35  57  79 116 148 184 240 280 337
#     4   9  19  37  53  79 114 142 182 235 277 325
#     4   9  19  37  58  82 105 149 184 226 290 342
#     4  11  20  35  57  82 110 153 194 227 292 336
#     4   9  19  38  53  80 116 143 179 240 276 325
#
# _framework density 18.862774999999999
#
# number of rings (size 3 to 8) (size 9 to 14) (size 15 to 20)
#    0.750    1.750    1.250    0.750    0.000    2.500 
#    4.500    2.500    0.000    0.000    0.000    0.000 
#    0.000    0.000    0.000    0.000    0.000    0.000 
#
# Total GULP energy -396544.275203 kJ/mol
# GULP energy per Si atom -12392.008600 kJ/mol
# Density = 1.881984 g / cm^3
# Si number density = 18.862775 Si / 1000 Ang^3
#
#
#
# Elastic Constant Matrix: (Units=GPa)
#
#
# Indices 1 2 3 4 5 6 
#
# 1 54.3662 13.0120 22.9213 0.0000 -1.8868 0.0000
# 2 13.0120 63.9184 19.2129 0.0000 4.6255 0.0000
# 3 22.9213 19.2129 98.9689 0.0000 -0.7766 0.0000
# 4 0.0000 0.0000 0.0000 21.1397 0.0000 4.6580
# 5 -1.8868 4.6255 -0.7766 0.0000 28.9226 0.0000
# 6 0.0000 0.0000 0.0000 4.6580 0.0000 21.2749
#
#
#
# Elastic Compliance Matrix: (Units=1/GPa)
#
#
# Indices 1 2 3 4 5 6 
#
# 1 0.020991 -0.003125 -0.004241 0.000000 0.001755 0.000000
# 2 -0.003125 0.017300 -0.002659 0.000000 -0.003042 0.000000
# 3 -0.004241 -0.002659 0.011606 0.000000 0.000460 0.000000
# 4 0.000000 0.000000 0.000000 0.049702 0.000000 -0.010882
# 5 0.001755 -0.003042 0.000460 0.000000 0.035188 0.000000
# 6 0.000000 0.000000 0.000000 -0.010882 0.000000 0.049386
#
#
# Mechanical properties :
#
#
# Convention : Reuss Voigt Hill
#
# Bulk Modulus (GPa) = 33.50370 36.39400 34.94885
# Shear Modulus (GPa) = 23.34561 25.07460 24.21011
#
# Velocity S-wave (km/s) = 3.52185 3.64994 3.58646
# Velocity P-wave (km/s) = 5.85989 6.09087 5.97649
#
# Compressibility (1/GPa) = 0.02984745
#
# Stress axis : x y z
#
# Youngs Moduli (GPa) = 47.64000 57.80194 86.16139
#
# Poissons Ratio (x) = 0.18065 0.36541
# Poissons Ratio (y) = 0.14889 0.22907
# Poissons Ratio (z) = 0.20204 0.15367
#
# Static dielectric constant tensor:
#      x y z
#    x 3.381610 0.000000 0.010610 
#    y 0.000000 3.312370 0.000000 
#    z 0.010610 0.000000 3.369640 
# 
# 
# High freq. dielectric constant tensor:
#      x y z
#    x 1.723570 0.000000 -0.002380 
#    y 0.000000 1.726610 0.000000 
#    z -0.002380 0.000000 1.717200 
# 
# From -- ./inp_files/50085.got.cif
#   From: 2010.03.12/outbox.cif.g09.slc.cpg/sg14_26_cif.got.tgz:50085.got - 2010.03.31 13:35:05.
