data_PCOD8124809
_publ_section_title
;
Structure prediction by ZEFSAII (Michael W. Deem and Ramdas Pophale) SiO2 
 PCOD8124809
Probable space group: P 21/C
;
_chemical_formula_sum "Si O2"
_cell_formula_units_Z 28
_cell_length_a 27.212087
_cell_length_b 8.699576
_cell_length_c 18.428718
_cell_angle_alpha 90.000000
_cell_angle_beta 161.648566
_cell_angle_gamma 90.000000
_cell_volume 1373.571719
_symmetry_space_group_name_H-M "P 21/C"
_symmetry_group_IT_number 14
_symmetry_cell_setting 'monoclinic'
loop_
_space_group_symop_operation_xyz
x,y,z
-x,1/2+y,1/2-z
-x,-y,-z
x,1/2-y,1/2+z
loop_
_atom_site_type_symbol
_atom_site_label
_atom_site_fract_x
_atom_site_fract_y
_atom_site_fract_z
Si Si1 0.304713 0.272430 0.618845
Si Si2 0.682743 0.869631 0.066087
Si Si3 0.492645 0.948228 0.408474
Si Si4 0.411166 0.139959 0.911847
Si Si5 0.460321 0.678763 0.666161
Si Si6 0.912807 0.812168 0.808609
Si Si7 0.232090 0.925538 0.300348
O O1 0.347586 0.455457 0.670339
O O2 0.298897 0.219238 0.694585
O O3 0.445813 0.179764 0.778067
O O4 0.144104 0.227876 0.353285
O O5 0.574997 0.719125 0.894550
O O6 0.607476 0.009198 0.914830
O O7 0.694168 0.913070 0.167230
O O8 0.856700 0.830094 0.281441
O O9 0.469150 0.763098 0.382862
O O10 0.500000 0.000000 0.500000
O O11 0.658888 0.984881 0.603602
O O12 0.500000 0.000000 0.000000
O O13 0.319833 0.796938 0.468861
O O14 0.837452 0.967222 0.734577
O O15 0.097954 0.835638 0.066819
#
# Coordination Sequence:
#
# PCOD8124809 Si02
#       7
#     4   4   4   4   4   4   4
#     4   9  19  35  56  86 116 151 199 247 299 365
#     4  11  21  34  59  86 120 153 201 255 309 358
#     4   9  19  36  61  84 113 154 199 245 304 349
#     4  11  20  33  57  89 118 151 195 260 307 353
#     4  10  20  34  57  85 111 149 202 255 295 364
#     4  10  21  36  60  86 119 165 197 241 303 377
#     4  10  20  37  59  86 122 156 201 243 302 364
#
# _framework density 20.384812
#
# number of rings (size 3 to 8) (size 9 to 14) (size 15 to 20)
#    0.000    2.000    2.857    1.714    4.000    0.571 
#    0.000    0.000    6.286    3.429    0.000    0.000 
#    0.000    0.000    0.000    0.000    0.000    0.000 
#
# Total GULP energy -346867.159985 kJ/mol
# GULP energy per Si atom -12388.112857 kJ/mol
# Density = 2.033842 g / cm^3
# Si number density = 20.384812 Si / 1000 Ang^3
#
#
#
# Elastic Constant Matrix: (Units=GPa)
#
#
# Indices 1 2 3 4 5 6 
#
# 1 111.1309 23.0021 25.4162 0.0000 -20.3868 0.0000
# 2 23.0021 98.2456 28.9810 0.0000 1.2589 0.0000
# 3 25.4162 28.9810 86.7241 0.0000 -9.3288 0.0000
# 4 0.0000 0.0000 0.0000 28.7069 0.0000 -6.0357
# 5 -20.3868 1.2589 -9.3288 0.0000 24.8931 0.0000
# 6 0.0000 0.0000 0.0000 -6.0357 0.0000 32.1488
#
#
#
# Elastic Compliance Matrix: (Units=1/GPa)
#
#
# Indices 1 2 3 4 5 6 
#
# 1 0.011488 -0.002322 -0.001632 0.000000 0.008914 0.000000
# 2 -0.002322 0.011864 -0.003703 0.000000 -0.003890 0.000000
# 3 -0.001632 -0.003703 0.013674 0.000000 0.003975 0.000000
# 4 0.000000 0.000000 0.000000 0.036266 0.000000 0.006809
# 5 0.008914 -0.003890 0.003975 0.000000 0.049159 0.000000
# 6 0.000000 0.000000 0.000000 0.006809 0.000000 0.032384
#
#
# Mechanical properties :
#
#
# Convention : Reuss Voigt Hill
#
# Bulk Modulus (GPa) = 46.05642 50.09990 48.07816
# Shear Modulus (GPa) = 28.18722 31.72983 29.95852
#
# Velocity S-wave (km/s) = 3.72258 3.94958 3.83776
# Velocity P-wave (km/s) = 6.41243 6.74013 6.57832
#
# Compressibility (1/GPa) = 0.02171250
#
# Stress axis : x y z
#
# Youngs Moduli (GPa) = 87.05089 84.28604 73.13182
#
# Poissons Ratio (x) = 0.19575 0.11933
# Poissons Ratio (y) = 0.20217 0.27077
# Poissons Ratio (z) = 0.14204 0.31207
#
# Static dielectric constant tensor:
#      x y z
#    x 3.639300 0.000000 -0.176400 
#    y 0.000000 3.983010 0.000000 
#    z -0.176400 0.000000 3.573690 
# 
# 
# High freq. dielectric constant tensor:
#      x y z
#    x 1.801880 0.000000 -0.022120 
#    y 0.000000 1.810530 0.000000 
#    z -0.022120 0.000000 1.752220 
# 
# From -- ./inp_files/70682.got.cif
#   From: 2010.03.12/outbox.cif.g09.slc.cpg/sg14_36_cif.got.tgz:70682.got - 2010.03.31 13:35:05.
