data_PCOD8124961
_publ_section_title
;
Structure prediction by ZEFSAII (Michael W. Deem and Ramdas Pophale) SiO2 
 PCOD8124961
Probable space group: P 21/C
;
_chemical_formula_sum "Si O2"
_cell_formula_units_Z 28
_cell_length_a 8.423227
_cell_length_b 16.130630
_cell_length_c 13.719318
_cell_angle_alpha 90.000000
_cell_angle_beta 127.428953
_cell_angle_gamma 90.000000
_cell_volume 1480.272625
_symmetry_space_group_name_H-M "P 21/C"
_symmetry_group_IT_number 14
_symmetry_cell_setting 'monoclinic'
loop_
_space_group_symop_operation_xyz
x,y,z
-x,1/2+y,1/2-z
-x,-y,-z
x,1/2-y,1/2+z
loop_
_atom_site_type_symbol
_atom_site_label
_atom_site_fract_x
_atom_site_fract_y
_atom_site_fract_z
Si Si1 0.949169 0.581859 0.857382
Si Si2 0.275442 0.934865 0.638618
Si Si3 0.935767 0.001650 0.153677
Si Si4 0.275755 0.849111 0.839540
Si Si5 0.731557 0.843292 0.997060
Si Si6 0.276666 0.111365 0.218552
Si Si7 0.907385 0.747082 0.733867
O O1 0.774784 0.529512 0.847135
O O2 0.020081 0.533555 0.787259
O O3 0.865872 0.671674 0.793377
O O4 0.138332 0.593056 0.997857
O O5 0.235309 0.871627 0.711791
O O6 0.504588 0.928607 0.690573
O O7 0.810090 0.935112 0.047350
O O8 0.779838 0.075060 0.111830
O O9 0.124694 0.033906 0.162423
O O10 0.141908 0.770286 0.820452
O O11 0.504792 0.829625 0.946534
O O12 0.857617 0.776098 0.103617
O O13 0.750608 0.832476 0.888343
O O14 0.228516 0.173670 0.289410
#
# Coordination Sequence:
#
# PCOD8124961 Si02
#       7
#     4   4   4   4   4   4   4
#     4   9  19  36  57  79 113 149 190 224 274 332
#     4   9  19  36  58  79 112 153 185 228 273 332
#     4   9  18  36  56  81 108 141 186 228 273 334
#     4   9  19  35  56  79 110 149 181 230 280 324
#     4  10  20  36  55  79 109 148 183 227 278 332
#     4  10  21  36  56  85 114 144 185 235 280 320
#     4  10  22  35  54  84 114 144 191 229 278 332
#
# _framework density 18.915434000000001
#
# number of rings (size 3 to 8) (size 9 to 14) (size 15 to 20)
#    0.000    2.571    0.000    0.857    4.000    1.714 
#    0.000    5.714    0.000    0.000    0.000    0.000 
#    0.000    0.000    0.000    0.000    0.000    0.000 
#
# Total GULP energy -347160.998674 kJ/mol
# GULP energy per Si atom -12398.607096 kJ/mol
# Density = 1.887238 g / cm^3
# Si number density = 18.915434 Si / 1000 Ang^3
#
#
#
# Elastic Constant Matrix: (Units=GPa)
#
#
# Indices 1 2 3 4 5 6 
#
# 1 106.9571 37.6021 24.6141 0.0000 20.5572 0.0000
# 2 37.6021 84.1732 24.8430 0.0000 14.2600 0.0000
# 3 24.6141 24.8430 73.5407 0.0000 9.2185 0.0000
# 4 0.0000 0.0000 0.0000 15.4687 0.0000 -0.0307
# 5 20.5572 14.2600 9.2185 0.0000 23.2832 0.0000
# 6 0.0000 0.0000 0.0000 -0.0307 0.0000 23.6872
#
#
#
# Elastic Compliance Matrix: (Units=1/GPa)
#
#
# Indices 1 2 3 4 5 6 
#
# 1 0.012668 -0.003699 -0.001970 0.000000 -0.008139 0.000000
# 2 -0.003699 0.015332 -0.003339 0.000000 -0.004802 0.000000
# 3 -0.001970 -0.003339 0.015690 0.000000 -0.002427 0.000000
# 4 0.000000 0.000000 0.000000 0.064647 0.000000 0.000084
# 5 -0.008139 -0.004802 -0.002427 0.000000 0.054038 0.000000
# 6 0.000000 0.000000 0.000000 0.000084 0.000000 0.042217
#
#
# Mechanical properties :
#
#
# Convention : Reuss Voigt Hill
#
# Bulk Modulus (GPa) = 38.95169 48.75436 43.85303
# Shear Modulus (GPa) = 21.62963 24.32861 22.97912
#
# Velocity S-wave (km/s) = 3.38522 3.59022 3.48923
# Velocity P-wave (km/s) = 5.99307 6.55874 6.28228
#
# Compressibility (1/GPa) = 0.02567283
#
# Stress axis : x y z
#
# Youngs Moduli (GPa) = 78.94183 65.22467 63.73627
#
# Poissons Ratio (x) = 0.24124 0.12557
# Poissons Ratio (y) = 0.29197 0.21284
# Poissons Ratio (z) = 0.15553 0.21781
#
# Static dielectric constant tensor:
#      x y z
#    x 3.481900 0.000000 -0.050250 
#    y 0.000000 3.402060 0.000000 
#    z -0.050250 0.000000 3.419330 
# 
# 
# High freq. dielectric constant tensor:
#      x y z
#    x 1.732660 0.000000 -0.004620 
#    y 0.000000 1.728610 0.000000 
#    z -0.004620 0.000000 1.735220 
# 
# From -- ./inp_files/25102.got.cif
#   From: 2010.03.12/outbox.cif.g09.slc.cpg/sg14_13_cif.got.tgz:25102.got - 2010.03.31 13:35:05.
