data_PCOD8124122
_publ_section_title
;
Structure prediction by ZEFSAII (Michael W. Deem and Ramdas Pophale) SiO2 
 PCOD8124122
Probable space group: P 21/C
;
_chemical_formula_sum "Si O2"
_cell_formula_units_Z 32
_cell_length_a 11.510121
_cell_length_b 8.543666
_cell_length_c 26.553301
_cell_angle_alpha 90.000000
_cell_angle_beta 35.969627
_cell_angle_gamma 90.000000
_cell_volume 1533.713721
_symmetry_space_group_name_H-M "P 21/C"
_symmetry_group_IT_number 14
_symmetry_cell_setting 'monoclinic'
loop_
_space_group_symop_operation_xyz
x,y,z
-x,1/2+y,1/2-z
-x,-y,-z
x,1/2-y,1/2+z
loop_
_atom_site_type_symbol
_atom_site_label
_atom_site_fract_x
_atom_site_fract_y
_atom_site_fract_z
Si Si1 0.296788 0.931415 0.094305
Si Si2 0.293311 0.950477 0.364200
Si Si3 0.980038 0.595096 0.111786
Si Si4 0.372799 0.804657 0.754680
Si Si5 0.522071 0.713963 0.862365
Si Si6 0.900021 0.928328 0.177851
Si Si7 0.618987 0.128546 0.486536
Si Si8 0.321690 0.966659 0.202880
O O1 0.300845 0.745587 0.083949
O O2 0.097566 0.991207 0.136469
O O3 0.266231 0.962183 0.163772
O O4 0.500000 0.000000 0.000000
O O5 0.362700 0.810278 0.304759
O O6 0.328998 0.879357 0.407580
O O7 0.078061 0.016002 0.422213
O O8 0.429265 0.099409 0.306847
O O9 0.951338 0.784604 0.121908
O O10 0.864418 0.512430 0.197814
O O11 0.204682 0.549777 0.043830
O O12 0.396513 0.703378 0.694757
O O13 0.182368 0.919422 0.822219
O O14 0.726735 0.628305 0.776258
O O15 0.516202 0.894939 0.846242
O O16 0.517553 0.715849 0.924488
O O17 0.500000 0.000000 0.500000
#
# Coordination Sequence:
#
# PCOD8124122 Si02
#       8
#     4   4   4   4   4   4   4   4
#     4  11  23  40  60  85 126 159 198 252 301 362
#     4  10  19  35  61  89 120 155 198 254 296 359
#     4   9  21  40  59  90 120 156 199 255 296 361
#     4  10  19  34  63  91 116 155 205 249 302 358
#     4  10  21  39  59  88 123 159 196 250 297 363
#     4   9  21  36  61  90 119 155 204 246 304 356
#     4  11  25  40  61  88 126 158 204 247 304 354
#     4  10  21  37  60  89 120 158 203 243 307 360
#
# _framework density 20.864388999999999
#
# number of rings (size 3 to 8) (size 9 to 14) (size 15 to 20)
#    0.000    2.000    1.250    3.000    5.250    4.500 
#    0.000    0.000    2.750    2.250    0.000    0.000 
#    0.000    0.000    0.000    0.000    0.000    0.000 
#
# Total GULP energy -396517.451347 kJ/mol
# GULP energy per Si atom -12391.170355 kJ/mol
# Density = 2.081690 g / cm^3
# Si number density = 20.864389 Si / 1000 Ang^3
#
#
#
# Elastic Constant Matrix: (Units=GPa)
#
#
# Indices 1 2 3 4 5 6 
#
# 1 114.0390 47.5813 22.9849 0.0000 -14.4421 0.0000
# 2 47.5813 111.1311 7.6709 0.0000 -4.8965 0.0000
# 3 22.9849 7.6709 30.7743 0.0000 0.6338 0.0000
# 4 0.0000 0.0000 0.0000 21.9330 0.0000 -0.2833
# 5 -14.4421 -4.8965 0.6338 0.0000 41.0976 0.0000
# 6 0.0000 0.0000 0.0000 -0.2833 0.0000 43.4016
#
#
#
# Elastic Compliance Matrix: (Units=1/GPa)
#
#
# Indices 1 2 3 4 5 6 
#
# 1 0.013036 -0.004804 -0.008624 0.000000 0.004142 0.000000
# 2 -0.004804 0.010978 0.000859 0.000000 -0.000393 0.000000
# 3 -0.008624 0.000859 0.038794 0.000000 -0.003527 0.000000
# 4 0.000000 0.000000 0.000000 0.045597 0.000000 0.000298
# 5 0.004142 -0.000393 -0.003527 0.000000 0.025795 0.000000
# 6 0.000000 0.000000 0.000000 0.000298 0.000000 0.023043
#
#
# Mechanical properties :
#
#
# Convention : Reuss Voigt Hill
#
# Bulk Modulus (GPa) = 26.54516 45.82429 36.18473
# Shear Modulus (GPa) = 25.64917 33.13362 29.39140
#
# Velocity S-wave (km/s) = 3.50998 3.98935 3.75732
# Velocity P-wave (km/s) = 5.40157 6.57499 6.01695
#
# Compressibility (1/GPa) = 0.03767165
#
# Stress axis : x y z
#
# Youngs Moduli (GPa) = 76.71110 91.08774 25.77692
#
# Poissons Ratio (x) = 0.43755 0.22231
# Poissons Ratio (y) = 0.36849 -0.02215
# Poissons Ratio (z) = 0.66158 -0.07828
#
# Static dielectric constant tensor:
#      x y z
#    x 4.105150 0.000000 -0.108750 
#    y 0.000000 3.703380 0.000000 
#    z -0.108750 0.000000 3.728710 
# 
# 
# High freq. dielectric constant tensor:
#      x y z
#    x 1.824530 0.000000 -0.000260 
#    y 0.000000 1.825920 0.000000 
#    z -0.000260 0.000000 1.796540 
# 
# From -- ./inp_files/77022.got.cif
#   From: 2010.03.12/outbox.cif.g09.slc.cpg/sg14_39_cif.got.tgz:77022.got - 2010.03.31 13:35:05.
