data_PCOD8124285
_publ_section_title
;
Structure prediction by ZEFSAII (Michael W. Deem and Ramdas Pophale) SiO2 
 PCOD8124285
Probable space group: P 21/C
;
_chemical_formula_sum "Si O2"
_cell_formula_units_Z 28
_cell_length_a 9.607468
_cell_length_b 15.122172
_cell_length_c 14.253943
_cell_angle_alpha 90.000000
_cell_angle_beta 136.327538
_cell_angle_gamma 90.000000
_cell_volume 1430.025365
_symmetry_space_group_name_H-M "P 21/C"
_symmetry_group_IT_number 14
_symmetry_cell_setting 'monoclinic'
loop_
_space_group_symop_operation_xyz
x,y,z
-x,1/2+y,1/2-z
-x,-y,-z
x,1/2-y,1/2+z
loop_
_atom_site_type_symbol
_atom_site_label
_atom_site_fract_x
_atom_site_fract_y
_atom_site_fract_z
Si Si1 0.897389 0.210476 0.702608
Si Si2 0.915556 0.137211 0.903301
Si Si3 0.269473 0.639898 0.495330
Si Si4 0.655730 0.820108 0.083642
Si Si5 0.477839 0.130198 0.494303
Si Si6 0.322119 0.053794 0.069416
Si Si7 0.600694 0.998269 0.700059
O O1 0.110313 0.167419 0.772085
O O2 0.900923 0.213762 0.817678
O O3 0.862937 0.310214 0.648398
O O4 0.712715 0.147413 0.580815
O O5 0.813915 0.046515 0.817782
O O6 0.805900 0.176559 0.941156
O O7 0.145826 0.110283 0.033635
O O8 0.507364 0.663009 0.599121
O O9 0.238866 0.534445 0.477154
O O10 0.633321 0.720703 0.033877
O O11 0.580655 0.886291 0.964489
O O12 0.452573 0.066395 0.572983
O O13 0.371830 0.087740 0.351600
O O14 0.473795 0.028739 0.230124
#
# Coordination Sequence:
#
# PCOD8124285 Si02
#       7
#     4   4   4   4   4   4   4
#     4   9  20  37  52  85 115 140 188 237 273 340
#     4   9  19  35  58  86 108 148 200 229 270 346
#     4  10  19  36  58  81 113 153 184 228 294 326
#     4  10  21  36  56  84 116 145 183 237 295 326
#     4   9  19  35  55  83 109 152 184 234 281 333
#     4  10  20  35  58  88 111 150 193 232 280 348
#     4   9  17  34  57  79 109 140 197 230 269 331
#
# _framework density 19.580072999999999
#
# number of rings (size 3 to 8) (size 9 to 14) (size 15 to 20)
#    0.000    2.571    0.000    2.143    4.000    0.000 
#   20.571    0.000    0.000    3.429    0.000    0.000 
#    0.000    0.000    0.000    0.000    0.000    0.000 
#
# Total GULP energy -346913.405666 kJ/mol
# GULP energy per Si atom -12389.764488 kJ/mol
# Density = 1.953551 g / cm^3
# Si number density = 19.580073 Si / 1000 Ang^3
#
#
#
# Elastic Constant Matrix: (Units=GPa)
#
#
# Indices 1 2 3 4 5 6 
#
# 1 120.5995 37.6159 40.3778 0.0000 -5.9106 0.0000
# 2 37.6159 106.0279 44.1532 0.0000 -32.6583 0.0000
# 3 40.3778 44.1532 80.2929 0.0000 -13.4378 0.0000
# 4 0.0000 0.0000 0.0000 24.9853 0.0000 -7.7312
# 5 -5.9106 -32.6583 -13.4378 0.0000 31.4054 0.0000
# 6 0.0000 0.0000 0.0000 -7.7312 0.0000 23.3004
#
#
#
# Elastic Compliance Matrix: (Units=1/GPa)
#
#
# Indices 1 2 3 4 5 6 
#
# 1 0.010426 -0.002813 -0.004155 0.000000 -0.002741 0.000000
# 2 -0.002813 0.017468 -0.005644 0.000000 0.015220 0.000000
# 3 -0.004155 -0.005644 0.017810 0.000000 0.000970 0.000000
# 4 0.000000 0.000000 0.000000 0.044603 0.000000 0.014799
# 5 -0.002741 0.015220 0.000970 0.000000 0.047568 0.000000
# 6 0.000000 0.000000 0.000000 0.014799 0.000000 0.047828
#
#
# Mechanical properties :
#
#
# Convention : Reuss Voigt Hill
#
# Bulk Modulus (GPa) = 48.82728 61.24602 55.03665
# Shear Modulus (GPa) = 22.96185 28.25645 25.60915
#
# Velocity S-wave (km/s) = 3.42821 3.80297 3.62044
# Velocity P-wave (km/s) = 6.37664 7.11555 6.75620
#
# Compressibility (1/GPa) = 0.02048035
#
# Stress axis : x y z
#
# Youngs Moduli (GPa) = 95.91362 57.24849 56.14936
#
# Poissons Ratio (x) = 0.16103 0.23330
# Poissons Ratio (y) = 0.26979 0.31689
# Poissons Ratio (z) = 0.39852 0.32310
#
# Static dielectric constant tensor:
#      x y z
#    x 3.541390 0.000000 -0.139540 
#    y 0.000000 3.610480 0.000000 
#    z -0.139540 0.000000 3.563880 
# 
# 
# High freq. dielectric constant tensor:
#      x y z
#    x 1.744730 0.000000 -0.008530 
#    y 0.000000 1.760460 0.000000 
#    z -0.008530 0.000000 1.747240 
# 
# From -- ./inp_files/41275.got.cif
#   From: 2010.03.12/outbox.cif.g09.slc.cpg/sg14_21_cif.got.tgz:41275.got - 2010.03.31 13:35:05.
