data_PCOD8124489
_publ_section_title
;
Structure prediction by ZEFSAII (Michael W. Deem and Ramdas Pophale) SiO2 
 PCOD8124489
Probable space group: P 21/C
;
_chemical_formula_sum "Si O2"
_cell_formula_units_Z 32
_cell_length_a 13.847726
_cell_length_b 9.620375
_cell_length_c 20.494182
_cell_angle_alpha 90.000000
_cell_angle_beta 144.091735
_cell_angle_gamma 90.000000
_cell_volume 1601.257109
_symmetry_space_group_name_H-M "P 21/C"
_symmetry_group_IT_number 14
_symmetry_cell_setting 'monoclinic'
loop_
_space_group_symop_operation_xyz
x,y,z
-x,1/2+y,1/2-z
-x,-y,-z
x,1/2-y,1/2+z
loop_
_atom_site_type_symbol
_atom_site_label
_atom_site_fract_x
_atom_site_fract_y
_atom_site_fract_z
Si Si1 0.268974 0.045631 0.260021
Si Si2 0.615683 0.819549 0.111727
Si Si3 0.677203 0.302041 0.114768
Si Si4 0.439636 0.588064 0.646229
Si Si5 0.884900 0.042393 0.222047
Si Si6 0.815921 0.099233 0.558566
Si Si7 0.914027 0.092361 0.090245
Si Si8 0.540351 0.395668 0.808392
O O1 0.292772 0.178689 0.319060
O O2 0.368470 0.059690 0.247574
O O3 0.073478 0.039614 0.137275
O O4 0.333550 0.908124 0.331650
O O5 0.512479 0.883080 0.115008
O O6 0.745335 0.929711 0.158007
O O7 0.491338 0.786056 0.984104
O O8 0.826777 0.196173 0.209397
O O9 0.702382 0.381871 0.060153
O O10 0.251418 0.536833 0.534981
O O11 0.543865 0.468197 0.739448
O O12 0.448464 0.729523 0.693655
O O13 0.933714 0.029566 0.173289
O O14 0.045484 0.016274 0.353989
O O15 0.906793 0.241030 0.588823
O O16 0.695408 0.048866 0.435043
#
# Coordination Sequence:
#
# PCOD8124489 Si02
#       8
#     4   4   4   4   4   4   4   4
#     4  11  21  37  61  90 116 156 189 241 299 349
#     4  11  21  37  63  83 122 160 190 232 303 352
#     4  11  21  35  57  94 123 145 193 239 294 354
#     4  10  22  43  59  83 114 161 201 239 285 343
#     4  11  21  35  60  93 120 154 187 242 299 350
#     4  10  19  38  58  86 122 155 185 240 292 351
#     4  10  20  37  62  85 123 152 188 241 299 347
#     4  10  23  42  62  81 115 158 205 237 285 345
#
# _framework density 19.984297999999999
#
# number of rings (size 3 to 8) (size 9 to 14) (size 15 to 20)
#    0.000    1.500    7.500    0.750    0.000    1.500 
#    2.250    0.625    0.000    0.000    0.000    0.000 
#    0.000    0.000    0.000    0.000    0.000    0.000 
#
# Total GULP energy -396869.628925 kJ/mol
# GULP energy per Si atom -12402.175904 kJ/mol
# Density = 1.993881 g / cm^3
# Si number density = 19.984298 Si / 1000 Ang^3
#
#
#
# Elastic Constant Matrix: (Units=GPa)
#
#
# Indices 1 2 3 4 5 6 
#
# 1 37.5161 20.6273 31.5657 0.0000 11.9914 0.0000
# 2 20.6273 51.3446 29.6201 0.0000 -2.8455 0.0000
# 3 31.5657 29.6201 131.3748 0.0000 11.6639 0.0000
# 4 0.0000 0.0000 0.0000 37.2733 0.0000 -8.6135
# 5 11.9914 -2.8455 11.6639 0.0000 27.0409 0.0000
# 6 0.0000 0.0000 0.0000 -8.6135 0.0000 22.1617
#
#
#
# Elastic Compliance Matrix: (Units=1/GPa)
#
#
# Indices 1 2 3 4 5 6 
#
# 1 0.047164 -0.016741 -0.005765 0.000000 -0.020190 0.000000
# 2 -0.016741 0.028923 -0.003565 0.000000 0.012005 0.000000
# 3 -0.005765 -0.003565 0.009990 0.000000 -0.002127 0.000000
# 4 0.000000 0.000000 0.000000 0.029476 0.000000 0.011456
# 5 -0.020190 0.012005 -0.002127 0.000000 0.048115 0.000000
# 6 0.000000 0.000000 0.000000 0.011456 0.000000 0.049576
#
#
# Mechanical properties :
#
#
# Convention : Reuss Voigt Hill
#
# Bulk Modulus (GPa) = 29.46749 42.65128 36.05938
# Shear Modulus (GPa) = 18.07027 26.52333 22.29680
#
# Velocity S-wave (km/s) = 3.01029 3.64704 3.34386
# Velocity P-wave (km/s) = 5.18265 6.25486 5.74383
#
# Compressibility (1/GPa) = 0.03393570
#
# Stress axis : x y z
#
# Youngs Moduli (GPa) = 21.20262 34.57403 100.10395
#
# Poissons Ratio (x) = 0.57880 0.57712
# Poissons Ratio (y) = 0.35495 0.35684
# Poissons Ratio (z) = 0.12224 0.12324
#
# Static dielectric constant tensor:
#      x y z
#    x 3.336510 0.000000 0.192140 
#    y 0.000000 3.605310 0.000000 
#    z 0.192140 0.000000 3.810700 
# 
# 
# High freq. dielectric constant tensor:
#      x y z
#    x 1.752690 0.000000 0.017740 
#    y 0.000000 1.774930 0.000000 
#    z 0.017740 0.000000 1.788650 
# 
# From -- ./inp_files/73864.got.cif
#   From: 2010.03.12/outbox.cif.g09.slc.cpg/sg14_37_cif.got.tgz:73864.got - 2010.03.31 13:35:05.
