data_PCOD8124462
_publ_section_title
;
Structure prediction by ZEFSAII (Michael W. Deem and Ramdas Pophale) SiO2 
 PCOD8124462
Probable space group: P 21/C
;
_chemical_formula_sum "Si O2"
_cell_formula_units_Z 24
_cell_length_a 13.693944
_cell_length_b 11.586830
_cell_length_c 14.353650
_cell_angle_alpha 90.000000
_cell_angle_beta 26.319027
_cell_angle_gamma 90.000000
_cell_volume 1009.765984
_symmetry_space_group_name_H-M "P 21/C"
_symmetry_group_IT_number 14
_symmetry_cell_setting 'monoclinic'
loop_
_space_group_symop_operation_xyz
x,y,z
-x,1/2+y,1/2-z
-x,-y,-z
x,1/2-y,1/2+z
loop_
_atom_site_type_symbol
_atom_site_label
_atom_site_fract_x
_atom_site_fract_y
_atom_site_fract_z
Si Si1 0.746842 0.591137 0.715839
Si Si2 0.770341 0.423092 0.848758
Si Si3 0.208832 0.243690 0.472721
Si Si4 0.024185 0.980233 0.303706
Si Si5 0.704320 0.301356 0.502793
Si Si6 0.912097 0.770792 0.716337
O O1 0.848670 0.477330 0.680830
O O2 0.866763 0.635691 0.516593
O O3 0.768728 0.703700 0.763719
O O4 0.492356 0.562141 0.916548
O O5 0.869155 0.498919 0.847193
O O6 0.825281 0.287006 0.822684
O O7 0.088298 0.125466 0.543823
O O8 0.216696 0.265337 0.575617
O O9 0.455939 0.229964 0.225529
O O10 0.260502 0.931219 0.064689
O O11 0.062506 0.093616 0.333562
O O12 0.842616 0.283916 0.480649
#
# Coordination Sequence:
#
# PCOD8124462 Si02
#       6
#     4   4   4   4   4   4
#     4  10  19  37  65  91 116 161 204 250 300 355
#     4   9  18  36  62  85 123 152 196 262 285 344
#     4  10  21  38  61  88 120 163 201 246 311 359
#     4  10  20  39  61  86 129 159 193 254 301 363
#     4   9  19  36  59  90 119 160 202 242 304 360
#     4  10  21  40  59  87 127 157 199 259 296 358
#
# _framework density 23.767883000000001
#
# number of rings (size 3 to 8) (size 9 to 14) (size 15 to 20)
#    0.000    2.333    3.333    0.000    0.000    4.667 
#    0.000   19.167    0.000    0.000    0.000    0.000 
#    0.000    0.000    0.000    0.000    0.000    0.000 
#
# Total GULP energy -297350.146867 kJ/mol
# GULP energy per Si atom -12389.589453 kJ/mol
# Density = 2.371379 g / cm^3
# Si number density = 23.767883 Si / 1000 Ang^3
#
#
#
# Elastic Constant Matrix: (Units=GPa)
#
#
# Indices 1 2 3 4 5 6 
#
# 1 71.7224 18.7156 10.8023 0.0000 -0.6356 0.0000
# 2 18.7156 121.0528 20.9646 0.0000 -12.7049 0.0000
# 3 10.8023 20.9646 44.2542 0.0000 5.6969 0.0000
# 4 0.0000 0.0000 0.0000 25.8960 0.0000 -3.5252
# 5 -0.6356 -12.7049 5.6969 0.0000 28.2856 0.0000
# 6 0.0000 0.0000 0.0000 -3.5252 0.0000 45.5402
#
#
#
# Elastic Compliance Matrix: (Units=1/GPa)
#
#
# Indices 1 2 3 4 5 6 
#
# 1 0.014832 -0.001804 -0.002777 0.000000 0.000082 0.000000
# 2 -0.001804 0.009975 -0.004986 0.000000 0.005444 0.000000
# 3 -0.002777 -0.004986 0.026623 0.000000 -0.007664 0.000000
# 4 0.000000 0.000000 0.000000 0.039027 0.000000 0.003021
# 5 0.000082 0.005444 -0.007664 0.000000 0.039344 0.000000
# 6 0.000000 0.000000 0.000000 0.003021 0.000000 0.022192
#
#
# Mechanical properties :
#
#
# Convention : Reuss Voigt Hill
#
# Bulk Modulus (GPa) = 30.96205 37.55493 34.25849
# Shear Modulus (GPa) = 27.48887 32.38080 29.93484
#
# Velocity S-wave (km/s) = 3.40451 3.69504 3.55275
# Velocity P-wave (km/s) = 5.33941 5.83433 5.59235
#
# Compressibility (1/GPa) = 0.03229761
#
# Stress axis : x y z
#
# Youngs Moduli (GPa) = 67.42074 100.25542 37.56152
#
# Poissons Ratio (x) = 0.18082 0.10430
# Poissons Ratio (y) = 0.12160 0.18727
# Poissons Ratio (z) = 0.18720 0.49985
#
# Static dielectric constant tensor:
#      x y z
#    x 4.170220 0.000000 -0.163050 
#    y 0.000000 4.771610 0.000000 
#    z -0.163050 0.000000 4.241240 
# 
# 
# High freq. dielectric constant tensor:
#      x y z
#    x 1.921640 0.000000 -0.021620 
#    y 0.000000 1.965010 0.000000 
#    z -0.021620 0.000000 1.951050 
# 
# From -- ./inp_files/47032.got.cif
#   From: 2010.03.12/outbox.cif.g09.slc.cpg/sg14_24_cif.got.tgz:47032.got - 2010.03.31 13:35:05.
