data_PCOD8124372
_publ_section_title
;
Structure prediction by ZEFSAII (Michael W. Deem and Ramdas Pophale) SiO2 
 PCOD8124372
Probable space group: P 21/C
;
_chemical_formula_sum "Si O2"
_cell_formula_units_Z 32
_cell_length_a 8.814217
_cell_length_b 27.561004
_cell_length_c 11.446188
_cell_angle_alpha 90.000000
_cell_angle_beta 32.316128
_cell_angle_gamma 90.000000
_cell_volume 1486.485536
_symmetry_space_group_name_H-M "P 21/C"
_symmetry_group_IT_number 14
_symmetry_cell_setting 'monoclinic'
loop_
_space_group_symop_operation_xyz
x,y,z
-x,1/2+y,1/2-z
-x,-y,-z
x,1/2-y,1/2+z
loop_
_atom_site_type_symbol
_atom_site_label
_atom_site_fract_x
_atom_site_fract_y
_atom_site_fract_z
Si Si1 0.503419 0.436469 0.901381
Si Si2 0.392228 0.663471 0.545631
Si Si3 0.953486 0.616127 0.214387
Si Si4 0.375218 0.964536 0.416582
Si Si5 0.175958 0.147529 0.710977
Si Si6 0.113079 0.090304 0.983350
Si Si7 0.245707 0.698358 0.889862
Si Si8 0.311219 0.242538 0.737177
O O1 0.327052 0.477039 0.941441
O O2 0.818281 0.435984 0.641303
O O3 0.504999 0.452435 0.034113
O O4 0.355449 0.383373 0.998129
O O5 0.640067 0.623557 0.365886
O O6 0.294893 0.666295 0.742922
O O7 0.493897 0.716429 0.444344
O O8 0.145949 0.645645 0.621779
O O9 0.940966 0.619139 0.362261
O O10 0.082454 0.564805 0.084337
O O11 0.154999 0.660725 0.049345
O O12 0.629042 0.947937 0.164354
O O13 0.287971 0.202457 0.648883
O O14 0.199191 0.127700 0.827224
O O15 0.535317 0.723679 0.744790
O O16 0.000510 0.738092 0.025228
#
# Coordination Sequence:
#
# PCOD8124372 Si02
#       8
#     4   4   4   4   4   4   4   4
#     4   9  19  33  60  92 128 154 204 252 306 359
#     4  11  25  41  61  87 123 161 202 258 302 373
#     4  10  21  39  61  89 123 163 204 247 306 363
#     4   9  17  34  59  94 121 162 201 252 299 368
#     4  11  23  40  59  93 124 162 206 255 311 360
#     4  10  19  36  65  89 126 158 204 253 303 363
#     4  11  24  40  63  88 120 160 206 251 308 370
#     4  11  23  41  59  91 116 160 206 252 310 364
#
# _framework density 21.527287000000001
#
# number of rings (size 3 to 8) (size 9 to 14) (size 15 to 20)
#    0.000    1.750    1.250    4.125    1.750    5.000 
#    0.000    0.625    0.000    3.750    0.000    0.000 
#    0.000    0.000    0.000    0.000    0.000    0.000 
#
# Total GULP energy -396729.816292 kJ/mol
# GULP energy per Si atom -12397.806759 kJ/mol
# Density = 2.147829 g / cm^3
# Si number density = 21.527287 Si / 1000 Ang^3
#
#
#
# Elastic Constant Matrix: (Units=GPa)
#
#
# Indices 1 2 3 4 5 6 
#
# 1 41.6388 -9.3863 6.8526 0.0000 -15.1923 0.0000
# 2 -9.3863 55.7092 19.4086 0.0000 -10.0694 0.0000
# 3 6.8526 19.4086 95.3838 0.0000 -12.0396 0.0000
# 4 0.0000 0.0000 0.0000 30.7649 0.0000 -10.1533
# 5 -15.1923 -10.0694 -12.0396 0.0000 36.2394 0.0000
# 6 0.0000 0.0000 0.0000 -10.1533 0.0000 13.9820
#
#
#
# Elastic Compliance Matrix: (Units=1/GPa)
#
#
# Indices 1 2 3 4 5 6 
#
# 1 0.031885 0.008864 -0.002188 0.000000 0.015103 0.000000
# 2 0.008864 0.022429 -0.004118 0.000000 0.008580 0.000000
# 3 -0.002188 -0.004118 0.011710 0.000000 0.001829 0.000000
# 4 0.000000 0.000000 0.000000 0.042750 0.000000 0.031044
# 5 0.015103 0.008580 0.001829 0.000000 0.036917 0.000000
# 6 0.000000 0.000000 0.000000 0.031044 0.000000 0.094063
#
#
# Mechanical properties :
#
#
# Convention : Reuss Voigt Hill
#
# Bulk Modulus (GPa) = 14.05659 25.16463 19.61061
# Shear Modulus (GPa) = 19.35352 27.92104 23.63728
#
# Velocity S-wave (km/s) = 3.00162 3.60531 3.31723
# Velocity P-wave (km/s) = 4.30776 5.38943 4.87867
#
# Compressibility (1/GPa) = 0.07114101
#
# Stress axis : x y z
#
# Youngs Moduli (GPa) = 31.36295 44.58449 85.39800
#
# Poissons Ratio (x) = -0.39521 0.18686
# Poissons Ratio (y) = -0.27801 0.35164
# Poissons Ratio (z) = 0.06862 0.18359
#
# Static dielectric constant tensor:
#      x y z
#    x 3.568030 0.000000 -0.175450 
#    y 0.000000 4.167190 0.000000 
#    z -0.175450 0.000000 4.041110 
# 
# 
# High freq. dielectric constant tensor:
#      x y z
#    x 1.814910 0.000000 -0.011080 
#    y 0.000000 1.845090 0.000000 
#    z -0.011080 0.000000 1.853780 
# 
# From -- ./inp_files/27165.got.cif
#   From: 2010.03.12/outbox.cif.g09.slc.cpg/sg14_14_cif.got.tgz:27165.got - 2010.03.31 13:35:05.
