data_PCOD8124716
_publ_section_title
;
Structure prediction by ZEFSAII (Michael W. Deem and Ramdas Pophale) SiO2 
 PCOD8124716
Probable space group: P 21/C
;
_chemical_formula_sum "Si O2"
_cell_formula_units_Z 28
_cell_length_a 16.354595
_cell_length_b 20.214561
_cell_length_c 15.176136
_cell_angle_alpha 90.000000
_cell_angle_beta 17.884244
_cell_angle_gamma 90.000000
_cell_volume 1540.770501
_symmetry_space_group_name_H-M "P 21/C"
_symmetry_group_IT_number 14
_symmetry_cell_setting 'monoclinic'
loop_
_space_group_symop_operation_xyz
x,y,z
-x,1/2+y,1/2-z
-x,-y,-z
x,1/2-y,1/2+z
loop_
_atom_site_type_symbol
_atom_site_label
_atom_site_fract_x
_atom_site_fract_y
_atom_site_fract_z
Si Si1 0.989547 0.212639 0.565866
Si Si2 0.636709 0.322886 0.117176
Si Si3 0.354014 0.150525 0.494852
Si Si4 0.749726 0.546425 0.751353
Si Si5 0.851885 0.324698 0.388294
Si Si6 0.504859 0.714060 0.555153
Si Si7 0.864798 0.847619 0.989052
O O1 0.231977 0.183526 0.259733
O O2 0.074152 0.285283 0.511745
O O3 0.934213 0.160858 0.702523
O O4 0.727368 0.220387 0.777154
O O5 0.745536 0.249370 0.996422
O O6 0.579811 0.335715 0.279034
O O7 0.364441 0.329484 0.344025
O O8 0.869557 0.369417 0.838208
O O9 0.270668 0.089113 0.639414
O O10 0.609628 0.129618 0.172377
O O11 0.434185 0.212509 0.472539
O O12 0.107254 0.169987 0.687636
O O13 0.768641 0.591653 0.645974
O O14 0.000000 0.500000 0.500000
O O15 0.500000 0.500000 0.000000
#
# Coordination Sequence:
#
# PCOD8124716 Si02
#       7
#     4   4   4   4   4   4   4
#     4  11  19  30  52  79 110 139 175 206 264 335
#     4  10  20  32  51  76 104 144 178 207 268 338
#     4  11  21  36  51  70 112 144 179 223 267 302
#     4  12  26  38  56  78 104 148 202 228 254 304
#     4  10  20  32  51  76 104 144 178 207 268 338
#     4  11  19  30  52  79 110 139 175 206 264 335
#     4  11  21  36  51  70 112 144 179 223 267 302
#
# _framework density 18.172725
#
# number of rings (size 3 to 8) (size 9 to 14) (size 15 to 20)
#    0.000    1.143    1.429   10.286    2.000    0.000 
#    0.000    0.000    0.000    0.000    0.000    0.000 
#    0.000   80.000    0.000    0.000    0.000    0.000 
#
# Total GULP energy -347145.123514 kJ/mol
# GULP energy per Si atom -12398.040126 kJ/mol
# Density = 1.813136 g / cm^3
# Si number density = 18.172725 Si / 1000 Ang^3
#
#
#
# Elastic Constant Matrix: (Units=GPa)
#
#
# Indices 1 2 3 4 5 6 
#
# 1 93.8914 35.6531 30.4264 0.0000 2.0926 0.0000
# 2 35.6531 44.6612 23.2217 0.0000 5.0643 0.0000
# 3 30.4264 23.2217 120.7486 0.0000 10.5634 0.0000
# 4 0.0000 0.0000 0.0000 31.4644 0.0000 5.4811
# 5 2.0926 5.0643 10.5634 0.0000 57.5172 0.0000
# 6 0.0000 0.0000 0.0000 5.4811 0.0000 15.2329
#
#
#
# Elastic Compliance Matrix: (Units=1/GPa)
#
#
# Indices 1 2 3 4 5 6 
#
# 1 0.015628 -0.011646 -0.001767 0.000000 0.000781 0.000000
# 2 -0.011646 0.033658 -0.003370 0.000000 -0.001921 0.000000
# 3 -0.001767 -0.003370 0.009496 0.000000 -0.001383 0.000000
# 4 0.000000 0.000000 0.000000 0.033907 0.000000 -0.012201
# 5 0.000781 -0.001921 -0.001383 0.000000 0.017781 0.000000
# 6 0.000000 0.000000 0.000000 -0.012201 0.000000 0.070038
#
#
# Mechanical properties :
#
#
# Convention : Reuss Voigt Hill
#
# Bulk Modulus (GPa) = 39.65701 48.65596 44.15648
# Shear Modulus (GPa) = 22.47409 32.17623 27.32516
#
# Velocity S-wave (km/s) = 3.52048 4.21239 3.88188
# Velocity P-wave (km/s) = 6.19634 7.10572 6.66656
#
# Compressibility (1/GPa) = 0.02521622
#
# Stress axis : x y z
#
# Youngs Moduli (GPa) = 63.98801 29.71073 105.30773
#
# Poissons Ratio (x) = 0.34601 0.18604
# Poissons Ratio (y) = 0.74519 0.35492
# Poissons Ratio (z) = 0.11304 0.10013
#
# Static dielectric constant tensor:
#      x y z
#    x 4.002510 0.000000 0.710880 
#    y 0.000000 2.787570 0.000000 
#    z 0.710880 0.000000 4.461950 
# 
# 
# High freq. dielectric constant tensor:
#      x y z
#    x 1.724670 0.000000 0.004420 
#    y 0.000000 1.630600 0.000000 
#    z 0.004420 0.000000 1.743120 
# 
# From -- ./inp_files/47580.got.cif
#   From: 2010.03.12/outbox.cif.g09.slc.cpg/sg14_24_cif.got.tgz:47580.got - 2010.03.31 13:35:05.
