data_PCOD8124901
_publ_section_title
;
Structure prediction by ZEFSAII (Michael W. Deem and Ramdas Pophale) SiO2 
 PCOD8124901
Probable space group: P 21/C
;
_chemical_formula_sum "Si O2"
_cell_formula_units_Z 32
_cell_length_a 18.389915
_cell_length_b 11.572636
_cell_length_c 13.408273
_cell_angle_alpha 90.000000
_cell_angle_beta 34.802206
_cell_angle_gamma 90.000000
_cell_volume 1628.647563
_symmetry_space_group_name_H-M "P 21/C"
_symmetry_group_IT_number 14
_symmetry_cell_setting 'monoclinic'
loop_
_space_group_symop_operation_xyz
x,y,z
-x,1/2+y,1/2-z
-x,-y,-z
x,1/2-y,1/2+z
loop_
_atom_site_type_symbol
_atom_site_label
_atom_site_fract_x
_atom_site_fract_y
_atom_site_fract_z
Si Si1 0.737989 0.503390 0.575999
Si Si2 0.348977 0.649651 0.859110
Si Si3 0.082471 0.107274 0.793268
Si Si4 0.111725 0.701268 0.641553
Si Si5 0.354646 0.103587 0.403022
Si Si6 0.467040 0.847321 0.615354
Si Si7 0.041000 0.131687 0.060715
Si Si8 0.463608 0.321254 0.188174
O O1 0.808589 0.416003 0.417413
O O2 0.666226 0.418195 0.735520
O O3 0.837369 0.589648 0.514602
O O4 0.629512 0.585966 0.650455
O O5 0.354661 0.513077 0.837930
O O6 0.440099 0.714257 0.676581
O O7 0.398187 0.676970 0.916084
O O8 0.205265 0.693623 0.009725
O O9 0.212169 0.138620 0.592444
O O10 0.964990 0.167970 0.870910
O O11 0.086718 0.160516 0.898495
O O12 0.066368 0.968356 0.816807
O O13 0.015826 0.747430 0.834054
O O14 0.438555 0.094516 0.409654
O O15 0.406195 0.194811 0.265782
O O16 0.528918 0.853335 0.436765
#
# Coordination Sequence:
#
# PCOD8124901 Si02
#       8
#     4   4   4   4   4   4   4   4
#     4  10  20  35  60  88 116 151 195 248 292 342
#     4  10  22  37  58  87 120 154 198 240 305 353
#     4  10  21  34  59  86 113 152 204 243 280 350
#     4  10  21  38  57  86 123 150 194 254 296 341
#     4  11  21  38  60  86 123 159 192 247 295 355
#     4  10  22  37  59  93 120 151 198 245 299 353
#     4  10  20  35  59  87 112 154 201 238 289 350
#     4  11  22  36  62  86 120 159 193 245 297 351
#
# _framework density 19.648204
#
# number of rings (size 3 to 8) (size 9 to 14) (size 15 to 20)
#    0.000    1.750    2.500    1.875    1.750    2.500 
#    0.000    0.000    5.500    3.750    0.000    0.000 
#    0.000    0.000    0.000    0.000    0.000    0.000 
#
# Total GULP energy -396651.454915 kJ/mol
# GULP energy per Si atom -12395.357966 kJ/mol
# Density = 1.960348 g / cm^3
# Si number density = 19.648204 Si / 1000 Ang^3
#
#
#
# Elastic Constant Matrix: (Units=GPa)
#
#
# Indices 1 2 3 4 5 6 
#
# 1 42.0355 25.1532 24.2025 0.0000 -8.2153 0.0000
# 2 25.1532 121.4432 42.8098 0.0000 -2.6014 0.0000
# 3 24.2025 42.8098 75.8537 0.0000 -13.6142 0.0000
# 4 0.0000 0.0000 0.0000 41.8247 0.0000 -5.9636
# 5 -8.2153 -2.6014 -13.6142 0.0000 27.1445 0.0000
# 6 0.0000 0.0000 0.0000 -5.9636 0.0000 26.3069
#
#
#
# Elastic Compliance Matrix: (Units=1/GPa)
#
#
# Indices 1 2 3 4 5 6 
#
# 1 0.031117 -0.003974 -0.006664 0.000000 0.005695 0.000000
# 2 -0.003974 0.010899 -0.005397 0.000000 -0.002865 0.000000
# 3 -0.006664 -0.005397 0.019671 0.000000 0.007332 0.000000
# 4 0.000000 0.000000 0.000000 0.024708 0.000000 0.005601
# 5 0.005695 -0.002865 0.007332 0.000000 0.041966 0.000000
# 6 0.000000 0.000000 0.000000 0.005601 0.000000 0.039283
#
#
# Mechanical properties :
#
#
# Convention : Reuss Voigt Hill
#
# Bulk Modulus (GPa) = 33.76378 47.07372 40.41875
# Shear Modulus (GPa) = 23.85664 28.86636 26.36150
#
# Velocity S-wave (km/s) = 3.48830 3.83712 3.66686
# Velocity P-wave (km/s) = 5.78323 6.60618 6.20836
#
# Compressibility (1/GPa) = 0.02961754
#
# Stress axis : x y z
#
# Youngs Moduli (GPa) = 32.13682 91.75535 50.83534
#
# Poissons Ratio (x) = 0.36463 0.33875
# Poissons Ratio (y) = 0.12771 0.27436
# Poissons Ratio (z) = 0.21415 0.49521
#
# Static dielectric constant tensor:
#      x y z
#    x 3.403180 0.000000 -0.279240 
#    y 0.000000 3.765790 0.000000 
#    z -0.279240 0.000000 3.586010 
# 
# 
# High freq. dielectric constant tensor:
#      x y z
#    x 1.744970 0.000000 -0.030920 
#    y 0.000000 1.773000 0.000000 
#    z -0.030920 0.000000 1.761370 
# 
# From -- ./inp_files/29348.got.cif
#   From: 2010.03.12/outbox.cif.g09.slc.cpg/sg14_15_cif.got.tgz:29348.got - 2010.03.31 13:35:05.
