data_PCOD8124444
_publ_section_title
;
Structure prediction by ZEFSAII (Michael W. Deem and Ramdas Pophale) SiO2 
 PCOD8124444
Probable space group: P 21/C
;
_chemical_formula_sum "Si O2"
_cell_formula_units_Z 32
_cell_length_a 7.869978
_cell_length_b 15.907312
_cell_length_c 21.076422
_cell_angle_alpha 90.000000
_cell_angle_beta 143.743832
_cell_angle_gamma 90.000000
_cell_volume 1560.435866
_symmetry_space_group_name_H-M "P 21/C"
_symmetry_group_IT_number 14
_symmetry_cell_setting 'monoclinic'
loop_
_space_group_symop_operation_xyz
x,y,z
-x,1/2+y,1/2-z
-x,-y,-z
x,1/2-y,1/2+z
loop_
_atom_site_type_symbol
_atom_site_label
_atom_site_fract_x
_atom_site_fract_y
_atom_site_fract_z
Si Si1 0.290211 0.221202 0.337349
Si Si2 0.535147 0.621442 0.989104
Si Si3 0.691606 0.378993 0.441703
Si Si4 0.430895 0.566664 0.732570
Si Si5 0.215954 0.491259 0.334605
Si Si6 0.102287 0.401721 0.671303
Si Si7 0.205193 0.664078 0.776450
Si Si8 0.009936 0.503280 0.862441
O O1 0.441617 0.166975 0.436737
O O2 0.500412 0.295929 0.380675
O O3 0.242987 0.169585 0.257979
O O4 0.996203 0.254008 0.281395
O O5 0.832976 0.575853 0.056740
O O6 0.446030 0.680394 0.903449
O O7 0.269651 0.559815 0.917318
O O8 0.733955 0.411872 0.382709
O O9 0.533925 0.453130 0.433638
O O10 0.990036 0.363759 0.569979
O O11 0.326278 0.476725 0.727303
O O12 0.367057 0.646695 0.758655
O O13 0.778290 0.556512 0.833277
O O14 0.162361 0.533942 0.249880
O O15 0.175834 0.561781 0.375677
O O16 0.985907 0.417435 0.270568
#
# Coordination Sequence:
#
# PCOD8124444 Si02
#       8
#     4   4   4   4   4   4   4   4
#     4  11  22  39  60  88 119 157 209 251 292 362
#     4  10  19  37  63  84 114 158 205 241 292 366
#     4  10  21  37  59  85 124 161 191 248 314 353
#     4  10  22  40  59  91 125 155 199 255 307 362
#     4   8  16  34  58  85 108 150 205 244 273 358
#     4  11  20  37  63  87 115 162 209 245 294 365
#     4   9  20  37  57  83 120 155 191 247 307 348
#     4   9  18  35  62  88 114 147 198 253 294 345
#
# _framework density 20.507092
#
# number of rings (size 3 to 8) (size 9 to 14) (size 15 to 20)
#    0.000    2.250    1.250    2.250    1.750    0.500 
#    2.250    1.250    0.000    0.000    0.000    0.000 
#    0.000    0.000    0.000    0.000    0.000    0.000 
#
# Total GULP energy -396419.893886 kJ/mol
# GULP energy per Si atom -12388.121684 kJ/mol
# Density = 2.046042 g / cm^3
# Si number density = 20.507092 Si / 1000 Ang^3
#
#
#
# Elastic Constant Matrix: (Units=GPa)
#
#
# Indices 1 2 3 4 5 6 
#
# 1 74.0399 10.9156 26.3763 0.0000 -8.0960 0.0000
# 2 10.9156 53.1301 19.6266 0.0000 -10.7452 0.0000
# 3 26.3763 19.6266 107.9534 0.0000 -19.7601 0.0000
# 4 0.0000 0.0000 0.0000 10.5043 0.0000 -4.9966
# 5 -8.0960 -10.7452 -19.7601 0.0000 24.5139 0.0000
# 6 0.0000 0.0000 0.0000 -4.9966 0.0000 35.4272
#
#
#
# Elastic Compliance Matrix: (Units=1/GPa)
#
#
# Indices 1 2 3 4 5 6 
#
# 1 0.015026 -0.001595 -0.003051 0.000000 0.001804 0.000000
# 2 -0.001595 0.021395 -0.002205 0.000000 0.007074 0.000000
# 3 -0.003051 -0.002205 0.011787 0.000000 0.007527 0.000000
# 4 0.000000 0.000000 0.000000 0.102045 0.000000 0.014392
# 5 0.001804 0.007074 0.007527 0.000000 0.050557 0.000000
# 6 0.000000 0.000000 0.000000 0.014392 0.000000 0.030257
#
#
# Mechanical properties :
#
#
# Convention : Reuss Voigt Hill
#
# Bulk Modulus (GPa) = 28.98134 38.77339 33.87736
# Shear Modulus (GPa) = 19.51063 25.96941 22.74002
#
# Velocity S-wave (km/s) = 3.08784 3.56246 3.33361
# Velocity P-wave (km/s) = 5.18421 5.98914 5.60115
#
# Compressibility (1/GPa) = 0.03450496
#
# Stress axis : x y z
#
# Youngs Moduli (GPa) = 66.55331 46.74071 84.83599
#
# Poissons Ratio (x) = 0.07456 0.25884
# Poissons Ratio (y) = 0.10616 0.18708
# Poissons Ratio (z) = 0.20306 0.10307
#
# Static dielectric constant tensor:
#      x y z
#    x 3.757470 0.000000 -0.133850 
#    y 0.000000 3.600340 0.000000 
#    z -0.133850 0.000000 3.909190 
# 
# 
# High freq. dielectric constant tensor:
#      x y z
#    x 1.786700 0.000000 -0.011950 
#    y 0.000000 1.781570 0.000000 
#    z -0.011950 0.000000 1.812700 
# 
# From -- ./inp_files/72495.got.cif
#   From: 2010.03.12/outbox.cif.g09.slc.cpg/sg14_37_cif.got.tgz:72495.got - 2010.03.31 13:35:05.
