data_PCOD8124928
_publ_section_title
;
Structure prediction by ZEFSAII (Michael W. Deem and Ramdas Pophale) SiO2 
 PCOD8124928
Probable space group: P 21/C
;
_chemical_formula_sum "Si O2"
_cell_formula_units_Z 32
_cell_length_a 15.015866
_cell_length_b 13.164622
_cell_length_c 14.063771
_cell_angle_alpha 90.000000
_cell_angle_beta 144.979404
_cell_angle_gamma 90.000000
_cell_volume 1595.418910
_symmetry_space_group_name_H-M "P 21/C"
_symmetry_group_IT_number 14
_symmetry_cell_setting 'monoclinic'
loop_
_space_group_symop_operation_xyz
x,y,z
-x,1/2+y,1/2-z
-x,-y,-z
x,1/2-y,1/2+z
loop_
_atom_site_type_symbol
_atom_site_label
_atom_site_fract_x
_atom_site_fract_y
_atom_site_fract_z
Si Si1 0.113778 0.754983 0.206704
Si Si2 0.825388 0.631579 0.027531
Si Si3 0.236048 0.819199 0.636522
Si Si4 0.393619 0.856555 0.032656
Si Si5 0.315462 0.460478 0.280522
Si Si6 0.734749 0.944601 0.045880
Si Si7 0.916436 0.415530 0.178510
Si Si8 0.455348 0.240208 0.175118
O O1 0.107528 0.745042 0.086037
O O2 0.275952 0.697766 0.361252
O O3 0.134545 0.869713 0.263504
O O4 0.976586 0.701568 0.146427
O O5 0.862107 0.530601 0.118876
O O6 0.771373 0.608034 0.873636
O O7 0.691570 0.686104 0.974585
O O8 0.156128 0.842188 0.465414
O O9 0.393117 0.751205 0.760152
O O10 0.281415 0.923373 0.727563
O O11 0.502340 0.930943 0.063893
O O12 0.488146 0.770319 0.170357
O O13 0.303100 0.939272 0.019556
O O14 0.251344 0.432775 0.327842
O O15 0.899619 0.909649 0.153321
O O16 0.603325 0.875436 0.881343
#
# Coordination Sequence:
#
# PCOD8124928 Si02
#       8
#     4   4   4   4   4   4   4   4
#     4  12  21  37  61  89 121 159 195 248 308 352
#     4  10  22  39  59  91 123 153 200 249 302 357
#     4  11  21  37  60  93 122 151 202 254 302 351
#     4  11  21  34  57  88 124 154 194 242 302 360
#     4  10  20  35  61  92 117 147 199 265 301 346
#     4  12  20  37  62  89 118 158 198 252 309 345
#     4  11  23  38  62  90 122 158 202 247 300 361
#     4  11  23  36  57  88 124 160 193 245 299 360
#
# _framework density 20.057427000000001
#
# number of rings (size 3 to 8) (size 9 to 14) (size 15 to 20)
#    0.000    1.000    6.250    1.875    0.000    2.000 
#    0.000    0.625    0.000    6.000    0.000    0.000 
#    0.000    0.000    0.000    0.000    0.000    0.000 
#
# Total GULP energy -396513.316743 kJ/mol
# GULP energy per Si atom -12391.041148 kJ/mol
# Density = 2.001178 g / cm^3
# Si number density = 20.057427 Si / 1000 Ang^3
#
#
#
# Elastic Constant Matrix: (Units=GPa)
#
#
# Indices 1 2 3 4 5 6 
#
# 1 60.3078 16.5872 6.8347 0.0000 12.2403 0.0000
# 2 16.5872 48.2755 8.3795 0.0000 -3.6491 0.0000
# 3 6.8347 8.3795 55.8719 0.0000 13.4606 0.0000
# 4 0.0000 0.0000 0.0000 31.6594 0.0000 -1.7291
# 5 12.2403 -3.6491 13.4606 0.0000 27.4848 0.0000
# 6 0.0000 0.0000 0.0000 -1.7291 0.0000 33.3612
#
#
#
# Elastic Compliance Matrix: (Units=1/GPa)
#
#
# Indices 1 2 3 4 5 6 
#
# 1 0.020955 -0.008273 0.001350 0.000000 -0.011092 0.000000
# 2 -0.008273 0.025151 -0.005048 0.000000 0.009496 0.000000
# 3 0.001350 -0.005048 0.021311 0.000000 -0.011708 0.000000
# 4 0.000000 0.000000 0.000000 0.031676 0.000000 0.001642
# 5 -0.011092 0.009496 -0.011708 0.000000 0.048318 0.000000
# 6 0.000000 0.000000 0.000000 0.001642 0.000000 0.030060
#
#
# Mechanical properties :
#
#
# Convention : Reuss Voigt Hill
#
# Bulk Modulus (GPa) = 23.00179 25.33977 24.17078
# Shear Modulus (GPa) = 23.15838 27.34466 25.25152
#
# Velocity S-wave (km/s) = 3.40163 3.69632 3.55203
# Velocity P-wave (km/s) = 5.18855 5.55680 5.37583
#
# Compressibility (1/GPa) = 0.04347488
#
# Stress axis : x y z
#
# Youngs Moduli (GPa) = 47.72075 39.76009 46.92463
#
# Poissons Ratio (x) = 0.32893 -0.06333
# Poissons Ratio (y) = 0.39478 0.23686
# Poissons Ratio (z) = -0.06440 0.20070
#
# Static dielectric constant tensor:
#      x y z
#    x 3.628650 0.000000 0.170370 
#    y 0.000000 3.680320 0.000000 
#    z 0.170370 0.000000 3.830520 
# 
# 
# High freq. dielectric constant tensor:
#      x y z
#    x 1.764880 0.000000 0.020710 
#    y 0.000000 1.775210 0.000000 
#    z 0.020710 0.000000 1.795370 
# 
# From -- ./inp_files/40280.got.cif
#   From: 2010.03.12/outbox.cif.g09.slc.cpg/sg14_21_cif.got.tgz:40280.got - 2010.03.31 13:35:05.
