data_PCOD8124229
_publ_section_title
;
Structure prediction by ZEFSAII (Michael W. Deem and Ramdas Pophale) SiO2 
 PCOD8124229
Probable space group: P 21/C
;
_chemical_formula_sum "Si O2"
_cell_formula_units_Z 28
_cell_length_a 9.136141
_cell_length_b 10.566169
_cell_length_c 14.986198
_cell_angle_alpha 90.000000
_cell_angle_beta 75.430147
_cell_angle_gamma 90.000000
_cell_volume 1400.155038
_symmetry_space_group_name_H-M "P 21/C"
_symmetry_group_IT_number 14
_symmetry_cell_setting 'monoclinic'
loop_
_space_group_symop_operation_xyz
x,y,z
-x,1/2+y,1/2-z
-x,-y,-z
x,1/2-y,1/2+z
loop_
_atom_site_type_symbol
_atom_site_label
_atom_site_fract_x
_atom_site_fract_y
_atom_site_fract_z
Si Si1 0.138272 0.175142 0.747049
Si Si2 0.325232 0.399565 0.371812
Si Si3 0.355171 0.628403 0.266495
Si Si4 0.441987 0.265594 0.619053
Si Si5 0.580202 0.250242 0.918913
Si Si6 0.974370 0.086966 0.207944
Si Si7 0.269297 0.006006 0.066959
O O1 0.182340 0.165329 0.844827
O O2 0.287235 0.192157 0.662738
O O3 0.028079 0.295725 0.760367
O O4 0.058957 0.042136 0.729787
O O5 0.411962 0.487573 0.284769
O O6 0.426583 0.288839 0.393744
O O7 0.273119 0.491272 0.459665
O O8 0.454714 0.729707 0.307128
O O9 0.357797 0.643205 0.158302
O O10 0.176895 0.632154 0.320988
O O11 0.537448 0.197779 0.524384
O O12 0.402763 0.407087 0.589010
O O13 0.701558 0.136696 0.904763
O O14 0.104750 0.054684 0.118089
#
# Coordination Sequence:
#
# PCOD8124229 Si02
#       7
#     4   4   4   4   4   4   4
#     4  10  21  39  60  85 127 161 200 258 309 360
#     4  10  19  35  61  89 113 155 211 257 301 354
#     4  11  20  34  56  89 118 153 201 250 307 357
#     4  10  19  36  59  86 119 153 204 258 300 360
#     4  11  19  34  62  89 115 157 203 257 304 359
#     4  10  23  38  57  91 122 164 203 251 311 364
#     4  10  19  36  61  85 117 151 212 261 294 354
#
# _framework density 19.997785
#
# number of rings (size 3 to 8) (size 9 to 14) (size 15 to 20)
#    0.000    1.714    4.286    1.714    0.000    2.286 
#    2.571    2.857    0.000    7.714    0.000    0.000 
#    0.000    0.000    0.000    0.000    0.000    0.000 
#
# Total GULP energy -346935.221824 kJ/mol
# GULP energy per Si atom -12390.543637 kJ/mol
# Density = 1.995227 g / cm^3
# Si number density = 19.997785 Si / 1000 Ang^3
#
#
#
# Elastic Constant Matrix: (Units=GPa)
#
#
# Indices 1 2 3 4 5 6 
#
# 1 86.8248 30.3126 23.6358 0.0000 -1.6924 0.0000
# 2 30.3126 93.8658 28.8313 0.0000 4.0830 0.0000
# 3 23.6358 28.8313 90.9013 0.0000 2.7308 0.0000
# 4 0.0000 0.0000 0.0000 31.7140 0.0000 1.8955
# 5 -1.6924 4.0830 2.7308 0.0000 27.0534 0.0000
# 6 0.0000 0.0000 0.0000 1.8955 0.0000 31.9260
#
#
#
# Elastic Compliance Matrix: (Units=1/GPa)
#
#
# Indices 1 2 3 4 5 6 
#
# 1 0.013489 -0.003695 -0.002385 0.000000 0.001642 0.000000
# 2 -0.003695 0.012869 -0.003065 0.000000 -0.001864 0.000000
# 3 -0.002385 -0.003065 0.012622 0.000000 -0.000961 0.000000
# 4 0.000000 0.000000 0.000000 0.031644 0.000000 -0.001879
# 5 0.001642 -0.001864 -0.000961 0.000000 0.037445 0.000000
# 6 0.000000 0.000000 0.000000 -0.001879 0.000000 0.031434
#
#
# Mechanical properties :
#
#
# Convention : Reuss Voigt Hill
#
# Bulk Modulus (GPa) = 48.33106 48.57237 48.45172
# Shear Modulus (GPa) = 30.36027 30.72616 30.54322
#
# Velocity S-wave (km/s) = 3.90061 3.92405 3.91235
# Velocity P-wave (km/s) = 6.67136 6.69869 6.68504
#
# Compressibility (1/GPa) = 0.02069063
#
# Stress axis : x y z
#
# Youngs Moduli (GPa) = 74.13666 77.70461 79.22681
#
# Poissons Ratio (x) = 0.28711 0.18893
# Poissons Ratio (y) = 0.27393 0.24283
# Poissons Ratio (z) = 0.17679 0.23817
#
# Static dielectric constant tensor:
#      x y z
#    x 3.731200 0.000000 0.054410 
#    y 0.000000 3.594590 0.000000 
#    z 0.054410 0.000000 3.812840 
# 
# 
# High freq. dielectric constant tensor:
#      x y z
#    x 1.784150 0.000000 0.000730 
#    y 0.000000 1.760780 0.000000 
#    z 0.000730 0.000000 1.769760 
# 
# From -- ./inp_files/40011.got.cif
#   From: 2010.03.12/outbox.cif.g09.slc.cpg/sg14_21_cif.got.tgz:40011.got - 2010.03.31 13:35:05.
