data_PCOD8124454
_publ_section_title
;
Structure prediction by ZEFSAII (Michael W. Deem and Ramdas Pophale) SiO2 
 PCOD8124454
Probable space group: P 21/C
;
_chemical_formula_sum "Si O2"
_cell_formula_units_Z 24
_cell_length_a 11.078508
_cell_length_b 13.764175
_cell_length_c 13.374259
_cell_angle_alpha 90.000000
_cell_angle_beta 146.471107
_cell_angle_gamma 90.000000
_cell_volume 1126.474558
_symmetry_space_group_name_H-M "P 21/C"
_symmetry_group_IT_number 14
_symmetry_cell_setting 'monoclinic'
loop_
_space_group_symop_operation_xyz
x,y,z
-x,1/2+y,1/2-z
-x,-y,-z
x,1/2-y,1/2+z
loop_
_atom_site_type_symbol
_atom_site_label
_atom_site_fract_x
_atom_site_fract_y
_atom_site_fract_z
Si Si1 0.404850 0.187274 0.295745
Si Si2 0.003476 0.092297 0.929790
Si Si3 0.310897 0.989940 0.590464
Si Si4 0.486073 0.601552 0.934592
Si Si5 0.472663 0.398633 0.383180
Si Si6 0.844765 0.530568 0.684022
O O1 0.570764 0.110091 0.360902
O O2 0.398526 0.178304 0.412498
O O3 0.480024 0.297482 0.327498
O O4 0.161902 0.173342 0.085332
O O5 0.084654 0.066465 0.875813
O O6 0.761425 0.136078 0.756457
O O7 0.000000 0.000000 0.000000
O O8 0.052816 0.980435 0.399426
O O9 0.388494 0.085406 0.582230
O O10 0.373879 0.013637 0.747529
O O11 0.500000 0.500000 0.000000
O O12 0.719254 0.427523 0.584684
O O13 0.319147 0.392856 0.375780
#
# Coordination Sequence:
#
# PCOD8124454 Si02
#       6
#     4   4   4   4   4   4
#     4  11  23  40  64 101 127 163 232 266 320 392
#     4  12  19  39  70  95 125 174 209 272 324 373
#     4  11  21  45  67  91 134 174 215 274 324 385
#     4  10  19  37  64  93 123 159 213 273 315 368
#     4  11  26  43  62  98 132 178 215 265 331 398
#     4  11  23  44  66  86 140 177 207 269 335 381
#
# _framework density 21.305406999999999
#
# number of rings (size 3 to 8) (size 9 to 14) (size 15 to 20)
#    0.000    1.000    8.333    0.500    0.000    2.667 
#    9.000    0.000    0.000    0.000    0.000    0.000 
#    0.000    0.000    0.000    0.000    0.000    0.000 
#
# Total GULP energy -297522.820642 kJ/mol
# GULP energy per Si atom -12396.784193 kJ/mol
# Density = 2.125692 g / cm^3
# Si number density = 21.305407 Si / 1000 Ang^3
#
#
#
# Elastic Constant Matrix: (Units=GPa)
#
#
# Indices 1 2 3 4 5 6 
#
# 1 70.7388 4.6102 -3.4135 0.0000 -1.6143 0.0000
# 2 4.6102 97.7607 27.5591 0.0000 0.2017 0.0000
# 3 -3.4135 27.5591 137.2223 0.0000 14.4161 0.0000
# 4 0.0000 0.0000 0.0000 22.5694 0.0000 -4.9366
# 5 -1.6143 0.2017 14.4161 0.0000 37.1350 0.0000
# 6 0.0000 0.0000 0.0000 -4.9366 0.0000 19.9317
#
#
#
# Elastic Compliance Matrix: (Units=1/GPa)
#
#
# Indices 1 2 3 4 5 6 
#
# 1 0.014222 -0.000804 0.000469 0.000000 0.000441 0.000000
# 2 -0.000804 0.010912 -0.002295 0.000000 0.000797 0.000000
# 3 0.000469 -0.002295 0.008086 0.000000 -0.003106 0.000000
# 4 0.000000 0.000000 0.000000 0.046846 0.000000 0.011603
# 5 0.000441 0.000797 -0.003106 0.000000 0.028150 0.000000
# 6 0.000000 0.000000 0.000000 0.011603 0.000000 0.053045
#
#
# Mechanical properties :
#
#
# Convention : Reuss Voigt Hill
#
# Bulk Modulus (GPa) = 35.76527 40.35927 38.06227
# Shear Modulus (GPa) = 28.43481 34.39162 31.41321
#
# Velocity S-wave (km/s) = 3.65722 4.02209 3.84399
# Velocity P-wave (km/s) = 5.88703 6.36820 6.13233
#
# Compressibility (1/GPa) = 0.02796008
#
# Stress axis : x y z
#
# Youngs Moduli (GPa) = 70.31572 91.63913 123.66394
#
# Poissons Ratio (x) = 0.07366 -0.05799
# Poissons Ratio (y) = 0.05652 0.28385
# Poissons Ratio (z) = -0.03297 0.21034
#
# Static dielectric constant tensor:
#      x y z
#    x 4.314600 0.000000 -0.283110 
#    y 0.000000 2.954230 0.000000 
#    z -0.283110 0.000000 4.409680 
# 
# 
# High freq. dielectric constant tensor:
#      x y z
#    x 1.840280 0.000000 -0.009520 
#    y 0.000000 1.796950 0.000000 
#    z -0.009520 0.000000 1.857320 
# 
# From -- ./inp_files/45141.got.cif
#   From: 2010.03.12/outbox.cif.g09.slc.cpg/sg14_23_cif.got.tgz:45141.got - 2010.03.31 13:35:05.
