data_PCOD8124447
_publ_section_title
;
Structure prediction by ZEFSAII (Michael W. Deem and Ramdas Pophale) SiO2 
 PCOD8124447
Probable space group: P 21/C
;
_chemical_formula_sum "Si O2"
_cell_formula_units_Z 24
_cell_length_a 9.551217
_cell_length_b 13.883476
_cell_length_c 13.918256
_cell_angle_alpha 90.000000
_cell_angle_beta 36.542640
_cell_angle_gamma 90.000000
_cell_volume 1098.919276
_symmetry_space_group_name_H-M "P 21/C"
_symmetry_group_IT_number 14
_symmetry_cell_setting 'monoclinic'
loop_
_space_group_symop_operation_xyz
x,y,z
-x,1/2+y,1/2-z
-x,-y,-z
x,1/2-y,1/2+z
loop_
_atom_site_type_symbol
_atom_site_label
_atom_site_fract_x
_atom_site_fract_y
_atom_site_fract_z
Si Si1 0.112702 0.394945 0.796033
Si Si2 0.011944 0.793316 0.037724
Si Si3 0.283488 0.031218 0.484357
Si Si4 0.573090 0.071498 0.140685
Si Si5 0.697206 0.919838 0.324579
Si Si6 0.938540 0.911167 0.894999
O O1 0.992940 0.319904 0.937153
O O2 0.392259 0.409828 0.653660
O O3 0.077082 0.368328 0.703485
O O4 0.979478 0.495055 0.894277
O O5 0.777926 0.828622 0.220444
O O6 0.986768 0.820579 0.939073
O O7 0.240975 0.841940 0.958536
O O8 0.410495 0.077797 0.324412
O O9 0.272201 0.106418 0.579421
O O10 0.426469 0.939070 0.447786
O O11 0.700910 0.968425 0.057175
O O12 0.846808 0.014479 0.211177
#
# Coordination Sequence:
#
# PCOD8124447 Si02
#       6
#     4   4   4   4   4   4
#     4  11  26  36  59  98 127 145 202 270 305 330
#     4  11  22  40  62  89 120 161 204 248 303 362
#     4  10  19  37  63  89 119 158 204 244 287 372
#     4  11  21  41  66  87 118 169 201 241 303 370
#     4   9  18  36  65  87 112 163 209 230 290 374
#     4  10  20  43  63  84 119 168 205 235 298 383
#
# _framework density 21.839638999999998
#
# number of rings (size 3 to 8) (size 9 to 14) (size 15 to 20)
#    0.000    1.667    3.333    2.000    2.333    1.333 
#    0.000    5.000    0.000    0.000    0.000    0.000 
#    0.000    0.000    0.000    0.000    0.000    0.000 
#
# Total GULP energy -297519.475007 kJ/mol
# GULP energy per Si atom -12396.644792 kJ/mol
# Density = 2.178993 g / cm^3
# Si number density = 21.839639 Si / 1000 Ang^3
#
#
#
# Elastic Constant Matrix: (Units=GPa)
#
#
# Indices 1 2 3 4 5 6 
#
# 1 98.0693 13.3442 20.8727 0.0000 -6.6870 0.0000
# 2 13.3442 28.1089 -2.1859 0.0000 0.4107 0.0000
# 3 20.8727 -2.1859 79.0750 0.0000 7.1727 0.0000
# 4 0.0000 0.0000 0.0000 24.5691 0.0000 3.3144
# 5 -6.6870 0.4107 7.1727 0.0000 51.4353 0.0000
# 6 0.0000 0.0000 0.0000 3.3144 0.0000 22.5438
#
#
#
# Elastic Compliance Matrix: (Units=1/GPa)
#
#
# Indices 1 2 3 4 5 6 
#
# 1 0.011891 -0.005947 -0.003492 0.000000 0.002080 0.000000
# 2 -0.005947 0.038636 0.002771 0.000000 -0.001468 0.000000
# 3 -0.003492 0.002771 0.013863 0.000000 -0.002409 0.000000
# 4 0.000000 0.000000 0.000000 0.041525 0.000000 -0.006105
# 5 0.002080 -0.001468 -0.002409 0.000000 0.020060 0.000000
# 6 0.000000 0.000000 0.000000 -0.006105 0.000000 0.045256
#
#
# Mechanical properties :
#
#
# Convention : Reuss Voigt Hill
#
# Bulk Modulus (GPa) = 19.58695 29.92392 24.75543
# Shear Modulus (GPa) = 24.80340 31.25779 28.03060
#
# Velocity S-wave (km/s) = 3.37368 3.78728 3.58645
# Velocity P-wave (km/s) = 4.91565 5.73202 5.33946
#
# Compressibility (1/GPa) = 0.05105440
#
# Stress axis : x y z
#
# Youngs Moduli (GPa) = 84.09618 25.88253 72.13395
#
# Poissons Ratio (x) = 0.15392 0.25189
# Poissons Ratio (y) = 0.50012 -0.19988
# Poissons Ratio (z) = 0.29366 -0.07172
#
# Static dielectric constant tensor:
#      x y z
#    x 4.172990 0.000000 -0.048270 
#    y 0.000000 3.381740 0.000000 
#    z -0.048270 0.000000 4.115320 
# 
# 
# High freq. dielectric constant tensor:
#      x y z
#    x 1.871060 0.000000 0.001260 
#    y 0.000000 1.806890 0.000000 
#    z 0.001260 0.000000 1.872500 
# 
# From -- ./inp_files/41069.got.cif
#   From: 2010.03.12/outbox.cif.g09.slc.cpg/sg14_21_cif.got.tgz:41069.got - 2010.03.31 13:35:05.
