data_PCOD8124486
_publ_section_title
;
Structure prediction by ZEFSAII (Michael W. Deem and Ramdas Pophale) SiO2 
 PCOD8124486
Probable space group: P 21/C
;
_chemical_formula_sum "Si O2"
_cell_formula_units_Z 32
_cell_length_a 8.919719
_cell_length_b 17.280453
_cell_length_c 13.412234
_cell_angle_alpha 90.000000
_cell_angle_beta 124.080820
_cell_angle_gamma 90.000000
_cell_volume 1712.252445
_symmetry_space_group_name_H-M "P 21/C"
_symmetry_group_IT_number 14
_symmetry_cell_setting 'monoclinic'
loop_
_space_group_symop_operation_xyz
x,y,z
-x,1/2+y,1/2-z
-x,-y,-z
x,1/2-y,1/2+z
loop_
_atom_site_type_symbol
_atom_site_label
_atom_site_fract_x
_atom_site_fract_y
_atom_site_fract_z
Si Si1 0.777177 0.912603 0.446084
Si Si2 0.638606 0.757792 0.883063
Si Si3 0.250659 0.678544 0.234500
Si Si4 0.658328 0.418619 0.925556
Si Si5 0.716872 0.656373 0.210574
Si Si6 0.001715 0.904602 0.328831
Si Si7 0.903818 0.727259 0.642206
Si Si8 0.004882 0.932132 0.733177
O O1 0.655709 0.835146 0.396416
O O2 0.901931 0.915711 0.589873
O O3 0.905942 0.911963 0.398788
O O4 0.654823 0.990273 0.395220
O O5 0.435136 0.780469 0.837655
O O6 0.685632 0.787460 0.790822
O O7 0.781459 0.804443 0.005953
O O8 0.273953 0.634652 0.139350
O O9 0.092591 0.742711 0.166450
O O10 0.191556 0.617047 0.298235
O O11 0.458095 0.393807 0.882838
O O12 0.784010 0.402541 0.068582
O O13 0.775367 0.705746 0.136969
O O14 0.884033 0.595171 0.283319
O O15 0.939732 0.831092 0.244606
O O16 0.952228 0.977575 0.240392
#
# Coordination Sequence:
#
# PCOD8124486 Si02
#       8
#     4   4   4   4   4   4   4   4
#     4  11  18  35  61  86 117 139 188 257 282 319
#     4  11  22  38  56  85 120 148 186 230 291 337
#     4  10  20  37  57  80 118 153 178 233 288 341
#     4  10  20  35  61  87 111 144 193 238 296 324
#     4  10  22  36  56  83 120 148 180 244 281 339
#     4  11  20  34  62  86 111 150 190 242 281 337
#     4  11  23  37  56  86 119 148 191 231 280 348
#     4  10  19  38  58  85 112 145 193 235 291 324
#
# _framework density 18.688832999999999
#
# number of rings (size 3 to 8) (size 9 to 14) (size 15 to 20)
#    0.000    1.500    6.250    0.750    1.750    3.000 
#    0.000    1.250    0.000    0.000    0.000    0.000 
#    0.000    0.000    0.000    0.000    0.000    0.000 
#
# Total GULP energy -396582.802653 kJ/mol
# GULP energy per Si atom -12393.212583 kJ/mol
# Density = 1.864630 g / cm^3
# Si number density = 18.688833 Si / 1000 Ang^3
#
#
#
# Elastic Constant Matrix: (Units=GPa)
#
#
# Indices 1 2 3 4 5 6 
#
# 1 103.6809 38.4790 22.3782 0.0000 20.5163 0.0000
# 2 38.4790 112.8801 31.2225 0.0000 6.2679 0.0000
# 3 22.3782 31.2225 61.0104 0.0000 10.7384 0.0000
# 4 0.0000 0.0000 0.0000 25.8383 0.0000 4.6448
# 5 20.5163 6.2679 10.7384 0.0000 16.7613 0.0000
# 6 0.0000 0.0000 0.0000 4.6448 0.0000 30.4011
#
#
#
# Elastic Compliance Matrix: (Units=1/GPa)
#
#
# Indices 1 2 3 4 5 6 
#
# 1 0.014301 -0.003863 -0.000498 0.000000 -0.015741 0.000000
# 2 -0.003863 0.011368 -0.005054 0.000000 0.003716 0.000000
# 3 -0.000498 -0.005054 0.021099 0.000000 -0.011018 0.000000
# 4 0.000000 0.000000 0.000000 0.039795 0.000000 -0.006080
# 5 -0.015741 0.003716 -0.011018 0.000000 0.084598 0.000000
# 6 0.000000 0.000000 0.000000 -0.006080 0.000000 0.033822
#
#
# Mechanical properties :
#
#
# Convention : Reuss Voigt Hill
#
# Bulk Modulus (GPa) = 35.79527 51.30343 43.54935
# Shear Modulus (GPa) = 21.44751 26.96626 24.20688
#
# Velocity S-wave (km/s) = 3.39132 3.80268 3.60288
# Velocity P-wave (km/s) = 5.87619 6.84043 6.37656
#
# Compressibility (1/GPa) = 0.02793665
#
# Stress axis : x y z
#
# Youngs Moduli (GPa) = 69.92489 87.96936 47.39515
#
# Poissons Ratio (x) = 0.33984 0.02360
# Poissons Ratio (y) = 0.27013 0.23956
# Poissons Ratio (z) = 0.03482 0.44464
#
# Static dielectric constant tensor:
#      x y z
#    x 3.637520 0.000000 0.158930 
#    y 0.000000 3.804230 0.000000 
#    z 0.158930 0.000000 3.170240 
# 
# 
# High freq. dielectric constant tensor:
#      x y z
#    x 1.740180 0.000000 0.005500 
#    y 0.000000 1.734880 0.000000 
#    z 0.005500 0.000000 1.688870 
# 
# From -- ./inp_files/41708.got.cif
#   From: 2010.03.12/outbox.cif.g09.slc.cpg/sg14_21_cif.got.tgz:41708.got - 2010.03.31 13:35:05.
