data_PCOD8124075
_publ_section_title
;
Structure prediction by ZEFSAII (Michael W. Deem and Ramdas Pophale) SiO2 
 PCOD8124075
Probable space group: P 21/C
;
_chemical_formula_sum "Si O2"
_cell_formula_units_Z 32
_cell_length_a 14.126165
_cell_length_b 17.653102
_cell_length_c 17.097898
_cell_angle_alpha 90.000000
_cell_angle_beta 157.891701
_cell_angle_gamma 90.000000
_cell_volume 1604.684702
_symmetry_space_group_name_H-M "P 21/C"
_symmetry_group_IT_number 14
_symmetry_cell_setting 'monoclinic'
loop_
_space_group_symop_operation_xyz
x,y,z
-x,1/2+y,1/2-z
-x,-y,-z
x,1/2-y,1/2+z
loop_
_atom_site_type_symbol
_atom_site_label
_atom_site_fract_x
_atom_site_fract_y
_atom_site_fract_z
Si Si1 0.917171 0.727346 0.024237
Si Si2 0.489090 0.509774 0.256743
Si Si3 0.196854 0.140418 0.951814
Si Si4 0.041683 0.071024 0.674968
Si Si5 0.766547 0.071915 0.100736
Si Si6 0.624042 0.814094 0.156898
Si Si7 0.460707 0.745215 0.379775
Si Si8 0.288772 0.383192 0.006958
O O1 0.846863 0.652922 0.020188
O O2 0.170032 0.725721 0.167316
O O3 0.944953 0.800384 0.101419
O O4 0.696393 0.732046 0.790243
O O5 0.716099 0.570514 0.426417
O O6 0.551240 0.454788 0.376354
O O7 0.460989 0.455957 0.159401
O O8 0.230722 0.555353 0.069689
O O9 0.442727 0.180144 0.104176
O O10 0.023219 0.112376 0.746411
O O11 0.178525 0.120250 0.713882
O O12 0.192960 0.992241 0.802000
O O13 0.039215 0.089631 0.267779
O O14 0.655511 0.149395 0.051939
O O15 0.609846 0.754232 0.075724
O O16 0.521094 0.827447 0.390670
#
# Coordination Sequence:
#
# PCOD8124075 Si02
#       8
#     4   4   4   4   4   4   4   4
#     4  11  21  37  58  84 113 154 196 235 287 341
#     4  10  19  37  59  84 113 153 189 235 286 343
#     4   9  21  38  56  83 116 151 192 238 284 343
#     4   9  20  34  55  84 116 151 179 231 292 342
#     4  10  19  34  56  83 115 147 185 229 287 349
#     4  11  20  34  55  88 114 146 188 232 287 344
#     4  10  22  38  55  83 120 151 192 238 283 341
#     4  10  21  38  58  81 115 155 190 238 287 338
#
# _framework density 19.941611999999999
#
# number of rings (size 3 to 8) (size 9 to 14) (size 15 to 20)
#    0.000    2.000    2.500    1.125    0.000    2.500 
#    2.250    0.625    0.000    7.500    0.000    0.000 
#    0.000    0.000    0.000    0.000    0.000    0.000 
#
# Total GULP energy -396564.797405 kJ/mol
# GULP energy per Si atom -12392.649919 kJ/mol
# Density = 1.989622 g / cm^3
# Si number density = 19.941612 Si / 1000 Ang^3
#
#
#
# Elastic Constant Matrix: (Units=GPa)
#
#
# Indices 1 2 3 4 5 6 
#
# 1 52.8760 19.3822 16.3765 0.0000 -2.1363 0.0000
# 2 19.3822 71.2619 13.1999 0.0000 -4.0597 0.0000
# 3 16.3765 13.1999 77.7702 0.0000 -12.4931 0.0000
# 4 0.0000 0.0000 0.0000 27.6770 0.0000 -1.5920
# 5 -2.1363 -4.0597 -12.4931 0.0000 21.2959 0.0000
# 6 0.0000 0.0000 0.0000 -1.5920 0.0000 27.9985
#
#
#
# Elastic Compliance Matrix: (Units=1/GPa)
#
#
# Indices 1 2 3 4 5 6 
#
# 1 0.022033 -0.005331 -0.003912 0.000000 -0.001101 0.000000
# 2 -0.005331 0.015819 -0.001285 0.000000 0.001727 0.000000
# 3 -0.003912 -0.001285 0.015233 0.000000 0.008299 0.000000
# 4 0.000000 0.000000 0.000000 0.036250 0.000000 0.002061
# 5 -0.001101 0.001727 0.008299 0.000000 0.052045 0.000000
# 6 0.000000 0.000000 0.000000 0.002061 0.000000 0.035833
#
#
# Mechanical properties :
#
#
# Convention : Reuss Voigt Hill
#
# Bulk Modulus (GPa) = 31.22008 33.31392 32.26700
# Shear Modulus (GPa) = 23.92968 25.59093 24.76030
#
# Velocity S-wave (km/s) = 3.46784 3.58619 3.52751
# Velocity P-wave (km/s) = 5.63243 5.82149 5.72774
#
# Compressibility (1/GPa) = 0.03203067
#
# Stress axis : x y z
#
# Youngs Moduli (GPa) = 45.38588 63.21488 65.64521
#
# Poissons Ratio (x) = 0.33699 0.25678
# Poissons Ratio (y) = 0.24195 0.08435
# Poissons Ratio (z) = 0.17754 0.08123
#
# Static dielectric constant tensor:
#      x y z
#    x 3.288120 0.000000 -0.136960 
#    y 0.000000 3.699070 0.000000 
#    z -0.136960 0.000000 3.652780 
# 
# 
# High freq. dielectric constant tensor:
#      x y z
#    x 1.737220 0.000000 -0.013490 
#    y 0.000000 1.780860 0.000000 
#    z -0.013490 0.000000 1.787180 
# 
# From -- ./inp_files/37713.got.cif
#   From: 2010.03.12/outbox.cif.g09.slc.cpg/sg14_19_cif.got.tgz:37713.got - 2010.03.31 13:35:05.
