data_PCOD8124431
_publ_section_title
;
Structure prediction by ZEFSAII (Michael W. Deem and Ramdas Pophale) SiO2 
 PCOD8124431
Probable space group: P 21/C
;
_chemical_formula_sum "Si O2"
_cell_formula_units_Z 24
_cell_length_a 14.703826
_cell_length_b 4.964650
_cell_length_c 27.781887
_cell_angle_alpha 90.000000
_cell_angle_beta 35.654052
_cell_angle_gamma 90.000000
_cell_volume 1182.135261
_symmetry_space_group_name_H-M "P 21/C"
_symmetry_group_IT_number 14
_symmetry_cell_setting 'monoclinic'
loop_
_space_group_symop_operation_xyz
x,y,z
-x,1/2+y,1/2-z
-x,-y,-z
x,1/2-y,1/2+z
loop_
_atom_site_type_symbol
_atom_site_label
_atom_site_fract_x
_atom_site_fract_y
_atom_site_fract_z
Si Si1 0.072859 0.212644 0.910359
Si Si2 0.206918 0.692753 0.093015
Si Si3 0.152260 0.193140 0.273304
Si Si4 0.705864 0.193014 0.334844
Si Si5 0.656465 0.691683 0.515337
Si Si6 0.866658 0.711348 0.010722
O O1 0.182736 0.262457 0.817051
O O2 0.923268 0.410781 0.973880
O O3 0.174663 0.261802 0.914861
O O4 0.009073 0.909200 0.936105
O O5 0.240702 0.741561 0.134035
O O6 0.248275 0.388153 0.061031
O O7 0.027078 0.756466 0.160873
O O8 0.313972 0.889336 0.015197
O O9 0.261613 0.388161 0.195138
O O10 0.194858 0.888151 0.242128
O O11 0.524493 0.248033 0.408075
O O12 0.713373 0.724140 0.545837
#
# Coordination Sequence:
#
# PCOD8124431 Si02
#       6
#     4   4   4   4   4   4
#     4  10  20  36  63  86 114 146 200 243 287 342
#     4  12  23  41  63  84 117 165 207 232 280 354
#     4  12  22  41  59  89 119 159 195 242 298 345
#     4  12  26  38  58  90 128 154 190 248 300 344
#     4  12  22  41  62  89 118 156 201 243 291 345
#     4  10  19  37  61  90 108 150 199 246 280 344
#
# _framework density 20.302246
#
# number of rings (size 3 to 8) (size 9 to 14) (size 15 to 20)
#    0.000    0.667    3.333    6.000    0.000    0.000 
#    0.000    1.667    0.000    0.000    0.000    0.000 
#    0.000    0.000    0.000    0.000    0.000    0.000 
#
# Total GULP energy -297786.717481 kJ/mol
# GULP energy per Si atom -12407.779895 kJ/mol
# Density = 2.025604 g / cm^3
# Si number density = 20.302246 Si / 1000 Ang^3
#
#
#
# Elastic Constant Matrix: (Units=GPa)
#
#
# Indices 1 2 3 4 5 6 
#
# 1 202.9891 8.9407 60.4706 0.0000 -1.1216 0.0000
# 2 8.9407 72.2816 6.5205 0.0000 3.9213 0.0000
# 3 60.4706 6.5205 77.3532 0.0000 -2.6875 0.0000
# 4 0.0000 0.0000 0.0000 41.7699 0.0000 5.4601
# 5 -1.1216 3.9213 -2.6875 0.0000 46.0504 0.0000
# 6 0.0000 0.0000 0.0000 5.4601 0.0000 24.2234
#
#
#
# Elastic Compliance Matrix: (Units=1/GPa)
#
#
# Indices 1 2 3 4 5 6 
#
# 1 0.006431 -0.000338 -0.005003 0.000000 -0.000107 0.000000
# 2 -0.000338 0.014032 -0.000962 0.000000 -0.001259 0.000000
# 3 -0.005003 -0.000962 0.016953 0.000000 0.000949 0.000000
# 4 0.000000 0.000000 0.000000 0.024668 0.000000 -0.005560
# 5 -0.000107 -0.001259 0.000949 0.000000 0.021875 0.000000
# 6 0.000000 0.000000 0.000000 -0.005560 0.000000 0.042536
#
#
# Mechanical properties :
#
#
# Convention : Reuss Voigt Hill
#
# Bulk Modulus (GPa) = 40.30753 56.05420 48.18086
# Shear Modulus (GPa) = 33.92832 40.85487 37.39160
#
# Velocity S-wave (km/s) = 4.09242 4.49077 4.29621
# Velocity P-wave (km/s) = 6.49826 7.38642 6.95653
#
# Compressibility (1/GPa) = 0.02480926
#
# Stress axis : x y z
#
# Youngs Moduli (GPa) = 155.49798 71.26701 58.98830
#
# Poissons Ratio (x) = 0.02412 0.29509
# Poissons Ratio (y) = 0.05262 0.05675
# Poissons Ratio (z) = 0.77789 0.06856
#
# Static dielectric constant tensor:
#      x y z
#    x 3.736950 0.000000 -0.006800 
#    y 0.000000 3.893800 0.000000 
#    z -0.006800 0.000000 3.093370 
# 
# 
# High freq. dielectric constant tensor:
#      x y z
#    x 1.804730 0.000000 0.019690 
#    y 0.000000 1.814280 0.000000 
#    z 0.019690 0.000000 1.769070 
# 
# From -- ./inp_files/45806.got.cif
#   From: 2010.03.12/outbox.cif.g09.slc.cpg/sg14_23_cif.got.tgz:45806.got - 2010.03.31 13:35:05.
