data_PCOD8124726
_publ_section_title
;
Structure prediction by ZEFSAII (Michael W. Deem and Ramdas Pophale) SiO2 
 PCOD8124726
Probable space group: P 21/C
;
_chemical_formula_sum "Si O2"
_cell_formula_units_Z 32
_cell_length_a 23.445271
_cell_length_b 15.327109
_cell_length_c 23.505954
_cell_angle_alpha 90.000000
_cell_angle_beta 168.113219
_cell_angle_gamma 90.000000
_cell_volume 1739.863246
_symmetry_space_group_name_H-M "P 21/C"
_symmetry_group_IT_number 14
_symmetry_cell_setting 'monoclinic'
loop_
_space_group_symop_operation_xyz
x,y,z
-x,1/2+y,1/2-z
-x,-y,-z
x,1/2-y,1/2+z
loop_
_atom_site_type_symbol
_atom_site_label
_atom_site_fract_x
_atom_site_fract_y
_atom_site_fract_z
Si Si1 0.542214 0.925299 0.794865
Si Si2 0.896557 0.824129 0.551562
Si Si3 0.048779 0.456765 0.801170
Si Si4 0.726745 0.903347 0.268017
Si Si5 0.512098 0.704031 0.369157
Si Si6 0.732841 0.103362 0.266006
Si Si7 0.348694 0.768361 0.544830
Si Si8 0.943365 0.205346 0.130471
O O1 0.473209 0.870912 0.784031
O O2 0.468902 0.866754 0.667410
O O3 0.362227 0.012485 0.615244
O O4 0.858378 0.958012 0.105883
O O5 0.026476 0.905526 0.713780
O O6 0.797528 0.847078 0.392084
O O7 0.149219 0.751880 0.795374
O O8 0.620386 0.792212 0.314658
O O9 0.028914 0.394508 0.726230
O O10 0.945712 0.877184 0.432443
O O11 0.725113 0.005222 0.282708
O O12 0.423694 0.883790 0.947149
O O13 0.410862 0.667832 0.330280
O O14 0.823894 0.738434 0.674948
O O15 0.325208 0.788522 0.171732
O O16 0.128780 0.750295 0.380201
#
# Coordination Sequence:
#
# PCOD8124726 Si02
#       8
#     4   4   4   4   4   4   4   4
#     4  11  20  31  49  73 101 131 167 200 241 298
#     4  11  20  34  52  70 102 140 169 197 251 297
#     4  11  20  31  49  73 101 132 166 200 241 299
#     4  10  21  35  50  74 103 133 172 214 242 281
#     4  11  20  34  51  70 102 141 169 198 250 297
#     4  10  21  34  50  73 103 133 171 213 243 280
#     4  10  20  34  49  72 101 133 168 208 245 296
#     4  10  20  33  48  71 101 132 168 205 243 296
#
# _framework density 18.392250000000001
#
# number of rings (size 3 to 8) (size 9 to 14) (size 15 to 20)
#    0.000    1.500    0.000    9.750    0.000    3.000 
#    0.000    0.000    0.000    0.000    0.000    0.000 
#    0.000   70.000    0.000    0.000    0.000    0.000 
#
# Total GULP energy -396598.986265 kJ/mol
# GULP energy per Si atom -12393.718321 kJ/mol
# Density = 1.835039 g / cm^3
# Si number density = 18.392250 Si / 1000 Ang^3
#
#
#
# Elastic Constant Matrix: (Units=GPa)
#
#
# Indices 1 2 3 4 5 6 
#
# 1 49.8936 25.4157 9.0396 0.0000 -6.0186 0.0000
# 2 25.4157 60.0890 13.6300 0.0000 -3.5899 0.0000
# 3 9.0396 13.6300 83.9690 0.0000 2.0134 0.0000
# 4 0.0000 0.0000 0.0000 38.2978 0.0000 -2.6317
# 5 -6.0186 -3.5899 2.0134 0.0000 16.8514 0.0000
# 6 0.0000 0.0000 0.0000 -2.6317 0.0000 12.0086
#
#
#
# Elastic Compliance Matrix: (Units=1/GPa)
#
#
# Indices 1 2 3 4 5 6 
#
# 1 0.026509 -0.010468 -0.001332 0.000000 0.007397 0.000000
# 2 -0.010468 0.021689 -0.002422 0.000000 0.001171 0.000000
# 3 -0.001332 -0.002422 0.012505 0.000000 -0.002486 0.000000
# 4 0.000000 0.000000 0.000000 0.026510 0.000000 0.005810
# 5 0.007397 0.001171 -0.002486 0.000000 0.062531 0.000000
# 6 0.000000 0.000000 0.000000 0.005810 0.000000 0.084547
#
#
# Mechanical properties :
#
#
# Convention : Reuss Voigt Hill
#
# Bulk Modulus (GPa) = 30.99897 32.23580 31.61739
# Shear Modulus (GPa) = 18.28234 23.15598 20.71916
#
# Velocity S-wave (km/s) = 3.15624 3.55210 3.36000
# Velocity P-wave (km/s) = 5.49303 5.86414 5.68161
#
# Compressibility (1/GPa) = 0.03225914
#
# Stress axis : x y z
#
# Youngs Moduli (GPa) = 37.72333 46.10631 79.96648
#
# Poissons Ratio (x) = 0.48266 0.10651
# Poissons Ratio (y) = 0.39490 0.19366
# Poissons Ratio (z) = 0.05024 0.11166
#
# Static dielectric constant tensor:
#      x y z
#    x 3.031110 0.000000 -0.081060 
#    y 0.000000 3.390000 0.000000 
#    z -0.081060 0.000000 3.734600 
# 
# 
# High freq. dielectric constant tensor:
#      x y z
#    x 1.668250 0.000000 -0.000860 
#    y 0.000000 1.692610 0.000000 
#    z -0.000860 0.000000 1.747350 
# 
# From -- ./inp_files/75024.got.cif
#   From: 2010.03.12/outbox.cif.g09.slc.cpg/sg14_38_cif.got.tgz:75024.got - 2010.03.31 13:35:05.
