data_PCOD8124389
_publ_section_title
;
Structure prediction by ZEFSAII (Michael W. Deem and Ramdas Pophale) SiO2 
 PCOD8124389
Probable space group: P 21/C
;
_chemical_formula_sum "Si O2"
_cell_formula_units_Z 32
_cell_length_a 17.700283
_cell_length_b 20.604147
_cell_length_c 7.847226
_cell_angle_alpha 90.000000
_cell_angle_beta 33.741104
_cell_angle_gamma 90.000000
_cell_volume 1589.604359
_symmetry_space_group_name_H-M "P 21/C"
_symmetry_group_IT_number 14
_symmetry_cell_setting 'monoclinic'
loop_
_space_group_symop_operation_xyz
x,y,z
-x,1/2+y,1/2-z
-x,-y,-z
x,1/2-y,1/2+z
loop_
_atom_site_type_symbol
_atom_site_label
_atom_site_fract_x
_atom_site_fract_y
_atom_site_fract_z
Si Si1 0.645888 0.608830 0.197940
Si Si2 0.105636 0.183748 0.801907
Si Si3 0.537710 0.087899 0.266495
Si Si4 0.940045 0.225079 0.814592
Si Si5 0.485120 0.942645 0.310482
Si Si6 0.983799 0.429668 0.722117
Si Si7 0.204961 0.515879 0.195235
Si Si8 0.820411 0.155552 0.738499
O O1 0.572376 0.618721 0.154220
O O2 0.542909 0.602134 0.550519
O O3 0.738919 0.673412 0.053585
O O4 0.735686 0.543813 0.024992
O O5 0.997453 0.178275 0.851902
O O6 0.073097 0.252137 0.955739
O O7 0.084448 0.126672 0.974784
O O8 0.489023 0.091149 0.555089
O O9 0.559769 0.012725 0.170074
O O10 0.668716 0.131859 0.994707
O O11 0.838478 0.181032 0.895667
O O12 0.854757 0.286976 0.040538
O O13 0.322273 0.950581 0.587838
O O14 0.858482 0.435864 0.824704
O O15 0.079711 0.493405 0.554809
O O16 0.919970 0.406544 0.021141
#
# Coordination Sequence:
#
# PCOD8124389 Si02
#       8
#     4   4   4   4   4   4   4   4
#     4  10  19  37  56  76 113 151 176 218 274 325
#     4   9  19  36  56  79 101 141 180 227 284 324
#     4  10  21  36  56  85 112 148 182 222 270 332
#     4   9  20  38  57  78 105 135 185 239 282 323
#     4  10  20  35  55  83 115 151 183 215 266 339
#     4   9  17  30  56  83 109 146 177 223 280 330
#     4   9  17  31  54  82 119 144 181 217 270 339
#     4  10  19  37  57  80 109 142 182 236 282 323
#
# _framework density 20.130796
#
# number of rings (size 3 to 8) (size 9 to 14) (size 15 to 20)
#    0.000    2.500    0.000    3.000    1.750    0.000 
#   15.750    1.875    0.000    0.000    0.000    0.000 
#    0.000    0.000    0.000    0.000    0.000    0.000 
#
# Total GULP energy -396559.588019 kJ/mol
# GULP energy per Si atom -12392.487126 kJ/mol
# Density = 2.008498 g / cm^3
# Si number density = 20.130796 Si / 1000 Ang^3
#
#
#
# Elastic Constant Matrix: (Units=GPa)
#
#
# Indices 1 2 3 4 5 6 
#
# 1 96.3628 20.3859 42.4693 0.0000 -3.1260 0.0000
# 2 20.3859 37.4493 30.3436 0.0000 -8.7503 0.0000
# 3 42.4693 30.3436 83.8208 0.0000 -11.9438 0.0000
# 4 0.0000 0.0000 0.0000 26.5834 0.0000 -9.7781
# 5 -3.1260 -8.7503 -11.9438 0.0000 27.0662 0.0000
# 6 0.0000 0.0000 0.0000 -9.7781 0.0000 24.6576
#
#
#
# Elastic Compliance Matrix: (Units=1/GPa)
#
#
# Indices 1 2 3 4 5 6 
#
# 1 0.013639 -0.002932 -0.006146 0.000000 -0.002085 0.000000
# 2 -0.002932 0.039552 -0.011801 0.000000 0.007241 0.000000
# 3 -0.006146 -0.011801 0.019924 0.000000 0.004267 0.000000
# 4 0.000000 0.000000 0.000000 0.044042 0.000000 0.017465
# 5 -0.002085 0.007241 0.004267 0.000000 0.040930 0.000000
# 6 0.000000 0.000000 0.000000 0.017465 0.000000 0.047481
#
#
# Mechanical properties :
#
#
# Convention : Reuss Voigt Hill
#
# Bulk Modulus (GPa) = 31.88984 44.89227 38.39106
# Shear Modulus (GPa) = 19.39651 23.95704 21.67678
#
# Velocity S-wave (km/s) = 3.10744 3.45348 3.28502
# Velocity P-wave (km/s) = 5.36196 6.18472 5.78798
#
# Compressibility (1/GPa) = 0.03135795
#
# Stress axis : x y z
#
# Youngs Moduli (GPa) = 73.32060 25.28289 50.18978
#
# Poissons Ratio (x) = 0.07412 0.30847
# Poissons Ratio (y) = 0.21494 0.59230
# Poissons Ratio (z) = 0.45064 0.29837
#
# Static dielectric constant tensor:
#      x y z
#    x 3.613110 0.000000 0.015470 
#    y 0.000000 3.513570 0.000000 
#    z 0.015470 0.000000 3.799720 
# 
# 
# High freq. dielectric constant tensor:
#      x y z
#    x 1.782140 0.000000 -0.000650 
#    y 0.000000 1.759530 0.000000 
#    z -0.000650 0.000000 1.781800 
# 
# From -- ./inp_files/18248.got.cif
#   From: 2010.03.12/outbox.cif.g09.slc.cpg/sg14_10_cif.got.tgz:18248.got - 2010.03.31 13:35:05.
