data_PCOD8124082
_publ_section_title
;
Structure prediction by ZEFSAII (Michael W. Deem and Ramdas Pophale) SiO2 
 PCOD8124082
Probable space group: P 21/C
;
_chemical_formula_sum "Si O2"
_cell_formula_units_Z 20
_cell_length_a 13.239355
_cell_length_b 4.841846
_cell_length_c 16.782902
_cell_angle_alpha 90.000000
_cell_angle_beta 50.665978
_cell_angle_gamma 90.000000
_cell_volume 832.118061
_symmetry_space_group_name_H-M "P 21/C"
_symmetry_group_IT_number 14
_symmetry_cell_setting 'monoclinic'
loop_
_space_group_symop_operation_xyz
x,y,z
-x,1/2+y,1/2-z
-x,-y,-z
x,1/2-y,1/2+z
loop_
_atom_site_type_symbol
_atom_site_label
_atom_site_fract_x
_atom_site_fract_y
_atom_site_fract_z
Si Si1 0.644657 0.567497 0.339990
Si Si2 0.857083 0.691800 0.626073
Si Si3 0.857097 0.308199 0.016824
Si Si4 0.500004 0.796797 0.694268
Si Si5 0.644674 0.432517 0.515341
O O1 0.747883 0.768358 0.247680
O O2 0.627676 0.288806 0.294083
O O3 0.698387 0.500036 0.400804
O O4 0.499990 0.713392 0.419989
O O5 0.500011 0.114422 0.722613
O O6 0.999988 0.749994 0.592708
O O7 0.840248 0.881911 0.556352
O O8 0.840235 0.118089 0.103393
O O9 0.747918 0.268353 0.004395
O O10 0.627696 0.711175 0.578242
#
# Coordination Sequence:
#
# PCOD8124082 Si02
#       5
#     4   4   4   4   4
#     4   9  20  38  59  91 125 157 197 253 308 369
#     4  10  21  39  62  87 117 158 208 251 295 362
#     4  10  21  39  62  87 117 158 208 251 295 362
#     4  10  19  34  57  82 112 154 194 236 291 350
#     4   9  20  38  59  91 125 157 197 253 308 369
#
# _framework density 24.035053000000001
#
# number of rings (size 3 to 8) (size 9 to 14) (size 15 to 20)
#    1.200    1.200    0.000    2.400    0.000    0.000 
#    0.000   16.000    0.000    0.000    0.000    0.000 
#    0.000    0.000    0.000    0.000    0.000    0.000 
#
# Total GULP energy -247843.519416 kJ/mol
# GULP energy per Si atom -12392.175971 kJ/mol
# Density = 2.398035 g / cm^3
# Si number density = 24.035053 Si / 1000 Ang^3
#
#
#
# Elastic Constant Matrix: (Units=GPa)
#
#
# Indices 1 2 3 4 5 6 
#
# 1 109.6953 3.4215 51.0220 0.0000 -5.1071 0.0000
# 2 3.4215 45.2179 6.3550 0.0000 -9.5186 0.0000
# 3 51.0220 6.3550 113.7692 0.0000 -8.4923 0.0000
# 4 0.0000 0.0000 0.0000 14.0170 0.0000 2.1315
# 5 -5.1071 -9.5186 -8.4923 0.0000 40.9564 0.0000
# 6 0.0000 0.0000 0.0000 2.1315 0.0000 14.7078
#
#
#
# Elastic Compliance Matrix: (Units=1/GPa)
#
#
# Indices 1 2 3 4 5 6 
#
# 1 0.011525 -0.000075 -0.005138 0.000000 0.000354 0.000000
# 2 -0.000075 0.023346 -0.000880 0.000000 0.005234 0.000000
# 3 -0.005138 -0.000880 0.011254 0.000000 0.001488 0.000000
# 4 0.000000 0.000000 0.000000 0.072950 0.000000 -0.010572
# 5 0.000354 0.005234 0.001488 0.000000 0.025985 0.000000
# 6 0.000000 0.000000 0.000000 -0.010572 0.000000 0.069524
#
#
# Mechanical properties :
#
#
# Convention : Reuss Voigt Hill
#
# Bulk Modulus (GPa) = 29.46420 43.36437 36.41429
# Shear Modulus (GPa) = 21.00112 27.79516 24.39814
#
# Velocity S-wave (km/s) = 2.95917 3.40434 3.18953
# Velocity P-wave (km/s) = 4.89500 5.79086 5.36167
#
# Compressibility (1/GPa) = 0.03393949
#
# Stress axis : x y z
#
# Youngs Moduli (GPa) = 86.76989 42.83343 88.85635
#
# Poissons Ratio (x) = 0.00323 0.45653
# Poissons Ratio (y) = 0.00654 0.07816
# Poissons Ratio (z) = 0.44581 0.03768
#
# Static dielectric constant tensor:
#      x y z
#    x 4.295950 0.000000 -0.179340 
#    y 0.000000 3.940060 0.000000 
#    z -0.179340 0.000000 4.351380 
# 
# 
# High freq. dielectric constant tensor:
#      x y z
#    x 1.944150 0.000000 -0.006980 
#    y 0.000000 1.939380 0.000000 
#    z -0.006980 0.000000 1.946310 
# 
# From -- ./inp_files/56733.got.cif
#   From: 2010.03.12/outbox.cif.g09.slc.cpg/sg14_29_cif.got.tgz:56733.got - 2010.03.31 13:35:05.
