data_PCOD8124774
_publ_section_title
;
Structure prediction by ZEFSAII (Michael W. Deem and Ramdas Pophale) SiO2 
 PCOD8124774
Probable space group: P 21/C
;
_chemical_formula_sum "Si O2"
_cell_formula_units_Z 32
_cell_length_a 15.843595
_cell_length_b 10.857745
_cell_length_c 21.927820
_cell_angle_alpha 90.000000
_cell_angle_beta 151.994183
_cell_angle_gamma 90.000000
_cell_volume 1771.254773
_symmetry_space_group_name_H-M "P 21/C"
_symmetry_group_IT_number 14
_symmetry_cell_setting 'monoclinic'
loop_
_space_group_symop_operation_xyz
x,y,z
-x,1/2+y,1/2-z
-x,-y,-z
x,1/2-y,1/2+z
loop_
_atom_site_type_symbol
_atom_site_label
_atom_site_fract_x
_atom_site_fract_y
_atom_site_fract_z
Si Si1 0.410462 0.081127 0.788359
Si Si2 0.843126 0.089983 0.300878
Si Si3 0.321554 0.026634 0.500825
Si Si4 0.361633 0.742441 0.987290
Si Si5 0.457133 0.726282 0.911914
Si Si6 0.076171 0.562341 0.285306
Si Si7 0.704558 0.610623 0.491601
Si Si8 0.766655 0.832314 0.442243
O O1 0.490121 0.171462 0.888854
O O2 0.355641 0.165458 0.695933
O O3 0.237887 0.013937 0.706967
O O4 0.563825 0.981509 0.869420
O O5 0.728185 0.216097 0.230599
O O6 0.855977 0.033462 0.240467
O O7 0.033554 0.129847 0.449234
O O8 0.498801 0.089784 0.584932
O O9 0.315915 0.062501 0.567719
O O10 0.139602 0.073972 0.350716
O O11 0.335973 0.880772 0.509102
O O12 0.447319 0.711701 0.977407
O O13 0.166297 0.807243 0.860457
O O14 0.615216 0.816570 0.990648
O O15 0.131491 0.460722 0.371044
O O16 0.771164 0.701247 0.480375
#
# Coordination Sequence:
#
# PCOD8124774 Si02
#       8
#     4   4   4   4   4   4   4   4
#     4  10  20  35  55  77 105 141 181 213 252 315
#     4   9  18  35  56  79 102 137 180 218 256 312
#     4  10  21  32  54  82 107 137 169 218 268 314
#     4  10  20  34  53  80 106 138 170 218 264 313
#     4   9  18  33  54  78 104 133 171 214 271 309
#     4   9  19  33  55  80 107 130 175 221 267 306
#     4   9  19  34  54  78 103 139 169 223 266 306
#     4  10  21  34  55  76 106 143 176 213 258 310
#
# _framework density 18.066288
#
# number of rings (size 3 to 8) (size 9 to 14) (size 15 to 20)
#    0.000    2.500    0.000    1.500    8.750    3.000 
#    0.000    0.000    0.000    0.750    0.000    0.000 
#    0.000    0.000    0.000    0.000    0.000    0.000 
#
# Total GULP energy -396655.830981 kJ/mol
# GULP energy per Si atom -12395.494718 kJ/mol
# Density = 1.802517 g / cm^3
# Si number density = 18.066288 Si / 1000 Ang^3
#
#
#
# Elastic Constant Matrix: (Units=GPa)
#
#
# Indices 1 2 3 4 5 6 
#
# 1 55.2343 17.4061 16.4853 0.0000 8.7527 0.0000
# 2 17.4061 68.8363 0.8757 0.0000 10.2801 0.0000
# 3 16.4853 0.8757 46.4847 0.0000 7.9022 0.0000
# 4 0.0000 0.0000 0.0000 17.6081 0.0000 -4.0790
# 5 8.7527 10.2801 7.9022 0.0000 20.7481 0.0000
# 6 0.0000 0.0000 0.0000 -4.0790 0.0000 24.8484
#
#
#
# Elastic Compliance Matrix: (Units=1/GPa)
#
#
# Indices 1 2 3 4 5 6 
#
# 1 0.022480 -0.004950 -0.007147 0.000000 -0.004309 0.000000
# 2 -0.004950 0.016830 0.002674 0.000000 -0.007269 0.000000
# 3 -0.007147 0.002674 0.025351 0.000000 -0.007965 0.000000
# 4 0.000000 0.000000 0.000000 0.059037 0.000000 0.009691
# 5 -0.004309 -0.007269 -0.007965 0.000000 0.056650 0.000000
# 6 0.000000 0.000000 0.000000 0.009691 0.000000 0.041835
#
#
# Mechanical properties :
#
#
# Convention : Reuss Voigt Hill
#
# Bulk Modulus (GPa) = 21.82622 26.67659 24.25141
# Shear Modulus (GPa) = 19.50830 21.69345 20.60088
#
# Velocity S-wave (km/s) = 3.28962 3.46897 3.38049
# Velocity P-wave (km/s) = 5.15133 5.55365 5.35627
#
# Compressibility (1/GPa) = 0.04581644
#
# Stress axis : x y z
#
# Youngs Moduli (GPa) = 44.48312 59.41597 39.44677
#
# Poissons Ratio (x) = 0.29411 0.28191
# Poissons Ratio (y) = 0.22019 -0.10549
# Poissons Ratio (z) = 0.31791 -0.15889
#
# Static dielectric constant tensor:
#      x y z
#    x 3.236890 0.000000 0.106550 
#    y 0.000000 3.410030 0.000000 
#    z 0.106550 0.000000 3.283010 
# 
# 
# High freq. dielectric constant tensor:
#      x y z
#    x 1.688920 0.000000 0.005730 
#    y 0.000000 1.697890 0.000000 
#    z 0.005730 0.000000 1.695550 
# 
# From -- ./inp_files/68497.got.cif
#   From: 2010.03.12/outbox.cif.g09.slc.cpg/sg14_35_cif.got.tgz:68497.got - 2010.03.31 13:35:05.
