data_PCOD8124455
_publ_section_title
;
Structure prediction by ZEFSAII (Michael W. Deem and Ramdas Pophale) SiO2 
 PCOD8124455
Probable space group: P 21/C
;
_chemical_formula_sum "Si O2"
_cell_formula_units_Z 32
_cell_length_a 22.312659
_cell_length_b 14.309421
_cell_length_c 8.893195
_cell_angle_alpha 90.000000
_cell_angle_beta 147.505451
_cell_angle_gamma 90.000000
_cell_volume 1525.396922
_symmetry_space_group_name_H-M "P 21/C"
_symmetry_group_IT_number 14
_symmetry_cell_setting 'monoclinic'
loop_
_space_group_symop_operation_xyz
x,y,z
-x,1/2+y,1/2-z
-x,-y,-z
x,1/2-y,1/2+z
loop_
_atom_site_type_symbol
_atom_site_label
_atom_site_fract_x
_atom_site_fract_y
_atom_site_fract_z
Si Si1 0.456170 0.656639 0.710451
Si Si2 0.240280 0.533087 0.761298
Si Si3 0.962337 0.160739 0.108812
Si Si4 0.283637 0.346273 0.697265
Si Si5 0.863519 0.312915 0.095688
Si Si6 0.707115 0.025437 0.280485
Si Si7 0.215165 0.343660 0.208517
Si Si8 0.653713 0.188956 0.704337
O O1 0.411365 0.568159 0.520946
O O2 0.388068 0.662308 0.720300
O O3 0.439863 0.751565 0.581363
O O4 0.584741 0.640881 0.012957
O O5 0.118981 0.580264 0.503258
O O6 0.223840 0.432681 0.651535
O O7 0.325905 0.594714 0.845596
O O8 0.288835 0.523343 0.031043
O O9 0.923980 0.262514 0.086283
O O10 0.084627 0.133938 0.421025
O O11 0.958165 0.166603 0.919841
O O12 0.249542 0.342473 0.453106
O O13 0.241701 0.254548 0.690594
O O14 0.807182 0.410180 0.924240
O O15 0.765731 0.249788 0.961840
O O16 0.715779 0.921930 0.233861
#
# Coordination Sequence:
#
# PCOD8124455 Si02
#       8
#     4   4   4   4   4   4   4   4
#     4  11  22  39  64  89 122 161 195 249 304 347
#     4  10  23  41  63  92 121 155 204 250 297 362
#     4  10  21  38  63  89 121 159 193 249 304 346
#     4  12  27  42  59  87 122 161 204 248 298 360
#     4   9  18  36  62  92 118 150 199 246 297 357
#     4  10  22  40  63  90 119 157 203 246 298 362
#     4  12  26  42  60  87 122 161 205 247 299 361
#     4  10  19  37  64  94 121 153 203 248 297 361
#
# _framework density 20.978147
#
# number of rings (size 3 to 8) (size 9 to 14) (size 15 to 20)
#    0.000    1.500    0.000    6.750    0.000    8.000 
#    0.000    0.000    0.000    0.000    0.000    0.000 
#    0.000    0.000    0.000    0.000    0.000    0.000 
#
# Total GULP energy -396965.874219 kJ/mol
# GULP energy per Si atom -12405.183569 kJ/mol
# Density = 2.093040 g / cm^3
# Si number density = 20.978147 Si / 1000 Ang^3
#
#
#
# Elastic Constant Matrix: (Units=GPa)
#
#
# Indices 1 2 3 4 5 6 
#
# 1 53.8162 27.7295 28.4202 0.0000 -21.6733 0.0000
# 2 27.7295 144.6004 33.7107 0.0000 -17.1879 0.0000
# 3 28.4202 33.7107 152.9371 0.0000 -12.5129 0.0000
# 4 0.0000 0.0000 0.0000 15.4368 0.0000 -3.9832
# 5 -21.6733 -17.1879 -12.5129 0.0000 35.2815 0.0000
# 6 0.0000 0.0000 0.0000 -3.9832 0.0000 35.1845
#
#
#
# Elastic Compliance Matrix: (Units=1/GPa)
#
#
# Indices 1 2 3 4 5 6 
#
# 1 0.027582 -0.002802 -0.003330 0.000000 0.014398 0.000000
# 2 -0.002802 0.007913 -0.001080 0.000000 0.001751 0.000000
# 3 -0.003330 -0.001080 0.007400 0.000000 0.000052 0.000000
# 4 0.000000 0.000000 0.000000 0.066729 0.000000 0.007554
# 5 0.014398 0.001751 0.000052 0.000000 0.038060 0.000000
# 6 0.000000 0.000000 0.000000 0.007554 0.000000 0.029277
#
#
# Mechanical properties :
#
#
# Convention : Reuss Voigt Hill
#
# Bulk Modulus (GPa) = 35.12338 59.00829 47.06584
# Shear Modulus (GPa) = 24.89108 34.61346 29.75227
#
# Velocity S-wave (km/s) = 3.44833 4.06640 3.77005
# Velocity P-wave (km/s) = 5.71260 7.08780 6.43703
#
# Compressibility (1/GPa) = 0.02847106
#
# Stress axis : x y z
#
# Youngs Moduli (GPa) = 36.25498 126.37736 135.13736
#
# Poissons Ratio (x) = 0.35406 0.45002
# Poissons Ratio (y) = 0.10157 0.14599
# Poissons Ratio (z) = 0.12073 0.13652
#
# Static dielectric constant tensor:
#      x y z
#    x 3.671470 0.000000 -0.132560 
#    y 0.000000 3.892780 0.000000 
#    z -0.132560 0.000000 4.113430 
# 
# 
# High freq. dielectric constant tensor:
#      x y z
#    x 1.816510 0.000000 -0.012930 
#    y 0.000000 1.829580 0.000000 
#    z -0.012930 0.000000 1.831610 
# 
# From -- ./inp_files/19526.got.cif
#   From: 2010.03.12/outbox.cif.g09.slc.cpg/sg14_10_cif.got.tgz:19526.got - 2010.03.31 13:35:05.
