data_PCOD8124160
_publ_section_title
;
Structure prediction by ZEFSAII (Michael W. Deem and Ramdas Pophale) SiO2 
 PCOD8124160
Probable space group: P 21/C
;
_chemical_formula_sum "Si O2"
_cell_formula_units_Z 28
_cell_length_a 10.149772
_cell_length_b 12.901638
_cell_length_c 19.303087
_cell_angle_alpha 90.000000
_cell_angle_beta 32.351153
_cell_angle_gamma 90.000000
_cell_volume 1352.596805
_symmetry_space_group_name_H-M "P 21/C"
_symmetry_group_IT_number 14
_symmetry_cell_setting 'monoclinic'
loop_
_space_group_symop_operation_xyz
x,y,z
-x,1/2+y,1/2-z
-x,-y,-z
x,1/2-y,1/2+z
loop_
_atom_site_type_symbol
_atom_site_label
_atom_site_fract_x
_atom_site_fract_y
_atom_site_fract_z
Si Si1 0.956436 0.867913 0.343622
Si Si2 0.375794 0.807947 0.392466
Si Si3 0.876792 0.576904 0.270456
Si Si4 0.759209 0.324194 0.785758
Si Si5 0.442751 0.252480 0.544743
Si Si6 0.630964 0.950988 0.610884
Si Si7 0.163198 0.177534 0.359493
O O1 0.797874 0.822430 0.349754
O O2 0.794708 0.928787 0.470966
O O3 0.081755 0.766024 0.322589
O O4 0.145530 0.952440 0.227541
O O5 0.387635 0.785341 0.468647
O O6 0.599900 0.752967 0.251461
O O7 0.094788 0.771860 0.496645
O O8 0.414580 0.928312 0.359807
O O9 0.630115 0.626638 0.412430
O O10 0.914979 0.628936 0.178711
O O11 0.100720 0.600498 0.223335
O O12 0.629931 0.392543 0.784035
O O13 0.567899 0.256018 0.914874
O O14 0.762644 0.914163 0.621921
#
# Coordination Sequence:
#
# PCOD8124160 Si02
#       7
#     4   4   4   4   4   4   4
#     4  10  20  34  62  84 119 154 202 247 294 354
#     4  11  22  42  65  88 120 161 199 247 296 361
#     4  10  19  35  56  85 113 157 199 242 295 355
#     4  10  20  36  56  87 119 152 198 248 294 347
#     4   9  19  35  56  86 117 152 198 248 292 352
#     4  11  23  38  62  87 117 160 200 243 302 358
#     4  11  24  38  65  89 120 154 205 246 295 356
#
# _framework density 20.70092
#
# number of rings (size 3 to 8) (size 9 to 14) (size 15 to 20)
#    0.000    1.714    2.857    1.286    2.000    2.857 
#    0.000    0.714    6.286    0.000    0.000    0.000 
#    0.000    0.000    0.000    0.000    0.000    0.000 
#
# Total GULP energy -346948.463501 kJ/mol
# GULP energy per Si atom -12391.016554 kJ/mol
# Density = 2.065380 g / cm^3
# Si number density = 20.700920 Si / 1000 Ang^3
#
#
#
# Elastic Constant Matrix: (Units=GPa)
#
#
# Indices 1 2 3 4 5 6 
#
# 1 61.9151 8.6147 20.3530 0.0000 -17.8486 0.0000
# 2 8.6147 84.2574 29.8363 0.0000 -8.4853 0.0000
# 3 20.3530 29.8363 62.5524 0.0000 -25.3084 0.0000
# 4 0.0000 0.0000 0.0000 17.9002 0.0000 -5.6566
# 5 -17.8486 -8.4853 -25.3084 0.0000 26.6316 0.0000
# 6 0.0000 0.0000 0.0000 -5.6566 0.0000 23.4449
#
#
#
# Elastic Compliance Matrix: (Units=1/GPa)
#
#
# Indices 1 2 3 4 5 6 
#
# 1 0.020145 -0.000294 -0.001608 0.000000 0.011879 0.000000
# 2 -0.000294 0.014446 -0.008144 0.000000 -0.003333 0.000000
# 3 -0.001608 -0.008144 0.030720 0.000000 0.025521 0.000000
# 4 0.000000 0.000000 0.000000 0.060476 0.000000 0.014591
# 5 0.011879 -0.003333 0.025521 0.000000 0.068702 0.000000
# 6 0.000000 0.000000 0.000000 0.014591 0.000000 0.046174
#
#
# Mechanical properties :
#
#
# Convention : Reuss Voigt Hill
#
# Bulk Modulus (GPa) = 22.11404 36.25919 29.18662
# Shear Modulus (GPa) = 18.12725 23.59009 20.85867
#
# Velocity S-wave (km/s) = 2.96239 3.37941 3.17775
# Velocity P-wave (km/s) = 4.73358 5.72547 5.25299
#
# Compressibility (1/GPa) = 0.04522014
#
# Stress axis : x y z
#
# Youngs Moduli (GPa) = 49.63956 69.22095 32.55227
#
# Poissons Ratio (x) = 0.02034 0.05235
# Poissons Ratio (y) = 0.01459 0.26509
# Poissons Ratio (z) = 0.07983 0.56371
#
# Static dielectric constant tensor:
#      x y z
#    x 3.746480 0.000000 -0.312480 
#    y 0.000000 3.770080 0.000000 
#    z -0.312480 0.000000 3.818090 
# 
# 
# High freq. dielectric constant tensor:
#      x y z
#    x 1.808370 0.000000 -0.017460 
#    y 0.000000 1.805860 0.000000 
#    z -0.017460 0.000000 1.798360 
# 
# From -- ./inp_files/28687.got.cif
#   From: 2010.03.12/outbox.cif.g09.slc.cpg/sg14_15_cif.got.tgz:28687.got - 2010.03.31 13:35:05.
