data_PCOD8124230
_publ_section_title
;
Structure prediction by ZEFSAII (Michael W. Deem and Ramdas Pophale) SiO2 
 PCOD8124230
Probable space group: P 21/C
;
_chemical_formula_sum "Si O2"
_cell_formula_units_Z 28
_cell_length_a 9.627707
_cell_length_b 15.988338
_cell_length_c 14.435504
_cell_angle_alpha 90.000000
_cell_angle_beta 144.316816
_cell_angle_gamma 90.000000
_cell_volume 1296.140948
_symmetry_space_group_name_H-M "P 21/C"
_symmetry_group_IT_number 14
_symmetry_cell_setting 'monoclinic'
loop_
_space_group_symop_operation_xyz
x,y,z
-x,1/2+y,1/2-z
-x,-y,-z
x,1/2-y,1/2+z
loop_
_atom_site_type_symbol
_atom_site_label
_atom_site_fract_x
_atom_site_fract_y
_atom_site_fract_z
Si Si1 0.853525 0.221111 0.816473
Si Si2 0.833575 0.959296 0.336046
Si Si3 0.443795 0.841716 0.184719
Si Si4 0.563674 0.117723 0.147419
Si Si5 0.006792 0.948846 0.907095
Si Si6 0.933673 0.903174 0.200802
Si Si7 0.690773 0.679525 0.316095
O O1 0.639280 0.175055 0.754940
O O2 0.766530 0.312881 0.739109
O O3 0.903379 0.171417 0.749021
O O4 0.086475 0.222406 0.008587
O O5 0.678917 0.027341 0.197283
O O6 0.677689 0.897374 0.312937
O O7 0.985768 0.912423 0.338372
O O8 0.000000 0.000000 0.500000
O O9 0.521488 0.752040 0.181527
O O10 0.240198 0.891240 0.018864
O O11 0.461893 0.123771 0.196091
O O12 0.344303 0.123178 0.957354
O O13 0.784275 0.883845 0.787137
O O14 0.997290 0.012310 0.816975
O O15 0.000000 0.000000 0.000000
#
# Coordination Sequence:
#
# PCOD8124230 Si02
#       7
#     4   4   4   4   4   4   4
#     4   9  19  37  63  90 125 159 211 260 315 375
#     4  12  25  40  59  89 131 164 212 262 321 367
#     4  10  19  35  61  89 123 164 203 252 314 376
#     4  10  19  37  65  90 120 163 208 258 316 376
#     4  11  17  36  65  91 120 164 214 253 307 387
#     4  11  22  40  64  93 120 168 215 256 313 381
#     4   9  18  33  61  94 123 163 204 254 318 373
#
# _framework density 21.602588999999998
#
# number of rings (size 3 to 8) (size 9 to 14) (size 15 to 20)
#    0.000    1.714    5.714    1.286    0.000    0.000 
#    2.571    3.571    0.000    0.000    0.000    0.000 
#    0.000    0.000    0.000    0.000    0.000    0.000 
#
# Total GULP energy -347090.347118 kJ/mol
# GULP energy per Si atom -12396.083826 kJ/mol
# Density = 2.155342 g / cm^3
# Si number density = 21.602589 Si / 1000 Ang^3
#
#
#
# Elastic Constant Matrix: (Units=GPa)
#
#
# Indices 1 2 3 4 5 6 
#
# 1 93.8824 37.1009 30.2499 0.0000 13.8430 0.0000
# 2 37.1009 91.5917 13.9372 0.0000 15.6462 0.0000
# 3 30.2499 13.9372 27.6883 0.0000 0.5471 0.0000
# 4 0.0000 0.0000 0.0000 31.3034 0.0000 18.5607
# 5 13.8430 15.6462 0.5471 0.0000 25.6352 0.0000
# 6 0.0000 0.0000 0.0000 18.5607 0.0000 46.9030
#
#
#
# Elastic Compliance Matrix: (Units=1/GPa)
#
#
# Indices 1 2 3 4 5 6 
#
# 1 0.019450 -0.003595 -0.019284 0.000000 -0.007897 0.000000
# 2 -0.003595 0.013935 -0.002958 0.000000 -0.006500 0.000000
# 3 -0.019284 -0.002958 0.058457 0.000000 0.010971 0.000000
# 4 0.000000 0.000000 0.000000 0.041739 0.000000 -0.016517
# 5 -0.007897 -0.006500 0.010971 0.000000 0.047007 0.000000
# 6 0.000000 0.000000 0.000000 -0.016517 0.000000 0.027857
#
#
# Mechanical properties :
#
#
# Convention : Reuss Voigt Hill
#
# Bulk Modulus (GPa) = 24.89585 41.74869 33.32227
# Shear Modulus (GPa) = 18.28101 29.55996 23.92049
#
# Velocity S-wave (km/s) = 2.91218 3.70314 3.33122
# Velocity P-wave (km/s) = 4.78092 6.13613 5.50042
#
# Compressibility (1/GPa) = 0.04016734
#
# Stress axis : x y z
#
# Youngs Moduli (GPa) = 51.41277 71.76236 17.10672
#
# Poissons Ratio (x) = 0.25801 0.32989
# Poissons Ratio (y) = 0.18484 0.05060
# Poissons Ratio (z) = 0.99145 0.21226
#
# Static dielectric constant tensor:
#      x y z
#    x 4.062040 0.000000 0.445440 
#    y 0.000000 4.355000 0.000000 
#    z 0.445440 0.000000 3.584180 
# 
# 
# High freq. dielectric constant tensor:
#      x y z
#    x 1.852340 0.000000 0.031400 
#    y 0.000000 1.865580 0.000000 
#    z 0.031400 0.000000 1.800980 
# 
# From -- ./inp_files/41811.got.cif
#   From: 2010.03.12/outbox.cif.g09.slc.cpg/sg14_21_cif.got.tgz:41811.got - 2010.03.31 13:35:05.
