data_PCOD8124211
_publ_section_title
;
Structure prediction by ZEFSAII (Michael W. Deem and Ramdas Pophale) SiO2 
 PCOD8124211
Probable space group: P 21/C
;
_chemical_formula_sum "Si O2"
_cell_formula_units_Z 28
_cell_length_a 9.245511
_cell_length_b 18.167251
_cell_length_c 9.088574
_cell_angle_alpha 90.000000
_cell_angle_beta 102.512902
_cell_angle_gamma 90.000000
_cell_volume 1490.306874
_symmetry_space_group_name_H-M "P 21/C"
_symmetry_group_IT_number 14
_symmetry_cell_setting 'monoclinic'
loop_
_space_group_symop_operation_xyz
x,y,z
-x,1/2+y,1/2-z
-x,-y,-z
x,1/2-y,1/2+z
loop_
_atom_site_type_symbol
_atom_site_label
_atom_site_fract_x
_atom_site_fract_y
_atom_site_fract_z
Si Si1 0.900613 0.874735 0.736814
Si Si2 0.227808 0.057154 0.026938
Si Si3 0.517570 0.661078 0.453830
Si Si4 0.994273 0.170101 0.847074
Si Si5 0.660603 0.748584 0.246528
Si Si6 0.914022 0.685757 0.953531
Si Si7 0.802498 0.111468 0.031996
O O1 0.799706 0.801926 0.731595
O O2 0.918833 0.886179 0.564144
O O3 0.063461 0.859776 0.837888
O O4 0.820754 0.940691 0.809999
O O5 0.125545 0.113640 0.915442
O O6 0.209271 0.976266 0.959984
O O7 0.396965 0.083179 0.040825
O O8 0.533237 0.703921 0.303122
O O9 0.587002 0.711608 0.594432
O O10 0.346442 0.648320 0.444880
O O11 0.982848 0.175680 0.667732
O O12 0.838254 0.137221 0.872639
O O13 0.026349 0.246800 0.934801
O O14 0.740776 0.807425 0.370863
#
# Coordination Sequence:
#
# PCOD8124211 Si02
#       7
#     4   4   4   4   4   4   4
#     4  10  19  35  60  84 108 145 190 233 273 328
#     4  10  19  39  58  77 113 159 191 215 272 345
#     4  11  22  36  59  85 109 150 182 230 284 333
#     4  11  19  33  60  84 109 146 188 234 280 325
#     4  11  18  36  59  80 107 145 185 224 286 338
#     4  12  17  34  62  83 108 140 193 234 283 324
#     4  11  23  37  53  86 118 147 189 231 272 328
#
# _framework density 18.788076
#
# number of rings (size 3 to 8) (size 9 to 14) (size 15 to 20)
#    0.000    1.143    8.571    2.143    0.000    2.286 
#    0.000    2.857    0.000    0.857    0.000    0.000 
#    0.000    0.000    0.000    0.000    0.000    0.000 
#
# Total GULP energy -346934.167928 kJ/mol
# GULP energy per Si atom -12390.505997 kJ/mol
# Density = 1.874531 g / cm^3
# Si number density = 18.788076 Si / 1000 Ang^3
#
#
#
# Elastic Constant Matrix: (Units=GPa)
#
#
# Indices 1 2 3 4 5 6 
#
# 1 146.6761 26.5057 33.6125 0.0000 -18.6200 0.0000
# 2 26.5057 55.1117 25.2202 0.0000 -7.6700 0.0000
# 3 33.6125 25.2202 105.3625 0.0000 -28.5881 0.0000
# 4 0.0000 0.0000 0.0000 10.3796 0.0000 -4.8383
# 5 -18.6200 -7.6700 -28.5881 0.0000 28.6478 0.0000
# 6 0.0000 0.0000 0.0000 -4.8383 0.0000 21.6840
#
#
#
# Elastic Compliance Matrix: (Units=1/GPa)
#
#
# Indices 1 2 3 4 5 6 
#
# 1 0.008002 -0.002951 -0.000891 0.000000 0.003522 0.000000
# 2 -0.002951 0.021479 -0.004333 0.000000 -0.000492 0.000000
# 3 -0.000891 -0.004333 0.014180 0.000000 0.012411 0.000000
# 4 0.000000 0.000000 0.000000 0.107526 0.000000 0.023992
# 5 0.003522 -0.000492 0.012411 0.000000 0.049450 0.000000
# 6 0.000000 0.000000 0.000000 0.023992 0.000000 0.051470
#
#
# Mechanical properties :
#
#
# Convention : Reuss Voigt Hill
#
# Bulk Modulus (GPa) = 36.61512 53.09189 44.85350
# Shear Modulus (GPa) = 18.01408 26.92976 22.47192
#
# Velocity S-wave (km/s) = 3.09981 3.79006 3.46218
# Velocity P-wave (km/s) = 5.68706 6.89002 6.31724
#
# Compressibility (1/GPa) = 0.02731112
#
# Stress axis : x y z
#
# Youngs Moduli (GPa) = 124.96487 46.55772 70.52151
#
# Poissons Ratio (x) = 0.13738 0.06283
# Poissons Ratio (y) = 0.36874 0.30559
# Poissons Ratio (z) = 0.11133 0.20175
#
# Static dielectric constant tensor:
#      x y z
#    x 3.568790 0.000000 -0.326860 
#    y 0.000000 3.350790 0.000000 
#    z -0.326860 0.000000 3.820400 
# 
# 
# High freq. dielectric constant tensor:
#      x y z
#    x 1.725430 0.000000 -0.023610 
#    y 0.000000 1.707250 0.000000 
#    z -0.023610 0.000000 1.728390 
# 
# From -- ./inp_files/9530.got.cif
#   From: 2010.03.12/outbox.cif.g09.slc.cpg/sg14_5_cif.got.tgz:9530.got - 2010.03.31 13:35:05.
