data_PCOD8124088
_publ_section_title
;
Structure prediction by ZEFSAII (Michael W. Deem and Ramdas Pophale) SiO2 
 PCOD8124088
Probable space group: P 21/C
;
_chemical_formula_sum "Si O2"
_cell_formula_units_Z 28
_cell_length_a 5.447181
_cell_length_b 26.525909
_cell_length_c 8.567292
_cell_angle_alpha 90.000000
_cell_angle_beta 80.989529
_cell_angle_gamma 90.000000
_cell_volume 1222.624234
_symmetry_space_group_name_H-M "P 21/C"
_symmetry_group_IT_number 14
_symmetry_cell_setting 'monoclinic'
loop_
_space_group_symop_operation_xyz
x,y,z
-x,1/2+y,1/2-z
-x,-y,-z
x,1/2-y,1/2+z
loop_
_atom_site_type_symbol
_atom_site_label
_atom_site_fract_x
_atom_site_fract_y
_atom_site_fract_z
Si Si1 0.208158 0.291217 0.265714
Si Si2 0.819698 0.094080 0.294892
Si Si3 0.172100 0.794134 0.796496
Si Si4 0.823048 0.598249 0.824404
Si Si5 0.687492 0.441446 0.146849
Si Si6 0.479912 0.747430 0.515518
Si Si7 0.692730 0.942818 0.667605
O O1 0.100235 0.345774 0.237359
O O2 0.294075 0.287689 0.439785
O O3 0.031186 0.245584 0.237120
O O4 0.448363 0.284768 0.131286
O O5 0.905995 0.148966 0.228926
O O6 0.745208 0.090141 0.484409
O O7 0.571319 0.074497 0.227994
O O8 0.071754 0.061451 0.237549
O O9 0.411528 0.783655 0.665214
O O10 0.251290 0.787002 0.971611
O O11 0.577922 0.577793 0.755844
O O12 0.077638 0.567334 0.760592
O O13 0.757836 0.593349 0.014550
O O14 0.665729 0.500325 0.109208
#
# Coordination Sequence:
#
# PCOD8124088 Si02
#       7
#     4   4   4   4   4   4   4
#     4  11  24  39  61  90 126 175 214 261 309 386
#     4  10  20  31  56  83 122 156 196 249 324 370
#     4  11  24  39  61  90 126 175 214 261 309 386
#     4  10  20  31  56  83 122 156 196 249 324 370
#     4  10  19  34  57  90 122 154 205 269 324 370
#     4  10  24  40  60  82 130 162 224 256 312 360
#     4  10  19  34  57  90 122 154 205 269 324 370
#
# _framework density 22.901555999999999
#
# number of rings (size 3 to 8) (size 9 to 14) (size 15 to 20)
#    0.000    1.714    0.000    6.857   16.000    0.000 
#    0.000    0.000    0.000    0.000    0.000   11.000 
#    0.000    0.000    0.000    0.000    0.000    0.000 
#
# Total GULP energy -346874.099365 kJ/mol
# GULP energy per Si atom -12388.360692 kJ/mol
# Density = 2.284943 g / cm^3
# Si number density = 22.901556 Si / 1000 Ang^3
#
#
#
# Elastic Constant Matrix: (Units=GPa)
#
#
# Indices 1 2 3 4 5 6 
#
# 1 182.8264 1.6857 -1.5266 0.0000 8.6863 0.0000
# 2 1.6857 60.9182 7.4357 0.0000 -0.0893 0.0000
# 3 -1.5266 7.4357 38.6077 0.0000 16.9689 0.0000
# 4 0.0000 0.0000 0.0000 19.7845 0.0000 -5.4562
# 5 8.6863 -0.0893 16.9689 0.0000 21.2617 0.0000
# 6 0.0000 0.0000 0.0000 -5.4562 0.0000 37.0452
#
#
#
# Elastic Compliance Matrix: (Units=1/GPa)
#
#
# Indices 1 2 3 4 5 6 
#
# 1 0.005678 -0.000412 0.002040 0.000000 -0.003949 0.000000
# 2 -0.000412 0.017075 -0.005253 0.000000 0.004432 0.000000
# 3 0.002040 -0.005253 0.042158 0.000000 -0.034502 0.000000
# 4 0.000000 0.000000 0.000000 0.052685 0.000000 0.007760
# 5 -0.003949 0.004432 -0.034502 0.000000 0.076201 0.000000
# 6 0.000000 0.000000 0.000000 0.007760 0.000000 0.028137
#
#
# Mechanical properties :
#
#
# Convention : Reuss Voigt Hill
#
# Bulk Modulus (GPa) = 17.34284 33.06020 25.20152
# Shear Modulus (GPa) = 20.12854 33.93543 27.03199
#
# Velocity S-wave (km/s) = 2.96787 3.85359 3.43936
# Velocity P-wave (km/s) = 4.39699 5.85383 5.17691
#
# Compressibility (1/GPa) = 0.05766069
#
# Stress axis : x y z
#
# Youngs Moduli (GPa) = 176.11409 58.56680 23.72023
#
# Poissons Ratio (x) = 0.02412 -0.04838
# Poissons Ratio (y) = 0.07254 0.12460
# Poissons Ratio (z) = -0.35922 0.30764
#
# Static dielectric constant tensor:
#      x y z
#    x 5.304970 0.000000 0.077610 
#    y 0.000000 3.943270 0.000000 
#    z 0.077610 0.000000 3.877240 
# 
# 
# High freq. dielectric constant tensor:
#      x y z
#    x 1.943270 0.000000 0.002090 
#    y 0.000000 1.892010 0.000000 
#    z 0.002090 0.000000 1.836330 
# 
# From -- ./inp_files/6525.got.cif
#   From: 2010.03.12/outbox.cif.g09.slc.cpg/sg14_4_cif.got.tgz:6525.got - 2010.03.31 13:35:05.
