data_PCOD8124105
_publ_section_title
;
Structure prediction by ZEFSAII (Michael W. Deem and Ramdas Pophale) SiO2 
 PCOD8124105
Probable space group: P 21/C
;
_chemical_formula_sum "Si O2"
_cell_formula_units_Z 28
_cell_length_a 9.323101
_cell_length_b 18.961318
_cell_length_c 16.920685
_cell_angle_alpha 90.000000
_cell_angle_beta 31.018052
_cell_angle_gamma 90.000000
_cell_volume 1541.394598
_symmetry_space_group_name_H-M "P 21/C"
_symmetry_group_IT_number 14
_symmetry_cell_setting 'monoclinic'
loop_
_space_group_symop_operation_xyz
x,y,z
-x,1/2+y,1/2-z
-x,-y,-z
x,1/2-y,1/2+z
loop_
_atom_site_type_symbol
_atom_site_label
_atom_site_fract_x
_atom_site_fract_y
_atom_site_fract_z
Si Si1 0.006009 0.185948 0.693079
Si Si2 0.456860 0.233458 0.879408
Si Si3 0.164671 0.296961 0.297929
Si Si4 0.420138 0.039781 0.261668
Si Si5 0.594921 0.192388 0.153190
Si Si6 0.550558 0.892085 0.221261
Si Si7 0.990935 0.064762 0.589931
O O1 0.212659 0.228981 0.540507
O O2 0.088038 0.188660 0.744687
O O3 0.699953 0.218232 0.827340
O O4 0.016169 0.103826 0.661908
O O5 0.570319 0.282784 0.755150
O O6 0.331772 0.160516 0.902226
O O7 0.350300 0.226664 0.216422
O O8 0.344283 0.363966 0.243972
O O9 0.892015 0.284831 0.479443
O O10 0.571495 0.107644 0.154874
O O11 0.293737 0.057543 0.407853
O O12 0.640896 0.974311 0.165938
O O13 0.161624 0.011908 0.328317
O O14 0.210857 0.888600 0.373661
#
# Coordination Sequence:
#
# PCOD8124105 Si02
#       7
#     4   4   4   4   4   4   4
#     4  11  20  37  55  84 115 147 183 239 291 334
#     4  10  19  34  60  80 106 148 197 224 274 337
#     4  11  24  35  55  87 120 142 185 246 291 327
#     4   9  17  35  63  84 108 148 203 225 279 338
#     4  11  22  37  61  86 107 156 195 236 276 340
#     4   8  18  34  57  83 109 144 187 238 268 333
#     4   8  17  34  61  81 107 154 188 226 275 354
#
# _framework density 18.165367
#
# number of rings (size 3 to 8) (size 9 to 14) (size 15 to 20)
#    0.857    1.429    1.429    2.571    4.000    0.571 
#    0.000    1.429    3.143    0.000    0.000    0.000 
#    0.000    0.000    0.000    0.000    0.000    0.000 
#
# Total GULP energy -346903.394715 kJ/mol
# GULP energy per Si atom -12389.406954 kJ/mol
# Density = 1.812402 g / cm^3
# Si number density = 18.165367 Si / 1000 Ang^3
#
#
#
# Elastic Constant Matrix: (Units=GPa)
#
#
# Indices 1 2 3 4 5 6 
#
# 1 113.9658 34.9010 3.9557 0.0000 -2.8597 0.0000
# 2 34.9010 125.2450 17.2208 0.0000 -4.6517 0.0000
# 3 3.9557 17.2208 50.1199 0.0000 -3.3315 0.0000
# 4 0.0000 0.0000 0.0000 18.0587 0.0000 2.2164
# 5 -2.8597 -4.6517 -3.3315 0.0000 15.2276 0.0000
# 6 0.0000 0.0000 0.0000 2.2164 0.0000 9.6647
#
#
#
# Elastic Compliance Matrix: (Units=1/GPa)
#
#
# Indices 1 2 3 4 5 6 
#
# 1 0.009611 -0.002671 0.000228 0.000000 0.001039 0.000000
# 2 -0.002671 0.009180 -0.002832 0.000000 0.001683 0.000000
# 3 0.000228 -0.002832 0.021160 0.000000 0.003807 0.000000
# 4 0.000000 0.000000 0.000000 0.056979 0.000000 -0.013067
# 5 0.001039 0.001683 0.003807 0.000000 0.067212 0.000000
# 6 0.000000 0.000000 0.000000 -0.013067 0.000000 0.106466
#
#
# Mechanical properties :
#
#
# Convention : Reuss Voigt Hill
#
# Bulk Modulus (GPa) = 34.01055 44.60952 39.31003
# Shear Modulus (GPa) = 17.18463 24.14042 20.66252
#
# Velocity S-wave (km/s) = 3.07907 3.64940 3.37630
# Velocity P-wave (km/s) = 5.60395 6.50909 6.07340
#
# Compressibility (1/GPa) = 0.02940264
#
# Stress axis : x y z
#
# Youngs Moduli (GPa) = 104.05118 108.92658 47.25864
#
# Poissons Ratio (x) = 0.29093 -0.01079
# Poissons Ratio (y) = 0.27791 0.13382
# Poissons Ratio (z) = -0.02375 0.30844
#
# Static dielectric constant tensor:
#      x y z
#    x 3.192550 0.000000 -0.149510 
#    y 0.000000 3.577650 0.000000 
#    z -0.149510 0.000000 3.194260 
# 
# 
# High freq. dielectric constant tensor:
#      x y z
#    x 1.680310 0.000000 -0.015100 
#    y 0.000000 1.708950 0.000000 
#    z -0.015100 0.000000 1.691060 
# 
# From -- ./inp_files/56194.got.cif
#   From: 2010.03.12/outbox.cif.g09.slc.cpg/sg14_29_cif.got.tgz:56194.got - 2010.03.31 13:35:05.
