data_PCOD8124996
_publ_section_title
;
Structure prediction by ZEFSAII (Michael W. Deem and Ramdas Pophale) SiO2 
 PCOD8124996
Probable space group: P 21/C
;
_chemical_formula_sum "Si O2"
_cell_formula_units_Z 32
_cell_length_a 21.831571
_cell_length_b 9.047920
_cell_length_c 8.869030
_cell_angle_alpha 90.000000
_cell_angle_beta 66.562562
_cell_angle_gamma 90.000000
_cell_volume 1607.361405
_symmetry_space_group_name_H-M "P 21/C"
_symmetry_group_IT_number 14
_symmetry_cell_setting 'monoclinic'
loop_
_space_group_symop_operation_xyz
x,y,z
-x,1/2+y,1/2-z
-x,-y,-z
x,1/2-y,1/2+z
loop_
_atom_site_type_symbol
_atom_site_label
_atom_site_fract_x
_atom_site_fract_y
_atom_site_fract_z
Si Si1 0.818642 0.059359 0.488313
Si Si2 0.440198 0.129538 0.396789
Si Si3 0.064017 0.142633 0.580643
Si Si4 0.327699 0.626527 0.508830
Si Si5 0.568437 0.930816 0.251720
Si Si6 0.824408 0.150167 0.818148
Si Si7 0.666238 0.431692 0.150410
Si Si8 0.058374 0.444320 0.743762
O O1 0.833636 0.140092 0.630893
O O2 0.837554 0.178478 0.342739
O O3 0.741649 0.010304 0.553013
O O4 0.864812 0.915185 0.425671
O O5 0.451388 0.297754 0.338433
O O6 0.418972 0.125236 0.591670
O O7 0.509320 0.047874 0.300427
O O8 0.381985 0.062887 0.350798
O O9 0.055886 0.314739 0.624003
O O10 0.059993 0.130022 0.405573
O O11 0.006151 0.046692 0.715105
O O12 0.363694 0.504836 0.372141
O O13 0.249269 0.602049 0.556881
O O14 0.349318 0.790290 0.437887
O O15 0.347830 0.610325 0.663055
O O16 0.876356 0.043347 0.851054
#
# Coordination Sequence:
#
# PCOD8124996 Si02
#       8
#     4   4   4   4   4   4   4   4
#     4   9  19  35  55  81 110 142 180 221 266 318
#     4  11  24  40  59  83 111 144 182 225 273 324
#     4  10  21  36  54  78 108 141 180 224 269 319
#     4  10  20  36  58  83 113 146 182 224 270 323
#     4  11  24  40  59  83 111 144 182 225 273 324
#     4   9  19  35  55  81 110 142 180 221 266 318
#     4  10  20  36  58  83 113 146 182 224 270 323
#     4  10  21  36  54  78 108 141 180 224 269 319
#
# _framework density 19.908403
#
# number of rings (size 3 to 8) (size 9 to 14) (size 15 to 20)
#    0.000    2.000    0.000    3.000    0.000    7.500 
#    0.000    2.500    0.000    0.000    0.000    0.000 
#    0.000    0.000    0.000    0.000    0.000    0.000 
#
# Total GULP energy -396977.206926 kJ/mol
# GULP energy per Si atom -12405.537716 kJ/mol
# Density = 1.986309 g / cm^3
# Si number density = 19.908403 Si / 1000 Ang^3
#
#
#
# Elastic Constant Matrix: (Units=GPa)
#
#
# Indices 1 2 3 4 5 6 
#
# 1 74.6894 11.0828 23.9179 0.0000 -3.3419 0.0000
# 2 11.0828 47.1550 14.0407 0.0000 -8.2974 0.0000
# 3 23.9179 14.0407 60.8086 0.0000 -13.5616 0.0000
# 4 0.0000 0.0000 0.0000 33.3949 0.0000 1.5114
# 5 -3.3419 -8.2974 -13.5616 0.0000 20.1823 0.0000
# 6 0.0000 0.0000 0.0000 1.5114 0.0000 38.7641
#
#
#
# Elastic Compliance Matrix: (Units=1/GPa)
#
#
# Indices 1 2 3 4 5 6 
#
# 1 0.015587 -0.002267 -0.006163 0.000000 -0.002492 0.000000
# 2 -0.002267 0.023938 -0.002970 0.000000 0.007471 0.000000
# 3 -0.006163 -0.002970 0.022414 0.000000 0.012820 0.000000
# 4 0.000000 0.000000 0.000000 0.029998 0.000000 -0.001170
# 5 -0.002492 0.007471 0.012820 0.000000 0.060821 0.000000
# 6 0.000000 0.000000 0.000000 -0.001170 0.000000 0.025843
#
#
# Mechanical properties :
#
#
# Convention : Reuss Voigt Hill
#
# Bulk Modulus (GPa) = 25.54938 31.19285 28.37112
# Shear Modulus (GPa) = 23.31572 27.37571 25.34571
#
# Velocity S-wave (km/s) = 3.42592 3.71223 3.57195
# Velocity P-wave (km/s) = 5.33953 5.83750 5.59406
#
# Compressibility (1/GPa) = 0.03913989
#
# Stress axis : x y z
#
# Youngs Moduli (GPa) = 64.15463 41.77425 44.61485
#
# Poissons Ratio (x) = 0.09470 0.27498
# Poissons Ratio (y) = 0.14543 0.13249
# Poissons Ratio (z) = 0.39541 0.12405
#
# Static dielectric constant tensor:
#      x y z
#    x 3.705810 0.000000 -0.094180 
#    y 0.000000 3.503420 0.000000 
#    z -0.094180 0.000000 3.668730 
# 
# 
# High freq. dielectric constant tensor:
#      x y z
#    x 1.784850 0.000000 -0.005350 
#    y 0.000000 1.771300 0.000000 
#    z -0.005350 0.000000 1.780530 
# 
# From -- ./inp_files/19364.got.cif
#   From: 2010.03.12/outbox.cif.g09.slc.cpg/sg14_10_cif.got.tgz:19364.got - 2010.03.31 13:35:05.
