data_PCOD8124424
_publ_section_title
;
Structure prediction by ZEFSAII (Michael W. Deem and Ramdas Pophale) SiO2 
 PCOD8124424
Probable space group: P 21/C
;
_chemical_formula_sum "Si O2"
_cell_formula_units_Z 32
_cell_length_a 18.005079
_cell_length_b 10.544505
_cell_length_c 26.495336
_cell_angle_alpha 90.000000
_cell_angle_beta 160.688510
_cell_angle_gamma 90.000000
_cell_volume 1663.526232
_symmetry_space_group_name_H-M "P 21/C"
_symmetry_group_IT_number 14
_symmetry_cell_setting 'monoclinic'
loop_
_space_group_symop_operation_xyz
x,y,z
-x,1/2+y,1/2-z
-x,-y,-z
x,1/2-y,1/2+z
loop_
_atom_site_type_symbol
_atom_site_label
_atom_site_fract_x
_atom_site_fract_y
_atom_site_fract_z
Si Si1 0.943471 0.270096 0.576547
Si Si2 0.875993 0.119524 0.138508
Si Si3 0.446425 0.317957 0.093065
Si Si4 0.217396 0.572205 0.619534
Si Si5 0.605900 0.428705 0.901219
Si Si6 0.560376 0.741589 0.622708
Si Si7 0.413604 0.637524 0.929727
Si Si8 0.046665 0.160357 0.822140
O O1 0.976663 0.357250 0.647156
O O2 0.824010 0.358151 0.459197
O O3 0.793160 0.148880 0.492439
O O4 0.175087 0.213204 0.702771
O O5 0.980770 0.229925 0.240270
O O6 0.937350 0.977069 0.195407
O O7 0.602643 0.128332 0.962856
O O8 0.681257 0.323383 0.275316
O O9 0.295321 0.440418 0.012272
O O10 0.499765 0.319278 0.068431
O O11 0.287299 0.195924 0.001755
O O12 0.406985 0.462820 0.733864
O O13 0.000000 0.500000 0.500000
O O14 0.497082 0.362236 0.880050
O O15 0.511527 0.764418 0.532798
O O16 0.142514 0.646464 0.756226
O O17 0.500000 0.500000 0.000000
#
# Coordination Sequence:
#
# PCOD8124424 Si02
#       8
#     4   4   4   4   4   4   4   4
#     4  11  20  39  65  87 126 170 203 266 319 363
#     4  10  25  37  63  95 128 165 212 251 315 383
#     4  10  22  40  57  93 121 158 211 268 304 373
#     4  10  21  39  62  89 122 163 222 262 299 382
#     4   9  21  37  61  92 120 157 216 259 310 371
#     4  10  19  37  60  94 124 161 205 256 315 381
#     4  11  19  36  64  90 121 167 207 245 313 377
#     4  11  23  41  63  93 131 166 207 266 308 386
#
# _framework density 19.236246999999999
#
# number of rings (size 3 to 8) (size 9 to 14) (size 15 to 20)
#    0.750    1.000    2.500    2.250    5.250    1.000 
#    2.250    1.875    0.000    2.250    0.000    0.000 
#    0.000    0.000    0.000    0.000    0.000    0.000 
#
# Total GULP energy -396453.468694 kJ/mol
# GULP energy per Si atom -12389.170897 kJ/mol
# Density = 1.919246 g / cm^3
# Si number density = 19.236247 Si / 1000 Ang^3
#
#
#
# Elastic Constant Matrix: (Units=GPa)
#
#
# Indices 1 2 3 4 5 6 
#
# 1 71.5983 28.6895 26.1870 0.0000 7.2730 0.0000
# 2 28.6895 109.6090 39.4104 0.0000 10.2019 0.0000
# 3 26.1870 39.4104 104.6194 0.0000 16.7683 0.0000
# 4 0.0000 0.0000 0.0000 39.1683 0.0000 -0.9225
# 5 7.2730 10.2019 16.7683 0.0000 31.9912 0.0000
# 6 0.0000 0.0000 0.0000 -0.9225 0.0000 23.4070
#
#
#
# Elastic Compliance Matrix: (Units=1/GPa)
#
#
# Indices 1 2 3 4 5 6 
#
# 1 0.016361 -0.003197 -0.002684 0.000000 -0.001293 0.000000
# 2 -0.003197 0.011235 -0.003247 0.000000 -0.001154 0.000000
# 3 -0.002684 -0.003247 0.012216 0.000000 -0.004757 0.000000
# 4 0.000000 0.000000 0.000000 0.025555 0.000000 0.001007
# 5 -0.001293 -0.001154 -0.004757 0.000000 0.034414 0.000000
# 6 0.000000 0.000000 0.000000 0.001007 0.000000 0.042762
#
#
# Mechanical properties :
#
#
# Convention : Reuss Voigt Hill
#
# Bulk Modulus (GPa) = 46.39013 52.71116 49.55064
# Shear Modulus (GPa) = 29.76485 31.68261 30.72373
#
# Velocity S-wave (km/s) = 3.93788 4.06276 4.00081
# Velocity P-wave (km/s) = 6.69658 7.03346 6.86709
#
# Compressibility (1/GPa) = 0.02155631
#
# Stress axis : x y z
#
# Youngs Moduli (GPa) = 61.12180 89.00705 81.86071
#
# Poissons Ratio (x) = 0.28456 0.21968
# Poissons Ratio (y) = 0.19541 0.26581
# Poissons Ratio (z) = 0.16402 0.28901
#
# Static dielectric constant tensor:
#      x y z
#    x 3.549420 0.000000 0.155450 
#    y 0.000000 3.470510 0.000000 
#    z 0.155450 0.000000 3.832590 
# 
# 
# High freq. dielectric constant tensor:
#      x y z
#    x 1.738190 0.000000 0.011090 
#    y 0.000000 1.731290 0.000000 
#    z 0.011090 0.000000 1.756510 
# 
# From -- ./inp_files/77822.got.cif
#   From: 2010.03.12/outbox.cif.g09.slc.cpg/sg14_39_cif.got.tgz:77822.got - 2010.03.31 13:35:05.
