data_PCOD8124576
_publ_section_title
;
Structure prediction by ZEFSAII (Michael W. Deem and Ramdas Pophale) SiO2 
 PCOD8124576
Probable space group: P 21/C
;
_chemical_formula_sum "Si O2"
_cell_formula_units_Z 28
_cell_length_a 9.165904
_cell_length_b 16.733865
_cell_length_c 18.763969
_cell_angle_alpha 90.000000
_cell_angle_beta 27.128644
_cell_angle_gamma 90.000000
_cell_volume 1312.355488
_symmetry_space_group_name_H-M "P 21/C"
_symmetry_group_IT_number 14
_symmetry_cell_setting 'monoclinic'
loop_
_space_group_symop_operation_xyz
x,y,z
-x,1/2+y,1/2-z
-x,-y,-z
x,1/2-y,1/2+z
loop_
_atom_site_type_symbol
_atom_site_label
_atom_site_fract_x
_atom_site_fract_y
_atom_site_fract_z
Si Si1 0.282183 0.939437 0.896403
Si Si2 0.340948 0.351004 0.031045
Si Si3 0.314722 0.467759 0.513062
Si Si4 0.914660 0.295601 0.425174
Si Si5 0.348038 0.811946 0.114148
Si Si6 0.436546 0.856655 0.410691
Si Si7 0.438367 0.972131 0.678385
O O1 0.482098 0.929592 0.736484
O O2 0.162830 0.852732 0.974321
O O3 0.468719 0.983710 0.879501
O O4 0.000000 0.000000 0.000000
O O5 0.503287 0.379833 0.033433
O O6 0.973707 0.329027 0.203012
O O7 0.530261 0.275340 0.917295
O O8 0.364565 0.421905 0.964332
O O9 0.500000 0.500000 0.500000
O O10 0.380530 0.373650 0.477856
O O11 0.933247 0.483249 0.684037
O O12 0.693289 0.318812 0.453528
O O13 0.869046 0.201785 0.464947
O O14 0.280169 0.303150 0.244399
O O15 0.400175 0.940097 0.385063
#
# Coordination Sequence:
#
# PCOD8124576 Si02
#       7
#     4   4   4   4   4   4   4
#     4  10  20  39  63  84 125 163 205 247 321 379
#     4  10  21  38  59  92 127 162 208 261 314 363
#     4  11  19  36  66  90 119 162 213 256 304 374
#     4  10  19  39  61  90 114 161 207 257 305 367
#     4  10  20  37  62  92 122 159 220 261 303 369
#     4  10  20  37  61  88 119 158 207 252 304 371
#     4  11  22  40  61  92 128 166 199 261 323 373
#
# _framework density 21.335683
#
# number of rings (size 3 to 8) (size 9 to 14) (size 15 to 20)
#    0.000    1.714    4.286    2.143    0.000    1.143 
#    5.143    2.143    0.000    0.000    0.000    0.000 
#    0.000    0.000    0.000    0.000    0.000    0.000 
#
# Total GULP energy -347146.599905 kJ/mol
# GULP energy per Si atom -12398.092854 kJ/mol
# Density = 2.128712 g / cm^3
# Si number density = 21.335683 Si / 1000 Ang^3
#
#
#
# Elastic Constant Matrix: (Units=GPa)
#
#
# Indices 1 2 3 4 5 6 
#
# 1 80.0839 32.6234 33.7676 0.0000 23.8813 0.0000
# 2 32.6234 114.9973 60.8655 0.0000 12.0844 0.0000
# 3 33.7676 60.8655 91.8664 0.0000 28.3629 0.0000
# 4 0.0000 0.0000 0.0000 44.0063 0.0000 6.2114
# 5 23.8813 12.0844 28.3629 0.0000 29.3103 0.0000
# 6 0.0000 0.0000 0.0000 6.2114 0.0000 32.9564
#
#
#
# Elastic Compliance Matrix: (Units=1/GPa)
#
#
# Indices 1 2 3 4 5 6 
#
# 1 0.017888 -0.003613 -0.000201 0.000000 -0.012890 0.000000
# 2 -0.003613 0.014526 -0.010490 0.000000 0.007106 0.000000
# 3 -0.000201 -0.010490 0.023563 0.000000 -0.018313 0.000000
# 4 0.000000 0.000000 0.000000 0.023345 0.000000 -0.004400
# 5 -0.012890 0.007106 -0.018313 0.000000 0.059411 0.000000
# 6 0.000000 0.000000 0.000000 -0.004400 0.000000 0.031172
#
#
# Mechanical properties :
#
#
# Convention : Reuss Voigt Hill
#
# Bulk Modulus (GPa) = 36.53956 60.16228 48.35092
# Shear Modulus (GPa) = 24.08040 31.90069 27.99054
#
# Velocity S-wave (km/s) = 3.36317 3.87095 3.62596
# Velocity P-wave (km/s) = 5.67842 6.94537 6.34361
#
# Compressibility (1/GPa) = 0.02736760
#
# Stress axis : x y z
#
# Youngs Moduli (GPa) = 55.90489 68.84036 42.43867
#
# Poissons Ratio (x) = 0.24875 0.00855
# Poissons Ratio (y) = 0.20201 0.44518
# Poissons Ratio (z) = 0.01126 0.72214
#
# Static dielectric constant tensor:
#      x y z
#    x 4.115280 0.000000 0.395600 
#    y 0.000000 4.093850 0.000000 
#    z 0.395600 0.000000 3.878070 
# 
# 
# High freq. dielectric constant tensor:
#      x y z
#    x 1.810860 0.000000 0.018830 
#    y 0.000000 1.849590 0.000000 
#    z 0.018830 0.000000 1.828140 
# 
# From -- ./inp_files/56139.got.cif
#   From: 2010.03.12/outbox.cif.g09.slc.cpg/sg14_29_cif.got.tgz:56139.got - 2010.03.31 13:35:05.
