data_PCOD8124275
_publ_section_title
;
Structure prediction by ZEFSAII (Michael W. Deem and Ramdas Pophale) SiO2 
 PCOD8124275
Probable space group: P 21/C
;
_chemical_formula_sum "Si O2"
_cell_formula_units_Z 32
_cell_length_a 8.622958
_cell_length_b 15.015226
_cell_length_c 14.216015
_cell_angle_alpha 90.000000
_cell_angle_beta 72.132078
_cell_angle_gamma 90.000000
_cell_volume 1751.847734
_symmetry_space_group_name_H-M "P 21/C"
_symmetry_group_IT_number 14
_symmetry_cell_setting 'monoclinic'
loop_
_space_group_symop_operation_xyz
x,y,z
-x,1/2+y,1/2-z
-x,-y,-z
x,1/2-y,1/2+z
loop_
_atom_site_type_symbol
_atom_site_label
_atom_site_fract_x
_atom_site_fract_y
_atom_site_fract_z
Si Si1 0.113884 0.128819 0.464309
Si Si2 0.612263 0.721000 0.979079
Si Si3 0.617105 0.319221 0.138643
Si Si4 0.487926 0.345064 0.361214
Si Si5 0.791610 0.063853 0.866336
Si Si6 0.892298 0.295009 0.498867
Si Si7 0.875249 0.458919 0.145940
Si Si8 0.190219 0.119989 0.029209
O O1 0.288812 0.156904 0.470228
O O2 0.002416 0.210399 0.448972
O O3 0.035772 0.077609 0.566633
O O4 0.141876 0.064073 0.370464
O O5 0.523736 0.667682 0.912835
O O6 0.733988 0.800771 0.918849
O O7 0.474039 0.766436 0.070576
O O8 0.520246 0.302247 0.253329
O O9 0.734726 0.236411 0.088702
O O10 0.718946 0.409591 0.130063
O O11 0.606984 0.426983 0.363218
O O12 0.300544 0.379309 0.411921
O O13 0.901458 0.057127 0.752133
O O14 0.802535 0.975350 0.924741
O O15 0.843042 0.150787 0.915218
O O16 0.001482 0.360103 0.543126
#
# Coordination Sequence:
#
# PCOD8124275 Si02
#       8
#     4   4   4   4   4   4   4   4
#     4   9  19  40  53  79 115 150 194 232 286 339
#     4   9  19  35  57  80 106 153 185 235 280 342
#     4  10  19  36  57  80 116 151 190 237 290 334
#     4   9  20  35  53  82 114 151 188 231 283 342
#     4  11  19  36  57  84 115 151 188 237 297 331
#     4  10  19  36  58  81 114 152 186 242 282 348
#     4   9  21  36  56  80 114 152 190 240 284 341
#     4   9  20  35  54  82 116 144 191 235 287 340
#
# _framework density 18.266428000000001
#
# number of rings (size 3 to 8) (size 9 to 14) (size 15 to 20)
#    0.750    1.750    1.250    0.750    0.000    2.500 
#    9.000    1.250    0.000    0.000    0.000    0.000 
#    0.000    0.000    0.000    0.000    0.000    0.000 
#
# Total GULP energy -396473.214559 kJ/mol
# GULP energy per Si atom -12389.787955 kJ/mol
# Density = 1.822485 g / cm^3
# Si number density = 18.266428 Si / 1000 Ang^3
#
#
#
# Elastic Constant Matrix: (Units=GPa)
#
#
# Indices 1 2 3 4 5 6 
#
# 1 67.1299 27.0588 27.7621 0.0000 4.7750 0.0000
# 2 27.0588 105.4640 51.4288 0.0000 8.2112 0.0000
# 3 27.7621 51.4288 107.7874 0.0000 4.2552 0.0000
# 4 0.0000 0.0000 0.0000 29.9505 0.0000 5.9331
# 5 4.7750 8.2112 4.2552 0.0000 20.1260 0.0000
# 6 0.0000 0.0000 0.0000 5.9331 0.0000 15.9586
#
#
#
# Elastic Compliance Matrix: (Units=1/GPa)
#
#
# Indices 1 2 3 4 5 6 
#
# 1 0.017462 -0.002801 -0.003068 0.000000 -0.002351 0.000000
# 2 -0.002801 0.013106 -0.005392 0.000000 -0.003542 0.000000
# 3 -0.003068 -0.005392 0.012630 0.000000 0.000257 0.000000
# 4 0.000000 0.000000 0.000000 0.036043 0.000000 -0.013400
# 5 -0.002351 -0.003542 0.000257 0.000000 0.051636 0.000000
# 6 0.000000 0.000000 0.000000 -0.013400 0.000000 0.067644
#
#
# Mechanical properties :
#
#
# Convention : Reuss Voigt Hill
#
# Bulk Modulus (GPa) = 48.36625 54.76452 51.56538
# Shear Modulus (GPa) = 21.93617 24.81580 23.37599
#
# Velocity S-wave (km/s) = 3.46916 3.68985 3.58120
# Velocity P-wave (km/s) = 6.52553 6.94257 6.73728
#
# Compressibility (1/GPa) = 0.02067557
#
# Stress axis : x y z
#
# Youngs Moduli (GPa) = 57.26845 76.30317 79.17487
#
# Poissons Ratio (x) = 0.21371 0.24293
# Poissons Ratio (y) = 0.16040 0.42690
# Poissons Ratio (z) = 0.17572 0.41142
#
# Static dielectric constant tensor:
#      x y z
#    x 3.310680 0.000000 -0.105600 
#    y 0.000000 3.363800 0.000000 
#    z -0.105600 0.000000 3.259200 
# 
# 
# High freq. dielectric constant tensor:
#      x y z
#    x 1.706330 0.000000 -0.004750 
#    y 0.000000 1.704120 0.000000 
#    z -0.004750 0.000000 1.692170 
# 
# From -- ./inp_files/40930.got.cif
#   From: 2010.03.12/outbox.cif.g09.slc.cpg/sg14_21_cif.got.tgz:40930.got - 2010.03.31 13:35:05.
