data_PCOD8124407
_publ_section_title
;
Structure prediction by ZEFSAII (Michael W. Deem and Ramdas Pophale) SiO2 
 PCOD8124407
Probable space group: P 21/C
;
_chemical_formula_sum "Si O2"
_cell_formula_units_Z 24
_cell_length_a 8.741647
_cell_length_b 14.649549
_cell_length_c 14.058890
_cell_angle_alpha 90.000000
_cell_angle_beta 136.338272
_cell_angle_gamma 90.000000
_cell_volume 1242.993670
_symmetry_space_group_name_H-M "P 21/C"
_symmetry_group_IT_number 14
_symmetry_cell_setting 'monoclinic'
loop_
_space_group_symop_operation_xyz
x,y,z
-x,1/2+y,1/2-z
-x,-y,-z
x,1/2-y,1/2+z
loop_
_atom_site_type_symbol
_atom_site_label
_atom_site_fract_x
_atom_site_fract_y
_atom_site_fract_z
Si Si1 0.214194 0.621933 0.118650
Si Si2 0.855887 0.428782 0.270300
Si Si3 0.615390 0.645838 0.991007
Si Si4 0.910765 0.782318 0.007167
Si Si5 0.313550 0.375275 0.758571
Si Si6 0.964391 0.493257 0.122912
O O1 0.466630 0.620175 0.204840
O O2 0.134877 0.723583 0.106243
O O3 0.174198 0.558025 0.193550
O O4 0.053785 0.585883 0.963089
O O5 0.789862 0.524183 0.288068
O O6 0.998384 0.447773 0.239881
O O7 0.026765 0.376888 0.414562
O O8 0.642132 0.366832 0.149548
O O9 0.715109 0.730532 0.976720
O O10 0.643574 0.663822 0.116662
O O11 0.736574 0.551653 0.018442
O O12 0.842530 0.804659 0.868013
#
# Coordination Sequence:
#
# PCOD8124407 Si02
#       6
#     4   4   4   4   4   4
#     4  10  19  37  59  85 109 149 198 231 272 344
#     4  11  20  40  58  83 117 156 188 237 288 346
#     4  10  20  38  59  82 110 157 198 226 280 351
#     4  11  25  34  56  92 123 140 191 250 292 324
#     4  11  21  39  61  84 115 158 189 235 291 342
#     4   9  18  35  62  80 103 151 199 230 266 345
#
# _framework density 19.308222000000001
#
# number of rings (size 3 to 8) (size 9 to 14) (size 15 to 20)
#    0.000    1.667    3.333    2.500    2.333    0.000 
#    0.000    0.833    0.000    0.000    0.000    0.000 
#    0.000    0.000    0.000    0.000    0.000    0.000 
#
# Total GULP energy -297613.881654 kJ/mol
# GULP energy per Si atom -12400.578402 kJ/mol
# Density = 1.926428 g / cm^3
# Si number density = 19.308222 Si / 1000 Ang^3
#
#
#
# Elastic Constant Matrix: (Units=GPa)
#
#
# Indices 1 2 3 4 5 6 
#
# 1 108.1210 28.3361 14.8111 0.0000 -9.8794 0.0000
# 2 28.3361 79.3119 19.5565 0.0000 -10.6652 0.0000
# 3 14.8111 19.5565 48.9233 0.0000 -19.3898 0.0000
# 4 0.0000 0.0000 0.0000 20.4541 0.0000 -8.3421
# 5 -9.8794 -10.6652 -19.3898 0.0000 22.4941 0.0000
# 6 0.0000 0.0000 0.0000 -8.3421 0.0000 27.5884
#
#
#
# Elastic Compliance Matrix: (Units=1/GPa)
#
#
# Indices 1 2 3 4 5 6 
#
# 1 0.010421 -0.003178 -0.001014 0.000000 0.002196 0.000000
# 2 -0.003178 0.015069 -0.004227 0.000000 0.002105 0.000000
# 3 -0.001014 -0.004227 0.032605 0.000000 0.025656 0.000000
# 4 0.000000 0.000000 0.000000 0.055767 0.000000 0.016863
# 5 0.002196 0.002105 0.025656 0.000000 0.068534 0.000000
# 6 0.000000 0.000000 0.000000 0.016863 0.000000 0.041346
#
#
# Mechanical properties :
#
#
# Convention : Reuss Voigt Hill
#
# Bulk Modulus (GPa) = 24.23839 40.19595 32.21717
# Shear Modulus (GPa) = 19.65913 25.68414 22.67164
#
# Velocity S-wave (km/s) = 3.19435 3.65117 3.43037
# Velocity P-wave (km/s) = 5.11720 6.21595 5.69314
#
# Compressibility (1/GPa) = 0.04125687
#
# Stress axis : x y z
#
# Youngs Moduli (GPa) = 95.95688 66.36020 30.66988
#
# Poissons Ratio (x) = 0.21088 0.03111
# Poissons Ratio (y) = 0.30494 0.12965
# Poissons Ratio (z) = 0.09733 0.28053
#
# Static dielectric constant tensor:
#      x y z
#    x 3.734140 0.000000 -0.155060 
#    y 0.000000 3.595030 0.000000 
#    z -0.155060 0.000000 3.209290 
# 
# 
# High freq. dielectric constant tensor:
#      x y z
#    x 1.766060 0.000000 -0.009100 
#    y 0.000000 1.752610 0.000000 
#    z -0.009100 0.000000 1.724220 
# 
# From -- ./inp_files/34323.got.cif
#   From: 2010.03.12/outbox.cif.g09.slc.cpg/sg14_18_cif.got.tgz:34323.got - 2010.03.31 13:35:05.
