data_PCOD8124848
_publ_section_title
;
Structure prediction by ZEFSAII (Michael W. Deem and Ramdas Pophale) SiO2 
 PCOD8124848
Probable space group: P 21/C
;
_chemical_formula_sum "Si O2"
_cell_formula_units_Z 24
_cell_length_a 13.892162
_cell_length_b 14.263890
_cell_length_c 12.701348
_cell_angle_alpha 90.000000
_cell_angle_beta 153.492562
_cell_angle_gamma 90.000000
_cell_volume 1123.306141
_symmetry_space_group_name_H-M "P 21/C"
_symmetry_group_IT_number 14
_symmetry_cell_setting 'monoclinic'
loop_
_space_group_symop_operation_xyz
x,y,z
-x,1/2+y,1/2-z
-x,-y,-z
x,1/2-y,1/2+z
loop_
_atom_site_type_symbol
_atom_site_label
_atom_site_fract_x
_atom_site_fract_y
_atom_site_fract_z
Si Si1 0.870807 0.178879 0.725487
Si Si2 0.193634 0.049894 0.132063
Si Si3 0.566308 0.372119 0.121993
Si Si4 0.066308 0.872119 0.621994
Si Si5 0.629193 0.321121 0.774513
Si Si6 0.306366 0.049893 0.867937
O O1 0.718128 0.151502 0.672166
O O2 0.932448 0.288756 0.791987
O O3 0.750000 0.156290 0.499999
O O4 0.092327 0.118038 0.944050
O O5 0.323247 0.113691 0.342889
O O6 0.351733 0.968445 0.241257
O O7 0.000000 0.000000 0.000000
O O8 0.567553 0.288756 0.208014
O O9 0.218128 0.848498 0.672166
O O10 0.823248 0.886311 0.342891
O O11 0.148270 0.968444 0.758747
O O12 0.407672 0.381961 0.555948
O O13 0.500000 0.000000 0.000000
#
# Coordination Sequence:
#
# PCOD8124848 Si02
#       6
#     4   4   4   4   4   4
#     4  10  20  35  55  84 110 145 189 228 282 335
#     4   9  18  36  57  77 109 149 183 229 283 331
#     4   9  19  37  56  77 114 148 182 232 279 333
#     4   9  19  37  56  77 114 148 182 232 279 333
#     4  10  20  35  55  84 110 145 189 228 282 335
#     4   9  18  36  57  77 109 149 183 229 283 331
#
# _framework density 21.365501999999999
#
# number of rings (size 3 to 8) (size 9 to 14) (size 15 to 20)
#    0.000    2.667    0.000    1.000    0.000    1.333 
#   18.000    0.000    0.000    0.000    0.000    0.000 
#    0.000    0.000    0.000    0.000    0.000    0.000 
#
# Total GULP energy -297475.321180 kJ/mol
# GULP energy per Si atom -12394.805049 kJ/mol
# Density = 2.131687 g / cm^3
# Si number density = 21.365502 Si / 1000 Ang^3
#
#
#
# Elastic Constant Matrix: (Units=GPa)
#
#
# Indices 1 2 3 4 5 6 
#
# 1 15.6571 16.2413 16.6923 0.0000 -8.1352 0.0000
# 2 16.2413 152.5275 92.7448 0.0000 -15.6589 0.0000
# 3 16.6923 92.7448 200.6657 0.0000 -11.9711 0.0000
# 4 0.0000 0.0000 0.0000 49.9409 0.0000 1.1222
# 5 -8.1352 -15.6589 -11.9711 0.0000 27.6359 0.0000
# 6 0.0000 0.0000 0.0000 1.1222 0.0000 6.8719
#
#
#
# Elastic Compliance Matrix: (Units=1/GPa)
#
#
# Indices 1 2 3 4 5 6 
#
# 1 0.082967 -0.004578 -0.003576 0.000000 0.020280 0.000000
# 2 -0.004578 0.009700 -0.003957 0.000000 0.002434 0.000000
# 3 -0.003576 -0.003957 0.007097 0.000000 -0.000221 0.000000
# 4 0.000000 0.000000 0.000000 0.020097 0.000000 -0.003282
# 5 0.020280 0.002434 -0.000221 0.000000 0.043438 0.000000
# 6 0.000000 0.000000 0.000000 -0.003282 0.000000 0.146056
#
#
# Mechanical properties :
#
#
# Convention : Reuss Voigt Hill
#
# Bulk Modulus (GPa) = 13.23779 68.91191 41.07485
# Shear Modulus (GPa) = 13.93701 33.10119 23.51910
#
# Velocity S-wave (km/s) = 2.55681 3.94036 3.32143
# Velocity P-wave (km/s) = 3.86338 7.28188 5.82887
#
# Compressibility (1/GPa) = 0.07554130
#
# Stress axis : x y z
#
# Youngs Moduli (GPa) = 12.05300 103.09650 140.91334
#
# Poissons Ratio (x) = 0.47199 0.50387
# Poissons Ratio (y) = 0.05518 0.55759
# Poissons Ratio (z) = 0.04310 0.40795
#
# Static dielectric constant tensor:
#      x y z
#    x 3.120860 0.000000 0.191060 
#    y 0.000000 4.669170 0.000000 
#    z 0.191060 0.000000 4.319640 
# 
# 
# High freq. dielectric constant tensor:
#      x y z
#    x 1.771780 0.000000 0.014860 
#    y 0.000000 1.863800 0.000000 
#    z 0.014860 0.000000 1.860040 
# 
# From -- ./inp_files/49185.got.cif
#   From: 2010.03.12/outbox.cif.g09.slc.cpg/sg14_25_cif.got.tgz:49185.got - 2010.03.31 13:35:05.
