data_PCOD8124396
_publ_section_title
;
Structure prediction by ZEFSAII (Michael W. Deem and Ramdas Pophale) SiO2 
 PCOD8124396
Probable space group: P 21/C
;
_chemical_formula_sum "Si O2"
_cell_formula_units_Z 28
_cell_length_a 11.217045
_cell_length_b 15.243630
_cell_length_c 9.431062
_cell_angle_alpha 90.000000
_cell_angle_beta 116.085527
_cell_angle_gamma 90.000000
_cell_volume 1448.341116
_symmetry_space_group_name_H-M "P 21/C"
_symmetry_group_IT_number 14
_symmetry_cell_setting 'monoclinic'
loop_
_space_group_symop_operation_xyz
x,y,z
-x,1/2+y,1/2-z
-x,-y,-z
x,1/2-y,1/2+z
loop_
_atom_site_type_symbol
_atom_site_label
_atom_site_fract_x
_atom_site_fract_y
_atom_site_fract_z
Si Si1 0.451069 0.334663 0.144390
Si Si2 0.158406 0.306283 0.054057
Si Si3 0.507306 0.824431 0.650380
Si Si4 0.800528 0.881428 0.883136
Si Si5 0.098842 0.457951 0.841422
Si Si6 0.343109 0.513722 0.154038
Si Si7 0.171411 0.057634 0.795376
O O1 0.299275 0.304177 0.046334
O O2 0.520172 0.271623 0.297289
O O3 0.454325 0.436910 0.193376
O O4 0.525836 0.322167 0.033867
O O5 0.109472 0.206200 0.043093
O O6 0.176239 0.347982 0.219939
O O7 0.063916 0.366900 0.906484
O O8 0.658404 0.854492 0.748502
O O9 0.410447 0.892387 0.677137
O O10 0.877778 0.941945 0.812499
O O11 0.783838 0.934717 0.019368
O O12 0.977115 0.522721 0.796624
O O13 0.229378 0.502384 0.975993
O O14 0.275959 0.507256 0.274005
#
# Coordination Sequence:
#
# PCOD8124396 Si02
#       7
#     4   4   4   4   4   4   4
#     4   9  20  34  57  86 109 146 189 230 278 338
#     4   9  18  33  56  80 105 143 187 233 274 318
#     4  11  21  37  60  85 115 144 190 238 285 336
#     4  11  20  32  58  89 109 135 189 247 275 321
#     4  10  19  37  58  79 113 148 190 226 276 339
#     4  10  21  38  60  79 114 159 181 227 292 336
#     4  10  21  35  57  83 110 148 191 224 276 339
#
# _framework density 19.332464000000002
#
# number of rings (size 3 to 8) (size 9 to 14) (size 15 to 20)
#    0.000    2.286    2.857    3.429   10.000    0.571 
#    0.000    0.000   12.571    0.000    0.000    0.000 
#    0.000    0.000    0.000    0.000    0.000    0.000 
#
# Total GULP energy -347131.599021 kJ/mol
# GULP energy per Si atom -12397.557108 kJ/mol
# Density = 1.928846 g / cm^3
# Si number density = 19.332464 Si / 1000 Ang^3
#
#
#
# Elastic Constant Matrix: (Units=GPa)
#
#
# Indices 1 2 3 4 5 6 
#
# 1 59.6866 40.1315 27.4157 0.0000 -18.9842 0.0000
# 2 40.1315 75.1474 14.7035 0.0000 -3.5588 0.0000
# 3 27.4157 14.7035 84.2123 0.0000 -32.8452 0.0000
# 4 0.0000 0.0000 0.0000 21.0796 0.0000 -3.1752
# 5 -18.9842 -3.5588 -32.8452 0.0000 30.0709 0.0000
# 6 0.0000 0.0000 0.0000 -3.1752 0.0000 19.7800
#
#
#
# Elastic Compliance Matrix: (Units=1/GPa)
#
#
# Indices 1 2 3 4 5 6 
#
# 1 0.035132 -0.017681 -0.000899 0.000000 0.019105 0.000000
# 2 -0.017681 0.022729 -0.002643 0.000000 -0.011359 0.000000
# 3 -0.000899 -0.002643 0.021404 0.000000 0.022498 0.000000
# 4 0.000000 0.000000 0.000000 0.048615 0.000000 0.007804
# 5 0.019105 -0.011359 0.022498 0.000000 0.068546 0.000000
# 6 0.000000 0.000000 0.000000 0.007804 0.000000 0.051809
#
#
# Mechanical properties :
#
#
# Convention : Reuss Voigt Hill
#
# Bulk Modulus (GPa) = 27.15945 42.61642 34.88794
# Shear Modulus (GPa) = 16.50431 23.30582 19.90507
#
# Velocity S-wave (km/s) = 2.92500 3.47584 3.21225
# Velocity P-wave (km/s) = 5.04843 6.18065 5.64301
#
# Compressibility (1/GPa) = 0.03681960
#
# Stress axis : x y z
#
# Youngs Moduli (GPa) = 28.46418 43.99725 46.72107
#
# Poissons Ratio (x) = 0.77792 0.04199
# Poissons Ratio (y) = 0.50328 0.12346
# Poissons Ratio (z) = 0.02558 0.11626
#
# Static dielectric constant tensor:
#      x y z
#    x 3.261060 0.000000 -0.289030 
#    y 0.000000 3.716660 0.000000 
#    z -0.289030 0.000000 3.486370 
# 
# 
# High freq. dielectric constant tensor:
#      x y z
#    x 1.722890 0.000000 -0.033320 
#    y 0.000000 1.748260 0.000000 
#    z -0.033320 0.000000 1.746690 
# 
# From -- ./inp_files/13041.got.cif
#   From: 2010.03.12/outbox.cif.g09.slc.cpg/sg14_7_cif.got.tgz:13041.got - 2010.03.31 13:35:05.
