data_PCOD8124589
_publ_section_title
;
Structure prediction by ZEFSAII (Michael W. Deem and Ramdas Pophale) SiO2 
 PCOD8124589
Probable space group: P 21/C
;
_chemical_formula_sum "Si O2"
_cell_formula_units_Z 32
_cell_length_a 22.710671
_cell_length_b 8.209662
_cell_length_c 14.707723
_cell_angle_alpha 90.000000
_cell_angle_beta 151.081236
_cell_angle_gamma 90.000000
_cell_volume 1326.047852
_symmetry_space_group_name_H-M "P 21/C"
_symmetry_group_IT_number 14
_symmetry_cell_setting 'monoclinic'
loop_
_space_group_symop_operation_xyz
x,y,z
-x,1/2+y,1/2-z
-x,-y,-z
x,1/2-y,1/2+z
loop_
_atom_site_type_symbol
_atom_site_label
_atom_site_fract_x
_atom_site_fract_y
_atom_site_fract_z
Si Si1 0.630517 0.794339 0.682604
Si Si2 0.802086 0.751916 0.263189
Si Si3 0.631823 0.161831 0.720616
Si Si4 0.979725 0.808722 0.639900
Si Si5 0.655069 0.809771 0.406921
Si Si6 0.124259 0.842679 0.490480
Si Si7 0.414470 0.942927 0.144361
Si Si8 0.163464 0.609435 0.238289
O O1 0.677538 0.716497 0.652077
O O2 0.484241 0.776119 0.494838
O O3 0.692379 0.698075 0.851404
O O4 0.672427 0.984015 0.739773
O O5 0.900145 0.680768 0.469659
O O6 0.865190 0.918521 0.314930
O O7 0.768479 0.642598 0.128281
O O8 0.581527 0.149030 0.754571
O O9 0.742490 0.289807 0.865030
O O10 0.015506 0.737707 0.785970
O O11 0.103809 0.843709 0.753235
O O12 0.892970 0.963496 0.541391
O O13 0.544246 0.933821 0.270222
O O14 0.614492 0.631296 0.383051
O O15 0.113530 0.791514 0.582840
O O16 0.308407 0.859984 0.940598
#
# Coordination Sequence:
#
# PCOD8124589 Si02
#       8
#     4   4   4   4   4   4   4   4
#     4  10  21  37  65  95 124 164 205 258 323 377
#     4  10  21  38  63  89 120 163 215 246 308 383
#     4  10  20  38  65  90 129 162 202 266 323 367
#     4  11  25  43  68  90 128 172 215 259 319 371
#     4  10  21  37  59  92 125 164 202 255 314 380
#     4  11  23  42  68  93 122 170 214 262 310 379
#     4  10  19  39  63  90 124 166 203 252 323 377
#     4  10  22  44  66  85 126 178 204 256 327 379
#
# _framework density 24.131858999999999
#
# number of rings (size 3 to 8) (size 9 to 14) (size 15 to 20)
#    0.000    1.750    2.500    2.250    1.750    1.000 
#    4.500    4.375    2.750    0.000    0.000    0.000 
#    0.000    0.000    0.000    0.000    0.000    0.000 
#
# Total GULP energy -396572.410687 kJ/mol
# GULP energy per Si atom -12392.887834 kJ/mol
# Density = 2.407693 g / cm^3
# Si number density = 24.131859 Si / 1000 Ang^3
#
#
#
# Elastic Constant Matrix: (Units=GPa)
#
#
# Indices 1 2 3 4 5 6 
#
# 1 52.4726 3.1028 -3.2988 0.0000 -17.5208 0.0000
# 2 3.1028 13.8811 12.6053 0.0000 -1.3772 0.0000
# 3 -3.2988 12.6053 140.1213 0.0000 -24.1412 0.0000
# 4 0.0000 0.0000 0.0000 32.7959 0.0000 6.0818
# 5 -17.5208 -1.3772 -24.1412 0.0000 46.3970 0.0000
# 6 0.0000 0.0000 0.0000 6.0818 0.0000 26.8106
#
#
#
# Elastic Compliance Matrix: (Units=1/GPa)
#
#
# Indices 1 2 3 4 5 6 
#
# 1 0.022962 -0.006745 0.002864 0.000000 0.009961 0.000000
# 2 -0.006745 0.080522 -0.008161 0.000000 -0.004403 0.000000
# 3 0.002864 -0.008161 0.008879 0.000000 0.005459 0.000000
# 4 0.000000 0.000000 0.000000 0.031831 0.000000 -0.007221
# 5 0.009961 -0.004403 0.005459 0.000000 0.028024 0.000000
# 6 0.000000 0.000000 0.000000 -0.007221 0.000000 0.038937
#
#
# Mechanical properties :
#
#
# Convention : Reuss Voigt Hill
#
# Bulk Modulus (GPa) = 11.32777 25.69927 18.51352
# Shear Modulus (GPa) = 18.89173 34.13842 26.51507
#
# Velocity S-wave (km/s) = 2.80099 3.76528 3.31835
# Velocity P-wave (km/s) = 3.89423 5.43836 4.72973
#
# Compressibility (1/GPa) = 0.08827863
#
# Stress axis : x y z
#
# Youngs Moduli (GPa) = 43.54943 12.41891 112.62832
#
# Poissons Ratio (x) = 0.08376 -0.32251
# Poissons Ratio (y) = 0.29373 0.91918
# Poissons Ratio (z) = -0.12470 0.10135
#
# Static dielectric constant tensor:
#      x y z
#    x 4.211820 0.000000 -0.444270 
#    y 0.000000 3.834020 0.000000 
#    z -0.444270 0.000000 4.979140 
# 
# 
# High freq. dielectric constant tensor:
#      x y z
#    x 1.955320 0.000000 -0.018300 
#    y 0.000000 1.903450 0.000000 
#    z -0.018300 0.000000 1.985770 
# 
# From -- ./inp_files/51245.got.cif
#   From: 2010.03.12/outbox.cif.g09.slc.cpg/sg14_26_cif.got.tgz:51245.got - 2010.03.31 13:35:05.
