data_PCOD8124768
_publ_section_title
;
Structure prediction by ZEFSAII (Michael W. Deem and Ramdas Pophale) SiO2 
 PCOD8124768
Probable space group: P 21/C
;
_chemical_formula_sum "Si O2"
_cell_formula_units_Z 32
_cell_length_a 28.420272
_cell_length_b 8.515906
_cell_length_c 16.100429
_cell_angle_alpha 90.000000
_cell_angle_beta 24.448457
_cell_angle_gamma 90.000000
_cell_volume 1612.743067
_symmetry_space_group_name_H-M "P 21/C"
_symmetry_group_IT_number 14
_symmetry_cell_setting 'monoclinic'
loop_
_space_group_symop_operation_xyz
x,y,z
-x,1/2+y,1/2-z
-x,-y,-z
x,1/2-y,1/2+z
loop_
_atom_site_type_symbol
_atom_site_label
_atom_site_fract_x
_atom_site_fract_y
_atom_site_fract_z
Si Si1 0.451586 0.754792 0.592528
Si Si2 0.082494 0.856494 0.359468
Si Si3 0.918429 0.729210 0.499306
Si Si4 0.344501 0.437916 0.315122
Si Si5 0.009129 0.918720 0.073458
Si Si6 0.270132 0.426693 0.607247
Si Si7 0.383486 0.476305 0.597614
Si Si8 0.817172 0.697986 0.993120
O O1 0.552336 0.861590 0.398450
O O2 0.400828 0.656200 0.597197
O O3 0.501724 0.629227 0.579096
O O4 0.356800 0.871681 0.785243
O O5 0.043855 0.771807 0.335339
O O6 0.071265 0.747008 0.459383
O O7 0.209635 0.923021 0.159706
O O8 0.000000 0.000000 0.500000
O O9 0.818865 0.792321 0.720783
O O10 0.904580 0.795751 0.429681
O O11 0.913932 0.539366 0.496578
O O12 0.349924 0.374752 0.402314
O O13 0.226538 0.371325 0.464547
O O14 0.884438 0.887864 0.311464
O O15 0.000000 0.000000 0.000000
O O16 0.346630 0.478602 0.561231
O O17 0.289249 0.407622 0.810920
#
# Coordination Sequence:
#
# PCOD8124768 Si02
#       8
#     4   4   4   4   4   4   4   4
#     4   9  20  38  56  77 106 138 172 228 283 333
#     4   9  18  33  50  73 107 140 175 217 257 303
#     4   9  20  35  51  76 112 147 182 220 262 313
#     4  10  20  35  56  79 106 137 177 223 278 328
#     4  10  20  34  52  75 108 146 180 215 262 313
#     4  10  20  35  56  80 107 142 181 226 268 324
#     4   9  20  38  56  78 106 136 179 225 279 332
#     4  10  20  34  54  79 107 144 182 222 262 318
#
# _framework density 19.841971000000001
#
# number of rings (size 3 to 8) (size 9 to 14) (size 15 to 20)
#    0.000    2.500    0.000    2.250    0.000    8.000 
#    0.000    1.250    0.000    0.000    0.000    0.000 
#    0.000    0.000    0.000    0.000    0.000    0.000 
#
# Total GULP energy -396434.295839 kJ/mol
# GULP energy per Si atom -12388.571745 kJ/mol
# Density = 1.979681 g / cm^3
# Si number density = 19.841971 Si / 1000 Ang^3
#
#
#
# Elastic Constant Matrix: (Units=GPa)
#
#
# Indices 1 2 3 4 5 6 
#
# 1 113.6243 34.5609 25.4454 0.0000 -1.5000 0.0000
# 2 34.5609 112.9345 21.8663 0.0000 -3.3781 0.0000
# 3 25.4454 21.8663 49.0079 0.0000 12.2125 0.0000
# 4 0.0000 0.0000 0.0000 24.1206 0.0000 -2.1283
# 5 -1.5000 -3.3781 12.2125 0.0000 27.0123 0.0000
# 6 0.0000 0.0000 0.0000 -2.1283 0.0000 27.1823
#
#
#
# Elastic Compliance Matrix: (Units=1/GPa)
#
#
# Indices 1 2 3 4 5 6 
#
# 1 0.010671 -0.002170 -0.005243 0.000000 0.002692 0.000000
# 2 -0.002170 0.010448 -0.004317 0.000000 0.003138 0.000000
# 3 -0.005243 -0.004317 0.028468 0.000000 -0.013701 0.000000
# 4 0.000000 0.000000 0.000000 0.041747 0.000000 0.003269
# 5 0.002692 0.003138 -0.013701 0.000000 0.043757 0.000000
# 6 0.000000 0.000000 0.000000 0.003269 0.000000 0.037045
#
#
# Mechanical properties :
#
#
# Convention : Reuss Voigt Hill
#
# Bulk Modulus (GPa) = 38.27493 48.81243 43.54368
# Shear Modulus (GPa) = 24.47339 28.57596 26.52467
#
# Velocity S-wave (km/s) = 3.51581 3.79908 3.66019
# Velocity P-wave (km/s) = 5.98440 6.62556 6.31312
#
# Compressibility (1/GPa) = 0.02612677
#
# Stress axis : x y z
#
# Youngs Moduli (GPa) = 93.71574 95.70763 35.12765
#
# Poissons Ratio (x) = 0.20767 0.18417
# Poissons Ratio (y) = 0.20335 0.15166
# Poissons Ratio (z) = 0.49134 0.41320
#
# Static dielectric constant tensor:
#      x y z
#    x 3.790070 0.000000 -0.021810 
#    y 0.000000 6.312860 0.000000 
#    z -0.021810 0.000000 4.204250 
# 
# 
# High freq. dielectric constant tensor:
#      x y z
#    x 1.766940 0.000000 0.005720 
#    y 0.000000 1.781410 0.000000 
#    z 0.005720 0.000000 1.755100 
# 
# From -- ./inp_files/51903.got.cif
#   From: 2010.03.12/outbox.cif.g09.slc.cpg/sg14_26_cif.got.tgz:51903.got - 2010.03.31 13:35:05.
