data_PCOD8124054
_publ_section_title
;
Structure prediction by ZEFSAII (Michael W. Deem and Ramdas Pophale) SiO2 
 PCOD8124054
Probable space group: P 21/C
;
_chemical_formula_sum "Si O2"
_cell_formula_units_Z 32
_cell_length_a 19.665693
_cell_length_b 8.537687
_cell_length_c 13.694746
_cell_angle_alpha 90.000000
_cell_angle_beta 139.734960
_cell_angle_gamma 90.000000
_cell_volume 1486.120254
_symmetry_space_group_name_H-M "P 21/C"
_symmetry_group_IT_number 14
_symmetry_cell_setting 'monoclinic'
loop_
_space_group_symop_operation_xyz
x,y,z
-x,1/2+y,1/2-z
-x,-y,-z
x,1/2-y,1/2+z
loop_
_atom_site_type_symbol
_atom_site_label
_atom_site_fract_x
_atom_site_fract_y
_atom_site_fract_z
Si Si1 0.199251 0.093504 0.034045
Si Si2 0.445732 0.951778 0.598808
Si Si3 0.632799 0.355453 0.275984
Si Si4 0.119902 0.365120 0.064425
Si Si5 0.667363 0.480254 0.727969
Si Si6 0.318245 0.669074 0.449133
Si Si7 0.101309 0.974146 0.740539
Si Si8 0.386613 0.292202 0.179792
O O1 0.110073 0.040658 0.859806
O O2 0.151426 0.186452 0.073549
O O3 0.277589 0.199508 0.054729
O O4 0.263834 0.946519 0.149488
O O5 0.356118 0.841738 0.449241
O O6 0.517667 0.825216 0.735901
O O7 0.526369 0.055454 0.620073
O O8 0.381093 0.068504 0.596192
O O9 0.637740 0.176385 0.252890
O O10 0.628102 0.369961 0.389055
O O11 0.208202 0.485229 0.120829
O O12 0.108262 0.385575 0.168363
O O13 0.011616 0.394793 0.889790
O O14 0.641516 0.460596 0.584870
O O15 0.601276 0.626060 0.699234
O O16 0.191635 0.657318 0.319543
#
# Coordination Sequence:
#
# PCOD8124054 Si02
#       8
#     4   4   4   4   4   4   4   4
#     4   9  20  35  56  84 106 146 181 224 274 327
#     4  11  19  35  55  77 109 148 179 228 270 319
#     4  10  20  37  54  80 115 140 183 231 272 319
#     4   9  19  38  60  81 110 144 182 224 279 331
#     4  10  20  36  56  80 109 144 179 228 274 330
#     4  10  20  34  56  78 105 149 181 214 278 328
#     4   9  19  37  60  81 110 145 183 223 276 336
#     4  10  19  34  55  78 108 143 184 219 272 321
#
# _framework density 21.532578999999998
#
# number of rings (size 3 to 8) (size 9 to 14) (size 15 to 20)
#    0.000    2.250    2.500    0.000    0.000    3.000 
#    2.250    0.000    0.000    3.000    0.000    0.000 
#    0.000    0.000    0.000    0.000    0.000    0.000 
#
# Total GULP energy -396477.263886 kJ/mol
# GULP energy per Si atom -12389.914496 kJ/mol
# Density = 2.148357 g / cm^3
# Si number density = 21.532579 Si / 1000 Ang^3
#
#
#
# Elastic Constant Matrix: (Units=GPa)
#
#
# Indices 1 2 3 4 5 6 
#
# 1 31.0640 4.4344 8.0305 0.0000 6.8557 0.0000
# 2 4.4344 77.6514 10.3822 0.0000 8.7675 0.0000
# 3 8.0305 10.3822 61.0840 0.0000 11.0041 0.0000
# 4 0.0000 0.0000 0.0000 22.0576 0.0000 4.9520
# 5 6.8557 8.7675 11.0041 0.0000 26.1719 0.0000
# 6 0.0000 0.0000 0.0000 4.9520 0.0000 33.7539
#
#
#
# Elastic Compliance Matrix: (Units=1/GPa)
#
#
# Indices 1 2 3 4 5 6 
#
# 1 0.034762 -0.000718 -0.003085 0.000000 -0.007568 0.000000
# 2 -0.000718 0.013543 -0.001541 0.000000 -0.003701 0.000000
# 3 -0.003085 -0.001541 0.018176 0.000000 -0.006318 0.000000
# 4 0.000000 0.000000 0.000000 0.046880 0.000000 -0.006878
# 5 -0.007568 -0.003701 -0.006318 0.000000 0.044088 0.000000
# 6 0.000000 0.000000 0.000000 -0.006878 0.000000 0.030635
#
#
# Mechanical properties :
#
#
# Convention : Reuss Voigt Hill
#
# Bulk Modulus (GPa) = 17.92297 23.94374 20.93335
# Shear Modulus (GPa) = 23.00236 26.19351 24.59793
#
# Velocity S-wave (km/s) = 3.27197 3.49156 3.38355
# Velocity P-wave (km/s) = 4.75564 5.23437 5.00073
#
# Compressibility (1/GPa) = 0.05579432
#
# Stress axis : x y z
#
# Youngs Moduli (GPa) = 28.76723 73.83922 55.01612
#
# Poissons Ratio (x) = 0.05303 0.16970
# Poissons Ratio (y) = 0.02066 0.08476
# Poissons Ratio (z) = 0.08873 0.11376
#
# Static dielectric constant tensor:
#      x y z
#    x 3.926080 0.000000 0.180350 
#    y 0.000000 4.069610 0.000000 
#    z 0.180350 0.000000 3.808140 
# 
# 
# High freq. dielectric constant tensor:
#      x y z
#    x 1.840760 0.000000 0.010420 
#    y 0.000000 1.844940 0.000000 
#    z 0.010420 0.000000 1.824970 
# 
# From -- ./inp_files/49954.got.cif
#   From: 2010.03.12/outbox.cif.g09.slc.cpg/sg14_25_cif.got.tgz:49954.got - 2010.03.31 13:35:05.
