data_PCOD8124509
_publ_section_title
;
Structure prediction by ZEFSAII (Michael W. Deem and Ramdas Pophale) SiO2 
 PCOD8124509
Probable space group: P 21/C
;
_chemical_formula_sum "Si O2"
_cell_formula_units_Z 32
_cell_length_a 16.260958
_cell_length_b 9.332458
_cell_length_c 12.202013
_cell_angle_alpha 90.000000
_cell_angle_beta 130.654029
_cell_angle_gamma 90.000000
_cell_volume 1404.815521
_symmetry_space_group_name_H-M "P 21/C"
_symmetry_group_IT_number 14
_symmetry_cell_setting 'monoclinic'
loop_
_space_group_symop_operation_xyz
x,y,z
-x,1/2+y,1/2-z
-x,-y,-z
x,1/2-y,1/2+z
loop_
_atom_site_type_symbol
_atom_site_label
_atom_site_fract_x
_atom_site_fract_y
_atom_site_fract_z
Si Si1 0.460602 0.286836 0.017649
Si Si2 0.697944 0.251303 0.052325
Si Si3 0.172703 0.585331 0.673609
Si Si4 0.907359 0.980929 0.667442
Si Si5 0.382646 0.478530 0.766590
Si Si6 0.905165 0.296058 0.604785
Si Si7 0.328019 0.443615 0.073042
Si Si8 0.474041 0.517582 0.614046
O O1 0.433636 0.342966 0.873356
O O2 0.568926 0.367413 0.152958
O O3 0.364002 0.323489 0.017663
O O4 0.474985 0.112314 0.025244
O O5 0.763153 0.278143 0.221099
O O6 0.781327 0.179106 0.038287
O O7 0.654209 0.401947 0.968117
O O8 0.594039 0.154166 0.988881
O O9 0.115126 0.501516 0.722435
O O10 0.254630 0.479770 0.680268
O O11 0.085398 0.645193 0.510969
O O12 0.009106 0.876263 0.741917
O O13 0.937229 0.129888 0.635664
O O14 0.799645 0.917910 0.513459
O O15 0.410102 0.455153 0.663677
O O16 0.402699 0.437908 0.246644
#
# Coordination Sequence:
#
# PCOD8124509 Si02
#       8
#     4   4   4   4   4   4   4   4
#     4  10  20  34  58  89 122 159 203 241 285 369
#     4  10  21  38  61  91 122 160 203 247 297 372
#     4  10  19  40  65  85 115 168 202 232 313 382
#     4  10  22  38  62  89 114 156 213 249 294 369
#     4  10  19  38  61  81 123 171 194 231 312 362
#     4  10  21  40  64  86 115 158 201 252 309 354
#     4   9  18  36  58  83 121 163 194 236 300 368
#     4  11  21  34  62  94 124 153 205 256 292 343
#
# _framework density 22.778793
#
# number of rings (size 3 to 8) (size 9 to 14) (size 15 to 20)
#    0.000    2.250    3.750    1.875    1.750    1.000 
#    0.000    5.625    0.000    0.000    0.000    0.000 
#    0.000    0.000    0.000    0.000    0.000    0.000 
#
# Total GULP energy -396748.675283 kJ/mol
# GULP energy per Si atom -12398.396103 kJ/mol
# Density = 2.272695 g / cm^3
# Si number density = 22.778793 Si / 1000 Ang^3
#
#
#
# Elastic Constant Matrix: (Units=GPa)
#
#
# Indices 1 2 3 4 5 6 
#
# 1 31.7839 7.0743 8.4855 0.0000 10.5853 0.0000
# 2 7.0743 103.5321 28.5540 0.0000 27.7002 0.0000
# 3 8.4855 28.5540 92.7135 0.0000 20.8840 0.0000
# 4 0.0000 0.0000 0.0000 29.9198 0.0000 3.7607
# 5 10.5853 27.7002 20.8840 0.0000 30.3405 0.0000
# 6 0.0000 0.0000 0.0000 3.7607 0.0000 27.0860
#
#
#
# Elastic Compliance Matrix: (Units=1/GPa)
#
#
# Indices 1 2 3 4 5 6 
#
# 1 0.035746 0.001268 -0.000701 0.000000 -0.013146 0.000000
# 2 0.001268 0.013016 -0.001596 0.000000 -0.011228 0.000000
# 3 -0.000701 -0.001596 0.012969 0.000000 -0.007225 0.000000
# 4 0.000000 0.000000 0.000000 0.034016 0.000000 -0.004723
# 5 -0.013146 -0.011228 -0.007225 0.000000 0.052770 0.000000
# 6 0.000000 0.000000 0.000000 -0.004723 0.000000 0.037575
#
#
# Mechanical properties :
#
#
# Convention : Reuss Voigt Hill
#
# Bulk Modulus (GPa) = 16.75772 35.13967 25.94869
# Shear Modulus (GPa) = 24.03378 29.73031 26.88204
#
# Velocity S-wave (km/s) = 3.25175 3.61664 3.43904
# Velocity P-wave (km/s) = 4.63370 5.73586 5.21398
#
# Compressibility (1/GPa) = 0.05967400
#
# Stress axis : x y z
#
# Youngs Moduli (GPa) = 27.97550 76.82699 77.10642
#
# Poissons Ratio (x) = -0.09743 0.05404
# Poissons Ratio (y) = -0.03548 0.12304
# Poissons Ratio (z) = 0.01961 0.12260
#
# Static dielectric constant tensor:
#      x y z
#    x 4.122160 0.000000 -0.013340 
#    y 0.000000 3.884020 0.000000 
#    z -0.013340 0.000000 4.138970 
# 
# 
# High freq. dielectric constant tensor:
#      x y z
#    x 1.899590 0.000000 -0.002760 
#    y 0.000000 1.884160 0.000000 
#    z -0.002760 0.000000 1.894580 
# 
# From -- ./inp_files/48426.got.cif
#   From: 2010.03.12/outbox.cif.g09.slc.cpg/sg14_25_cif.got.tgz:48426.got - 2010.03.31 13:35:05.
