data_PCOD8124532
_publ_section_title
;
Structure prediction by ZEFSAII (Michael W. Deem and Ramdas Pophale) SiO2 
 PCOD8124532
Probable space group: P 21/C
;
_chemical_formula_sum "Si O2"
_cell_formula_units_Z 24
_cell_length_a 9.387144
_cell_length_b 9.368015
_cell_length_c 13.830306
_cell_angle_alpha 90.000000
_cell_angle_beta 75.765223
_cell_angle_gamma 90.000000
_cell_volume 1178.879433
_symmetry_space_group_name_H-M "P 21/C"
_symmetry_group_IT_number 14
_symmetry_cell_setting 'monoclinic'
loop_
_space_group_symop_operation_xyz
x,y,z
-x,1/2+y,1/2-z
-x,-y,-z
x,1/2-y,1/2+z
loop_
_atom_site_type_symbol
_atom_site_label
_atom_site_fract_x
_atom_site_fract_y
_atom_site_fract_z
Si Si1 0.316681 0.396180 0.049424
Si Si2 0.462566 0.597793 0.817481
Si Si3 0.657912 0.790643 0.654067
Si Si4 0.028437 0.432817 0.182601
Si Si5 0.999267 0.756643 0.643133
Si Si6 0.185260 0.653851 0.948171
O O1 0.452181 0.431590 0.096338
O O2 0.180927 0.345173 0.139709
O O3 0.363409 0.281873 0.959132
O O4 0.252596 0.532653 0.005118
O O5 0.562147 0.664490 0.717350
O O6 0.395419 0.444751 0.795052
O O7 0.327504 0.709355 0.863731
O O8 0.827672 0.762915 0.647954
O O9 0.960005 0.373771 0.293181
O O10 0.927530 0.417226 0.106130
O O11 0.051964 0.601807 0.191290
O O12 0.097754 0.732670 0.529284
#
# Coordination Sequence:
#
# PCOD8124532 Si02
#       6
#     4   4   4   4   4   4
#     4  10  19  38  63  86 114 162 200 234 291 361
#     4  11  23  37  65  90 119 155 201 242 299 349
#     4  11  21  41  59  89 123 154 194 252 292 348
#     4  11  20  37  65  87 115 157 201 240 294 348
#     4  11  21  39  62  88 120 155 199 247 294 344
#     4  10  20  38  61  88 114 157 205 240 277 365
#
# _framework density 20.358315000000001
#
# number of rings (size 3 to 8) (size 9 to 14) (size 15 to 20)
#    0.000    1.333    6.667    3.000    0.000    4.000 
#    0.000    3.333    0.000    0.000    0.000    0.000 
#    0.000    0.000    0.000    0.000    0.000    0.000 
#
# Total GULP energy -297353.888833 kJ/mol
# GULP energy per Si atom -12389.745368 kJ/mol
# Density = 2.031198 g / cm^3
# Si number density = 20.358315 Si / 1000 Ang^3
#
#
#
# Elastic Constant Matrix: (Units=GPa)
#
#
# Indices 1 2 3 4 5 6 
#
# 1 94.9525 6.7181 5.4169 0.0000 -13.6369 0.0000
# 2 6.7181 17.6622 -6.7648 0.0000 0.4540 0.0000
# 3 5.4169 -6.7648 24.0744 0.0000 -5.4322 0.0000
# 4 0.0000 0.0000 0.0000 27.2567 0.0000 -5.6939
# 5 -13.6369 0.4540 -5.4322 0.0000 34.7017 0.0000
# 6 0.0000 0.0000 0.0000 -5.6939 0.0000 22.5636
#
#
#
# Elastic Compliance Matrix: (Units=1/GPa)
#
#
# Indices 1 2 3 4 5 6 
#
# 1 0.011734 -0.005852 -0.003345 0.000000 0.004164 0.000000
# 2 -0.005852 0.066503 0.019995 0.000000 -0.000040 0.000000
# 3 -0.003345 0.019995 0.049295 0.000000 0.006140 0.000000
# 4 0.000000 0.000000 0.000000 0.038730 0.000000 0.009773
# 5 0.004164 -0.000040 0.006140 0.000000 0.031415 0.000000
# 6 0.000000 0.000000 0.000000 0.009773 0.000000 0.046786
#
#
# Mechanical properties :
#
#
# Convention : Reuss Voigt Hill
#
# Bulk Modulus (GPa) = 6.70562 16.38104 11.54333
# Shear Modulus (GPa) = 18.34351 25.65898 22.00125
#
# Velocity S-wave (km/s) = 3.00498 3.55402 3.29097
# Velocity P-wave (km/s) = 3.91673 4.99051 4.48587
#
# Compressibility (1/GPa) = 0.14912875
#
# Stress axis : x y z
#
# Youngs Moduli (GPa) = 85.21881 15.03690 20.28619
#
# Poissons Ratio (x) = 0.08799 0.06786
# Poissons Ratio (y) = 0.49867 -0.40562
# Poissons Ratio (z) = 0.28506 -0.30066
#
# Static dielectric constant tensor:
#      x y z
#    x 4.182590 0.000000 -0.568260 
#    y 0.000000 3.213740 0.000000 
#    z -0.568260 0.000000 4.277020 
# 
# 
# High freq. dielectric constant tensor:
#      x y z
#    x 1.819920 0.000000 -0.015020 
#    y 0.000000 1.734610 0.000000 
#    z -0.015020 0.000000 1.807610 
# 
# From -- ./inp_files/38936.got.cif
#   From: 2010.03.12/outbox.cif.g09.slc.cpg/sg14_20_cif.got.tgz:38936.got - 2010.03.31 13:35:05.
