data_PCOD8124748
_publ_section_title
;
Structure prediction by ZEFSAII (Michael W. Deem and Ramdas Pophale) SiO2 
 PCOD8124748
Probable space group: P 21/C
;
_chemical_formula_sum "Si O2"
_cell_formula_units_Z 20
_cell_length_a 12.258226
_cell_length_b 9.106195
_cell_length_c 12.812573
_cell_angle_alpha 90.000000
_cell_angle_beta 131.402396
_cell_angle_gamma 90.000000
_cell_volume 1072.779548
_symmetry_space_group_name_H-M "P 21/C"
_symmetry_group_IT_number 14
_symmetry_cell_setting 'monoclinic'
loop_
_space_group_symop_operation_xyz
x,y,z
-x,1/2+y,1/2-z
-x,-y,-z
x,1/2-y,1/2+z
loop_
_atom_site_type_symbol
_atom_site_label
_atom_site_fract_x
_atom_site_fract_y
_atom_site_fract_z
Si Si1 0.808451 0.418233 0.303569
Si Si2 0.101188 0.522349 0.420116
Si Si3 0.706674 0.135349 0.126860
Si Si4 0.348575 0.365055 0.669204
Si Si5 0.555799 0.570188 0.682205
O O1 0.880956 0.378016 0.462819
O O2 0.720359 0.281875 0.202976
O O3 0.694472 0.552339 0.249286
O O4 0.935899 0.466972 0.304478
O O5 0.144152 0.612361 0.343636
O O6 0.214956 0.385567 0.502574
O O7 0.678647 0.996836 0.184634
O O8 0.571079 0.151677 0.962716
O O9 0.493252 0.439606 0.713946
O O10 0.370941 0.192761 0.699007
#
# Coordination Sequence:
#
# PCOD8124748 Si02
#       5
#     4   4   4   4   4
#     4   9  18  37  58  72 106 144 171 218 266 307
#     4   8  19  37  55  74 110 139 171 221 266 306
#     4  10  20  34  56  80 103 140 178 217 264 314
#     4   9  18  35  54  74 109 142 168 219 269 308
#     4  10  20  33  54  80 109 136 178 217 266 319
#
# _framework density 18.643159000000001
#
# number of rings (size 3 to 8) (size 9 to 14) (size 15 to 20)
#    1.200    1.600    0.000    1.200    0.000    2.400 
#    0.000    3.000    0.000    0.000    0.000    0.000 
#    0.000    0.000    0.000    0.000    0.000    0.000 
#
# Total GULP energy -247845.580450 kJ/mol
# GULP energy per Si atom -12392.279022 kJ/mol
# Density = 1.860073 g / cm^3
# Si number density = 18.643159 Si / 1000 Ang^3
#
#
#
# Elastic Constant Matrix: (Units=GPa)
#
#
# Indices 1 2 3 4 5 6 
#
# 1 121.3316 19.1311 2.9198 0.0000 3.7041 0.0000
# 2 19.1311 39.6925 2.6419 0.0000 -2.5799 0.0000
# 3 2.9198 2.6419 18.5055 0.0000 1.3314 0.0000
# 4 0.0000 0.0000 0.0000 26.9956 0.0000 -6.9520
# 5 3.7041 -2.5799 1.3314 0.0000 14.0066 0.0000
# 6 0.0000 0.0000 0.0000 -6.9520 0.0000 21.7101
#
#
#
# Elastic Compliance Matrix: (Units=1/GPa)
#
#
# Indices 1 2 3 4 5 6 
#
# 1 0.009068 -0.004541 -0.000554 0.000000 -0.003182 0.000000
# 2 -0.004541 0.028071 -0.003775 0.000000 0.006730 0.000000
# 3 -0.000554 -0.003775 0.055081 0.000000 -0.005785 0.000000
# 4 0.000000 0.000000 0.000000 0.040372 0.000000 0.012928
# 5 -0.003182 0.006730 -0.005785 0.000000 0.074026 0.000000
# 6 0.000000 0.000000 0.000000 0.012928 0.000000 0.050201
#
#
# Mechanical properties :
#
#
# Convention : Reuss Voigt Hill
#
# Bulk Modulus (GPa) = 13.42632 25.43501 19.43067
# Shear Modulus (GPa) = 16.70086 22.86491 19.78288
#
# Velocity S-wave (km/s) = 2.99627 3.50587 3.26104
# Velocity P-wave (km/s) = 4.38036 5.48278 4.96228
#
# Compressibility (1/GPa) = 0.07448057
#
# Stress axis : x y z
#
# Youngs Moduli (GPa) = 110.27423 35.62401 18.15520
#
# Poissons Ratio (x) = 0.16176 0.01005
# Poissons Ratio (y) = 0.50073 0.06854
# Poissons Ratio (z) = 0.06105 0.13449
#
# Static dielectric constant tensor:
#      x y z
#    x 3.607490 0.000000 -0.007630 
#    y 0.000000 2.985600 0.000000 
#    z -0.007630 0.000000 3.018700 
# 
# 
# High freq. dielectric constant tensor:
#      x y z
#    x 1.745450 0.000000 0.002810 
#    y 0.000000 1.695180 0.000000 
#    z 0.002810 0.000000 1.683200 
# 
# From -- ./inp_files/27745.got.cif
#   From: 2010.03.12/outbox.cif.g09.slc.cpg/sg14_14_cif.got.tgz:27745.got - 2010.03.31 13:35:05.
