data_PCOD8124884
_publ_section_title
;
Structure prediction by ZEFSAII (Michael W. Deem and Ramdas Pophale) SiO2 
 PCOD8124884
Probable space group: P 21/C
;
_chemical_formula_sum "Si O2"
_cell_formula_units_Z 32
_cell_length_a 11.011611
_cell_length_b 20.536920
_cell_length_c 9.231816
_cell_angle_alpha 90.000000
_cell_angle_beta 130.289618
_cell_angle_gamma 90.000000
_cell_volume 1592.486465
_symmetry_space_group_name_H-M "P 21/C"
_symmetry_group_IT_number 14
_symmetry_cell_setting 'monoclinic'
loop_
_space_group_symop_operation_xyz
x,y,z
-x,1/2+y,1/2-z
-x,-y,-z
x,1/2-y,1/2+z
loop_
_atom_site_type_symbol
_atom_site_label
_atom_site_fract_x
_atom_site_fract_y
_atom_site_fract_z
Si Si1 0.615284 0.749274 0.987732
Si Si2 0.834702 0.135210 0.191385
Si Si3 0.359045 0.499065 0.168169
Si Si4 0.800559 0.632381 0.000320
Si Si5 0.388550 0.749187 0.067816
Si Si6 0.306355 0.998425 0.969303
Si Si7 0.833409 0.633656 0.685758
Si Si8 0.200283 0.869904 0.495154
O O1 0.692371 0.680466 0.009345
O O2 0.447883 0.756149 0.777523
O O3 0.553546 0.753636 0.105051
O O4 0.740223 0.806118 0.040754
O O5 0.792799 0.141043 0.327717
O O6 0.021157 0.145062 0.307024
O O7 0.800431 0.065510 0.090664
O O8 0.728078 0.189291 0.031432
O O9 0.265961 0.439792 0.020942
O O10 0.550362 0.494296 0.302378
O O11 0.345382 0.502349 0.330040
O O12 0.283596 0.561048 0.028948
O O13 0.789766 0.641142 0.820204
O O14 0.290441 0.683148 0.966699
O O15 0.219420 0.066684 0.930947
O O16 0.020341 0.635159 0.801269
#
# Coordination Sequence:
#
# PCOD8124884 Si02
#       8
#     4   4   4   4   4   4   4   4
#     4  12  23  38  57  83 116 153 193 231 280 336
#     4  10  20  35  57  85 115 147 188 237 284 332
#     4   9  17  31  56  82 114 144 186 235 281 334
#     4  10  20  36  56  84 115 149 188 234 285 335
#     4  12  23  38  57  83 116 153 193 231 280 336
#     4   9  17  29  55  86 111 143 188 237 282 324
#     4  10  20  35  57  85 115 147 188 237 284 332
#     4  10  20  36  56  84 115 149 188 234 285 335
#
# _framework density 20.094363000000001
#
# number of rings (size 3 to 8) (size 9 to 14) (size 15 to 20)
#    0.000    1.750    2.500    3.000    3.500    3.000 
#    0.000    0.625    0.000    0.000    0.000    5.250 
#    0.000    0.000    0.000    0.000    0.000    0.000 
#
# Total GULP energy -396576.593746 kJ/mol
# GULP energy per Si atom -12393.018555 kJ/mol
# Density = 2.004863 g / cm^3
# Si number density = 20.094363 Si / 1000 Ang^3
#
#
#
# Elastic Constant Matrix: (Units=GPa)
#
#
# Indices 1 2 3 4 5 6 
#
# 1 51.2605 33.5391 20.9478 0.0000 26.3596 0.0000
# 2 33.5391 158.9347 45.2226 0.0000 23.6130 0.0000
# 3 20.9478 45.2226 89.7335 0.0000 32.6414 0.0000
# 4 0.0000 0.0000 0.0000 37.0571 0.0000 15.2259
# 5 26.3596 23.6130 32.6414 0.0000 27.0581 0.0000
# 6 0.0000 0.0000 0.0000 15.2259 0.0000 22.5922
#
#
#
# Elastic Compliance Matrix: (Units=1/GPa)
#
#
# Indices 1 2 3 4 5 6 
#
# 1 0.046005 -0.004900 0.011542 0.000000 -0.054464 0.000000
# 2 -0.004900 0.008054 -0.003733 0.000000 0.002248 0.000000
# 3 0.011542 -0.003733 0.023586 0.000000 -0.036439 0.000000
# 4 0.000000 0.000000 0.000000 0.037319 0.000000 -0.025151
# 5 -0.054464 0.002248 -0.036439 0.000000 0.132012 0.000000
# 6 0.000000 0.000000 0.000000 -0.025151 0.000000 0.061214
#
#
# Mechanical properties :
#
#
# Convention : Reuss Voigt Hill
#
# Bulk Modulus (GPa) = 11.98150 55.48309 33.73229
# Shear Modulus (GPa) = 15.14265 30.68943 22.91604
#
# Velocity S-wave (km/s) = 2.74811 3.91226 3.38068
# Velocity P-wave (km/s) = 4.00563 6.93390 5.66233
#
# Compressibility (1/GPa) = 0.08346204
#
# Stress axis : x y z
#
# Youngs Moduli (GPa) = 21.73683 124.16051 42.39798
#
# Poissons Ratio (x) = 0.60844 -0.48935
# Poissons Ratio (y) = 0.10652 0.15827
# Poissons Ratio (z) = -0.25088 0.46348
#
# Static dielectric constant tensor:
#      x y z
#    x 3.235910 0.000000 0.328940 
#    y 0.000000 3.774000 0.000000 
#    z 0.328940 0.000000 3.658640 
# 
# 
# High freq. dielectric constant tensor:
#      x y z
#    x 1.746820 0.000000 0.035730 
#    y 0.000000 1.800360 0.000000 
#    z 0.035730 0.000000 1.783560 
# 
# From -- ./inp_files/30301.got.cif
#   From: 2010.03.12/outbox.cif.g09.slc.cpg/sg14_16_cif.got.tgz:30301.got - 2010.03.31 13:35:05.
