data_PCOD8124836
_publ_section_title
;
Structure prediction by ZEFSAII (Michael W. Deem and Ramdas Pophale) SiO2 
 PCOD8124836
Probable space group: P 21/C
;
_chemical_formula_sum "Si O2"
_cell_formula_units_Z 24
_cell_length_a 30.895866
_cell_length_b 5.115654
_cell_length_c 22.984641
_cell_angle_alpha 90.000000
_cell_angle_beta 22.913408
_cell_angle_gamma 90.000000
_cell_volume 1414.385314
_symmetry_space_group_name_H-M "P 21/C"
_symmetry_group_IT_number 14
_symmetry_cell_setting 'monoclinic'
loop_
_space_group_symop_operation_xyz
x,y,z
-x,1/2+y,1/2-z
-x,-y,-z
x,1/2-y,1/2+z
loop_
_atom_site_type_symbol
_atom_site_label
_atom_site_fract_x
_atom_site_fract_y
_atom_site_fract_z
Si Si1 0.901149 0.036817 0.667455
Si Si2 0.281840 0.519300 0.697940
Si Si3 0.379280 0.494409 0.122411
Si Si4 0.179193 0.713931 0.425970
Si Si5 0.059929 0.040458 0.807713
Si Si6 0.928015 0.105820 0.330719
O O1 0.783001 0.001450 0.782341
O O2 0.910329 0.329086 0.680584
O O3 0.904275 0.826496 0.715215
O O4 0.000000 0.000000 0.500000
O O5 0.358349 0.268255 0.612643
O O6 0.192305 0.555253 0.861546
O O7 0.365136 0.767739 0.594098
O O8 0.287989 0.527299 0.287431
O O9 0.500000 0.500000 0.000000
O O10 0.071381 0.540904 0.543866
O O11 0.170272 0.837637 0.501384
O O12 0.122863 0.974531 0.669068
O O13 0.000446 0.868692 0.266792
#
# Coordination Sequence:
#
# PCOD8124836 Si02
#       6
#     4   4   4   4   4   4
#     4  12  20  32  49  73 109 141 166 200 250 323
#     4  10  21  32  52  76 105 130 169 209 268 308
#     4  10  20  35  53  77 103 129 173 222 269 304
#     4   9  21  32  53  74 109 134 173 215 254 305
#     4  11  21  32  49  76 107 145 167 198 252 316
#     4  10  21  33  49  72 108 141 179 208 246 306
#
# _framework density 16.968501
#
# number of rings (size 3 to 8) (size 9 to 14) (size 15 to 20)
#    1.000    0.667    1.667    5.000    4.667    0.000 
#    0.000    0.000    0.000    0.000    0.000    4.667 
#    0.000    0.000    0.000    0.000    0.000    0.000 
#
# Total GULP energy -297464.783281 kJ/mol
# GULP energy per Si atom -12394.365970 kJ/mol
# Density = 1.692988 g / cm^3
# Si number density = 16.968501 Si / 1000 Ang^3
#
#
#
# Elastic Constant Matrix: (Units=GPa)
#
#
# Indices 1 2 3 4 5 6 
#
# 1 98.0775 28.3916 42.0417 0.0000 -10.8683 0.0000
# 2 28.3916 107.3506 24.1505 0.0000 -11.5971 0.0000
# 3 42.0417 24.1505 61.0880 0.0000 -19.9503 0.0000
# 4 0.0000 0.0000 0.0000 13.2263 0.0000 -4.7196
# 5 -10.8683 -11.5971 -19.9503 0.0000 28.9087 0.0000
# 6 0.0000 0.0000 0.0000 -4.7196 0.0000 39.2497
#
#
#
# Elastic Compliance Matrix: (Units=1/GPa)
#
#
# Indices 1 2 3 4 5 6 
#
# 1 0.014873 -0.001874 -0.010217 0.000000 -0.002211 0.000000
# 2 -0.001874 0.010525 -0.002224 0.000000 0.001983 0.000000
# 3 -0.010217 -0.002224 0.029350 0.000000 0.015521 0.000000
# 4 0.000000 0.000000 0.000000 0.078997 0.000000 0.009499
# 5 -0.002211 0.001983 0.015521 0.000000 0.045268 0.000000
# 6 0.000000 0.000000 0.000000 0.009499 0.000000 0.026620
#
#
# Mechanical properties :
#
#
# Convention : Reuss Voigt Hill
#
# Bulk Modulus (GPa) = 38.28722 50.63152 44.45937
# Shear Modulus (GPa) = 20.57881 27.73908 24.15894
#
# Velocity S-wave (km/s) = 3.48626 4.04758 3.77736
# Velocity P-wave (km/s) = 6.23041 7.19355 6.72923
#
# Compressibility (1/GPa) = 0.02611838
#
# Stress axis : x y z
#
# Youngs Moduli (GPa) = 67.23526 95.00824 34.07192
#
# Poissons Ratio (x) = 0.17804 0.34812
# Poissons Ratio (y) = 0.12599 0.07577
# Poissons Ratio (z) = 0.68696 0.21128
#
# Static dielectric constant tensor:
#      x y z
#    x 3.269200 0.000000 0.079660 
#    y 0.000000 3.363620 0.000000 
#    z 0.079660 0.000000 2.799250 
# 
# 
# High freq. dielectric constant tensor:
#      x y z
#    x 1.649690 0.000000 0.000350 
#    y 0.000000 1.675910 0.000000 
#    z 0.000350 0.000000 1.604140 
# 
# From -- ./inp_files/69999.got.cif
#   From: 2010.03.12/outbox.cif.g09.slc.cpg/sg14_35_cif.got.tgz:69999.got - 2010.03.31 13:35:05.
