data_PCOD8124151
_publ_section_title
;
Structure prediction by ZEFSAII (Michael W. Deem and Ramdas Pophale) SiO2 
 PCOD8124151
Probable space group: P 21/C
;
_chemical_formula_sum "Si O2"
_cell_formula_units_Z 24
_cell_length_a 12.708780
_cell_length_b 15.841754
_cell_length_c 18.904609
_cell_angle_alpha 90.000000
_cell_angle_beta 161.157110
_cell_angle_gamma 90.000000
_cell_volume 1229.257059
_symmetry_space_group_name_H-M "P 21/C"
_symmetry_group_IT_number 14
_symmetry_cell_setting 'monoclinic'
loop_
_space_group_symop_operation_xyz
x,y,z
-x,1/2+y,1/2-z
-x,-y,-z
x,1/2-y,1/2+z
loop_
_atom_site_type_symbol
_atom_site_label
_atom_site_fract_x
_atom_site_fract_y
_atom_site_fract_z
Si Si1 0.733816 0.678753 0.915479
Si Si2 0.229942 0.830467 0.605407
Si Si3 0.864858 0.590531 0.498080
Si Si4 0.102413 0.598600 0.494379
Si Si5 0.094896 0.769642 0.252977
Si Si6 0.845505 0.755163 0.246079
O O1 0.484139 0.756266 0.748018
O O2 0.499236 0.598009 0.756662
O O3 0.040096 0.680030 0.057667
O O4 0.901602 0.687994 0.099100
O O5 0.470008 0.911365 0.758970
O O6 0.957169 0.829305 0.370785
O O7 0.998467 0.495560 0.593265
O O8 0.941445 0.623266 0.467269
O O9 0.046933 0.650284 0.670437
O O10 0.981266 0.663664 0.357282
O O11 0.463592 0.746663 0.498834
O O12 0.961319 0.788474 0.244756
#
# Coordination Sequence:
#
# PCOD8124151 Si02
#       6
#     4   4   4   4   4   4
#     4  10  19  35  56  78 107 146 190 224 263 327
#     4  10  19  35  56  78 107 146 190 224 263 327
#     4  10  21  38  58  80 110 149 189 225 268 328
#     4  10  21  38  58  80 110 149 189 225 268 328
#     4  11  20  33  55  83 111 139 179 231 280 323
#     4  11  20  33  55  83 111 139 179 231 280 323
#
# _framework density 19.523989
#
# number of rings (size 3 to 8) (size 9 to 14) (size 15 to 20)
#    0.000    1.667    0.000   10.000    0.000    1.333 
#    0.000    1.667    0.000    4.000    0.000    0.000 
#    0.000    0.000    0.000    0.000    0.000    0.000 
#
# Total GULP energy -297352.908759 kJ/mol
# GULP energy per Si atom -12389.704532 kJ/mol
# Density = 1.947955 g / cm^3
# Si number density = 19.523989 Si / 1000 Ang^3
#
#
#
# Elastic Constant Matrix: (Units=GPa)
#
#
# Indices 1 2 3 4 5 6 
#
# 1 75.7086 0.4872 4.3750 0.0000 1.2699 0.0000
# 2 0.4872 26.9277 -0.0504 0.0000 -3.3962 0.0000
# 3 4.3750 -0.0504 126.4507 0.0000 -1.9921 0.0000
# 4 0.0000 0.0000 0.0000 23.8729 0.0000 -2.8073
# 5 1.2699 -3.3962 -1.9921 0.0000 44.1980 0.0000
# 6 0.0000 0.0000 0.0000 -2.8073 0.0000 24.6736
#
#
#
# Elastic Compliance Matrix: (Units=1/GPa)
#
#
# Indices 1 2 3 4 5 6 
#
# 1 0.013244 -0.000294 -0.000465 0.000000 -0.000424 0.000000
# 2 -0.000294 0.037507 0.000071 0.000000 0.002894 0.000000
# 3 -0.000465 0.000071 0.007930 0.000000 0.000376 0.000000
# 4 0.000000 0.000000 0.000000 0.042457 0.000000 0.004831
# 5 -0.000424 0.002894 0.000376 0.000000 0.022877 0.000000
# 6 0.000000 0.000000 0.000000 0.004831 0.000000 0.041079
#
#
# Mechanical properties :
#
#
# Convention : Reuss Voigt Hill
#
# Bulk Modulus (GPa) = 17.45049 26.52340 21.98694
# Shear Modulus (GPa) = 26.94370 33.50057 30.22213
#
# Velocity S-wave (km/s) = 3.71891 4.14680 3.93867
# Velocity P-wave (km/s) = 5.23428 6.04503 5.65421
#
# Compressibility (1/GPa) = 0.05730499
#
# Stress axis : x y z
#
# Youngs Moduli (GPa) = 75.50347 26.66175 126.09923
#
# Poissons Ratio (x) = 0.00784 0.05864
# Poissons Ratio (y) = 0.02220 -0.00892
# Poissons Ratio (z) = 0.03511 -0.00189
#
# Static dielectric constant tensor:
#      x y z
#    x 3.579970 0.000000 0.113370 
#    y 0.000000 3.523610 0.000000 
#    z 0.113370 0.000000 4.163500 
# 
# 
# High freq. dielectric constant tensor:
#      x y z
#    x 1.770550 0.000000 0.008780 
#    y 0.000000 1.726000 0.000000 
#    z 0.008780 0.000000 1.776340 
# 
# From -- ./inp_files/9104.got.cif
#   From: 2010.03.12/outbox.cif.g09.slc.cpg/sg14_5_cif.got.tgz:9104.got - 2010.03.31 13:35:05.
