data_PCOD8124317
_publ_section_title
;
Structure prediction by ZEFSAII (Michael W. Deem and Ramdas Pophale) SiO2 
 PCOD8124317
Probable space group: P 21/C
;
_chemical_formula_sum "Si O2"
_cell_formula_units_Z 32
_cell_length_a 11.686016
_cell_length_b 8.680050
_cell_length_c 28.989792
_cell_angle_alpha 90.000000
_cell_angle_beta 147.891301
_cell_angle_gamma 90.000000
_cell_volume 1563.001113
_symmetry_space_group_name_H-M "P 21/C"
_symmetry_group_IT_number 14
_symmetry_cell_setting 'monoclinic'
loop_
_space_group_symop_operation_xyz
x,y,z
-x,1/2+y,1/2-z
-x,-y,-z
x,1/2-y,1/2+z
loop_
_atom_site_type_symbol
_atom_site_label
_atom_site_fract_x
_atom_site_fract_y
_atom_site_fract_z
Si Si1 0.669932 0.573324 0.010057
Si Si2 0.171063 0.195648 0.262989
Si Si3 0.997584 0.733865 0.569095
Si Si4 0.814197 0.458514 0.151158
Si Si5 0.249018 0.479979 0.695843
Si Si6 0.941326 0.685233 0.450465
Si Si7 0.278871 0.507188 0.122599
Si Si8 0.357003 0.698240 0.060773
O O1 0.796694 0.578031 0.102149
O O2 0.779114 0.689799 0.011820
O O3 0.419539 0.624232 0.925478
O O4 0.679081 0.392215 0.999314
O O5 0.180277 0.130835 0.214060
O O6 0.403613 0.271106 0.354766
O O7 0.992680 0.327504 0.204986
O O8 0.123982 0.055277 0.282105
O O9 0.088122 0.624946 0.640300
O O10 0.178335 0.860088 0.619899
O O11 0.950475 0.626913 0.507029
O O12 0.234616 0.393438 0.641553
O O13 0.491541 0.543650 0.778441
O O14 0.176755 0.670555 0.506489
O O15 0.887786 0.867221 0.437354
O O16 0.333738 0.565401 0.090751
#
# Coordination Sequence:
#
# PCOD8124317 Si02
#       8
#     4   4   4   4   4   4   4   4
#     4  10  19  39  65  84 112 162 201 235 296 358
#     4  10  23  41  60  86 118 149 201 251 300 338
#     4  11  21  37  60  88 117 159 195 231 291 358
#     4  10  23  41  63  86 114 155 208 250 293 346
#     4  11  24  36  56  89 126 148 186 254 298 339
#     4  11  19  37  60  87 123 152 194 229 289 364
#     4  10  19  36  60  85 117 158 194 223 285 370
#     4   9  17  36  63  83 113 156 190 231 286 362
#
# _framework density 20.473433
#
# number of rings (size 3 to 8) (size 9 to 14) (size 15 to 20)
#    0.000    1.750    2.500    2.625    1.750    0.000 
#    2.250    0.625    0.000    0.000    0.000    0.000 
#    0.000    0.000    0.000    0.000    0.000    0.000 
#
# Total GULP energy -396705.275662 kJ/mol
# GULP energy per Si atom -12397.039864 kJ/mol
# Density = 2.042683 g / cm^3
# Si number density = 20.473433 Si / 1000 Ang^3
#
#
#
# Elastic Constant Matrix: (Units=GPa)
#
#
# Indices 1 2 3 4 5 6 
#
# 1 91.7592 9.3850 39.7764 0.0000 11.6454 0.0000
# 2 9.3850 18.2165 18.2784 0.0000 10.5077 0.0000
# 3 39.7764 18.2784 110.7648 0.0000 11.7644 0.0000
# 4 0.0000 0.0000 0.0000 31.1645 0.0000 0.8010
# 5 11.6454 10.5077 11.7644 0.0000 39.6868 0.0000
# 6 0.0000 0.0000 0.0000 0.8010 0.0000 30.7037
#
#
#
# Elastic Compliance Matrix: (Units=1/GPa)
#
#
# Indices 1 2 3 4 5 6 
#
# 1 0.013168 -0.001156 -0.004295 0.000000 -0.002285 0.000000
# 2 -0.001156 0.075340 -0.010258 0.000000 -0.016567 0.000000
# 3 -0.004295 -0.010258 0.012226 0.000000 0.000352 0.000000
# 4 0.000000 0.000000 0.000000 0.032109 0.000000 -0.000838
# 5 -0.002285 -0.016567 0.000352 0.000000 0.030150 0.000000
# 6 0.000000 0.000000 0.000000 -0.000838 0.000000 0.032591
#
#
# Mechanical properties :
#
#
# Convention : Reuss Voigt Hill
#
# Bulk Modulus (GPa) = 14.42679 39.51335 26.97007
# Shear Modulus (GPa) = 19.99128 30.53105 25.26117
#
# Velocity S-wave (km/s) = 3.12821 3.86586 3.51643
# Velocity P-wave (km/s) = 4.48436 6.26644 5.44875
#
# Compressibility (1/GPa) = 0.06931548
#
# Stress axis : x y z
#
# Youngs Moduli (GPa) = 75.94010 13.27311 81.79322
#
# Poissons Ratio (x) = 0.01535 0.35133
# Poissons Ratio (y) = 0.08782 0.83901
# Poissons Ratio (z) = 0.32619 0.13615
#
# Static dielectric constant tensor:
#      x y z
#    x 3.884900 0.000000 0.009000 
#    y 0.000000 3.362080 0.000000 
#    z 0.009000 0.000000 3.913440 
# 
# 
# High freq. dielectric constant tensor:
#      x y z
#    x 1.804660 0.000000 -0.002320 
#    y 0.000000 1.772910 0.000000 
#    z -0.002320 0.000000 1.815840 
# 
# From -- ./inp_files/80024.got.cif
#   From: 2010.03.12/outbox.cif.g09.slc.cpg/sg14_41_cif.got.tgz:80024.got - 2010.03.31 13:35:05.
