data_PCOD8124385
_publ_section_title
;
Structure prediction by ZEFSAII (Michael W. Deem and Ramdas Pophale) SiO2 
 PCOD8124385
Probable space group: P 21/C
;
_chemical_formula_sum "Si O2"
_cell_formula_units_Z 28
_cell_length_a 11.281224
_cell_length_b 11.670500
_cell_length_c 16.992499
_cell_angle_alpha 90.000000
_cell_angle_beta 42.777879
_cell_angle_gamma 90.000000
_cell_volume 1519.405666
_symmetry_space_group_name_H-M "P 21/C"
_symmetry_group_IT_number 14
_symmetry_cell_setting 'monoclinic'
loop_
_space_group_symop_operation_xyz
x,y,z
-x,1/2+y,1/2-z
-x,-y,-z
x,1/2-y,1/2+z
loop_
_atom_site_type_symbol
_atom_site_label
_atom_site_fract_x
_atom_site_fract_y
_atom_site_fract_z
Si Si1 0.371407 0.207714 0.135562
Si Si2 0.855505 0.508420 0.278454
Si Si3 0.651592 0.269918 0.105620
Si Si4 0.506453 0.857654 0.556814
Si Si5 0.395298 0.858238 0.201840
Si Si6 0.342641 0.955054 0.973326
Si Si7 0.247798 0.950476 0.562659
O O1 0.191262 0.137199 0.230567
O O2 0.443901 0.265149 0.181390
O O3 0.365246 0.302575 0.071299
O O4 0.514219 0.109412 0.040409
O O5 0.763411 0.411043 0.270743
O O6 0.809097 0.497411 0.394074
O O7 0.060996 0.493472 0.169726
O O8 0.674223 0.333334 0.176833
O O9 0.723690 0.137949 0.060741
O O10 0.765431 0.342636 0.988435
O O11 0.449192 0.767125 0.648474
O O12 0.331955 0.911333 0.604296
O O13 0.624496 0.955358 0.539871
O O14 0.565400 0.939843 0.117340
#
# Coordination Sequence:
#
# PCOD8124385 Si02
#       7
#     4   4   4   4   4   4   4
#     4   8  16  34  55  78 104 146 186 224 266 334
#     4  11  18  35  63  83 107 146 202 233 267 336
#     4   9  21  35  53  83 118 146 178 233 286 336
#     4  10  19  37  54  81 113 144 189 229 289 337
#     4  11  19  35  61  82 109 155 191 226 276 352
#     4   9  18  36  57  83 107 149 194 228 271 339
#     4  10  23  34  55  88 114 141 183 248 287 324
#
# _framework density 18.428258
#
# number of rings (size 3 to 8) (size 9 to 14) (size 15 to 20)
#    0.857    1.429    2.857    0.857    2.000    2.857 
#    0.000    0.000    0.000    0.857    0.000    0.000 
#    0.000    0.000    0.000    0.000    0.000    0.000 
#
# Total GULP energy -346874.946764 kJ/mol
# GULP energy per Si atom -12388.390956 kJ/mol
# Density = 1.838631 g / cm^3
# Si number density = 18.428258 Si / 1000 Ang^3
#
#
#
# Elastic Constant Matrix: (Units=GPa)
#
#
# Indices 1 2 3 4 5 6 
#
# 1 43.4976 21.7280 41.9454 0.0000 -1.8550 0.0000
# 2 21.7280 88.6980 35.5860 0.0000 -6.1281 0.0000
# 3 41.9454 35.5860 87.5550 0.0000 -5.1446 0.0000
# 4 0.0000 0.0000 0.0000 20.8847 0.0000 0.7909
# 5 -1.8550 -6.1281 -5.1446 0.0000 20.5104 0.0000
# 6 0.0000 0.0000 0.0000 0.7909 0.0000 20.0163
#
#
#
# Elastic Compliance Matrix: (Units=1/GPa)
#
#
# Indices 1 2 3 4 5 6 
#
# 1 0.043346 -0.002834 -0.019724 0.000000 -0.001874 0.000000
# 2 -0.002834 0.013804 -0.004086 0.000000 0.002843 0.000000
# 3 -0.019724 -0.004086 0.022689 0.000000 0.002687 0.000000
# 4 0.000000 0.000000 0.000000 0.047954 0.000000 -0.001895
# 5 -0.001874 0.002843 0.002687 0.000000 0.050110 0.000000
# 6 0.000000 0.000000 0.000000 -0.001895 0.000000 0.050034
#
#
# Mechanical properties :
#
#
# Convention : Reuss Voigt Hill
#
# Bulk Modulus (GPa) = 37.66332 46.47440 42.06886
# Shear Modulus (GPa) = 17.23693 20.31504 18.77599
#
# Velocity S-wave (km/s) = 3.06167 3.32382 3.19544
# Velocity P-wave (km/s) = 5.74288 6.32489 6.04090
#
# Compressibility (1/GPa) = 0.02655103
#
# Stress axis : x y z
#
# Youngs Moduli (GPa) = 23.07027 72.44196 44.07399
#
# Poissons Ratio (x) = 0.20533 0.86932
# Poissons Ratio (y) = 0.06539 0.18007
# Poissons Ratio (z) = 0.45504 0.29597
#
# Static dielectric constant tensor:
#      x y z
#    x 3.064910 0.000000 0.016070 
#    y 0.000000 3.613030 0.000000 
#    z 0.016070 0.000000 2.965240 
# 
# 
# High freq. dielectric constant tensor:
#      x y z
#    x 1.676490 0.000000 0.005060 
#    y 0.000000 1.735280 0.000000 
#    z 0.005060 0.000000 1.682350 
# 
# From -- ./inp_files/57530.got.cif
#   From: 2010.03.12/outbox.cif.g09.slc.cpg/sg14_29_cif.got.tgz:57530.got - 2010.03.31 13:35:05.
