data_PCOD8124530
_publ_section_title
;
Structure prediction by ZEFSAII (Michael W. Deem and Ramdas Pophale) SiO2 
 PCOD8124530
Probable space group: P 21/C
;
_chemical_formula_sum "Si O2"
_cell_formula_units_Z 28
_cell_length_a 8.249480
_cell_length_b 10.270489
_cell_length_c 18.290968
_cell_angle_alpha 90.000000
_cell_angle_beta 122.543211
_cell_angle_gamma 90.000000
_cell_volume 1306.395699
_symmetry_space_group_name_H-M "P 21/C"
_symmetry_group_IT_number 14
_symmetry_cell_setting 'monoclinic'
loop_
_space_group_symop_operation_xyz
x,y,z
-x,1/2+y,1/2-z
-x,-y,-z
x,1/2-y,1/2+z
loop_
_atom_site_type_symbol
_atom_site_label
_atom_site_fract_x
_atom_site_fract_y
_atom_site_fract_z
Si Si1 0.221527 0.549119 0.773209
Si Si2 0.549896 0.373579 0.309798
Si Si3 0.577118 0.389523 0.897072
Si Si4 0.774409 0.628836 0.871921
Si Si5 0.914534 0.037477 0.094603
Si Si6 0.192227 0.682389 0.917857
Si Si7 0.258905 0.104990 0.070859
O O1 0.323627 0.627845 0.733228
O O2 0.354866 0.427221 0.830082
O O3 0.189457 0.641093 0.833750
O O4 0.011652 0.503870 0.694656
O O5 0.620338 0.252353 0.374494
O O6 0.328039 0.358047 0.232166
O O7 0.572136 0.508180 0.360610
O O8 0.721236 0.491479 0.894496
O O9 0.627519 0.380974 0.995439
O O10 0.691682 0.742948 0.905793
O O11 0.000872 0.637516 0.914208
O O12 0.781303 0.162019 0.076783
O O13 0.077106 0.076872 0.077074
O O14 0.787913 0.922842 0.026188
#
# Coordination Sequence:
#
# PCOD8124530 Si02
#       7
#     4   4   4   4   4   4   4
#     4  10  23  37  60  89 120 160 192 251 302 352
#     4  10  19  38  63  84 111 158 206 238 286 353
#     4  11  21  38  59  89 116 160 197 241 294 357
#     4  10  21  34  59  90 117 149 203 245 288 350
#     4   9  18  36  58  82 110 152 200 233 287 344
#     4  11  21  38  57  87 122 153 192 249 304 349
#     4   9  17  35  61  82 108 152 200 241 276 343
#
# _framework density 21.433015000000001
#
# number of rings (size 3 to 8) (size 9 to 14) (size 15 to 20)
#    0.000    2.000    1.429    4.286    2.000    1.143 
#    2.571    0.000    3.143    4.286    0.000    0.000 
#    0.000    0.000    0.000    0.000    0.000    0.000 
#
# Total GULP energy -347129.003357 kJ/mol
# GULP energy per Si atom -12397.464406 kJ/mol
# Density = 2.138423 g / cm^3
# Si number density = 21.433015 Si / 1000 Ang^3
#
#
#
# Elastic Constant Matrix: (Units=GPa)
#
#
# Indices 1 2 3 4 5 6 
#
# 1 17.2898 15.3662 24.5864 0.0000 -3.4793 0.0000
# 2 15.3662 80.4233 41.4407 0.0000 -0.8004 0.0000
# 3 24.5864 41.4407 174.5070 0.0000 -7.3877 0.0000
# 4 0.0000 0.0000 0.0000 36.5306 0.0000 1.1005
# 5 -3.4793 -0.8004 -7.3877 0.0000 24.4598 0.0000
# 6 0.0000 0.0000 0.0000 1.1005 0.0000 18.4399
#
#
#
# Elastic Compliance Matrix: (Units=1/GPa)
#
#
# Indices 1 2 3 4 5 6 
#
# 1 0.081522 -0.011122 -0.008478 0.000000 0.008672 0.000000
# 2 -0.011122 0.015693 -0.002233 0.000000 -0.001743 0.000000
# 3 -0.008478 -0.002233 0.007497 0.000000 0.000985 0.000000
# 4 0.000000 0.000000 0.000000 0.027424 0.000000 -0.001637
# 5 0.008672 -0.001743 0.000985 0.000000 0.042358 0.000000
# 6 0.000000 0.000000 0.000000 -0.001637 0.000000 0.054328
#
#
# Mechanical properties :
#
#
# Convention : Reuss Voigt Hill
#
# Bulk Modulus (GPa) = 16.38087 48.33407 32.35747
# Shear Modulus (GPa) = 17.07445 28.60784 22.84114
#
# Velocity S-wave (km/s) = 2.82555 3.65739 3.26805
# Velocity P-wave (km/s) = 4.27836 6.35890 5.41941
#
# Compressibility (1/GPa) = 0.06104683
#
# Stress axis : x y z
#
# Youngs Moduli (GPa) = 12.26658 63.72403 133.38783
#
# Poissons Ratio (x) = 0.70871 1.13080
# Poissons Ratio (y) = 0.13642 0.29792
# Poissons Ratio (z) = 0.10399 0.14232
#
# Static dielectric constant tensor:
#      x y z
#    x 3.360170 0.000000 0.108840 
#    y 0.000000 3.998040 0.000000 
#    z 0.108840 0.000000 4.370190 
# 
# 
# High freq. dielectric constant tensor:
#      x y z
#    x 1.792290 0.000000 0.003860 
#    y 0.000000 1.842580 0.000000 
#    z 0.003860 0.000000 1.866570 
# 
# From -- ./inp_files/65037.got.cif
#   From: 2010.03.12/outbox.cif.g09.slc.cpg/sg14_33_cif.got.tgz:65037.got - 2010.03.31 13:35:05.
