data_PCOD8124301
_publ_section_title
;
Structure prediction by ZEFSAII (Michael W. Deem and Ramdas Pophale) SiO2 
 PCOD8124301
Probable space group: P 21/C
;
_chemical_formula_sum "Si O2"
_cell_formula_units_Z 32
_cell_length_a 28.125743
_cell_length_b 8.611829
_cell_length_c 19.167033
_cell_angle_alpha 90.000000
_cell_angle_beta 19.109861
_cell_angle_gamma 90.000000
_cell_volume 1519.872423
_symmetry_space_group_name_H-M "P 21/C"
_symmetry_group_IT_number 14
_symmetry_cell_setting 'monoclinic'
loop_
_space_group_symop_operation_xyz
x,y,z
-x,1/2+y,1/2-z
-x,-y,-z
x,1/2-y,1/2+z
loop_
_atom_site_type_symbol
_atom_site_label
_atom_site_fract_x
_atom_site_fract_y
_atom_site_fract_z
Si Si1 0.952621 0.974145 0.233347
Si Si2 0.006311 0.319176 0.905253
Si Si3 0.173827 0.708019 0.611172
Si Si4 0.502681 0.738916 0.981295
Si Si5 0.264715 0.985301 0.850146
Si Si6 0.896884 0.941845 0.463799
Si Si7 0.405296 0.463204 0.543278
Si Si8 0.224244 0.951599 0.172449
O O1 0.948511 0.858561 0.172594
O O2 0.905873 0.893503 0.370611
O O3 0.829823 0.106810 0.393339
O O4 0.118970 0.033171 0.011038
O O5 0.140569 0.401852 0.756501
O O6 0.963260 0.385828 0.888024
O O7 0.866317 0.344494 0.148368
O O8 0.229824 0.606600 0.469180
O O9 0.270092 0.661793 0.545333
O O10 0.002991 0.668386 0.862744
O O11 0.647362 0.644431 0.759382
O O12 0.502429 0.809986 0.061853
O O13 0.363189 0.628230 0.166178
O O14 0.491099 0.880664 0.943461
O O15 0.734024 0.935039 0.714928
O O16 0.363295 0.475190 0.519961
#
# Coordination Sequence:
#
# PCOD8124301 Si02
#       8
#     4   4   4   4   4   4   4   4
#     4  11  19  31  56  86 113 141 181 233 285 337
#     4   9  18  31  51  78 113 149 176 217 287 347
#     4  10  20  33  54  82 113 146 177 225 293 345
#     4  10  21  36  58  79 104 148 194 232 274 326
#     4  10  21  37  53  82 118 141 180 239 283 326
#     4   9  17  32  54  81 109 137 178 238 293 328
#     4  10  19  36  59  79 103 147 195 228 271 332
#     4   9  19  36  51  75 117 150 179 225 276 332
#
# _framework density 21.054397999999999
#
# number of rings (size 3 to 8) (size 9 to 14) (size 15 to 20)
#    0.000    2.250    0.000    5.250    0.000    2.500 
#    0.000    3.750    0.000    0.000    0.000    0.000 
#    0.000    0.000    0.000    0.000    0.000    0.000 
#
# Total GULP energy -396461.244345 kJ/mol
# GULP energy per Si atom -12389.413886 kJ/mol
# Density = 2.100648 g / cm^3
# Si number density = 21.054398 Si / 1000 Ang^3
#
#
#
# Elastic Constant Matrix: (Units=GPa)
#
#
# Indices 1 2 3 4 5 6 
#
# 1 110.9560 33.3504 10.5518 0.0000 -2.8310 0.0000
# 2 33.3504 88.7161 14.8229 0.0000 8.1914 0.0000
# 3 10.5518 14.8229 33.0374 0.0000 -0.4003 0.0000
# 4 0.0000 0.0000 0.0000 29.4064 0.0000 -1.3424
# 5 -2.8310 8.1914 -0.4003 0.0000 20.8694 0.0000
# 6 0.0000 0.0000 0.0000 -1.3424 0.0000 32.2165
#
#
#
# Elastic Compliance Matrix: (Units=1/GPa)
#
#
# Indices 1 2 3 4 5 6 
#
# 1 0.010414 -0.003930 -0.001527 0.000000 0.002926 0.000000
# 2 -0.003930 0.014188 -0.005186 0.000000 -0.006202 0.000000
# 3 -0.001527 -0.005186 0.033113 0.000000 0.002463 0.000000
# 4 0.000000 0.000000 0.000000 0.034071 0.000000 0.001420
# 5 0.002926 -0.006202 0.002463 0.000000 0.050795 0.000000
# 6 0.000000 0.000000 0.000000 0.001420 0.000000 0.031099
#
#
# Mechanical properties :
#
#
# Convention : Reuss Voigt Hill
#
# Bulk Modulus (GPa) = 27.45058 38.90663 33.17860
# Shear Modulus (GPa) = 24.14182 28.09743 26.11962
#
# Velocity S-wave (km/s) = 3.38988 3.65707 3.52601
# Velocity P-wave (km/s) = 5.32804 6.02921 5.68944
#
# Compressibility (1/GPa) = 0.03642910
#
# Stress axis : x y z
#
# Youngs Moduli (GPa) = 96.02788 70.48089 30.19941
#
# Poissons Ratio (x) = 0.27697 0.04613
# Poissons Ratio (y) = 0.37736 0.15661
# Poissons Ratio (z) = 0.14668 0.36551
#
# Static dielectric constant tensor:
#      x y z
#    x 3.809990 0.000000 -0.196200 
#    y 0.000000 3.853080 0.000000 
#    z -0.196200 0.000000 3.686090 
# 
# 
# High freq. dielectric constant tensor:
#      x y z
#    x 1.807060 0.000000 -0.010940 
#    y 0.000000 1.824570 0.000000 
#    z -0.010940 0.000000 1.804820 
# 
# From -- ./inp_files/70700.got.cif
#   From: 2010.03.12/outbox.cif.g09.slc.cpg/sg14_36_cif.got.tgz:70700.got - 2010.03.31 13:35:05.
