data_PCOD8124862
_publ_section_title
;
Structure prediction by ZEFSAII (Michael W. Deem and Ramdas Pophale) SiO2 
 PCOD8124862
Probable space group: P 21/C
;
_chemical_formula_sum "Si O2"
_cell_formula_units_Z 28
_cell_length_a 8.437991
_cell_length_b 13.450468
_cell_length_c 14.844573
_cell_angle_alpha 90.000000
_cell_angle_beta 116.957700
_cell_angle_gamma 90.000000
_cell_volume 1501.717586
_symmetry_space_group_name_H-M "P 21/C"
_symmetry_group_IT_number 14
_symmetry_cell_setting 'monoclinic'
loop_
_space_group_symop_operation_xyz
x,y,z
-x,1/2+y,1/2-z
-x,-y,-z
x,1/2-y,1/2+z
loop_
_atom_site_type_symbol
_atom_site_label
_atom_site_fract_x
_atom_site_fract_y
_atom_site_fract_z
Si Si1 0.879404 0.866640 0.059989
Si Si2 0.546123 0.791642 0.303160
Si Si3 0.620169 0.933238 0.849258
Si Si4 0.117375 0.150409 0.506696
Si Si5 0.972320 0.462311 0.130758
Si Si6 0.324216 0.418549 0.319352
Si Si7 0.227686 0.576132 0.745801
O O1 0.937609 0.754688 0.050909
O O2 0.728620 0.872205 0.098305
O O3 0.056025 0.920253 0.138175
O O4 0.801653 0.922724 0.952927
O O5 0.538654 0.673739 0.308515
O O6 0.676816 0.842292 0.410174
O O7 0.611229 0.823613 0.221079
O O8 0.345330 0.825294 0.268836
O O9 0.481032 0.000598 0.869215
O O10 0.659950 0.982452 0.762295
O O11 0.990793 0.123360 0.559335
O O12 0.091952 0.066192 0.425921
O O13 0.820997 0.431980 0.162239
O O14 0.160124 0.475328 0.229580
#
# Coordination Sequence:
#
# PCOD8124862 Si02
#       7
#     4   4   4   4   4   4   4
#     4  10  20  35  56  82 110 143 180 221 270 327
#     4   9  20  36  52  80 108 142 181 221 270 322
#     4  10  20  36  55  77 115 144 174 231 270 318
#     4   9  19  36  56  77 113 140 179 222 274 313
#     4   9  19  36  56  82 105 145 181 226 263 317
#     4   9  19  35  55  79 111 142 182 218 268 328
#     4  10  21  36  56  83 109 139 189 219 267 331
#
# _framework density 18.645316999999999
#
# number of rings (size 3 to 8) (size 9 to 14) (size 15 to 20)
#    0.000    2.571    0.000    0.857    4.000    0.571 
#    0.000    7.143    0.000    0.000    0.000    0.000 
#    0.000    0.000    0.000    0.000    0.000    0.000 
#
# Total GULP energy -347165.368302 kJ/mol
# GULP energy per Si atom -12398.763154 kJ/mol
# Density = 1.860288 g / cm^3
# Si number density = 18.645317 Si / 1000 Ang^3
#
#
#
# Elastic Constant Matrix: (Units=GPa)
#
#
# Indices 1 2 3 4 5 6 
#
# 1 103.5183 42.6680 32.8908 0.0000 -18.7891 0.0000
# 2 42.6680 112.3484 45.0373 0.0000 -14.5558 0.0000
# 3 32.8908 45.0373 60.2949 0.0000 -12.7769 0.0000
# 4 0.0000 0.0000 0.0000 26.9241 0.0000 3.6522
# 5 -18.7891 -14.5558 -12.7769 0.0000 24.2091 0.0000
# 6 0.0000 0.0000 0.0000 3.6522 0.0000 21.7773
#
#
#
# Elastic Compliance Matrix: (Units=1/GPa)
#
#
# Indices 1 2 3 4 5 6 
#
# 1 0.013151 -0.002602 -0.003826 0.000000 0.006622 0.000000
# 2 -0.002602 0.013412 -0.008239 0.000000 0.001696 0.000000
# 3 -0.003826 -0.008239 0.026062 0.000000 0.005831 0.000000
# 4 0.000000 0.000000 0.000000 0.038006 0.000000 -0.006374
# 5 0.006622 0.001696 0.005831 0.000000 0.050544 0.000000
# 6 0.000000 0.000000 0.000000 -0.006374 0.000000 0.046988
#
#
# Mechanical properties :
#
#
# Convention : Reuss Voigt Hill
#
# Bulk Modulus (GPa) = 42.93888 57.48376 50.21132
# Shear Modulus (GPa) = 22.19647 24.95313 23.57480
#
# Velocity S-wave (km/s) = 3.45404 3.66225 3.55967
# Velocity P-wave (km/s) = 6.24392 6.98426 6.62444
#
# Compressibility (1/GPa) = 0.02328892
#
# Stress axis : x y z
#
# Youngs Moduli (GPa) = 76.04256 74.56180 38.36976
#
# Poissons Ratio (x) = 0.19405 0.14682
# Poissons Ratio (y) = 0.19790 0.31612
# Poissons Ratio (z) = 0.29097 0.61430
#
# Static dielectric constant tensor:
#      x y z
#    x 3.452310 0.000000 -0.034180 
#    y 0.000000 3.314820 0.000000 
#    z -0.034180 0.000000 3.465470 
# 
# 
# High freq. dielectric constant tensor:
#      x y z
#    x 1.725010 0.000000 -0.001050 
#    y 0.000000 1.718580 0.000000 
#    z -0.001050 0.000000 1.725940 
# 
# From -- ./inp_files/39947.got.cif
#   From: 2010.03.12/outbox.cif.g09.slc.cpg/sg14_20_cif.got.tgz:39947.got - 2010.03.31 13:35:05.
