data_PCOD8124218
_publ_section_title
;
Structure prediction by ZEFSAII (Michael W. Deem and Ramdas Pophale) SiO2 
 PCOD8124218
Probable space group: P 21/C
;
_chemical_formula_sum "Si O2"
_cell_formula_units_Z 32
_cell_length_a 18.346943
_cell_length_b 16.898003
_cell_length_c 18.593962
_cell_angle_alpha 90.000000
_cell_angle_beta 16.323879
_cell_angle_gamma 90.000000
_cell_volume 1620.244023
_symmetry_space_group_name_H-M "P 21/C"
_symmetry_group_IT_number 14
_symmetry_cell_setting 'monoclinic'
loop_
_space_group_symop_operation_xyz
x,y,z
-x,1/2+y,1/2-z
-x,-y,-z
x,1/2-y,1/2+z
loop_
_atom_site_type_symbol
_atom_site_label
_atom_site_fract_x
_atom_site_fract_y
_atom_site_fract_z
Si Si1 0.964990 0.597850 0.205525
Si Si2 0.417179 0.378314 0.047338
Si Si3 0.592827 0.029842 0.805254
Si Si4 0.929626 0.092890 0.228217
Si Si5 0.122457 0.267222 0.813394
Si Si6 0.190371 0.772078 0.753488
Si Si7 0.461033 0.877527 0.005260
Si Si8 0.368951 0.022268 0.722418
O O1 0.026105 0.607464 0.230490
O O2 0.675874 0.564610 0.469983
O O3 0.000928 0.684853 0.136090
O O4 0.174810 0.539164 0.971261
O O5 0.245703 0.314568 0.165656
O O6 0.269096 0.441234 0.240179
O O7 0.559226 0.326225 0.973256
O O8 0.594473 0.427563 0.823785
O O9 0.564826 0.936023 0.845502
O O10 0.676384 0.072268 0.800869
O O11 0.982032 0.178596 0.140041
O O12 0.644723 0.057306 0.486866
O O13 0.146864 0.032776 0.992332
O O14 0.311138 0.326857 0.675906
O O15 0.914393 0.237270 0.067067
O O16 0.259908 0.684067 0.658539
#
# Coordination Sequence:
#
# PCOD8124218 Si02
#       8
#     4   4   4   4   4   4   4   4
#     4  11  23  39  59  82 121 163 198 239 303 364
#     4   9  20  34  59  91 113 145 198 254 294 339
#     4  10  21  37  61  86 114 153 198 246 293 353
#     4  11  23  39  59  82 121 163 198 239 303 364
#     4  10  19  35  60  89 117 150 198 249 298 352
#     4  10  19  35  60  89 117 150 198 249 298 352
#     4   9  20  34  59  91 113 145 198 254 294 339
#     4  10  21  37  61  86 114 153 198 246 293 353
#
# _framework density 19.750111
#
# number of rings (size 3 to 8) (size 9 to 14) (size 15 to 20)
#    0.000    2.000    2.500    0.750    3.500    3.000 
#    0.000    1.250    5.500    0.000    0.000    0.000 
#    0.000    0.000    0.000    0.000    0.000    0.000 
#
# Total GULP energy -396539.773855 kJ/mol
# GULP energy per Si atom -12391.867933 kJ/mol
# Density = 1.970516 g / cm^3
# Si number density = 19.750111 Si / 1000 Ang^3
#
#
#
# Elastic Constant Matrix: (Units=GPa)
#
#
# Indices 1 2 3 4 5 6 
#
# 1 89.2935 46.1857 21.1096 0.0000 16.6373 0.0000
# 2 46.1857 143.6281 24.7619 0.0000 7.7853 0.0000
# 3 21.1096 24.7619 77.1557 0.0000 9.5759 0.0000
# 4 0.0000 0.0000 0.0000 30.0693 0.0000 5.8896
# 5 16.6373 7.7853 9.5759 0.0000 25.0056 0.0000
# 6 0.0000 0.0000 0.0000 5.8896 0.0000 18.2306
#
#
#
# Elastic Compliance Matrix: (Units=1/GPa)
#
#
# Indices 1 2 3 4 5 6 
#
# 1 0.015312 -0.004163 -0.001837 0.000000 -0.008188 0.000000
# 2 -0.004163 0.008553 -0.001700 0.000000 0.000758 0.000000
# 3 -0.001837 -0.001700 0.014480 0.000000 -0.003794 0.000000
# 4 0.000000 0.000000 0.000000 0.035503 0.000000 -0.011470
# 5 -0.008188 0.000758 -0.003794 0.000000 0.046656 0.000000
# 6 0.000000 0.000000 0.000000 -0.011470 0.000000 0.058558
#
#
# Mechanical properties :
#
#
# Convention : Reuss Voigt Hill
#
# Bulk Modulus (GPa) = 43.58319 54.91021 49.24670
# Shear Modulus (GPa) = 24.73883 29.19576 26.96730
#
# Velocity S-wave (km/s) = 3.54304 3.84898 3.69917
# Velocity P-wave (km/s) = 6.23319 6.90042 6.57527
#
# Compressibility (1/GPa) = 0.02294462
#
# Stress axis : x y z
#
# Youngs Moduli (GPa) = 65.30661 116.91512 69.06159
#
# Poissons Ratio (x) = 0.48676 0.12687
# Poissons Ratio (y) = 0.27190 0.11741
# Poissons Ratio (z) = 0.11997 0.19876
#
# Static dielectric constant tensor:
#      x y z
#    x 3.372340 0.000000 -0.039400 
#    y 0.000000 4.180630 0.000000 
#    z -0.039400 0.000000 3.556990 
# 
# 
# High freq. dielectric constant tensor:
#      x y z
#    x 1.726780 0.000000 -0.001380 
#    y 0.000000 1.786090 0.000000 
#    z -0.001380 0.000000 1.770370 
# 
# From -- ./inp_files/60782.got.cif
#   From: 2010.03.12/outbox.cif.g09.slc.cpg/sg14_31_cif.got.tgz:60782.got - 2010.03.31 13:35:05.
