data_PCOD8124668
_publ_section_title
;
Structure prediction by ZEFSAII (Michael W. Deem and Ramdas Pophale) SiO2 
 PCOD8124668
Probable space group: P 21/C
;
_chemical_formula_sum "Si O2"
_cell_formula_units_Z 32
_cell_length_a 12.357389
_cell_length_b 9.198344
_cell_length_c 14.184619
_cell_angle_alpha 90.000000
_cell_angle_beta 72.792889
_cell_angle_gamma 90.000000
_cell_volume 1540.165151
_symmetry_space_group_name_H-M "P 21/C"
_symmetry_group_IT_number 14
_symmetry_cell_setting 'monoclinic'
loop_
_space_group_symop_operation_xyz
x,y,z
-x,1/2+y,1/2-z
-x,-y,-z
x,1/2-y,1/2+z
loop_
_atom_site_type_symbol
_atom_site_label
_atom_site_fract_x
_atom_site_fract_y
_atom_site_fract_z
Si Si1 0.774255 0.169422 0.676436
Si Si2 0.263226 0.074129 0.740430
Si Si3 0.967773 0.158789 0.481020
Si Si4 0.883992 0.581560 0.540620
Si Si5 0.695463 0.055778 0.968596
Si Si6 0.418927 0.893126 0.813275
Si Si7 0.670790 0.895808 0.785158
Si Si8 0.183755 0.816386 0.647370
O O1 0.855526 0.204707 0.568013
O O2 0.654564 0.250704 0.693393
O O3 0.841122 0.230081 0.749977
O O4 0.747975 0.998027 0.697845
O O5 0.172153 0.040272 0.845572
O O6 0.265180 0.243677 0.714053
O O7 0.384558 0.022060 0.750046
O O8 0.231532 0.978585 0.656487
O O9 0.933827 0.170621 0.379677
O O10 0.081592 0.249372 0.472812
O O11 0.000000 0.000000 0.500000
O O12 0.804717 0.535656 0.474585
O O13 0.000000 0.500000 0.500000
O O14 0.725240 0.222621 0.935468
O O15 0.646467 0.974276 0.890269
O O16 0.601112 0.057360 0.073832
O O17 0.551509 0.862431 0.764855
#
# Coordination Sequence:
#
# PCOD8124668 Si02
#       8
#     4   4   4   4   4   4   4   4
#     4  10  22  42  63  87 126 160 202 251 301 372
#     4  10  23  39  60  94 124 151 203 258 295 365
#     4  12  24  39  62  91 124 163 202 251 307 362
#     4  11  21  42  63  83 121 167 199 241 309 361
#     4  10  21  39  62  89 121 158 207 248 293 375
#     4  10  19  41  66  83 122 166 198 246 313 356
#     4  11  22  38  62  95 118 157 206 254 302 359
#     4  10  21  41  60  85 126 159 198 250 307 351
#
# _framework density 20.776990999999999
#
# number of rings (size 3 to 8) (size 9 to 14) (size 15 to 20)
#    0.000    1.500    2.500    3.375    1.750    1.000 
#    6.750    0.625    0.000    0.000    0.000    0.000 
#    0.000    0.000    0.000    0.000    0.000    0.000 
#
# Total GULP energy -396790.646669 kJ/mol
# GULP energy per Si atom -12399.707708 kJ/mol
# Density = 2.072970 g / cm^3
# Si number density = 20.776991 Si / 1000 Ang^3
#
#
#
# Elastic Constant Matrix: (Units=GPa)
#
#
# Indices 1 2 3 4 5 6 
#
# 1 94.3462 34.1746 27.1928 0.0000 5.7945 0.0000
# 2 34.1746 130.7105 15.5889 0.0000 11.8325 0.0000
# 3 27.1928 15.5889 62.9213 0.0000 15.8076 0.0000
# 4 0.0000 0.0000 0.0000 25.8736 0.0000 2.5377
# 5 5.7945 11.8325 15.8076 0.0000 22.6426 0.0000
# 6 0.0000 0.0000 0.0000 2.5377 0.0000 33.7616
#
#
#
# Elastic Compliance Matrix: (Units=1/GPa)
#
#
# Indices 1 2 3 4 5 6 
#
# 1 0.013116 -0.002961 -0.005433 0.000000 0.001984 0.000000
# 2 -0.002961 0.008766 0.000083 0.000000 -0.003881 0.000000
# 3 -0.005433 0.000083 0.021685 0.000000 -0.013792 0.000000
# 4 0.000000 0.000000 0.000000 0.038936 0.000000 -0.002927
# 5 0.001984 -0.003881 -0.013792 0.000000 0.055314 0.000000
# 6 0.000000 0.000000 0.000000 -0.002927 0.000000 0.029839
#
#
# Mechanical properties :
#
#
# Convention : Reuss Voigt Hill
#
# Bulk Modulus (GPa) = 37.11261 49.09896 43.10578
# Shear Modulus (GPa) = 25.87174 30.52368 28.19771
#
# Velocity S-wave (km/s) = 3.53258 3.83705 3.68796
# Velocity P-wave (km/s) = 5.87707 6.58129 6.23912
#
# Compressibility (1/GPa) = 0.02694502
#
# Stress axis : x y z
#
# Youngs Moduli (GPa) = 76.24360 114.07635 46.11394
#
# Poissons Ratio (x) = 0.33776 0.25054
# Poissons Ratio (y) = 0.22574 -0.00382
# Poissons Ratio (z) = 0.41424 -0.00944
#
# Static dielectric constant tensor:
#      x y z
#    x 1.796420 0.000000 0.567530 
#    y 0.000000 3.625550 0.000000 
#    z 0.567530 0.000000 3.197390 
# 
# 
# High freq. dielectric constant tensor:
#      x y z
#    x 1.806310 0.000000 0.011960 
#    y 0.000000 1.824880 0.000000 
#    z 0.011960 0.000000 1.802570 
# 
# From -- ./inp_files/43714.got.cif
#   From: 2010.03.12/outbox.cif.g09.slc.cpg/sg14_22_cif.got.tgz:43714.got - 2010.03.31 13:35:05.
