data_PCOD8124340
_publ_section_title
;
Structure prediction by ZEFSAII (Michael W. Deem and Ramdas Pophale) SiO2 
 PCOD8124340
Probable space group: P 21/C
;
_chemical_formula_sum "Si O2"
_cell_formula_units_Z 24
_cell_length_a 18.755192
_cell_length_b 7.317293
_cell_length_c 19.179102
_cell_angle_alpha 90.000000
_cell_angle_beta 22.421890
_cell_angle_gamma 90.000000
_cell_volume 1003.940004
_symmetry_space_group_name_H-M "P 21/C"
_symmetry_group_IT_number 14
_symmetry_cell_setting 'monoclinic'
loop_
_space_group_symop_operation_xyz
x,y,z
-x,1/2+y,1/2-z
-x,-y,-z
x,1/2-y,1/2+z
loop_
_atom_site_type_symbol
_atom_site_label
_atom_site_fract_x
_atom_site_fract_y
_atom_site_fract_z
Si Si1 0.285333 0.754470 0.456091
Si Si2 0.065571 0.676469 0.025615
Si Si3 0.315544 0.175128 0.450687
Si Si4 0.333782 0.206317 0.092157
Si Si5 0.042463 0.809995 0.296911
Si Si6 0.703498 0.193828 0.821596
O O1 0.199798 0.713833 0.457008
O O2 0.501003 0.697574 0.262251
O O3 0.173241 0.633088 0.613329
O O4 0.258865 0.963237 0.505029
O O5 0.169769 0.644670 0.859350
O O6 0.017517 0.484800 0.104320
O O7 0.864495 0.779431 0.197507
O O8 0.347746 0.255143 0.497656
O O9 0.146276 0.282953 0.563413
O O10 0.354392 0.988983 0.084240
O O11 0.512687 0.297636 0.970505
O O12 0.168958 0.689451 0.237945
#
# Coordination Sequence:
#
# PCOD8124340 Si02
#       6
#     4   4   4   4   4   4
#     4  11  24  38  62  92 128 165 213 254 315 375
#     4  10  20  38  64  93 120 161 212 260 306 371
#     4  11  24  39  63  90 130 168 208 255 314 376
#     4  10  19  36  61  91 122 158 205 264 304 358
#     4  10  22  37  60  93 123 159 208 261 311 362
#     4  10  21  36  66  96 121 158 218 259 305 373
#
# _framework density 23.905812000000001
#
# number of rings (size 3 to 8) (size 9 to 14) (size 15 to 20)
#    0.000    1.667    3.333    2.000    4.667    2.667 
#    0.000    0.833    0.000    5.000    0.000    0.000 
#    0.000    0.000    0.000    0.000    0.000    0.000 
#
# Total GULP energy -297319.328765 kJ/mol
# GULP energy per Si atom -12388.305365 kJ/mol
# Density = 2.385140 g / cm^3
# Si number density = 23.905812 Si / 1000 Ang^3
#
#
#
# Elastic Constant Matrix: (Units=GPa)
#
#
# Indices 1 2 3 4 5 6 
#
# 1 178.5923 -1.6655 74.2959 0.0000 -45.3913 0.0000
# 2 -1.6655 18.1373 -5.5832 0.0000 2.5824 0.0000
# 3 74.2959 -5.5832 182.9061 0.0000 -32.6658 0.0000
# 4 0.0000 0.0000 0.0000 11.2660 0.0000 5.7837
# 5 -45.3913 2.5824 -32.6658 0.0000 63.1427 0.0000
# 6 0.0000 0.0000 0.0000 5.7837 0.0000 24.2901
#
#
#
# Elastic Compliance Matrix: (Units=1/GPa)
#
#
# Indices 1 2 3 4 5 6 
#
# 1 0.007676 -0.000638 -0.002366 0.000000 0.004320 0.000000
# 2 -0.000638 0.055847 0.001624 0.000000 -0.001903 0.000000
# 3 -0.002366 0.001624 0.006790 0.000000 0.001745 0.000000
# 4 0.000000 0.000000 0.000000 0.101124 0.000000 -0.024078
# 5 0.004320 -0.001903 0.001745 0.000000 0.019923 0.000000
# 6 0.000000 0.000000 0.000000 -0.024078 0.000000 0.046902
#
#
# Mechanical properties :
#
#
# Convention : Reuss Voigt Hill
#
# Bulk Modulus (GPa) = 14.80336 57.08114 35.94225
# Shear Modulus (GPa) = 18.97253 40.57899 29.77576
#
# Velocity S-wave (km/s) = 2.82021 4.12449 3.53306
# Velocity P-wave (km/s) = 4.10007 6.82724 5.63124
#
# Compressibility (1/GPa) = 0.06755224
#
# Stress axis : x y z
#
# Youngs Moduli (GPa) = 130.28429 17.90602 147.28548
#
# Poissons Ratio (x) = 0.01143 0.34844
# Poissons Ratio (y) = 0.08318 -0.23923
# Poissons Ratio (z) = 0.30822 -0.02908
#
# Static dielectric constant tensor:
#      x y z
#    x 5.591150 0.000000 -1.032280 
#    y 0.000000 3.581590 0.000000 
#    z -1.032280 0.000000 4.963460 
# 
# 
# High freq. dielectric constant tensor:
#      x y z
#    x 1.976390 0.000000 -0.021100 
#    y 0.000000 1.880980 0.000000 
#    z -0.021100 0.000000 1.969730 
# 
# From -- ./inp_files/69210.got.cif
#   From: 2010.03.12/outbox.cif.g09.slc.cpg/sg14_35_cif.got.tgz:69210.got - 2010.03.31 13:35:05.
