data_PCOD8124076
_publ_section_title
;
Structure prediction by ZEFSAII (Michael W. Deem and Ramdas Pophale) SiO2 
 PCOD8124076
Probable space group: P 21/C
;
_chemical_formula_sum "Si O2"
_cell_formula_units_Z 32
_cell_length_a 8.947684
_cell_length_b 25.315769
_cell_length_c 14.814015
_cell_angle_alpha 90.000000
_cell_angle_beta 28.800768
_cell_angle_gamma 90.000000
_cell_volume 1616.628261
_symmetry_space_group_name_H-M "P 21/C"
_symmetry_group_IT_number 14
_symmetry_cell_setting 'monoclinic'
loop_
_space_group_symop_operation_xyz
x,y,z
-x,1/2+y,1/2-z
-x,-y,-z
x,1/2-y,1/2+z
loop_
_atom_site_type_symbol
_atom_site_label
_atom_site_fract_x
_atom_site_fract_y
_atom_site_fract_z
Si Si1 0.345912 0.506107 0.985743
Si Si2 0.544925 0.390634 0.158164
Si Si3 0.489906 0.321296 0.020586
Si Si4 0.689058 0.551072 0.379201
Si Si5 0.200747 0.289070 0.662788
Si Si6 0.758609 0.887709 0.508488
Si Si7 0.489590 0.631646 0.623751
Si Si8 0.733856 0.632556 0.219286
O O1 0.300280 0.450645 0.959270
O O2 0.029008 0.534787 0.174210
O O3 0.500000 0.500000 0.000000
O O4 0.533145 0.547542 0.822577
O O5 0.400555 0.352997 0.158181
O O6 0.404478 0.373245 0.328498
O O7 0.909221 0.382836 0.970743
O O8 0.249034 0.273362 0.140373
O O9 0.443060 0.360737 0.962085
O O10 0.841024 0.300763 0.834955
O O11 0.500000 0.500000 0.500000
O O12 0.691263 0.587478 0.466243
O O13 0.549230 0.585719 0.369931
O O14 0.408753 0.311828 0.470466
O O15 0.310959 0.313164 0.701085
O O16 0.625841 0.863394 0.672762
O O17 0.123041 0.876756 0.302396
#
# Coordination Sequence:
#
# PCOD8124076 Si02
#       8
#     4   4   4   4   4   4   4   4
#     4  11  21  36  57  84 126 161 190 233 288 343
#     4   9  20  37  59  85 119 156 193 235 285 346
#     4  11  22  41  64  84 115 153 192 243 298 347
#     4  10  19  34  56  84 117 156 195 231 275 337
#     4  10  22  42  62  84 116 148 192 248 294 342
#     4  11  21  36  62  89 116 157 197 232 290 348
#     4  10  21  38  60  89 118 151 200 239 284 345
#     4   8  20  36  57  84 116 149 194 235 283 344
#
# _framework density 19.794284999999999
#
# number of rings (size 3 to 8) (size 9 to 14) (size 15 to 20)
#    0.000    2.000    2.500    1.500    1.750    2.500 
#    0.000    8.125    0.000    0.000    0.000    0.000 
#    0.000    0.000    0.000    0.000    0.000    0.000 
#
# Total GULP energy -396668.198634 kJ/mol
# GULP energy per Si atom -12395.881207 kJ/mol
# Density = 1.974923 g / cm^3
# Si number density = 19.794285 Si / 1000 Ang^3
#
#
#
# Elastic Constant Matrix: (Units=GPa)
#
#
# Indices 1 2 3 4 5 6 
#
# 1 131.8664 53.5808 36.3740 0.0000 33.0086 0.0000
# 2 53.5808 129.9074 39.8395 0.0000 14.7832 0.0000
# 3 36.3740 39.8395 52.0907 0.0000 22.4997 0.0000
# 4 0.0000 0.0000 0.0000 20.5102 0.0000 -3.8689
# 5 33.0086 14.7832 22.4997 0.0000 37.8355 0.0000
# 6 0.0000 0.0000 0.0000 -3.8689 0.0000 25.1113
#
#
#
# Elastic Compliance Matrix: (Units=1/GPa)
#
#
# Indices 1 2 3 4 5 6 
#
# 1 0.011320 -0.003109 -0.002403 0.000000 -0.007232 0.000000
# 2 -0.003109 0.010932 -0.007423 0.000000 0.002855 0.000000
# 3 -0.002403 -0.007423 0.032826 0.000000 -0.014524 0.000000
# 4 0.000000 0.000000 0.000000 0.050216 0.000000 0.007737
# 5 -0.007232 0.002855 -0.014524 0.000000 0.040261 0.000000
# 6 0.000000 0.000000 0.000000 0.007737 0.000000 0.041015
#
#
# Mechanical properties :
#
#
# Convention : Reuss Voigt Hill
#
# Bulk Modulus (GPa) = 34.23791 63.71699 48.97745
# Shear Modulus (GPa) = 22.50489 28.96275 25.73382
#
# Velocity S-wave (km/s) = 3.37551 3.82931 3.60955
# Velocity P-wave (km/s) = 5.70320 7.19798 6.49375
#
# Compressibility (1/GPa) = 0.02920739
#
# Stress axis : x y z
#
# Youngs Moduli (GPa) = 88.34067 91.47772 30.46393
#
# Poissons Ratio (x) = 0.28440 0.07320
# Poissons Ratio (y) = 0.27465 0.22613
# Poissons Ratio (z) = 0.21227 0.67904
#
# Static dielectric constant tensor:
#      x y z
#    x 3.689700 0.000000 0.428320 
#    y 0.000000 4.113620 0.000000 
#    z 0.428320 0.000000 3.744770 
# 
# 
# High freq. dielectric constant tensor:
#      x y z
#    x 1.768740 0.000000 0.017230 
#    y 0.000000 1.780590 0.000000 
#    z 0.017230 0.000000 1.758390 
# 
# From -- ./inp_files/42225.got.cif
#   From: 2010.03.12/outbox.cif.g09.slc.cpg/sg14_22_cif.got.tgz:42225.got - 2010.03.31 13:35:05.
