data_PCOD8124949
_publ_section_title
;
Structure prediction by ZEFSAII (Michael W. Deem and Ramdas Pophale) SiO2 
 PCOD8124949
Probable space group: P 21/C
;
_chemical_formula_sum "Si O2"
_cell_formula_units_Z 28
_cell_length_a 15.086163
_cell_length_b 14.640918
_cell_length_c 9.714720
_cell_angle_alpha 90.000000
_cell_angle_beta 141.957473
_cell_angle_gamma 90.000000
_cell_volume 1322.305009
_symmetry_space_group_name_H-M "P 21/C"
_symmetry_group_IT_number 14
_symmetry_cell_setting 'monoclinic'
loop_
_space_group_symop_operation_xyz
x,y,z
-x,1/2+y,1/2-z
-x,-y,-z
x,1/2-y,1/2+z
loop_
_atom_site_type_symbol
_atom_site_label
_atom_site_fract_x
_atom_site_fract_y
_atom_site_fract_z
Si Si1 0.940965 0.592980 0.197461
Si Si2 0.536857 0.791140 0.279517
Si Si3 0.095345 0.891406 0.376488
Si Si4 0.180826 0.278648 0.489940
Si Si5 0.206333 0.893341 0.202907
Si Si6 0.284777 0.087122 0.344829
Si Si7 0.360109 0.782708 0.804107
O O1 0.926819 0.496334 0.100321
O O2 0.882985 0.679589 0.038028
O O3 0.854332 0.583202 0.231377
O O4 0.103205 0.611404 0.444022
O O5 0.691169 0.739313 0.462429
O O6 0.568754 0.887399 0.395345
O O7 0.428152 0.729881 0.236291
O O8 0.475885 0.820503 0.055629
O O9 0.122693 0.884989 0.246013
O O10 0.226665 0.851467 0.626046
O O11 0.950486 0.835901 0.236899
O O12 0.257689 0.333386 0.703308
O O13 0.316643 0.811678 0.321539
O O14 0.300282 0.985799 0.302300
#
# Coordination Sequence:
#
# PCOD8124949 Si02
#       7
#     4   4   4   4   4   4   4
#     4  10  20  35  65 104 124 168 217 274 328 378
#     4  11  25  43  61  96 135 180 213 261 332 392
#     4  11  21  39  67  98 128 162 224 275 321 378
#     4  11  20  38  68  92 130 169 215 272 320 384
#     4  11  20  37  69 100 126 171 225 268 318 391
#     4  10  20  39  65  94 128 171 223 258 320 398
#     4  12  24  42  66  96 137 171 218 271 327 381
#
# _framework density 21.175146000000002
#
# number of rings (size 3 to 8) (size 9 to 14) (size 15 to 20)
#    0.000    1.143    7.143    0.857    0.000    0.571 
#    0.000    7.857    3.143    5.143    0.000    0.000 
#    0.000    0.000    0.000    0.000    0.000    0.000 
#
# Total GULP energy -347068.190293 kJ/mol
# GULP energy per Si atom -12395.292510 kJ/mol
# Density = 2.112695 g / cm^3
# Si number density = 21.175146 Si / 1000 Ang^3
#
#
#
# Elastic Constant Matrix: (Units=GPa)
#
#
# Indices 1 2 3 4 5 6 
#
# 1 24.3767 -0.4536 8.8846 0.0000 6.9509 0.0000
# 2 -0.4536 142.6636 36.6297 0.0000 3.0298 0.0000
# 3 8.8846 36.6297 112.2726 0.0000 4.3805 0.0000
# 4 0.0000 0.0000 0.0000 21.1533 0.0000 2.2481
# 5 6.9509 3.0298 4.3805 0.0000 26.2092 0.0000
# 6 0.0000 0.0000 0.0000 2.2481 0.0000 18.8729
#
#
#
# Elastic Compliance Matrix: (Units=1/GPa)
#
#
# Indices 1 2 3 4 5 6 
#
# 1 0.045682 0.001314 -0.003589 0.000000 -0.011667 0.000000
# 2 0.001314 0.007694 -0.002583 0.000000 -0.000806 0.000000
# 3 -0.003589 -0.002583 0.010050 0.000000 -0.000429 0.000000
# 4 0.000000 0.000000 0.000000 0.047880 0.000000 -0.005703
# 5 -0.011667 -0.000806 -0.000429 0.000000 0.041414 0.000000
# 6 0.000000 0.000000 0.000000 -0.005703 0.000000 0.053665
#
#
# Mechanical properties :
#
#
# Convention : Reuss Voigt Hill
#
# Bulk Modulus (GPa) = 18.61767 41.04824 29.83296
# Shear Modulus (GPa) = 21.36719 28.86389 25.11554
#
# Velocity S-wave (km/s) = 3.18003 3.69603 3.44770
# Velocity P-wave (km/s) = 4.72174 6.13525 5.47431
#
# Compressibility (1/GPa) = 0.05371240
#
# Stress axis : x y z
#
# Youngs Moduli (GPa) = 21.89043 129.97236 99.49973
#
# Poissons Ratio (x) = -0.17084 0.35707
# Poissons Ratio (y) = -0.02877 0.25698
# Poissons Ratio (z) = 0.07856 0.33569
#
# Static dielectric constant tensor:
#      x y z
#    x 3.595070 0.000000 0.160790 
#    y 0.000000 4.369360 0.000000 
#    z 0.160790 0.000000 3.737030 
# 
# 
# High freq. dielectric constant tensor:
#      x y z
#    x 1.804560 0.000000 0.017340 
#    y 0.000000 1.834530 0.000000 
#    z 0.017340 0.000000 1.833070 
# 
# From -- ./inp_files/16448.got.cif
#   From: 2010.03.12/outbox.cif.g09.slc.cpg/sg14_9_cif.got.tgz:16448.got - 2010.03.31 13:35:05.
