data_PCOD8124360
_publ_section_title
;
Structure prediction by ZEFSAII (Michael W. Deem and Ramdas Pophale) SiO2 
 PCOD8124360
Probable space group: P 21/C
;
_chemical_formula_sum "Si O2"
_cell_formula_units_Z 32
_cell_length_a 8.483228
_cell_length_b 9.397103
_cell_length_c 23.755750
_cell_angle_alpha 90.000000
_cell_angle_beta 56.560219
_cell_angle_gamma 90.000000
_cell_volume 1580.273426
_symmetry_space_group_name_H-M "P 21/C"
_symmetry_group_IT_number 14
_symmetry_cell_setting 'monoclinic'
loop_
_space_group_symop_operation_xyz
x,y,z
-x,1/2+y,1/2-z
-x,-y,-z
x,1/2-y,1/2+z
loop_
_atom_site_type_symbol
_atom_site_label
_atom_site_fract_x
_atom_site_fract_y
_atom_site_fract_z
Si Si1 0.927503 0.556773 0.182173
Si Si2 0.443508 0.742784 0.895197
Si Si3 0.395242 0.980330 0.181047
Si Si4 0.772670 0.536298 0.798782
Si Si5 0.836967 0.494794 0.076048
Si Si6 0.493090 0.293486 0.879913
Si Si7 0.391870 0.648518 0.527126
Si Si8 0.066060 0.628302 0.663290
O O1 0.706981 0.533575 0.242250
O O2 0.938333 0.528180 0.114443
O O3 0.061162 0.444241 0.187793
O O4 0.006574 0.709141 0.185848
O O5 0.635750 0.667072 0.838458
O O6 0.266883 0.658304 0.903212
O O7 0.456536 0.901963 0.869175
O O8 0.418828 0.751790 0.967402
O O9 0.521559 0.837332 0.162021
O O10 0.234572 0.935316 0.168143
O O11 0.668265 0.387417 0.824682
O O12 0.873163 0.542184 0.716519
O O13 0.697056 0.619360 0.085654
O O14 0.000000 0.500000 0.000000
O O15 0.524823 0.240273 0.937483
O O16 0.500000 0.500000 0.500000
O O17 0.164372 0.617712 0.581891
#
# Coordination Sequence:
#
# PCOD8124360 Si02
#       8
#     4   4   4   4   4   4   4   4
#     4  11  21  39  64  93 131 162 209 261 327 373
#     4  11  22  40  68  94 128 163 219 262 322 382
#     4  10  20  39  67  94 124 159 213 269 314 373
#     4  10  21  37  67  95 121 165 214 274 309 373
#     4  11  27  42  59  89 134 173 209 259 319 393
#     4  10  22  42  63  92 127 166 217 260 323 384
#     4  11  20  37  67  96 124 166 208 268 322 370
#     4  10  19  36  63  98 125 159 213 273 313 372
#
# _framework density 20.249659000000001
#
# number of rings (size 3 to 8) (size 9 to 14) (size 15 to 20)
#    0.000    1.500    6.250    0.750    1.750    2.000 
#    0.000    0.625    2.750    0.000    0.000    0.000 
#    0.000    0.000    0.000    0.000    0.000    0.000 
#
# Total GULP energy -396441.562640 kJ/mol
# GULP energy per Si atom -12388.798833 kJ/mol
# Density = 2.020357 g / cm^3
# Si number density = 20.249659 Si / 1000 Ang^3
#
#
#
# Elastic Constant Matrix: (Units=GPa)
#
#
# Indices 1 2 3 4 5 6 
#
# 1 59.6776 33.7278 34.0770 0.0000 -20.8358 0.0000
# 2 33.7278 126.2941 46.5780 0.0000 -18.6674 0.0000
# 3 34.0770 46.5780 142.7473 0.0000 -34.0489 0.0000
# 4 0.0000 0.0000 0.0000 31.1220 0.0000 1.5634
# 5 -20.8358 -18.6674 -34.0489 0.0000 30.8432 0.0000
# 6 0.0000 0.0000 0.0000 1.5634 0.0000 12.2709
#
#
#
# Elastic Compliance Matrix: (Units=1/GPa)
#
#
# Indices 1 2 3 4 5 6 
#
# 1 0.024199 -0.004097 -0.001537 0.000000 0.012171 0.000000
# 2 -0.004097 0.009903 -0.002014 0.000000 0.001003 0.000000
# 3 -0.001537 -0.002014 0.010169 0.000000 0.008968 0.000000
# 4 0.000000 0.000000 0.000000 0.032339 0.000000 -0.004120
# 5 0.012171 0.001003 0.008968 0.000000 0.051151 0.000000
# 6 0.000000 0.000000 0.000000 -0.004120 0.000000 0.082018
#
#
# Mechanical properties :
#
#
# Convention : Reuss Voigt Hill
#
# Bulk Modulus (GPa) = 34.51232 61.94274 48.22753
# Shear Modulus (GPa) = 21.30076 29.13632 25.21854
#
# Velocity S-wave (km/s) = 3.24683 3.79734 3.53282
# Velocity P-wave (km/s) = 5.57999 7.06274 6.36469
#
# Compressibility (1/GPa) = 0.02897516
#
# Stress axis : x y z
#
# Youngs Moduli (GPa) = 41.32374 100.97804 98.34123
#
# Poissons Ratio (x) = 0.41368 0.15115
# Poissons Ratio (y) = 0.16929 0.19808
# Poissons Ratio (z) = 0.06351 0.20339
#
# Static dielectric constant tensor:
#      x y z
#    x 2.989070 0.000000 -1.401710 
#    y 0.000000 4.024920 0.000000 
#    z -1.401710 0.000000 1.610260 
# 
# 
# High freq. dielectric constant tensor:
#      x y z
#    x 1.756210 0.000000 -0.025140 
#    y 0.000000 1.800080 0.000000 
#    z -0.025140 0.000000 1.808640 
# 
# From -- ./inp_files/72067.got.cif
#   From: 2010.03.12/outbox.cif.g09.slc.cpg/sg14_37_cif.got.tgz:72067.got - 2010.03.31 13:35:05.
