data_PCOD8124215
_publ_section_title
;
Structure prediction by ZEFSAII (Michael W. Deem and Ramdas Pophale) SiO2 
 PCOD8124215
Probable space group: P 21/C
;
_chemical_formula_sum "Si O2"
_cell_formula_units_Z 32
_cell_length_a 22.142400
_cell_length_b 14.540979
_cell_length_c 14.614280
_cell_angle_alpha 90.000000
_cell_angle_beta 19.558401
_cell_angle_gamma 90.000000
_cell_volume 1575.212196
_symmetry_space_group_name_H-M "P 21/C"
_symmetry_group_IT_number 14
_symmetry_cell_setting 'monoclinic'
loop_
_space_group_symop_operation_xyz
x,y,z
-x,1/2+y,1/2-z
-x,-y,-z
x,1/2-y,1/2+z
loop_
_atom_site_type_symbol
_atom_site_label
_atom_site_fract_x
_atom_site_fract_y
_atom_site_fract_z
Si Si1 0.938538 0.813388 0.123410
Si Si2 0.113034 0.809882 0.521827
Si Si3 0.016498 0.493932 0.122335
Si Si4 0.219952 0.664954 0.059531
Si Si5 0.477409 0.650955 0.407684
Si Si6 0.411378 0.299558 0.382287
Si Si7 0.710290 0.000352 0.927872
Si Si8 0.814261 0.954436 0.437491
O O1 0.771743 0.752326 0.321391
O O2 0.875349 0.912228 0.252335
O O3 0.031724 0.771460 0.079763
O O4 0.091006 0.824119 0.830356
O O5 0.988209 0.897356 0.678597
O O6 0.119044 0.782775 0.620285
O O7 0.317781 0.836952 0.206255
O O8 0.039424 0.447010 0.189191
O O9 0.839233 0.458340 0.323100
O O10 0.186015 0.474715 0.813959
O O11 0.242990 0.558775 0.999059
O O12 0.417346 0.709716 0.793763
O O13 0.534724 0.751102 0.289571
O O14 0.427927 0.583242 0.393226
O O15 0.644792 0.602773 0.219321
O O16 0.384645 0.407621 0.401344
#
# Coordination Sequence:
#
# PCOD8124215 Si02
#       8
#     4   4   4   4   4   4   4   4
#     4  11  23  42  60  91 126 161 205 249 308 365
#     4  10  21  38  58  90 122 157 200 261 295 352
#     4   9  20  35  59  86 116 153 205 251 299 349
#     4  11  23  41  63  87 127 161 205 252 304 365
#     4  10  21  37  59  89 121 154 206 250 300 359
#     4  11  22  38  62  89 123 163 198 251 307 359
#     4  10  19  35  60  86 121 156 198 250 303 348
#     4  10  22  38  63  88 118 166 202 245 306 368
#
# _framework density 20.314723000000001
#
# number of rings (size 3 to 8) (size 9 to 14) (size 15 to 20)
#    0.000    1.750    3.750    0.375    1.750    3.500 
#    2.250    0.000    0.000    0.750    0.000    0.000 
#    0.000    0.000    0.000    0.000    0.000    0.000 
#
# Total GULP energy -396637.253561 kJ/mol
# GULP energy per Si atom -12394.914174 kJ/mol
# Density = 2.026849 g / cm^3
# Si number density = 20.314723 Si / 1000 Ang^3
#
#
#
# Elastic Constant Matrix: (Units=GPa)
#
#
# Indices 1 2 3 4 5 6 
#
# 1 104.0064 24.9673 30.9357 0.0000 -8.1039 0.0000
# 2 24.9673 62.3525 13.8448 0.0000 1.6807 0.0000
# 3 30.9357 13.8448 70.9172 0.0000 -5.7001 0.0000
# 4 0.0000 0.0000 0.0000 27.9441 0.0000 -5.5057
# 5 -8.1039 1.6807 -5.7001 0.0000 17.8336 0.0000
# 6 0.0000 0.0000 0.0000 -5.5057 0.0000 21.0662
#
#
#
# Elastic Compliance Matrix: (Units=1/GPa)
#
#
# Indices 1 2 3 4 5 6 
#
# 1 0.012187 -0.004083 -0.004150 0.000000 0.004596 0.000000
# 2 -0.004083 0.018259 -0.002126 0.000000 -0.004255 0.000000
# 3 -0.004150 -0.002126 0.016618 0.000000 0.003626 0.000000
# 4 0.000000 0.000000 0.000000 0.037728 0.000000 0.009860
# 5 0.004596 -0.004255 0.003626 0.000000 0.059723 0.000000
# 6 0.000000 0.000000 0.000000 0.009860 0.000000 0.050046
#
#
# Mechanical properties :
#
#
# Convention : Reuss Voigt Hill
#
# Bulk Modulus (GPa) = 37.95385 41.86354 39.90870
# Shear Modulus (GPa) = 22.31535 24.53734 23.42635
#
# Velocity S-wave (km/s) = 3.31793 3.47920 3.39952
# Velocity P-wave (km/s) = 5.77942 6.06564 5.92426
#
# Compressibility (1/GPa) = 0.02634779
#
# Stress axis : x y z
#
# Youngs Moduli (GPa) = 82.05251 54.76656 60.17678
#
# Poissons Ratio (x) = 0.22359 0.24973
# Poissons Ratio (y) = 0.33498 0.12793
# Poissons Ratio (z) = 0.34051 0.11642
#
# Static dielectric constant tensor:
#      x y z
#    x 3.651290 0.000000 -0.220470 
#    y 0.000000 3.650910 0.000000 
#    z -0.220470 0.000000 3.668260 
# 
# 
# High freq. dielectric constant tensor:
#      x y z
#    x 1.786210 0.000000 -0.020670 
#    y 0.000000 1.792770 0.000000 
#    z -0.020670 0.000000 1.786210 
# 
# From -- ./inp_files/45067.got.cif
#   From: 2010.03.12/outbox.cif.g09.slc.cpg/sg14_23_cif.got.tgz:45067.got - 2010.03.31 13:35:05.
