data_PCOD8124132
_publ_section_title
;
Structure prediction by ZEFSAII (Michael W. Deem and Ramdas Pophale) SiO2 
 PCOD8124132
Probable space group: P 21/C
;
_chemical_formula_sum "Si O2"
_cell_formula_units_Z 28
_cell_length_a 5.533493
_cell_length_b 18.108986
_cell_length_c 14.708905
_cell_angle_alpha 90.000000
_cell_angle_beta 65.520699
_cell_angle_gamma 90.000000
_cell_volume 1341.430624
_symmetry_space_group_name_H-M "P 21/C"
_symmetry_group_IT_number 14
_symmetry_cell_setting 'monoclinic'
loop_
_space_group_symop_operation_xyz
x,y,z
-x,1/2+y,1/2-z
-x,-y,-z
x,1/2-y,1/2+z
loop_
_atom_site_type_symbol
_atom_site_label
_atom_site_fract_x
_atom_site_fract_y
_atom_site_fract_z
Si Si1 0.044164 0.345012 0.360343
Si Si2 0.429328 0.232323 0.228149
Si Si3 0.215892 0.984226 0.161001
Si Si4 0.271309 0.418423 0.492329
Si Si5 0.480783 0.652270 0.115668
Si Si6 0.906063 0.897343 0.677670
Si Si7 0.561810 0.225779 0.008392
O O1 0.314261 0.311656 0.278176
O O2 0.065306 0.385243 0.453980
O O3 0.934674 0.405880 0.307097
O O4 0.845784 0.277235 0.412813
O O5 0.613538 0.200623 0.280967
O O6 0.189991 0.173534 0.248128
O O7 0.593488 0.244271 0.110210
O O8 0.110577 0.033765 0.092244
O O9 0.172737 0.026346 0.261847
O O10 0.527352 0.970617 0.095274
O O11 0.423040 0.352860 0.520092
O O12 0.740105 0.603833 0.107027
O O13 0.228332 0.605073 0.118337
O O14 0.587898 0.706973 0.019447
#
# Coordination Sequence:
#
# PCOD8124132 Si02
#       7
#     4   4   4   4   4   4   4
#     4  11  22  36  56  90 126 157 203 259 303 379
#     4  10  22  36  60  87 122 165 204 250 315 356
#     4  10  22  33  57  86 122 164 196 246 321 371
#     4  10  19  35  53  88 123 153 195 252 317 375
#     4  10  21  39  57  89 120 157 213 256 291 371
#     4  10  21  38  59  84 118 162 204 244 305 370
#     4  11  20  37  59  87 124 159 204 259 310 365
#
# _framework density 20.873239000000002
#
# number of rings (size 3 to 8) (size 9 to 14) (size 15 to 20)
#    0.857    0.857    4.286    0.429    4.000    0.000 
#    0.000    0.000    0.000    1.714    0.000    0.000 
#    0.000    0.000    0.000    0.000    0.000    0.000 
#
# Total GULP energy -346964.123042 kJ/mol
# GULP energy per Si atom -12391.575823 kJ/mol
# Density = 2.082573 g / cm^3
# Si number density = 20.873239 Si / 1000 Ang^3
#
#
#
# Elastic Constant Matrix: (Units=GPa)
#
#
# Indices 1 2 3 4 5 6 
#
# 1 87.3104 4.9957 1.2474 0.0000 3.7871 0.0000
# 2 4.9957 29.8299 0.2974 0.0000 -8.9300 0.0000
# 3 1.2474 0.2974 44.8044 0.0000 6.8715 0.0000
# 4 0.0000 0.0000 0.0000 34.0619 0.0000 3.1536
# 5 3.7871 -8.9300 6.8715 0.0000 22.4676 0.0000
# 6 0.0000 0.0000 0.0000 3.1536 0.0000 15.1586
#
#
#
# Elastic Compliance Matrix: (Units=1/GPa)
#
#
# Indices 1 2 3 4 5 6 
#
# 1 0.011757 -0.002929 0.000183 0.000000 -0.003202 0.000000
# 2 -0.002929 0.039094 -0.002766 0.000000 0.016878 0.000000
# 3 0.000183 -0.002766 0.023613 0.000000 -0.008352 0.000000
# 4 0.000000 0.000000 0.000000 0.029935 0.000000 -0.006228
# 5 -0.003202 0.016878 -0.008352 0.000000 0.054311 0.000000
# 6 0.000000 0.000000 0.000000 -0.006228 0.000000 0.067265
#
#
# Mechanical properties :
#
#
# Convention : Reuss Voigt Hill
#
# Bulk Modulus (GPa) = 15.76302 19.44730 17.60516
# Shear Modulus (GPa) = 19.36875 24.69791 22.03333
#
# Velocity S-wave (km/s) = 3.04949 3.44355 3.25249
# Velocity P-wave (km/s) = 4.46848 5.01476 4.74948
#
# Compressibility (1/GPa) = 0.06343963
#
# Stress axis : x y z
#
# Youngs Moduli (GPa) = 85.05368 25.57916 42.34869
#
# Poissons Ratio (x) = 0.07493 -0.00776
# Poissons Ratio (y) = 0.24916 0.11716
# Poissons Ratio (z) = -0.01558 0.07076
#
# Static dielectric constant tensor:
#      x y z
#    x 3.601740 0.000000 0.134450 
#    y 0.000000 3.676530 0.000000 
#    z 0.134450 0.000000 3.357160 
# 
# 
# High freq. dielectric constant tensor:
#      x y z
#    x 1.805570 0.000000 0.015160 
#    y 0.000000 1.808410 0.000000 
#    z 0.015160 0.000000 1.779060 
# 
# From -- ./inp_files/37669.got.cif
#   From: 2010.03.12/outbox.cif.g09.slc.cpg/sg14_19_cif.got.tgz:37669.got - 2010.03.31 13:35:05.
