data_PCOD8124997
_publ_section_title
;
Structure prediction by ZEFSAII (Michael W. Deem and Ramdas Pophale) SiO2 
 PCOD8124997
Probable space group: P 21/C
;
_chemical_formula_sum "Si O2"
_cell_formula_units_Z 32
_cell_length_a 11.931018
_cell_length_b 9.840486
_cell_length_c 17.661244
_cell_angle_alpha 90.000000
_cell_angle_beta 54.082557
_cell_angle_gamma 90.000000
_cell_volume 1679.294807
_symmetry_space_group_name_H-M "P 21/C"
_symmetry_group_IT_number 14
_symmetry_cell_setting 'monoclinic'
loop_
_space_group_symop_operation_xyz
x,y,z
-x,1/2+y,1/2-z
-x,-y,-z
x,1/2-y,1/2+z
loop_
_atom_site_type_symbol
_atom_site_label
_atom_site_fract_x
_atom_site_fract_y
_atom_site_fract_z
Si Si1 0.519822 0.493064 0.322335
Si Si2 0.239997 0.006978 0.013749
Si Si3 0.093907 0.521328 0.126860
Si Si4 0.399067 0.715279 0.269426
Si Si5 0.941193 0.758689 0.933625
Si Si6 0.797739 0.477918 0.299702
Si Si7 0.817417 0.166098 0.264787
Si Si8 0.847959 0.264254 0.022150
O O1 0.400923 0.514528 0.431851
O O2 0.500075 0.602742 0.263880
O O3 0.508028 0.340995 0.294559
O O4 0.668320 0.519924 0.299909
O O5 0.184304 0.142065 0.993940
O O6 0.223187 0.036345 0.108905
O O7 0.148400 0.880730 0.021149
O O8 0.119496 0.367730 0.089736
O O9 0.177615 0.552866 0.171208
O O10 0.930834 0.545298 0.206834
O O11 0.153456 0.618768 0.039225
O O12 0.319880 0.643150 0.230809
O O13 0.288555 0.776116 0.372474
O O14 0.047789 0.847611 0.841268
O O15 0.016624 0.710801 0.980222
O O16 0.814155 0.316433 0.301538
#
# Coordination Sequence:
#
# PCOD8124997 Si02
#       8
#     4   4   4   4   4   4   4   4
#     4  10  22  39  59  79 110 156 188 232 277 335
#     4  11  20  36  57  82 115 150 187 230 280 340
#     4  11  20  35  62  86 115 149 182 241 291 330
#     4   9  21  40  58  81 113 150 195 230 280 342
#     4  10  21  34  53  91 114 141 194 236 274 339
#     4  10  20  36  58  83 115 148 191 227 277 347
#     4   9  18  37  57  79 117 150 178 234 291 329
#     4  10  21  37  59  82 117 153 181 233 300 335
#
# _framework density 19.055617999999999
#
# number of rings (size 3 to 8) (size 9 to 14) (size 15 to 20)
#    0.000    2.000    2.500    1.875    0.000    2.000 
#    2.250    0.000    0.000    2.250    0.000    0.000 
#    0.000    0.000    0.000    0.000    0.000    0.000 
#
# Total GULP energy -396853.256547 kJ/mol
# GULP energy per Si atom -12401.664267 kJ/mol
# Density = 1.901225 g / cm^3
# Si number density = 19.055618 Si / 1000 Ang^3
#
#
#
# Elastic Constant Matrix: (Units=GPa)
#
#
# Indices 1 2 3 4 5 6 
#
# 1 83.3515 37.5646 28.8306 0.0000 9.3475 0.0000
# 2 37.5646 79.0484 18.5390 0.0000 6.5039 0.0000
# 3 28.8306 18.5390 49.3396 0.0000 11.5480 0.0000
# 4 0.0000 0.0000 0.0000 26.4521 0.0000 2.6893
# 5 9.3475 6.5039 11.5480 0.0000 28.2014 0.0000
# 6 0.0000 0.0000 0.0000 2.6893 0.0000 34.0508
#
#
#
# Elastic Compliance Matrix: (Units=1/GPa)
#
#
# Indices 1 2 3 4 5 6 
#
# 1 0.017710 -0.006530 -0.007602 0.000000 -0.001251 0.000000
# 2 -0.006530 0.016316 -0.002147 0.000000 -0.000719 0.000000
# 3 -0.007602 -0.002147 0.027441 0.000000 -0.008222 0.000000
# 4 0.000000 0.000000 0.000000 0.038110 0.000000 -0.003010
# 5 -0.001251 -0.000719 -0.008222 0.000000 0.039407 0.000000
# 6 0.000000 0.000000 0.000000 -0.003010 0.000000 0.029606
#
#
# Mechanical properties :
#
#
# Convention : Reuss Voigt Hill
#
# Bulk Modulus (GPa) = 34.59068 42.40088 38.49578
# Shear Modulus (GPa) = 23.72099 26.19455 24.95777
#
# Velocity S-wave (km/s) = 3.53204 3.71163 3.62295
# Velocity P-wave (km/s) = 5.90133 6.37712 6.14383
#
# Compressibility (1/GPa) = 0.02890952
#
# Stress axis : x y z
#
# Youngs Moduli (GPa) = 56.46455 61.28826 36.44226
#
# Poissons Ratio (x) = 0.40023 0.27704
# Poissons Ratio (y) = 0.36873 0.07822
# Poissons Ratio (z) = 0.42925 0.13156
#
# Static dielectric constant tensor:
#      x y z
#    x 3.456200 0.000000 0.119830 
#    y 0.000000 3.350450 0.000000 
#    z 0.119830 0.000000 3.457900 
# 
# 
# High freq. dielectric constant tensor:
#      x y z
#    x 1.738890 0.000000 0.011390 
#    y 0.000000 1.732230 0.000000 
#    z 0.011390 0.000000 1.739660 
# 
# From -- ./inp_files/57262.got.cif
#   From: 2010.03.12/outbox.cif.g09.slc.cpg/sg14_29_cif.got.tgz:57262.got - 2010.03.31 13:35:05.
