data_PCOD8124988
_publ_section_title
;
Structure prediction by ZEFSAII (Michael W. Deem and Ramdas Pophale) SiO2 
 PCOD8124988
Probable space group: P 21/C
;
_chemical_formula_sum "Si O2"
_cell_formula_units_Z 20
_cell_length_a 11.579256
_cell_length_b 14.171584
_cell_length_c 15.030095
_cell_angle_alpha 90.000000
_cell_angle_beta 153.731110
_cell_angle_gamma 90.000000
_cell_volume 1091.583187
_symmetry_space_group_name_H-M "P 21/C"
_symmetry_group_IT_number 14
_symmetry_cell_setting 'monoclinic'
loop_
_space_group_symop_operation_xyz
x,y,z
-x,1/2+y,1/2-z
-x,-y,-z
x,1/2-y,1/2+z
loop_
_atom_site_type_symbol
_atom_site_label
_atom_site_fract_x
_atom_site_fract_y
_atom_site_fract_z
Si Si1 0.892845 0.998361 0.755421
Si Si2 0.503257 0.647174 0.046376
Si Si3 0.370243 0.359113 0.394702
Si Si4 0.464398 0.012104 0.123371
Si Si5 0.197106 0.576838 0.985725
O O1 0.718413 0.090016 0.664207
O O2 0.883210 0.993507 0.639833
O O3 0.780903 0.903994 0.722878
O O4 0.193654 0.009784 0.991961
O O5 0.521807 0.753613 0.027647
O O6 0.419816 0.642462 0.093208
O O7 0.494262 0.412245 0.396183
O O8 0.465564 0.404337 0.552525
O O9 0.057044 0.360199 0.169089
O O10 0.700486 0.029772 0.353868
#
# Coordination Sequence:
#
# PCOD8124988 Si02
#       5
#     4   4   4   4   4
#     4   8  19  37  56  76 113 139 174 227 266 314
#     4   9  19  39  53  81 113 140 177 230 263 316
#     4  10  21  36  55  79 114 140 178 225 270 314
#     4  10  20  36  58  78 108 148 175 221 275 319
#     4   9  19  38  53  80 108 140 184 218 265 324
#
# _framework density 18.322012000000001
#
# number of rings (size 3 to 8) (size 9 to 14) (size 15 to 20)
#    1.200    1.600    0.000    0.600    2.800    0.800 
#    7.200    0.000    0.000    0.000    0.000    0.000 
#    0.000    0.000    0.000    0.000    0.000    0.000 
#
# Total GULP energy -247837.351607 kJ/mol
# GULP energy per Si atom -12391.867580 kJ/mol
# Density = 1.828031 g / cm^3
# Si number density = 18.322012 Si / 1000 Ang^3
#
#
#
# Elastic Constant Matrix: (Units=GPa)
#
#
# Indices 1 2 3 4 5 6 
#
# 1 61.5277 34.2777 22.2297 0.0000 20.2394 0.0000
# 2 34.2777 131.0502 20.9800 0.0000 8.7159 0.0000
# 3 22.2297 20.9800 76.2880 0.0000 0.5882 0.0000
# 4 0.0000 0.0000 0.0000 9.9060 0.0000 2.6572
# 5 20.2394 8.7159 0.5882 0.0000 25.8232 0.0000
# 6 0.0000 0.0000 0.0000 2.6572 0.0000 18.6576
#
#
#
# Elastic Compliance Matrix: (Units=1/GPa)
#
#
# Indices 1 2 3 4 5 6 
#
# 1 0.028034 -0.004926 -0.006659 0.000000 -0.020158 0.000000
# 2 -0.004926 0.009032 -0.001055 0.000000 0.000836 0.000000
# 3 -0.006659 -0.001055 0.015298 0.000000 0.005226 0.000000
# 4 0.000000 0.000000 0.000000 0.104958 0.000000 -0.014948
# 5 -0.020158 0.000836 0.005226 0.000000 0.054123 0.000000
# 6 0.000000 0.000000 0.000000 -0.014948 0.000000 0.055726
#
#
# Mechanical properties :
#
#
# Convention : Reuss Voigt Hill
#
# Bulk Modulus (GPa) = 36.92070 47.09343 42.00706
# Shear Modulus (GPa) = 16.58491 23.63592 20.11042
#
# Velocity S-wave (km/s) = 3.01190 3.59559 3.31661
# Velocity P-wave (km/s) = 5.68244 6.55719 6.13543
#
# Compressibility (1/GPa) = 0.02708508
#
# Stress axis : x y z
#
# Youngs Moduli (GPa) = 35.67147 110.71277 65.36647
#
# Poissons Ratio (x) = 0.54536 0.43525
# Poissons Ratio (y) = 0.17571 0.06897
# Poissons Ratio (z) = 0.23752 0.11681
#
# Static dielectric constant tensor:
#      x y z
#    x 3.423980 0.000000 0.262100 
#    y 0.000000 3.007960 0.000000 
#    z 0.262100 0.000000 3.156470 
# 
# 
# High freq. dielectric constant tensor:
#      x y z
#    x 1.715670 0.000000 0.025620 
#    y 0.000000 1.682820 0.000000 
#    z 0.025620 0.000000 1.695810 
# 
# From -- ./inp_files/44529.got.cif
#   From: 2010.03.12/outbox.cif.g09.slc.cpg/sg14_23_cif.got.tgz:44529.got - 2010.03.31 13:35:05.
