data_PCOD8124284
_publ_section_title
;
Structure prediction by ZEFSAII (Michael W. Deem and Ramdas Pophale) SiO2 
 PCOD8124284
Probable space group: P 21/C
;
_chemical_formula_sum "Si O2"
_cell_formula_units_Z 32
_cell_length_a 26.064198
_cell_length_b 8.289236
_cell_length_c 15.151628
_cell_angle_alpha 90.000000
_cell_angle_beta 29.010945
_cell_angle_gamma 90.000000
_cell_volume 1587.592476
_symmetry_space_group_name_H-M "P 21/C"
_symmetry_group_IT_number 14
_symmetry_cell_setting 'monoclinic'
loop_
_space_group_symop_operation_xyz
x,y,z
-x,1/2+y,1/2-z
-x,-y,-z
x,1/2-y,1/2+z
loop_
_atom_site_type_symbol
_atom_site_label
_atom_site_fract_x
_atom_site_fract_y
_atom_site_fract_z
Si Si1 0.504738 0.810111 0.398298
Si Si2 0.012182 0.242971 0.808005
Si Si3 0.354131 0.163955 0.977680
Si Si4 0.693165 0.373598 0.347102
Si Si5 0.182385 0.938308 0.850287
Si Si6 0.109983 0.062039 0.508988
Si Si7 0.871937 0.721142 0.684843
Si Si8 0.377317 0.127112 0.611960
O O1 0.555978 0.787017 0.225693
O O2 0.409989 0.680617 0.553919
O O3 0.593420 0.785415 0.340165
O O4 0.463424 0.991788 0.462670
O O5 0.100708 0.188855 0.603921
O O6 0.049069 0.223721 0.852731
O O7 0.979664 0.427612 0.841678
O O8 0.909553 0.129322 0.948526
O O9 0.243704 0.230066 0.106656
O O10 0.383861 0.240020 0.026713
O O11 0.343712 0.971384 0.010276
O O12 0.753658 0.212404 0.288363
O O13 0.771783 0.485507 0.169637
O O14 0.132402 0.039338 0.845434
O O15 0.259393 0.051414 0.793343
O O16 0.087901 0.155352 0.450905
#
# Coordination Sequence:
#
# PCOD8124284 Si02
#       8
#     4   4   4   4   4   4   4   4
#     4  10  19  36  58  78 107 151 190 228 291 353
#     4  11  21  37  60  83 112 156 193 228 292 351
#     4  10  20  34  55  81 110 145 185 237 288 341
#     4   9  20  37  54  81 117 147 188 243 291 340
#     4   9  19  37  56  79 115 149 186 240 284 337
#     4  10  22  38  57  85 118 149 191 245 286 342
#     4  10  21  37  57  83 113 147 191 237 286 341
#     4   9  20  36  54  80 110 143 186 234 283 341
#
# _framework density 20.156307000000002
#
# number of rings (size 3 to 8) (size 9 to 14) (size 15 to 20)
#    0.000    2.250    0.000    2.250    0.000    4.500 
#    0.000    8.750    0.000    0.000    0.000    0.000 
#    0.000    0.000    0.000    0.000    0.000    0.000 
#
# Total GULP energy -396749.962477 kJ/mol
# GULP energy per Si atom -12398.436327 kJ/mol
# Density = 2.011043 g / cm^3
# Si number density = 20.156307 Si / 1000 Ang^3
#
#
#
# Elastic Constant Matrix: (Units=GPa)
#
#
# Indices 1 2 3 4 5 6 
#
# 1 103.7353 44.5314 52.2745 0.0000 2.4756 0.0000
# 2 44.5314 91.2710 50.7897 0.0000 8.3020 0.0000
# 3 52.2745 50.7897 100.8082 0.0000 8.5348 0.0000
# 4 0.0000 0.0000 0.0000 29.8994 0.0000 1.2121
# 5 2.4756 8.3020 8.5348 0.0000 22.0739 0.0000
# 6 0.0000 0.0000 0.0000 1.2121 0.0000 20.4571
#
#
#
# Elastic Compliance Matrix: (Units=1/GPa)
#
#
# Indices 1 2 3 4 5 6 
#
# 1 0.014056 -0.004018 -0.005437 0.000000 0.002037 0.000000
# 2 -0.004018 0.016549 -0.005961 0.000000 -0.003469 0.000000
# 3 -0.005437 -0.005961 0.016026 0.000000 -0.003345 0.000000
# 4 0.000000 0.000000 0.000000 0.033526 0.000000 -0.001986
# 5 0.002037 -0.003469 -0.003345 0.000000 0.047672 0.000000
# 6 0.000000 0.000000 0.000000 -0.001986 0.000000 0.049001
#
#
# Mechanical properties :
#
#
# Convention : Reuss Voigt Hill
#
# Bulk Modulus (GPa) = 63.29241 65.66730 64.47986
# Shear Modulus (GPa) = 23.48231 24.36734 23.92482
#
# Velocity S-wave (km/s) = 3.41693 3.48072 3.44897
# Velocity P-wave (km/s) = 6.85829 6.98596 6.92242
#
# Compressibility (1/GPa) = 0.01579968
#
# Stress axis : x y z
#
# Youngs Moduli (GPa) = 71.14502 60.42606 62.40023
#
# Poissons Ratio (x) = 0.24277 0.33927
# Poissons Ratio (y) = 0.28583 0.37196
# Poissons Ratio (z) = 0.38681 0.36019
#
# Static dielectric constant tensor:
#      x y z
#    x 3.398170 0.000000 -0.198470 
#    y 0.000000 3.884740 0.000000 
#    z -0.198470 0.000000 3.688630 
# 
# 
# High freq. dielectric constant tensor:
#      x y z
#    x 1.761260 0.000000 -0.013140 
#    y 0.000000 1.802060 0.000000 
#    z -0.013140 0.000000 1.790410 
# 
# From -- ./inp_files/51336.got.cif
#   From: 2010.03.12/outbox.cif.g09.slc.cpg/sg14_26_cif.got.tgz:51336.got - 2010.03.31 13:35:05.
