data_PCOD8124803
_publ_section_title
;
Structure prediction by ZEFSAII (Michael W. Deem and Ramdas Pophale) SiO2 
 PCOD8124803
Probable space group: P 21/C
;
_chemical_formula_sum "Si O2"
_cell_formula_units_Z 32
_cell_length_a 11.859501
_cell_length_b 8.086261
_cell_length_c 23.656486
_cell_angle_alpha 90.000000
_cell_angle_beta 51.630873
_cell_angle_gamma 90.000000
_cell_volume 1778.672538
_symmetry_space_group_name_H-M "P 21/C"
_symmetry_group_IT_number 14
_symmetry_cell_setting 'monoclinic'
loop_
_space_group_symop_operation_xyz
x,y,z
-x,1/2+y,1/2-z
-x,-y,-z
x,1/2-y,1/2+z
loop_
_atom_site_type_symbol
_atom_site_label
_atom_site_fract_x
_atom_site_fract_y
_atom_site_fract_z
Si Si1 0.551733 0.186721 0.430225
Si Si2 0.301057 0.557882 0.013267
Si Si3 0.314972 0.488690 0.210191
Si Si4 0.856019 0.795717 0.783315
Si Si5 0.027125 0.443441 0.161118
Si Si6 0.398439 0.797970 0.370887
Si Si7 0.259570 0.695823 0.794146
Si Si8 0.582085 0.000378 0.849306
O O1 0.627569 0.195586 0.467764
O O2 0.528612 0.367144 0.411597
O O3 0.394736 0.108908 0.486015
O O4 0.657793 0.073297 0.359136
O O5 0.141328 0.514924 0.081861
O O6 0.297966 0.628974 0.951242
O O7 0.190603 0.351072 0.244537
O O8 0.463896 0.411184 0.185364
O O9 0.257105 0.616895 0.273581
O O10 0.914181 0.715180 0.822883
O O11 0.713396 0.904474 0.838781
O O12 0.980825 0.909284 0.718075
O O13 0.895825 0.385697 0.163294
O O14 0.300411 0.797083 0.346550
O O15 0.450103 0.616934 0.374033
O O16 0.372054 0.589046 0.722947
#
# Coordination Sequence:
#
# PCOD8124803 Si02
#       8
#     4   4   4   4   4   4   4   4
#     4   9  18  36  57  82 109 137 180 228 281 315
#     4  10  21  35  55  78 116 148 173 222 279 338
#     4   9  17  35  58  79 105 137 184 236 269 305
#     4  10  20  34  56  83 108 134 184 232 277 321
#     4  11  22  35  54  82 111 148 178 222 282 333
#     4  10  20  35  55  82 110 147 184 223 269 327
#     4  10  20  35  56  79 112 146 183 225 269 325
#     4   9  20  35  58  89 103 138 191 235 273 307
#
# _framework density 17.990946000000001
#
# number of rings (size 3 to 8) (size 9 to 14) (size 15 to 20)
#    0.000    2.250    1.250    1.500    5.250    1.000 
#    0.000    1.250    0.000    1.500    0.000    0.000 
#    0.000    0.000    0.000    0.000    0.000    0.000 
#
# Total GULP energy -396848.238040 kJ/mol
# GULP energy per Si atom -12401.507439 kJ/mol
# Density = 1.795000 g / cm^3
# Si number density = 17.990946 Si / 1000 Ang^3
#
#
#
# Elastic Constant Matrix: (Units=GPa)
#
#
# Indices 1 2 3 4 5 6 
#
# 1 82.7439 31.4155 50.3202 0.0000 4.1055 0.0000
# 2 31.4155 94.8330 35.5344 0.0000 -4.1343 0.0000
# 3 50.3202 35.5344 87.3035 0.0000 -1.6712 0.0000
# 4 0.0000 0.0000 0.0000 24.9494 0.0000 2.1600
# 5 4.1055 -4.1343 -1.6712 0.0000 22.8898 0.0000
# 6 0.0000 0.0000 0.0000 2.1600 0.0000 17.5670
#
#
#
# Elastic Compliance Matrix: (Units=1/GPa)
#
#
# Indices 1 2 3 4 5 6 
#
# 1 0.019646 -0.002879 -0.010243 0.000000 -0.004791 0.000000
# 2 -0.002879 0.012946 -0.003560 0.000000 0.002595 0.000000
# 3 -0.010243 -0.003560 0.018857 0.000000 0.002571 0.000000
# 4 0.000000 0.000000 0.000000 0.040512 0.000000 -0.004981
# 5 -0.004791 0.002595 0.002571 0.000000 0.045203 0.000000
# 6 0.000000 0.000000 0.000000 -0.004981 0.000000 0.057537
#
#
# Mechanical properties :
#
#
# Convention : Reuss Voigt Hill
#
# Bulk Modulus (GPa) = 55.29969 55.49115 55.39542
# Shear Modulus (GPa) = 21.35897 22.92193 22.14045
#
# Velocity S-wave (km/s) = 3.44932 3.57330 3.51186
# Velocity P-wave (km/s) = 6.83140 6.92355 6.87763
#
# Compressibility (1/GPa) = 0.01808328
#
# Stress axis : x y z
#
# Youngs Moduli (GPa) = 50.90185 77.24615 53.03141
#
# Poissons Ratio (x) = 0.22237 0.54322
# Poissons Ratio (y) = 0.14653 0.18881
# Poissons Ratio (z) = 0.52141 0.27502
#
# Static dielectric constant tensor:
#      x y z
#    x 3.185570 0.000000 -0.007070 
#    y 0.000000 3.491550 0.000000 
#    z -0.007070 0.000000 3.190490 
# 
# 
# High freq. dielectric constant tensor:
#      x y z
#    x 1.689430 0.000000 -0.000790 
#    y 0.000000 1.704810 0.000000 
#    z -0.000790 0.000000 1.682480 
# 
# From -- ./inp_files/72979.got.cif
#   From: 2010.03.12/outbox.cif.g09.slc.cpg/sg14_37_cif.got.tgz:72979.got - 2010.03.31 13:35:05.
