data_PCOD8124835
_publ_section_title
;
Structure prediction by ZEFSAII (Michael W. Deem and Ramdas Pophale) SiO2 
 PCOD8124835
Probable space group: P 21/C
;
_chemical_formula_sum "Si O2"
_cell_formula_units_Z 32
_cell_length_a 19.847766
_cell_length_b 8.659792
_cell_length_c 9.227621
_cell_angle_alpha 90.000000
_cell_angle_beta 94.028080
_cell_angle_gamma 90.000000
_cell_volume 1582.102784
_symmetry_space_group_name_H-M "P 21/C"
_symmetry_group_IT_number 14
_symmetry_cell_setting 'monoclinic'
loop_
_space_group_symop_operation_xyz
x,y,z
-x,1/2+y,1/2-z
-x,-y,-z
x,1/2-y,1/2+z
loop_
_atom_site_type_symbol
_atom_site_label
_atom_site_fract_x
_atom_site_fract_y
_atom_site_fract_z
Si Si1 0.948690 0.651037 0.848060
Si Si2 0.810886 0.138074 0.583650
Si Si3 0.332702 0.796870 0.506394
Si Si4 0.522421 0.250705 0.066908
Si Si5 0.314938 0.539741 0.297621
Si Si6 0.072372 0.059801 0.334049
Si Si7 0.168907 0.563152 0.234654
Si Si8 0.548394 0.581889 0.699469
O O1 0.945144 0.828006 0.799991
O O2 0.892258 0.554458 0.751375
O O3 0.022268 0.585828 0.821447
O O4 0.935608 0.651252 0.016983
O O5 0.729545 0.109510 0.579913
O O6 0.836774 0.141768 0.422859
O O7 0.832919 0.303279 0.647280
O O8 0.850799 0.001994 0.673099
O O9 0.407374 0.838941 0.459630
O O10 0.321499 0.616907 0.459058
O O11 0.329004 0.824624 0.678592
O O12 0.478050 0.376109 0.145231
O O13 0.532080 0.096427 0.163597
O O14 0.484084 0.202823 0.915596
O O15 0.240247 0.470658 0.262126
O O16 0.369771 0.402780 0.290127
#
# Coordination Sequence:
#
# PCOD8124835 Si02
#       8
#     4   4   4   4   4   4   4   4
#     4  10  21  36  54  78 111 142 174 215 257 306
#     4   9  18  33  55  80 102 132 176 217 258 309
#     4   9  17  32  54  74 101 135 172 213 259 310
#     4  10  20  35  53  76 102 134 172 216 262 314
#     4   9  18  33  52  76 104 135 173 218 262 312
#     4  10  21  36  54  80 109 140 176 214 256 305
#     4   9  18  34  54  77 105 136 173 218 262 308
#     4  10  21  35  52  75 104 134 174 217 262 313
#
# _framework density 20.226246
#
# number of rings (size 3 to 8) (size 9 to 14) (size 15 to 20)
#    0.000    2.500    0.000    2.250    0.000    3.500 
#    0.000    5.000    0.000    0.000    0.000    0.000 
#    0.000    0.000    0.000    0.000    0.000    0.000 
#
# Total GULP energy -396604.799358 kJ/mol
# GULP energy per Si atom -12393.899980 kJ/mol
# Density = 2.018021 g / cm^3
# Si number density = 20.226246 Si / 1000 Ang^3
#
#
#
# Elastic Constant Matrix: (Units=GPa)
#
#
# Indices 1 2 3 4 5 6 
#
# 1 132.9410 36.2470 32.4506 0.0000 14.7184 0.0000
# 2 36.2470 40.8262 10.7858 0.0000 -0.0591 0.0000
# 3 32.4506 10.7858 36.7133 0.0000 9.1877 0.0000
# 4 0.0000 0.0000 0.0000 22.8087 0.0000 1.3971
# 5 14.7184 -0.0591 9.1877 0.0000 25.3828 0.0000
# 6 0.0000 0.0000 0.0000 1.3971 0.0000 32.0821
#
#
#
# Elastic Compliance Matrix: (Units=1/GPa)
#
#
# Indices 1 2 3 4 5 6 
#
# 1 0.012179 -0.008973 -0.006989 0.000000 -0.004553 0.000000
# 2 -0.008973 0.033401 -0.003522 0.000000 0.006556 0.000000
# 3 -0.006989 -0.003522 0.036769 0.000000 -0.009265 0.000000
# 4 0.000000 0.000000 0.000000 0.043960 0.000000 -0.001914
# 5 -0.004553 0.006556 -0.009265 0.000000 0.045406 0.000000
# 6 0.000000 0.000000 0.000000 -0.001914 0.000000 0.031253
#
#
# Mechanical properties :
#
#
# Convention : Reuss Voigt Hill
#
# Bulk Modulus (GPa) = 23.05210 41.04969 32.05090
# Shear Modulus (GPa) = 19.50110 24.78787 22.14449
#
# Velocity S-wave (km/s) = 3.10844 3.50456 3.31243
# Velocity P-wave (km/s) = 4.93002 6.05931 5.52360
#
# Compressibility (1/GPa) = 0.04337999
#
# Stress axis : x y z
#
# Youngs Moduli (GPa) = 82.11018 29.93962 27.19679
#
# Poissons Ratio (x) = 0.26864 0.19008
# Poissons Ratio (y) = 0.73677 0.09579
# Poissons Ratio (z) = 0.57388 0.10545
#
# Static dielectric constant tensor:
#      x y z
#    x 4.086270 0.000000 0.238870 
#    y 0.000000 3.215200 0.000000 
#    z 0.238870 0.000000 3.668220 
# 
# 
# High freq. dielectric constant tensor:
#      x y z
#    x 1.807970 0.000000 0.015860 
#    y 0.000000 1.744660 0.000000 
#    z 0.015860 0.000000 1.790680 
# 
# From -- ./inp_files/18626.got.cif
#   From: 2010.03.12/outbox.cif.g09.slc.cpg/sg14_10_cif.got.tgz:18626.got - 2010.03.31 13:35:05.
