data_PCOD8124010
_publ_section_title
;
Structure prediction by ZEFSAII (Michael W. Deem and Ramdas Pophale) SiO2 
 PCOD8124010
Probable space group: P 21/C
;
_chemical_formula_sum "Si O2"
_cell_formula_units_Z 32
_cell_length_a 12.621472
_cell_length_b 8.823067
_cell_length_c 23.537503
_cell_angle_alpha 90.000000
_cell_angle_beta 36.026208
_cell_angle_gamma 90.000000
_cell_volume 1541.636379
_symmetry_space_group_name_H-M "P 21/C"
_symmetry_group_IT_number 14
_symmetry_cell_setting 'monoclinic'
loop_
_space_group_symop_operation_xyz
x,y,z
-x,1/2+y,1/2-z
-x,-y,-z
x,1/2-y,1/2+z
loop_
_atom_site_type_symbol
_atom_site_label
_atom_site_fract_x
_atom_site_fract_y
_atom_site_fract_z
Si Si1 0.306661 0.883897 0.821217
Si Si2 0.770650 0.358761 0.231286
Si Si3 0.516680 0.636497 0.335791
Si Si4 0.092144 0.575691 0.070948
Si Si5 0.675631 0.868673 0.599254
Si Si6 0.556943 0.161794 0.401521
Si Si7 0.556544 0.335041 0.028756
Si Si8 0.820419 0.800509 0.138470
O O1 0.225857 0.730143 0.830147
O O2 0.333979 0.868797 0.877284
O O3 0.501434 0.925908 0.709643
O O4 0.165031 0.017807 0.868963
O O5 0.600801 0.470347 0.303300
O O6 0.739509 0.238502 0.296541
O O7 0.955037 0.452229 0.157220
O O8 0.475016 0.692730 0.417035
O O9 0.648441 0.755730 0.249670
O O10 0.995299 0.727471 0.091361
O O11 0.199319 0.511918 0.969871
O O12 0.233622 0.614857 0.059210
O O13 0.607551 0.792774 0.569521
O O14 0.794465 0.753838 0.584679
O O15 0.516604 0.222384 0.482247
O O16 0.571898 0.977567 0.398369
#
# Coordination Sequence:
#
# PCOD8124010 Si02
#       8
#     4   4   4   4   4   4   4   4
#     4  10  19  35  57  82 112 148 185 224 272 336
#     4  10  21  36  56  83 115 142 181 232 284 325
#     4  10  19  33  57  84 108 145 186 224 270 332
#     4  10  21  36  53  82 116 148 179 227 285 330
#     4   9  18  34  58  81 108 144 184 227 275 328
#     4   9  19  38  60  81 104 145 191 228 268 324
#     4  10  21  39  61  79 108 149 193 227 267 328
#     4  10  19  33  56  84 113 143 179 224 283 336
#
# _framework density 20.757166000000002
#
# number of rings (size 3 to 8) (size 9 to 14) (size 15 to 20)
#    0.000    2.250    0.000    4.875    0.000    5.500 
#    0.000   16.250    0.000    0.000    0.000    0.000 
#    0.000    0.000    0.000    0.000    0.000    0.000 
#
# Total GULP energy -396660.967381 kJ/mol
# GULP energy per Si atom -12395.655231 kJ/mol
# Density = 2.070992 g / cm^3
# Si number density = 20.757166 Si / 1000 Ang^3
#
#
#
# Elastic Constant Matrix: (Units=GPa)
#
#
# Indices 1 2 3 4 5 6 
#
# 1 108.7809 39.7171 35.2490 0.0000 23.2563 0.0000
# 2 39.7171 98.2214 26.2976 0.0000 1.2114 0.0000
# 3 35.2490 26.2976 54.3936 0.0000 5.6408 0.0000
# 4 0.0000 0.0000 0.0000 37.9290 0.0000 2.3025
# 5 23.2563 1.2114 5.6408 0.0000 34.2591 0.0000
# 6 0.0000 0.0000 0.0000 2.3025 0.0000 26.3986
#
#
#
# Elastic Compliance Matrix: (Units=1/GPa)
#
#
# Indices 1 2 3 4 5 6 
#
# 1 0.014699 -0.004053 -0.006660 0.000000 -0.008738 0.000000
# 2 -0.004053 0.012822 -0.003877 0.000000 0.002936 0.000000
# 3 -0.006660 -0.003877 0.024510 0.000000 0.000622 0.000000
# 4 0.000000 0.000000 0.000000 0.026505 0.000000 -0.002312
# 5 -0.008738 0.002936 0.000622 0.000000 0.034915 0.000000
# 6 0.000000 0.000000 0.000000 -0.002312 0.000000 0.038082
#
#
# Mechanical properties :
#
#
# Convention : Reuss Voigt Hill
#
# Bulk Modulus (GPa) = 43.76089 51.54705 47.65397
# Shear Modulus (GPa) = 26.54928 30.39282 28.47105
#
# Velocity S-wave (km/s) = 3.58025 3.83065 3.70756
# Velocity P-wave (km/s) = 6.18215 6.66727 6.42929
#
# Compressibility (1/GPa) = 0.02285146
#
# Stress axis : x y z
#
# Youngs Moduli (GPa) = 68.03372 77.99293 40.79946
#
# Poissons Ratio (x) = 0.31609 0.27171
# Poissons Ratio (y) = 0.27572 0.15818
# Poissons Ratio (z) = 0.45308 0.30238
#
# Static dielectric constant tensor:
#      x y z
#    x 3.768990 0.000000 0.075380 
#    y 0.000000 3.677550 0.000000 
#    z 0.075380 0.000000 3.645800 
# 
# 
# High freq. dielectric constant tensor:
#      x y z
#    x 1.800750 0.000000 0.007150 
#    y 0.000000 1.809330 0.000000 
#    z 0.007150 0.000000 1.792210 
# 
# From -- ./inp_files/73086.got.cif
#   From: 2010.03.12/outbox.cif.g09.slc.cpg/sg14_37_cif.got.tgz:73086.got - 2010.03.31 13:35:05.
