data_PCOD8124205
_publ_section_title
;
Structure prediction by ZEFSAII (Michael W. Deem and Ramdas Pophale) SiO2 
 PCOD8124205
Probable space group: P 21/C
;
_chemical_formula_sum "Si O2"
_cell_formula_units_Z 28
_cell_length_a 17.239940
_cell_length_b 11.174923
_cell_length_c 14.739892
_cell_angle_alpha 90.000000
_cell_angle_beta 147.211923
_cell_angle_gamma 90.000000
_cell_volume 1537.799596
_symmetry_space_group_name_H-M "P 21/C"
_symmetry_group_IT_number 14
_symmetry_cell_setting 'monoclinic'
loop_
_space_group_symop_operation_xyz
x,y,z
-x,1/2+y,1/2-z
-x,-y,-z
x,1/2-y,1/2+z
loop_
_atom_site_type_symbol
_atom_site_label
_atom_site_fract_x
_atom_site_fract_y
_atom_site_fract_z
Si Si1 0.851899 0.166021 0.622344
Si Si2 0.833657 0.293109 0.300674
Si Si3 0.708591 0.972044 0.755219
Si Si4 0.279792 0.445135 0.075250
Si Si5 0.663757 0.324412 0.777748
Si Si6 0.448554 0.119529 0.566416
Si Si7 0.886689 0.774655 0.018143
O O1 0.768445 0.192966 0.634990
O O2 0.767684 0.233908 0.458488
O O3 0.844606 0.022629 0.596608
O O4 0.018770 0.204683 0.796666
O O5 0.810856 0.416626 0.332315
O O6 0.750891 0.185384 0.269049
O O7 0.003520 0.262819 0.459549
O O8 0.672839 0.895050 0.629828
O O9 0.786883 0.888569 0.904703
O O10 0.565426 0.016674 0.664241
O O11 0.366428 0.536070 0.228111
O O12 0.386349 0.390657 0.106055
O O13 0.209475 0.342503 0.066808
O O14 0.516177 0.251947 0.625457
#
# Coordination Sequence:
#
# PCOD8124205 Si02
#       7
#     4   4   4   4   4   4   4
#     4   8  20  37  55  86 113 148 186 244 284 335
#     4   9  18  38  60  85 111 149 194 239 290 335
#     4  10  19  35  59  89 104 152 203 239 276 337
#     4  10  21  38  54  87 122 146 192 242 285 349
#     4   9  20  37  60  79 116 155 184 237 293 333
#     4  10  20  35  60  77 118 152 195 237 279 342
#     4  10  21  33  61  85 113 148 189 244 290 338
#
# _framework density 18.207833999999998
#
# number of rings (size 3 to 8) (size 9 to 14) (size 15 to 20)
#    1.714    0.857    1.429    0.429    2.000    4.000 
#    0.000    0.714    0.000    0.000    0.000    0.000 
#    0.000    0.000    0.000    0.000    0.000    0.000 
#
# Total GULP energy -346881.326295 kJ/mol
# GULP energy per Si atom -12388.618796 kJ/mol
# Density = 1.816639 g / cm^3
# Si number density = 18.207834 Si / 1000 Ang^3
#
#
#
# Elastic Constant Matrix: (Units=GPa)
#
#
# Indices 1 2 3 4 5 6 
#
# 1 101.2784 51.8497 20.8869 0.0000 4.6438 0.0000
# 2 51.8497 67.1434 11.5181 0.0000 5.5397 0.0000
# 3 20.8869 11.5181 40.0724 0.0000 -0.3712 0.0000
# 4 0.0000 0.0000 0.0000 32.1351 0.0000 -0.1663
# 5 4.6438 5.5397 -0.3712 0.0000 23.9039 0.0000
# 6 0.0000 0.0000 0.0000 -0.1663 0.0000 23.6114
#
#
#
# Elastic Compliance Matrix: (Units=1/GPa)
#
#
# Indices 1 2 3 4 5 6 
#
# 1 0.017410 -0.012453 -0.005501 0.000000 -0.000582 0.000000
# 2 -0.012453 0.024908 -0.000700 0.000000 -0.003364 0.000000
# 3 -0.005501 -0.000700 0.028038 0.000000 0.001666 0.000000
# 4 0.000000 0.000000 0.000000 0.031120 0.000000 0.000219
# 5 -0.000582 -0.003364 0.001666 0.000000 0.042753 0.000000
# 6 0.000000 0.000000 0.000000 0.000219 0.000000 0.042354
#
#
# Mechanical properties :
#
#
# Convention : Reuss Voigt Hill
#
# Bulk Modulus (GPa) = 30.25741 41.88928 36.07334
# Shear Modulus (GPa) = 21.28517 24.21272 22.74894
#
# Velocity S-wave (km/s) = 3.42279 3.65059 3.53853
# Velocity P-wave (km/s) = 5.68107 6.38946 6.04565
#
# Compressibility (1/GPa) = 0.03304976
#
# Stress axis : x y z
#
# Youngs Moduli (GPa) = 57.43772 40.14855 35.66536
#
# Poissons Ratio (x) = 0.49997 0.19618
# Poissons Ratio (y) = 0.71527 0.02495
# Poissons Ratio (z) = 0.31595 0.02809
#
# Static dielectric constant tensor:
#      x y z
#    x 3.277380 0.000000 -0.020980 
#    y 0.000000 3.090340 0.000000 
#    z -0.020980 0.000000 3.168140 
# 
# 
# High freq. dielectric constant tensor:
#      x y z
#    x 1.702930 0.000000 -0.002360 
#    y 0.000000 1.688540 0.000000 
#    z -0.002360 0.000000 1.686080 
# 
# From -- ./inp_files/32604.got.cif
#   From: 2010.03.12/outbox.cif.g09.slc.cpg/sg14_17_cif.got.tgz:32604.got - 2010.03.31 13:35:05.
