data_PCOD8124265
_publ_section_title
;
Structure prediction by ZEFSAII (Michael W. Deem and Ramdas Pophale) SiO2 
 PCOD8124265
Probable space group: P 21/C
;
_chemical_formula_sum "Si O2"
_cell_formula_units_Z 32
_cell_length_a 8.524145
_cell_length_b 10.789630
_cell_length_c 20.937244
_cell_angle_alpha 90.000000
_cell_angle_beta 62.978712
_cell_angle_gamma 90.000000
_cell_volume 1715.439967
_symmetry_space_group_name_H-M "P 21/C"
_symmetry_group_IT_number 14
_symmetry_cell_setting 'monoclinic'
loop_
_space_group_symop_operation_xyz
x,y,z
-x,1/2+y,1/2-z
-x,-y,-z
x,1/2-y,1/2+z
loop_
_atom_site_type_symbol
_atom_site_label
_atom_site_fract_x
_atom_site_fract_y
_atom_site_fract_z
Si Si1 0.430640 0.656653 0.827043
Si Si2 0.411465 0.625467 0.495006
Si Si3 0.383408 0.922645 0.858719
Si Si4 0.256005 0.532020 0.745246
Si Si5 0.212961 0.091734 0.790443
Si Si6 0.138041 0.974301 0.676841
Si Si7 0.556762 0.891191 0.440516
Si Si8 0.841424 0.201771 0.851001
O O1 0.340755 0.790074 0.835719
O O2 0.321035 0.563858 0.804015
O O3 0.626058 0.675107 0.762861
O O4 0.436292 0.603256 0.898561
O O5 0.500000 0.500000 0.500000
O O6 0.329449 0.593607 0.441868
O O7 0.536410 0.750276 0.472054
O O8 0.252026 0.639898 0.572443
O O9 0.594053 0.948288 0.815645
O O10 0.262830 0.027259 0.848471
O O11 0.220236 0.648068 0.705552
O O12 0.071394 0.466129 0.793097
O O13 0.047661 0.182266 0.826349
O O14 0.176635 0.985242 0.744983
O O15 0.213614 0.844677 0.638536
O O16 0.238732 0.082518 0.617770
O O17 0.500000 0.000000 0.500000
#
# Coordination Sequence:
#
# PCOD8124265 Si02
#       8
#     4   4   4   4   4   4   4   4
#     4   9  19  35  57  81 111 146 186 234 288 335
#     4  11  22  38  58  83 114 158 192 229 287 345
#     4  10  19  36  56  78 116 149 187 232 286 339
#     4  10  20  35  57  86 113 145 188 241 283 336
#     4   9  20  34  54  86 110 145 188 237 286 332
#     4  10  20  36  60  88 110 147 191 239 286 334
#     4  10  20  39  62  81 113 150 189 233 285 342
#     4  11  20  35  58  82 118 147 194 234 280 342
#
# _framework density 18.654105999999999
#
# number of rings (size 3 to 8) (size 9 to 14) (size 15 to 20)
#    0.000    2.000    2.500    1.500    0.000    1.500 
#    2.250    1.875    0.000    0.000    0.000    0.000 
#    0.000    0.000    0.000    0.000    0.000    0.000 
#
# Total GULP energy -396526.281238 kJ/mol
# GULP energy per Si atom -12391.446289 kJ/mol
# Density = 1.861165 g / cm^3
# Si number density = 18.654106 Si / 1000 Ang^3
#
#
#
# Elastic Constant Matrix: (Units=GPa)
#
#
# Indices 1 2 3 4 5 6 
#
# 1 70.8337 16.5840 30.4597 0.0000 4.1738 0.0000
# 2 16.5840 96.8971 35.7029 0.0000 11.6176 0.0000
# 3 30.4597 35.7029 89.1198 0.0000 6.5499 0.0000
# 4 0.0000 0.0000 0.0000 32.5922 0.0000 -1.2927
# 5 4.1738 11.6176 6.5499 0.0000 20.6792 0.0000
# 6 0.0000 0.0000 0.0000 -1.2927 0.0000 16.2782
#
#
#
# Elastic Compliance Matrix: (Units=1/GPa)
#
#
# Indices 1 2 3 4 5 6 
#
# 1 0.016644 -0.000745 -0.005297 0.000000 -0.001263 0.000000
# 2 -0.000745 0.012758 -0.004444 0.000000 -0.005609 0.000000
# 3 -0.005297 -0.004444 0.014896 0.000000 -0.001152 0.000000
# 4 0.000000 0.000000 0.000000 0.030779 0.000000 0.002444
# 5 -0.001263 -0.005609 -0.001152 0.000000 0.052129 0.000000
# 6 0.000000 0.000000 0.000000 0.002444 0.000000 0.061626
#
#
# Mechanical properties :
#
#
# Convention : Reuss Voigt Hill
#
# Bulk Modulus (GPa) = 42.87211 46.92708 44.89960
# Shear Modulus (GPa) = 22.97993 25.51685 24.24839
#
# Velocity S-wave (km/s) = 3.51365 3.70252 3.60932
# Velocity P-wave (km/s) = 6.28439 6.59464 6.44138
#
# Compressibility (1/GPa) = 0.02332519
#
# Stress axis : x y z
#
# Youngs Moduli (GPa) = 60.08002 78.38369 67.13022
#
# Poissons Ratio (x) = 0.05843 0.35561
# Poissons Ratio (y) = 0.04479 0.29832
# Poissons Ratio (z) = 0.31827 0.34833
#
# Static dielectric constant tensor:
#      x y z
#    x 3.353650 0.000000 0.075570 
#    y 0.000000 3.398700 0.000000 
#    z 0.075570 0.000000 3.373240 
# 
# 
# High freq. dielectric constant tensor:
#      x y z
#    x 1.709910 0.000000 0.004690 
#    y 0.000000 1.726410 0.000000 
#    z 0.004690 0.000000 1.729880 
# 
# From -- ./inp_files/65422.got.cif
#   From: 2010.03.12/outbox.cif.g09.slc.cpg/sg14_33_cif.got.tgz:65422.got - 2010.03.31 13:35:05.
