data_PCOD8124955
_publ_section_title
;
Structure prediction by ZEFSAII (Michael W. Deem and Ramdas Pophale) SiO2 
 PCOD8124955
Probable space group: P 21/C
;
_chemical_formula_sum "Si O2"
_cell_formula_units_Z 32
_cell_length_a 17.026067
_cell_length_b 13.327102
_cell_length_c 19.146031
_cell_angle_alpha 90.000000
_cell_angle_beta 22.797785
_cell_angle_gamma 90.000000
_cell_volume 1683.364057
_symmetry_space_group_name_H-M "P 21/C"
_symmetry_group_IT_number 14
_symmetry_cell_setting 'monoclinic'
loop_
_space_group_symop_operation_xyz
x,y,z
-x,1/2+y,1/2-z
-x,-y,-z
x,1/2-y,1/2+z
loop_
_atom_site_type_symbol
_atom_site_label
_atom_site_fract_x
_atom_site_fract_y
_atom_site_fract_z
Si Si1 0.408378 0.106535 0.809701
Si Si2 0.976831 0.630314 0.805822
Si Si3 0.522723 0.424490 0.417594
Si Si4 0.770191 0.703451 0.411715
Si Si5 0.787419 0.721240 0.088585
Si Si6 0.944711 0.112968 0.528363
Si Si7 0.133950 0.908584 0.567208
Si Si8 0.589233 0.077389 0.107968
O O1 0.269334 0.159305 0.863496
O O2 0.640321 0.120737 0.597080
O O3 0.357033 0.988270 0.865900
O O4 0.373431 0.176585 0.906033
O O5 0.832372 0.678241 0.862757
O O6 0.890954 0.526473 0.903483
O O7 0.208454 0.624777 0.590523
O O8 0.956167 0.702930 0.890037
O O9 0.500000 0.500000 0.500000
O O10 0.347144 0.337931 0.561490
O O11 0.735873 0.366307 0.241543
O O12 0.510270 0.492978 0.359210
O O13 0.983235 0.644749 0.244564
O O14 0.578466 0.661791 0.241605
O O15 0.881752 0.688336 0.085461
O O16 0.920530 0.128796 0.465935
O O17 0.000000 0.000000 0.500000
#
# Coordination Sequence:
#
# PCOD8124955 Si02
#       8
#     4   4   4   4   4   4   4   4
#     4  10  20  36  51  79 112 145 189 224 278 335
#     4  11  20  34  55  81 112 149 181 225 277 327
#     4  11  19  32  53  77 119 144 172 224 283 332
#     4  10  22  34  51  82 114 145 190 219 274 339
#     4  11  22  34  53  81 117 142 181 232 279 336
#     4  12  19  32  51  85 111 145 176 219 292 334
#     4  12  19  36  57  77 117 145 179 233 278 333
#     4  11  19  34  52  81 109 144 182 220 281 329
#
# _framework density 19.009554000000001
#
# number of rings (size 3 to 8) (size 9 to 14) (size 15 to 20)
#    0.000    1.000    8.750    2.250    0.000    0.000 
#    0.000    0.000    0.000    0.000    0.000    9.625 
#    0.000    0.000    0.000    0.000    0.000    0.000 
#
# Total GULP energy -396466.894848 kJ/mol
# GULP energy per Si atom -12389.590464 kJ/mol
# Density = 1.896629 g / cm^3
# Si number density = 19.009554 Si / 1000 Ang^3
#
#
#
# Elastic Constant Matrix: (Units=GPa)
#
#
# Indices 1 2 3 4 5 6 
#
# 1 56.6384 27.8588 13.7114 0.0000 -7.9557 0.0000
# 2 27.8588 47.2346 24.6504 0.0000 -5.2527 0.0000
# 3 13.7114 24.6504 128.8946 0.0000 -9.0903 0.0000
# 4 0.0000 0.0000 0.0000 20.3357 0.0000 -8.8242
# 5 -7.9557 -5.2527 -9.0903 0.0000 16.9743 0.0000
# 6 0.0000 0.0000 0.0000 -8.8242 0.0000 38.7920
#
#
#
# Elastic Compliance Matrix: (Units=1/GPa)
#
#
# Indices 1 2 3 4 5 6 
#
# 1 0.025838 -0.014683 0.000616 0.000000 0.007897 0.000000
# 2 -0.014683 0.032287 -0.004566 0.000000 0.000664 0.000000
# 3 0.000616 -0.004566 0.008820 0.000000 0.003599 0.000000
# 4 0.000000 0.000000 0.000000 0.054560 0.000000 0.012411
# 5 0.007897 0.000664 0.003599 0.000000 0.064747 0.000000
# 6 0.000000 0.000000 0.000000 0.012411 0.000000 0.028602
#
#
# Mechanical properties :
#
#
# Convention : Reuss Voigt Hill
#
# Bulk Modulus (GPa) = 33.69226 40.57877 37.13551
# Shear Modulus (GPa) = 19.08315 26.32355 22.70335
#
# Velocity S-wave (km/s) = 3.17183 3.72526 3.45963
# Velocity P-wave (km/s) = 5.58358 6.31635 5.96124
#
# Compressibility (1/GPa) = 0.02968041
#
# Stress axis : x y z
#
# Youngs Moduli (GPa) = 38.70297 30.97183 113.38160
#
# Poissons Ratio (x) = 0.45475 -0.06988
# Poissons Ratio (y) = 0.56826 0.51770
# Poissons Ratio (z) = -0.02385 0.14142
#
# Static dielectric constant tensor:
#      x y z
#    x 3.250290 0.000000 -0.252780 
#    y 0.000000 4.399350 0.000000 
#    z -0.252780 0.000000 3.777490 
# 
# 
# High freq. dielectric constant tensor:
#      x y z
#    x 1.692970 0.000000 0.003580 
#    y 0.000000 1.717280 0.000000 
#    z 0.003580 0.000000 1.767520 
# 
# From -- ./inp_files/69427.got.cif
#   From: 2010.03.12/outbox.cif.g09.slc.cpg/sg14_35_cif.got.tgz:69427.got - 2010.03.31 13:35:05.
