data_PCOD8124790
_publ_section_title
;
Structure prediction by ZEFSAII (Michael W. Deem and Ramdas Pophale) SiO2 
 PCOD8124790
Probable space group: P 21/C
;
_chemical_formula_sum "Si O2"
_cell_formula_units_Z 20
_cell_length_a 5.170554
_cell_length_b 10.321931
_cell_length_c 19.800724
_cell_angle_alpha 90.000000
_cell_angle_beta 71.408795
_cell_angle_gamma 90.000000
_cell_volume 1001.621778
_symmetry_space_group_name_H-M "P 21/C"
_symmetry_group_IT_number 14
_symmetry_cell_setting 'monoclinic'
loop_
_space_group_symop_operation_xyz
x,y,z
-x,1/2+y,1/2-z
-x,-y,-z
x,1/2-y,1/2+z
loop_
_atom_site_type_symbol
_atom_site_label
_atom_site_fract_x
_atom_site_fract_y
_atom_site_fract_z
Si Si1 0.763729 0.134828 0.728115
Si Si2 0.128542 0.766974 0.651034
Si Si3 0.467800 0.372950 0.786201
Si Si4 0.245786 0.669603 0.003683
Si Si5 0.158674 0.388147 0.073269
O O1 0.604416 0.269136 0.722939
O O2 0.869403 0.144625 0.797455
O O3 0.019428 0.115402 0.658043
O O4 0.547961 0.016703 0.743237
O O5 0.833616 0.829503 0.669745
O O6 0.347293 0.874490 0.661009
O O7 0.216888 0.725853 0.567393
O O8 0.184830 0.533710 0.045384
O O9 0.545124 0.677519 0.945962
O O10 0.027297 0.694547 0.963143
#
# Coordination Sequence:
#
# PCOD8124790 Si02
#       5
#     4   4   4   4   4
#     4  10  24  37  62  88 122 153 202 237 300 350
#     4  10  22  36  58  82 123 153 193 240 297 351
#     4  10  23  35  61  86 118 153 198 244 284 353
#     4  10  20  34  54  86 118 149 189 252 300 331
#     4  10  21  32  58  84 120 147 194 248 296 341
#
# _framework density 19.967618000000002
#
# number of rings (size 3 to 8) (size 9 to 14) (size 15 to 20)
#    1.200    0.800    2.000    1.200   11.200    0.000 
#    0.000    0.000    0.000    2.400    0.000    0.000 
#    0.000    0.000    0.000    0.000    0.000    0.000 
#
# Total GULP energy -247780.119758 kJ/mol
# GULP energy per Si atom -12389.005988 kJ/mol
# Density = 1.992217 g / cm^3
# Si number density = 19.967618 Si / 1000 Ang^3
#
#
#
# Elastic Constant Matrix: (Units=GPa)
#
#
# Indices 1 2 3 4 5 6 
#
# 1 127.3739 16.4334 28.4312 0.0000 -18.4660 0.0000
# 2 16.4334 58.5985 41.0824 0.0000 -9.1581 0.0000
# 3 28.4312 41.0824 55.3382 0.0000 -24.0840 0.0000
# 4 0.0000 0.0000 0.0000 23.0626 0.0000 0.9133
# 5 -18.4660 -9.1581 -24.0840 0.0000 28.3338 0.0000
# 6 0.0000 0.0000 0.0000 0.9133 0.0000 12.1630
#
#
#
# Elastic Compliance Matrix: (Units=1/GPa)
#
#
# Indices 1 2 3 4 5 6 
#
# 1 0.009044 0.000644 -0.003918 0.000000 0.002772 0.000000
# 2 0.000644 0.041995 -0.040341 0.000000 -0.020297 0.000000
# 3 -0.003918 -0.040341 0.068638 0.000000 0.042750 0.000000
# 4 0.000000 0.000000 0.000000 0.043489 0.000000 -0.003265
# 5 0.002772 -0.020297 0.042750 0.000000 0.066878 0.000000
# 6 0.000000 0.000000 0.000000 -0.003265 0.000000 0.082462
#
#
# Mechanical properties :
#
#
# Convention : Reuss Voigt Hill
#
# Bulk Modulus (GPa) = 30.81979 45.91163 38.36571
# Shear Modulus (GPa) = 12.17870 23.06946 17.62408
#
# Velocity S-wave (km/s) = 2.47234 3.40272 2.97414
# Velocity P-wave (km/s) = 4.85987 6.20330 5.57222
#
# Compressibility (1/GPa) = 0.03244669
#
# Stress axis : x y z
#
# Youngs Moduli (GPa) = 110.56685 23.81241 14.56916
#
# Poissons Ratio (x) = -0.01533 0.05709
# Poissons Ratio (y) = -0.07120 0.58773
# Poissons Ratio (z) = 0.43324 0.96061
#
# Static dielectric constant tensor:
#      x y z
#    x 3.865390 0.000000 0.059800 
#    y 0.000000 3.332370 0.000000 
#    z 0.059800 0.000000 3.651200 
# 
# 
# High freq. dielectric constant tensor:
#      x y z
#    x 1.801450 0.000000 -0.003220 
#    y 0.000000 1.718040 0.000000 
#    z -0.003220 0.000000 1.775290 
# 
# From -- ./inp_files/52807.got.cif
#   From: 2010.03.12/outbox.cif.g09.slc.cpg/sg14_27_cif.got.tgz:52807.got - 2010.03.31 13:35:05.
