data_PCOD8124594
_publ_section_title
;
Structure prediction by ZEFSAII (Michael W. Deem and Ramdas Pophale) SiO2 
 PCOD8124594
Probable space group: P 21/C
;
_chemical_formula_sum "Si O2"
_cell_formula_units_Z 28
_cell_length_a 20.057947
_cell_length_b 14.679152
_cell_length_c 22.511632
_cell_angle_alpha 90.000000
_cell_angle_beta 11.777504
_cell_angle_gamma 90.000000
_cell_volume 1352.889531
_symmetry_space_group_name_H-M "P 21/C"
_symmetry_group_IT_number 14
_symmetry_cell_setting 'monoclinic'
loop_
_space_group_symop_operation_xyz
x,y,z
-x,1/2+y,1/2-z
-x,-y,-z
x,1/2-y,1/2+z
loop_
_atom_site_type_symbol
_atom_site_label
_atom_site_fract_x
_atom_site_fract_y
_atom_site_fract_z
Si Si1 0.227469 0.695023 0.996575
Si Si2 0.140222 0.173476 0.754439
Si Si3 0.895580 0.027841 0.249293
Si Si4 0.665676 0.647643 0.714812
Si Si5 0.840279 0.246385 0.133004
Si Si6 0.323225 0.076952 0.979250
Si Si7 0.658126 0.455651 0.303522
O O1 0.428217 0.710856 0.882137
O O2 0.387603 0.621902 0.811793
O O3 0.147427 0.793663 0.039066
O O4 0.868028 0.660665 0.325593
O O5 0.126418 0.064553 0.768912
O O6 0.513707 0.188312 0.409641
O O7 0.068079 0.229633 0.877255
O O8 0.546084 0.080179 0.558169
O O9 0.141918 0.088252 0.998943
O O10 0.065809 0.015275 0.165836
O O11 0.925157 0.712439 0.519359
O O12 0.721795 0.347789 0.251099
O O13 0.460468 0.019050 0.915451
O O14 0.500000 0.500000 0.500000
O O15 0.000000 0.500000 0.000000
#
# Coordination Sequence:
#
# PCOD8124594 Si02
#       7
#     4   4   4   4   4   4   4
#     4  10  19  39  64  81 120 170 208 250 310 379
#     4  12  22  39  66  92 123 167 218 247 320 387
#     4  10  23  39  64  94 121 169 214 262 303 373
#     4  10  23  41  60  91 131 164 207 266 318 369
#     4  12  25  41  63  93 129 168 205 260 328 376
#     4  10  20  41  61  86 121 162 209 254 316 364
#     4  12  24  40  64  93 124 164 207 263 321 375
#
# _framework density 20.696442000000001
#
# number of rings (size 3 to 8) (size 9 to 14) (size 15 to 20)
#    0.000    1.143    2.857    3.429    0.000    4.571 
#    0.000    4.286    0.000    0.000    0.000    0.000 
#    0.000    0.000    0.000    0.000    0.000    0.000 
#
# Total GULP energy -346947.379238 kJ/mol
# GULP energy per Si atom -12390.977830 kJ/mol
# Density = 2.064934 g / cm^3
# Si number density = 20.696442 Si / 1000 Ang^3
#
#
#
# Elastic Constant Matrix: (Units=GPa)
#
#
# Indices 1 2 3 4 5 6 
#
# 1 85.1945 39.2830 28.3608 0.0000 -2.2695 0.0000
# 2 39.2830 75.5432 24.5344 0.0000 -10.9259 0.0000
# 3 28.3608 24.5344 100.0670 0.0000 -6.2724 0.0000
# 4 0.0000 0.0000 0.0000 31.5023 0.0000 -2.8143
# 5 -2.2695 -10.9259 -6.2724 0.0000 40.4476 0.0000
# 6 0.0000 0.0000 0.0000 -2.8143 0.0000 31.2808
#
#
#
# Elastic Compliance Matrix: (Units=1/GPa)
#
#
# Indices 1 2 3 4 5 6 
#
# 1 0.016198 -0.007750 -0.002792 0.000000 -0.001618 0.000000
# 2 -0.007750 0.018561 -0.002088 0.000000 0.004255 0.000000
# 3 -0.002792 -0.002088 0.011362 0.000000 0.001041 0.000000
# 4 0.000000 0.000000 0.000000 0.032001 0.000000 0.002879
# 5 -0.001618 0.004255 0.001041 0.000000 0.025944 0.000000
# 6 0.000000 0.000000 0.000000 0.002879 0.000000 0.032228
#
#
# Mechanical properties :
#
#
# Convention : Reuss Voigt Hill
#
# Bulk Modulus (GPa) = 47.93591 49.46235 48.69913
# Shear Modulus (GPa) = 29.67262 31.88789 30.78026
#
# Velocity S-wave (km/s) = 3.79054 3.92949 3.86064
# Velocity P-wave (km/s) = 6.50917 6.67373 6.59196
#
# Compressibility (1/GPa) = 0.02086119
#
# Stress axis : x y z
#
# Youngs Moduli (GPa) = 61.73693 53.87634 88.01512
#
# Poissons Ratio (x) = 0.41755 0.24573
# Poissons Ratio (y) = 0.47847 0.18373
# Poissons Ratio (z) = 0.17237 0.11247
#
# Static dielectric constant tensor:
#      x y z
#    x 4.194450 0.000000 -0.147530 
#    y 0.000000 3.428940 0.000000 
#    z -0.147530 0.000000 3.963810 
# 
# 
# High freq. dielectric constant tensor:
#      x y z
#    x 1.821390 0.000000 -0.001920 
#    y 0.000000 1.785360 0.000000 
#    z -0.001920 0.000000 1.836150 
# 
# From -- ./inp_files/70304.got.cif
#   From: 2010.03.12/outbox.cif.g09.slc.cpg/sg14_36_cif.got.tgz:70304.got - 2010.03.31 13:35:05.
