data_PCOD8124840
_publ_section_title
;
Structure prediction by ZEFSAII (Michael W. Deem and Ramdas Pophale) SiO2 
 PCOD8124840
Probable space group: P 21/C
;
_chemical_formula_sum "Si O2"
_cell_formula_units_Z 24
_cell_length_a 7.457297
_cell_length_b 15.639318
_cell_length_c 8.441970
_cell_angle_alpha 90.000000
_cell_angle_beta 53.957828
_cell_angle_gamma 90.000000
_cell_volume 796.101192
_symmetry_space_group_name_H-M "P 21/C"
_symmetry_group_IT_number 14
_symmetry_cell_setting 'monoclinic'
loop_
_space_group_symop_operation_xyz
x,y,z
-x,1/2+y,1/2-z
-x,-y,-z
x,1/2-y,1/2+z
loop_
_atom_site_type_symbol
_atom_site_label
_atom_site_fract_x
_atom_site_fract_y
_atom_site_fract_z
Si Si1 0.773943 0.252782 0.955296
Si Si2 0.269767 0.601802 0.727526
Si Si3 0.051777 0.623861 0.376137
Si Si4 0.397789 0.977975 0.847015
Si Si5 0.779606 0.645496 0.047345
Si Si6 0.327564 0.176667 0.761108
O O1 0.666499 0.197150 0.868647
O O2 0.891469 0.183703 0.002456
O O3 0.935548 0.324890 0.794968
O O4 0.591227 0.306068 0.149161
O O5 0.463082 0.567636 0.751464
O O6 0.279636 0.531371 0.580539
O O7 0.025308 0.602970 0.933141
O O8 0.217490 0.542205 0.299618
O O9 0.791673 0.603430 0.556915
O O10 0.593385 0.907248 0.734599
O O11 0.799613 0.737149 0.119955
O O12 0.716766 0.654691 0.896510
#
# Coordination Sequence:
#
# PCOD8124840 Si02
#       6
#     4   4   4   4   4   4
#     4  11  20  35  56  83 110 143 182 229 277 322
#     4  10  20  35  54  83 115 143 183 232 279 323
#     4  11  20  35  56  83 110 143 182 229 277 322
#     4  10  20  35  54  83 115 143 183 232 279 323
#     4  12  21  34  58  88 111 146 184 232 275 330
#     4  12  20  34  54  86 114 140 190 224 278 324
#
# _framework density 30.146920000000001
#
# number of rings (size 3 to 8) (size 9 to 14) (size 15 to 20)
#    0.000    1.000   10.000    0.500    0.000    0.000 
#    0.000    0.000    0.000    1.000    0.000    8.167 
#    0.000    0.000    0.000    0.000    0.000    0.000 
#
# Total GULP energy -297448.530449 kJ/mol
# GULP energy per Si atom -12393.688769 kJ/mol
# Density = 3.007830 g / cm^3
# Si number density = 30.146920 Si / 1000 Ang^3
#
#
#
# Elastic Constant Matrix: (Units=GPa)
#
#
# Indices 1 2 3 4 5 6 
#
# 1 112.2835 -15.8602 12.2065 0.0000 -27.3355 0.0000
# 2 -15.8602 76.6759 -2.9508 0.0000 8.2475 0.0000
# 3 12.2065 -2.9508 107.4031 0.0000 -21.5082 0.0000
# 4 0.0000 0.0000 0.0000 45.2454 0.0000 5.8688
# 5 -27.3355 8.2475 -21.5082 0.0000 67.1564 0.0000
# 6 0.0000 0.0000 0.0000 5.8688 0.0000 42.7927
#
#
#
# Elastic Compliance Matrix: (Units=1/GPa)
#
#
# Indices 1 2 3 4 5 6 
#
# 1 0.010103 0.001668 -0.000342 0.000000 0.003798 0.000000
# 2 0.001668 0.013492 -0.000016 0.000000 -0.000983 0.000000
# 3 -0.000342 -0.000016 0.009960 0.000000 0.003053 0.000000
# 4 0.000000 0.000000 0.000000 0.022502 0.000000 -0.003086
# 5 0.003798 -0.000983 0.003053 0.000000 0.017535 0.000000
# 6 0.000000 0.000000 0.000000 -0.003086 0.000000 0.023792
#
#
# Mechanical properties :
#
#
# Convention : Reuss Voigt Hill
#
# Bulk Modulus (GPa) = 27.64170 31.46152 29.55161
# Shear Modulus (GPa) = 46.80649 51.23669 49.02159
#
# Velocity S-wave (km/s) = 3.94460 4.12705 4.03685
# Velocity P-wave (km/s) = 5.47132 5.75924 5.61712
#
# Compressibility (1/GPa) = 0.03617722
#
# Stress axis : x y z
#
# Youngs Moduli (GPa) = 98.97566 74.11750 100.39671
#
# Poissons Ratio (x) = -0.12364 0.03432
# Poissons Ratio (y) = -0.16511 0.00158
# Poissons Ratio (z) = 0.03383 0.00117
#
# Static dielectric constant tensor:
#      x y z
#    x 6.053800 0.000000 -0.497040 
#    y 0.000000 6.232400 0.000000 
#    z -0.497040 0.000000 5.851210 
# 
# 
# High freq. dielectric constant tensor:
#      x y z
#    x 2.265080 0.000000 -0.020400 
#    y 0.000000 2.260240 0.000000 
#    z -0.020400 0.000000 2.245730 
# 
# From -- ./inp_files/10136.got.cif
#   From: 2010.03.12/outbox.cif.g09.slc.cpg/sg14_6_cif.got.tgz:10136.got - 2010.03.31 13:35:05.
