data_PCOD8124562
_publ_section_title
;
Structure prediction by ZEFSAII (Michael W. Deem and Ramdas Pophale) SiO2 
 PCOD8124562
Probable space group: P 21/C
;
_chemical_formula_sum "Si O2"
_cell_formula_units_Z 32
_cell_length_a 10.600091
_cell_length_b 15.094172
_cell_length_c 9.129278
_cell_angle_alpha 90.000000
_cell_angle_beta 71.571020
_cell_angle_gamma 90.000000
_cell_volume 1385.771590
_symmetry_space_group_name_H-M "P 21/C"
_symmetry_group_IT_number 14
_symmetry_cell_setting 'monoclinic'
loop_
_space_group_symop_operation_xyz
x,y,z
-x,1/2+y,1/2-z
-x,-y,-z
x,1/2-y,1/2+z
loop_
_atom_site_type_symbol
_atom_site_label
_atom_site_fract_x
_atom_site_fract_y
_atom_site_fract_z
Si Si1 0.170883 0.358555 0.741094
Si Si2 0.914237 0.430688 0.938780
Si Si3 0.291544 0.814188 0.337746
Si Si4 0.767555 0.591172 0.976909
Si Si5 0.534809 0.920458 0.378142
Si Si6 0.773788 0.151870 0.963039
Si Si7 0.251613 0.450168 0.430229
Si Si8 0.076211 0.169549 0.799219
O O1 0.253356 0.381279 0.565824
O O2 0.165447 0.256626 0.791791
O O3 0.016313 0.391218 0.780576
O O4 0.250980 0.407479 0.842061
O O5 0.791805 0.488166 0.915906
O O6 0.849811 0.353806 0.060322
O O7 0.000000 0.500000 0.000000
O O8 0.411124 0.860432 0.381339
O O9 0.291745 0.709849 0.381991
O O10 0.306589 0.827796 0.157760
O O11 0.643262 0.633796 0.934965
O O12 0.900896 0.645851 0.881639
O O13 0.605175 0.951841 0.201389
O O14 0.500000 0.000000 0.500000
O O15 0.923700 0.185780 0.887920
O O16 0.776600 0.048679 0.001035
O O17 0.135143 0.413970 0.367821
#
# Coordination Sequence:
#
# PCOD8124562 Si02
#       8
#     4   4   4   4   4   4   4   4
#     4  11  21  41  72 111 148 183 242 310 379 448
#     4  10  19  38  72 102 140 182 237 302 380 437
#     4  12  27  48  73 110 146 205 254 308 380 447
#     4  10  21  41  69 100 137 193 237 298 374 445
#     4  11  26  51  73  97 142 198 262 305 370 450
#     4  12  27  47  74 112 156 192 253 316 387 454
#     4  11  27  47  74 113 151 199 250 313 384 451
#     4  11  23  42  72 112 150 189 242 309 386 454
#
# _framework density 23.091829000000001
#
# number of rings (size 3 to 8) (size 9 to 14) (size 15 to 20)
#    0.000    1.000    2.500    4.875    3.500    1.500 
#    9.000    0.000    0.000    0.000    0.000    0.000 
#    0.000    0.000    0.000    0.000    0.000    0.000 
#
# Total GULP energy -396484.493302 kJ/mol
# GULP energy per Si atom -12390.140416 kJ/mol
# Density = 2.303927 g / cm^3
# Si number density = 23.091829 Si / 1000 Ang^3
#
#
#
# Elastic Constant Matrix: (Units=GPa)
#
#
# Indices 1 2 3 4 5 6 
#
# 1 93.0807 32.7890 30.5239 0.0000 8.5963 0.0000
# 2 32.7890 122.5710 33.9523 0.0000 6.3568 0.0000
# 3 30.5239 33.9523 130.3402 0.0000 -0.2720 0.0000
# 4 0.0000 0.0000 0.0000 40.8219 0.0000 -3.7145
# 5 8.5963 6.3568 -0.2720 0.0000 31.0761 0.0000
# 6 0.0000 0.0000 0.0000 -3.7145 0.0000 27.9439
#
#
#
# Elastic Compliance Matrix: (Units=1/GPa)
#
#
# Indices 1 2 3 4 5 6 
#
# 1 0.012691 -0.002602 -0.002301 0.000000 -0.002999 0.000000
# 2 -0.002602 0.009431 -0.001850 0.000000 -0.001225 0.000000
# 3 -0.002301 -0.001850 0.008695 0.000000 0.001091 0.000000
# 4 0.000000 0.000000 0.000000 0.024797 0.000000 0.003296
# 5 -0.002999 -0.001225 0.001091 0.000000 0.033269 0.000000
# 6 0.000000 0.000000 0.000000 0.003296 0.000000 0.036224
#
#
# Mechanical properties :
#
#
# Convention : Reuss Voigt Hill
#
# Bulk Modulus (GPa) = 57.76344 60.05802 58.91073
# Shear Modulus (GPa) = 34.63028 36.55016 35.59022
#
# Velocity S-wave (km/s) = 3.87677 3.98278 3.93013
# Velocity P-wave (km/s) = 6.71625 6.87131 6.79422
#
# Compressibility (1/GPa) = 0.01731199
#
# Stress axis : x y z
#
# Youngs Moduli (GPa) = 78.79343 106.03774 115.00742
#
# Poissons Ratio (x) = 0.27594 0.26458
# Poissons Ratio (y) = 0.20505 0.21273
# Poissons Ratio (z) = 0.18127 0.19614
#
# Static dielectric constant tensor:
#      x y z
#    x 4.403710 0.000000 -0.120380 
#    y 0.000000 4.374140 0.000000 
#    z -0.120380 0.000000 4.319050 
# 
# 
# High freq. dielectric constant tensor:
#      x y z
#    x 1.899500 0.000000 -0.000050 
#    y 0.000000 1.916550 0.000000 
#    z -0.000050 0.000000 1.915560 
# 
# From -- ./inp_files/13301.got.cif
#   From: 2010.03.12/outbox.cif.g09.slc.cpg/sg14_7_cif.got.tgz:13301.got - 2010.03.31 13:35:05.
