data_PCOD8124650
_publ_section_title
;
Structure prediction by ZEFSAII (Michael W. Deem and Ramdas Pophale) SiO2 
 PCOD8124650
Probable space group: P 21/C
;
_chemical_formula_sum "Si O2"
_cell_formula_units_Z 32
_cell_length_a 10.847149
_cell_length_b 15.677663
_cell_length_c 9.653788
_cell_angle_alpha 90.000000
_cell_angle_beta 73.913720
_cell_angle_gamma 90.000000
_cell_volume 1577.423342
_symmetry_space_group_name_H-M "P 21/C"
_symmetry_group_IT_number 14
_symmetry_cell_setting 'monoclinic'
loop_
_space_group_symop_operation_xyz
x,y,z
-x,1/2+y,1/2-z
-x,-y,-z
x,1/2-y,1/2+z
loop_
_atom_site_type_symbol
_atom_site_label
_atom_site_fract_x
_atom_site_fract_y
_atom_site_fract_z
Si Si1 0.599449 0.330208 0.403484
Si Si2 0.784496 0.092704 0.636679
Si Si3 0.144201 0.258368 0.351834
Si Si4 0.746819 0.338678 0.850076
Si Si5 0.971109 0.232926 0.653695
Si Si6 0.284361 0.411858 0.755772
Si Si7 0.583050 0.064210 0.177487
Si Si8 0.668555 0.617073 0.567260
O O1 0.655705 0.368795 0.244299
O O2 0.660110 0.240328 0.425672
O O3 0.628319 0.395327 0.518821
O O4 0.447278 0.317528 0.430515
O O5 0.785634 0.107870 0.472342
O O6 0.903980 0.140467 0.671926
O O7 0.795090 0.992084 0.660792
O O8 0.225740 0.172193 0.343943
O O9 0.230947 0.339163 0.362426
O O10 0.017313 0.256661 0.485731
O O11 0.096877 0.271336 0.210095
O O12 0.874149 0.306784 0.732482
O O13 0.665365 0.398601 0.776120
O O14 0.433322 0.418667 0.751171
O O15 0.263412 0.409323 0.597062
O O16 0.608136 0.963895 0.163020
#
# Coordination Sequence:
#
# PCOD8124650 Si02
#       8
#     4   4   4   4   4   4   4   4
#     4  10  19  40  68  94 130 177 208 265 340 389
#     4  11  22  42  69  94 133 174 212 282 325 384
#     4  12  25  45  67  93 135 177 228 270 322 398
#     4  11  24  39  67  99 132 168 226 273 324 392
#     4  11  25  46  63  96 131 178 226 268 323 392
#     4  11  23  44  69  99 134 171 218 276 340 389
#     4  11  22  42  68 103 131 167 221 272 335 404
#     4  11  22  43  67  98 136 171 219 271 333 398
#
# _framework density 20.286249000000002
#
# number of rings (size 3 to 8) (size 9 to 14) (size 15 to 20)
#    0.000    1.000    5.000    3.000    1.750    3.000 
#    4.500    1.250    0.000    0.000    0.000    0.000 
#    0.000    0.000    0.000    0.000    0.000    0.000 
#
# Total GULP energy -396981.299539 kJ/mol
# GULP energy per Si atom -12405.665611 kJ/mol
# Density = 2.024008 g / cm^3
# Si number density = 20.286249 Si / 1000 Ang^3
#
#
#
# Elastic Constant Matrix: (Units=GPa)
#
#
# Indices 1 2 3 4 5 6 
#
# 1 91.1918 52.3106 26.1600 0.0000 7.1737 0.0000
# 2 52.3106 102.5413 29.7693 0.0000 -0.4202 0.0000
# 3 26.1600 29.7693 74.6953 0.0000 -2.7053 0.0000
# 4 0.0000 0.0000 0.0000 32.2019 0.0000 1.2802
# 5 7.1737 -0.4202 -2.7053 0.0000 32.7469 0.0000
# 6 0.0000 0.0000 0.0000 1.2802 0.0000 32.1463
#
#
#
# Elastic Compliance Matrix: (Units=1/GPa)
#
#
# Indices 1 2 3 4 5 6 
#
# 1 0.016444 -0.007567 -0.002886 0.000000 -0.003938 0.000000
# 2 -0.007567 0.014512 -0.003076 0.000000 0.001590 0.000000
# 3 -0.002886 -0.003076 0.015693 0.000000 0.001889 0.000000
# 4 0.000000 0.000000 0.000000 0.031103 0.000000 -0.001239
# 5 -0.003938 0.001590 0.001889 0.000000 0.031576 0.000000
# 6 0.000000 0.000000 0.000000 -0.001239 0.000000 0.031157
#
#
# Mechanical properties :
#
#
# Convention : Reuss Voigt Hill
#
# Bulk Modulus (GPa) = 51.04382 53.87868 52.46125
# Shear Modulus (GPa) = 28.72335 30.09826 29.41081
#
# Velocity S-wave (km/s) = 3.76693 3.85603 3.81174
# Velocity P-wave (km/s) = 6.64350 6.81485 6.72972
#
# Compressibility (1/GPa) = 0.01959101
#
# Stress axis : x y z
#
# Youngs Moduli (GPa) = 60.81103 68.90834 63.72375
#
# Poissons Ratio (x) = 0.52145 0.18390
# Poissons Ratio (y) = 0.46017 0.19601
# Poissons Ratio (z) = 0.17550 0.21195
#
# Static dielectric constant tensor:
#      x y z
#    x 3.651220 0.000000 -0.065090 
#    y 0.000000 3.709350 0.000000 
#    z -0.065090 0.000000 3.679460 
# 
# 
# High freq. dielectric constant tensor:
#      x y z
#    x 1.793110 0.000000 -0.002880 
#    y 0.000000 1.791010 0.000000 
#    z -0.002880 0.000000 1.796230 
# 
# From -- ./inp_files/13309.got.cif
#   From: 2010.03.12/outbox.cif.g09.slc.cpg/sg14_7_cif.got.tgz:13309.got - 2010.03.31 13:35:05.
