data_PCOD8124893
_publ_section_title
;
Structure prediction by ZEFSAII (Michael W. Deem and Ramdas Pophale) SiO2 
 PCOD8124893
Probable space group: P 21/C
;
_chemical_formula_sum "Si O2"
_cell_formula_units_Z 32
_cell_length_a 16.276162
_cell_length_b 11.602420
_cell_length_c 25.181626
_cell_angle_alpha 90.000000
_cell_angle_beta 159.537011
_cell_angle_gamma 90.000000
_cell_volume 1662.488222
_symmetry_space_group_name_H-M "P 21/C"
_symmetry_group_IT_number 14
_symmetry_cell_setting 'monoclinic'
loop_
_space_group_symop_operation_xyz
x,y,z
-x,1/2+y,1/2-z
-x,-y,-z
x,1/2-y,1/2+z
loop_
_atom_site_type_symbol
_atom_site_label
_atom_site_fract_x
_atom_site_fract_y
_atom_site_fract_z
Si Si1 0.428470 0.628178 0.816948
Si Si2 0.707089 0.691457 0.206885
Si Si3 0.199013 0.814913 0.358794
Si Si4 0.461177 0.104537 0.285470
Si Si5 0.030280 0.885727 0.370400
Si Si6 0.687974 0.690719 0.417557
Si Si7 0.058166 0.366551 0.865968
Si Si8 0.071264 0.956483 0.185224
O O1 0.384649 0.529979 0.745033
O O2 0.452634 0.756214 0.803992
O O3 0.225536 0.621808 0.737760
O O4 0.679797 0.599274 0.998182
O O5 0.639499 0.676318 0.226738
O O6 0.886223 0.591349 0.297058
O O7 0.830367 0.814020 0.278232
O O8 0.479520 0.692312 0.031709
O O9 0.082041 0.830046 0.344853
O O10 0.096365 0.698012 0.271405
O O11 0.136911 0.924723 0.285008
O O12 0.742113 0.113971 0.453946
O O13 0.355196 0.164872 0.169687
O O14 0.928640 0.015359 0.303136
O O15 0.894397 0.786592 0.552968
O O16 0.793865 0.573353 0.507913
#
# Coordination Sequence:
#
# PCOD8124893 Si02
#       8
#     4   4   4   4   4   4   4   4
#     4   8  18  35  57  78 112 144 176 238 271 319
#     4  10  22  34  56  85 110 148 184 238 271 330
#     4  10  21  34  57  81 111 148 189 230 278 336
#     4   9  19  38  55  82 109 146 191 224 279 329
#     4  10  21  36  57  78 120 147 181 237 281 322
#     4   9  19  35  61  80 109 145 186 232 282 332
#     4   8  19  38  53  79 111 149 181 224 284 332
#     4  10  20  35  58  88 107 139 200 228 274 336
#
# _framework density 19.248256999999999
#
# number of rings (size 3 to 8) (size 9 to 14) (size 15 to 20)
#    0.750    2.000    0.000    1.125    3.500    4.500 
#    0.000    0.625   16.500    0.000    0.000    0.000 
#    0.000    0.000    0.000    0.000    0.000    0.000 
#
# Total GULP energy -396479.575248 kJ/mol
# GULP energy per Si atom -12389.986727 kJ/mol
# Density = 1.920445 g / cm^3
# Si number density = 19.248257 Si / 1000 Ang^3
#
#
#
# Elastic Constant Matrix: (Units=GPa)
#
#
# Indices 1 2 3 4 5 6 
#
# 1 30.5296 6.3337 26.8033 0.0000 -9.1230 0.0000
# 2 6.3337 88.5221 32.4719 0.0000 -10.0712 0.0000
# 3 26.8033 32.4719 66.4913 0.0000 -29.4792 0.0000
# 4 0.0000 0.0000 0.0000 25.2789 0.0000 6.1038
# 5 -9.1230 -10.0712 -29.4792 0.0000 22.9466 0.0000
# 6 0.0000 0.0000 0.0000 6.1038 0.0000 28.3409
#
#
#
# Elastic Compliance Matrix: (Units=1/GPa)
#
#
# Indices 1 2 3 4 5 6 
#
# 1 0.055380 0.006233 -0.033440 0.000000 -0.018207 0.000000
# 2 0.006233 0.014832 -0.013408 0.000000 -0.008237 0.000000
# 3 -0.033440 -0.013408 0.061716 0.000000 0.060106 0.000000
# 4 0.000000 0.000000 0.000000 0.041729 0.000000 -0.008987
# 5 -0.018207 -0.008237 0.060106 0.000000 0.109942 0.000000
# 6 0.000000 0.000000 0.000000 -0.008987 0.000000 0.037220
#
#
# Mechanical properties :
#
#
# Convention : Reuss Voigt Hill
#
# Bulk Modulus (GPa) = 19.72510 35.19565 27.46038
# Shear Modulus (GPa) = 11.93466 23.30888 17.62177
#
# Velocity S-wave (km/s) = 2.49276 3.48366 3.02900
# Velocity P-wave (km/s) = 4.30756 5.87418 5.15078
#
# Compressibility (1/GPa) = 0.05069683
#
# Stress axis : x y z
#
# Youngs Moduli (GPa) = 18.05710 67.42277 16.20338
#
# Poissons Ratio (x) = -0.42023 0.54184
# Poissons Ratio (y) = -0.11255 0.21725
# Poissons Ratio (z) = 0.60383 0.90399
#
# Static dielectric constant tensor:
#      x y z
#    x 3.183190 0.000000 -0.003760 
#    y 0.000000 3.552620 0.000000 
#    z -0.003760 0.000000 3.490520 
# 
# 
# High freq. dielectric constant tensor:
#      x y z
#    x 1.723200 0.000000 -0.008400 
#    y 0.000000 1.749200 0.000000 
#    z -0.008400 0.000000 1.742340 
# 
# From -- ./inp_files/77824.got.cif
#   From: 2010.03.12/outbox.cif.g09.slc.cpg/sg14_39_cif.got.tgz:77824.got - 2010.03.31 13:35:05.
