data_PCOD8124213
_publ_section_title
;
Structure prediction by ZEFSAII (Michael W. Deem and Ramdas Pophale) SiO2 
 PCOD8124213
Probable space group: P 21/C
;
_chemical_formula_sum "Si O2"
_cell_formula_units_Z 20
_cell_length_a 10.894252
_cell_length_b 17.679219
_cell_length_c 7.333214
_cell_angle_alpha 90.000000
_cell_angle_beta 136.439265
_cell_angle_gamma 90.000000
_cell_volume 973.311069
_symmetry_space_group_name_H-M "P 21/C"
_symmetry_group_IT_number 14
_symmetry_cell_setting 'monoclinic'
loop_
_space_group_symop_operation_xyz
x,y,z
-x,1/2+y,1/2-z
-x,-y,-z
x,1/2-y,1/2+z
loop_
_atom_site_type_symbol
_atom_site_label
_atom_site_fract_x
_atom_site_fract_y
_atom_site_fract_z
Si Si1 0.640198 0.313104 0.054432
Si Si2 0.549084 0.906772 0.915313
Si Si3 0.842155 0.005551 0.085060
Si Si4 0.362220 0.648879 0.548626
Si Si5 0.215437 0.539089 0.880958
O O1 0.563387 0.332799 0.171519
O O2 0.804569 0.370259 0.183511
O O3 0.478821 0.331395 0.739268
O O4 0.709096 0.227046 0.118051
O O5 0.401046 0.970715 0.693145
O O6 0.743129 0.941791 0.097351
O O7 0.521775 0.884504 0.097111
O O8 0.800125 0.089017 0.118347
O O9 0.778971 0.995415 0.806456
O O10 0.052988 0.990579 0.329700
#
# Coordination Sequence:
#
# PCOD8124213 Si02
#       5
#     4   4   4   4   4
#     4   9  19  35  58  76 114 149 182 224 288 320
#     4  10  20  35  60  78 114 143 183 229 272 326
#     4  10  19  35  60  86 110 143 188 227 272 331
#     4  11  19  34  60  81 107 154 183 227 279 330
#     4   8  19  35  58  82 113 142 180 227 275 325
#
# _framework density 20.548417000000001
#
# number of rings (size 3 to 8) (size 9 to 14) (size 15 to 20)
#    1.200    1.200    2.000    1.200    0.000    0.800 
#    0.000    0.000   22.000    0.000    0.000    0.000 
#    0.000    0.000    0.000    0.000    0.000    0.000 
#
# Total GULP energy -247774.025357 kJ/mol
# GULP energy per Si atom -12388.701268 kJ/mol
# Density = 2.050165 g / cm^3
# Si number density = 20.548417 Si / 1000 Ang^3
#
#
#
# Elastic Constant Matrix: (Units=GPa)
#
#
# Indices 1 2 3 4 5 6 
#
# 1 143.7363 58.0028 23.1711 0.0000 -1.7678 0.0000
# 2 58.0028 110.2010 4.3976 0.0000 4.6127 0.0000
# 3 23.1711 4.3976 26.0589 0.0000 -0.5241 0.0000
# 4 0.0000 0.0000 0.0000 17.7333 0.0000 -6.6753
# 5 -1.7678 4.6127 -0.5241 0.0000 29.0408 0.0000
# 6 0.0000 0.0000 0.0000 -6.6753 0.0000 32.5779
#
#
#
# Elastic Compliance Matrix: (Units=1/GPa)
#
#
# Indices 1 2 3 4 5 6 
#
# 1 0.010423 -0.005207 -0.008363 0.000000 0.001311 0.000000
# 2 -0.005207 0.011801 0.002595 0.000000 -0.002145 0.000000
# 3 -0.008363 0.002595 0.045370 0.000000 -0.000102 0.000000
# 4 0.000000 0.000000 0.000000 0.061104 0.000000 0.012520
# 5 0.001311 -0.002145 -0.000102 0.000000 0.034853 0.000000
# 6 0.000000 0.000000 0.000000 0.012520 0.000000 0.033261
#
#
# Mechanical properties :
#
#
# Convention : Reuss Voigt Hill
#
# Bulk Modulus (GPa) = 21.90784 50.12659 36.01721
# Shear Modulus (GPa) = 21.36971 28.83204 25.10088
#
# Velocity S-wave (km/s) = 3.22835 3.74990 3.49886
# Velocity P-wave (km/s) = 4.95793 6.57239 5.82140
#
# Compressibility (1/GPa) = 0.04564576
#
# Stress axis : x y z
#
# Youngs Moduli (GPa) = 95.94564 84.73774 22.04078
#
# Poissons Ratio (x) = 0.44122 0.18432
# Poissons Ratio (y) = 0.49958 -0.05720
# Poissons Ratio (z) = 0.80235 -0.21992
#
# Static dielectric constant tensor:
#      x y z
#    x 3.830100 0.000000 -0.355010 
#    y 0.000000 3.769620 0.000000 
#    z -0.355010 0.000000 3.182180 
# 
# 
# High freq. dielectric constant tensor:
#      x y z
#    x 1.814690 0.000000 -0.038450 
#    y 0.000000 1.798650 0.000000 
#    z -0.038450 0.000000 1.751950 
# 
# From -- ./inp_files/8768.got.cif
#   From: 2010.03.12/outbox.cif.g09.slc.cpg/sg14_5_cif.got.tgz:8768.got - 2010.03.31 13:35:05.
