data_PCOD8124794
_publ_section_title
;
Structure prediction by ZEFSAII (Michael W. Deem and Ramdas Pophale) SiO2 
 PCOD8124794
Probable space group: P 21/C
;
_chemical_formula_sum "Si O2"
_cell_formula_units_Z 32
_cell_length_a 21.122633
_cell_length_b 14.484091
_cell_length_c 9.387094
_cell_angle_alpha 90.000000
_cell_angle_beta 143.293539
_cell_angle_gamma 90.000000
_cell_volume 1716.583856
_symmetry_space_group_name_H-M "P 21/C"
_symmetry_group_IT_number 14
_symmetry_cell_setting 'monoclinic'
loop_
_space_group_symop_operation_xyz
x,y,z
-x,1/2+y,1/2-z
-x,-y,-z
x,1/2-y,1/2+z
loop_
_atom_site_type_symbol
_atom_site_label
_atom_site_fract_x
_atom_site_fract_y
_atom_site_fract_z
Si Si1 0.914659 0.502890 0.047138
Si Si2 0.739650 0.855483 0.247700
Si Si3 0.275498 0.829262 0.057875
Si Si4 0.143650 0.998448 0.886784
Si Si5 0.280342 0.327489 0.617192
Si Si6 0.582238 0.016858 0.024440
Si Si7 0.504363 0.406207 0.092061
Si Si8 0.232570 0.850573 0.650725
O O1 0.847761 0.590289 0.980460
O O2 0.890995 0.495566 0.838195
O O3 0.876073 0.409542 0.057546
O O4 0.040258 0.514870 0.300572
O O5 0.746216 0.771307 0.367177
O O6 0.636445 0.920161 0.079198
O O7 0.733075 0.818323 0.075719
O O8 0.402024 0.840475 0.298836
O O9 0.227923 0.739022 0.045221
O O10 0.246822 0.824219 0.840853
O O11 0.225423 0.914947 0.054077
O O12 0.200782 0.093957 0.032091
O O13 0.398253 0.349422 0.880139
O O14 0.672486 0.086971 0.238621
O O15 0.500000 0.000000 0.000000
O O16 0.520882 0.065572 0.784999
O O17 0.500000 0.500000 0.000000
#
# Coordination Sequence:
#
# PCOD8124794 Si02
#       8
#     4   4   4   4   4   4   4   4
#     4   8  17  37  58  75 107 144 181 230 269 326
#     4  10  22  37  55  82 114 143 188 229 276 329
#     4  10  20  34  55  80 108 140 182 218 269 323
#     4   9  17  35  59  78 103 147 185 218 278 328
#     4  11  22  36  56  85 112 147 186 226 274 333
#     4  10  22  38  54  79 111 152 185 220 271 327
#     4  11  20  37  55  76 114 147 179 221 264 324
#     4   9  20  36  53  81 107 138 182 224 267 321
#
# _framework density 18.641674999999999
#
# number of rings (size 3 to 8) (size 9 to 14) (size 15 to 20)
#    0.000    2.250    2.500    1.500    3.500    3.000 
#    0.000    0.000    0.000    1.500    0.000    0.000 
#    0.000    0.000    0.000    0.000    0.000    0.000 
#
# Total GULP energy -396692.415111 kJ/mol
# GULP energy per Si atom -12396.637972 kJ/mol
# Density = 1.859925 g / cm^3
# Si number density = 18.641675 Si / 1000 Ang^3
#
#
#
# Elastic Constant Matrix: (Units=GPa)
#
#
# Indices 1 2 3 4 5 6 
#
# 1 117.1594 65.9131 44.3269 0.0000 23.5056 0.0000
# 2 65.9131 135.5724 30.9453 0.0000 5.9052 0.0000
# 3 44.3269 30.9453 56.5461 0.0000 21.0985 0.0000
# 4 0.0000 0.0000 0.0000 21.8151 0.0000 -7.1755
# 5 23.5056 5.9052 21.0985 0.0000 28.5663 0.0000
# 6 0.0000 0.0000 0.0000 -7.1755 0.0000 39.4536
#
#
#
# Elastic Compliance Matrix: (Units=1/GPa)
#
#
# Indices 1 2 3 4 5 6 
#
# 1 0.015658 -0.005824 -0.006528 0.000000 -0.006858 0.000000
# 2 -0.005824 0.010706 -0.003114 0.000000 0.004879 0.000000
# 3 -0.006528 -0.003114 0.030730 0.000000 -0.016682 0.000000
# 4 0.000000 0.000000 0.000000 0.048756 0.000000 0.008867
# 5 -0.006858 0.004879 -0.016682 0.000000 0.051962 0.000000
# 6 0.000000 0.000000 0.000000 0.008867 0.000000 0.026959
#
#
# Mechanical properties :
#
#
# Convention : Reuss Voigt Hill
#
# Bulk Modulus (GPa) = 38.22273 65.73873 51.98073
# Shear Modulus (GPa) = 22.27931 29.17318 25.72625
#
# Velocity S-wave (km/s) = 3.46082 3.96023 3.71892
# Velocity P-wave (km/s) = 6.04302 7.50014 6.81066
#
# Compressibility (1/GPa) = 0.02616245
#
# Stress axis : x y z
#
# Youngs Moduli (GPa) = 63.86680 93.40750 32.54101
#
# Poissons Ratio (x) = 0.54397 0.21243
# Poissons Ratio (y) = 0.37194 0.10133
# Poissons Ratio (z) = 0.41692 0.29087
#
# Static dielectric constant tensor:
#      x y z
#    x 3.754820 0.000000 0.574260 
#    y 0.000000 3.415750 0.000000 
#    z 0.574260 0.000000 3.650080 
# 
# 
# High freq. dielectric constant tensor:
#      x y z
#    x 1.724320 0.000000 0.017450 
#    y 0.000000 1.730320 0.000000 
#    z 0.017450 0.000000 1.704390 
# 
# From -- ./inp_files/19075.got.cif
#   From: 2010.03.12/outbox.cif.g09.slc.cpg/sg14_10_cif.got.tgz:19075.got - 2010.03.31 13:35:05.
