data_PCOD8124468
_publ_section_title
;
Structure prediction by ZEFSAII (Michael W. Deem and Ramdas Pophale) SiO2 
 PCOD8124468
Probable space group: P 21/C
;
_chemical_formula_sum "Si O2"
_cell_formula_units_Z 32
_cell_length_a 18.138622
_cell_length_b 8.759263
_cell_length_c 14.682700
_cell_angle_alpha 90.000000
_cell_angle_beta 41.462116
_cell_angle_gamma 90.000000
_cell_volume 1544.605465
_symmetry_space_group_name_H-M "P 21/C"
_symmetry_group_IT_number 14
_symmetry_cell_setting 'monoclinic'
loop_
_space_group_symop_operation_xyz
x,y,z
-x,1/2+y,1/2-z
-x,-y,-z
x,1/2-y,1/2+z
loop_
_atom_site_type_symbol
_atom_site_label
_atom_site_fract_x
_atom_site_fract_y
_atom_site_fract_z
Si Si1 0.390972 0.028935 0.485762
Si Si2 0.075884 0.327563 0.343882
Si Si3 0.850051 0.550563 0.318566
Si Si4 0.637505 0.934420 0.280221
Si Si5 0.784683 0.274804 0.855675
Si Si6 0.849579 0.089725 0.110424
Si Si7 0.901758 0.003507 0.357206
Si Si8 0.269958 0.283780 0.946240
O O1 0.361398 0.100214 0.612223
O O2 0.355856 0.148350 0.440821
O O3 0.521999 0.004343 0.353976
O O4 0.332895 0.862936 0.528847
O O5 0.127961 0.157428 0.290726
O O6 0.111004 0.414451 0.403560
O O7 0.126978 0.414964 0.210383
O O8 0.940266 0.327202 0.462002
O O9 0.769551 0.408182 0.371456
O O10 0.796975 0.639436 0.451793
O O11 0.971720 0.488223 0.232383
O O12 0.662326 0.776717 0.204017
O O13 0.729976 0.066823 0.172968
O O14 0.845379 0.309375 0.704677
O O15 0.862837 0.323945 0.869846
O O16 0.818505 0.915278 0.504231
#
# Coordination Sequence:
#
# PCOD8124468 Si02
#       8
#     4   4   4   4   4   4   4   4
#     4   9  21  40  59  84 112 146 194 240 285 336
#     4   9  18  31  50  76 109 144 184 230 274 336
#     4  11  19  30  52  80 114 151 187 230 284 336
#     4  10  19  37  66  81 104 153 195 231 284 342
#     4   9  18  32  50  74 111 146 179 234 281 326
#     4   9  18  34  53  75 104 146 189 223 284 348
#     4   9  18  32  48  75 111 145 180 223 279 338
#     4  10  21  36  58  85 111 147 194 235 279 340
#
# _framework density 20.717264
#
# number of rings (size 3 to 8) (size 9 to 14) (size 15 to 20)
#    0.000    2.500    0.000    4.500    0.000    3.500 
#    0.000    2.500    0.000   21.750    0.000    0.000 
#    0.000    0.000    0.000    0.000    0.000    0.000 
#
# Total GULP energy -396591.795955 kJ/mol
# GULP energy per Si atom -12393.493624 kJ/mol
# Density = 2.067011 g / cm^3
# Si number density = 20.717264 Si / 1000 Ang^3
#
#
#
# Elastic Constant Matrix: (Units=GPa)
#
#
# Indices 1 2 3 4 5 6 
#
# 1 76.3289 27.8094 22.6215 0.0000 -15.5089 0.0000
# 2 27.8094 119.2767 36.7814 0.0000 -0.5312 0.0000
# 3 22.6215 36.7814 80.4804 0.0000 -14.0169 0.0000
# 4 0.0000 0.0000 0.0000 34.7633 0.0000 -0.5796
# 5 -15.5089 -0.5312 -14.0169 0.0000 29.8985 0.0000
# 6 0.0000 0.0000 0.0000 -0.5796 0.0000 18.9165
#
#
#
# Elastic Compliance Matrix: (Units=1/GPa)
#
#
# Indices 1 2 3 4 5 6 
#
# 1 0.016349 -0.003222 -0.001803 0.000000 0.007578 0.000000
# 2 -0.003222 0.010515 -0.004528 0.000000 -0.003608 0.000000
# 3 -0.001803 -0.004528 0.016143 0.000000 0.006552 0.000000
# 4 0.000000 0.000000 0.000000 0.028781 0.000000 0.000882
# 5 0.007578 -0.003608 0.006552 0.000000 0.040385 0.000000
# 6 0.000000 0.000000 0.000000 0.000882 0.000000 0.052891
#
#
# Mechanical properties :
#
#
# Convention : Reuss Voigt Hill
#
# Bulk Modulus (GPa) = 41.84007 50.05674 45.94841
# Shear Modulus (GPa) = 26.02289 29.30723 27.66506
#
# Velocity S-wave (km/s) = 3.54799 3.76523 3.65823
# Velocity P-wave (km/s) = 6.08473 6.56635 6.33012
#
# Compressibility (1/GPa) = 0.02390053
#
# Stress axis : x y z
#
# Youngs Moduli (GPa) = 61.16490 95.09799 61.94634
#
# Poissons Ratio (x) = 0.30641 0.11169
# Poissons Ratio (y) = 0.19708 0.28052
# Poissons Ratio (z) = 0.11028 0.43065
#
# Static dielectric constant tensor:
#      x y z
#    x 3.600920 0.000000 -0.135810 
#    y 0.000000 3.721810 0.000000 
#    z -0.135810 0.000000 3.795740 
# 
# 
# High freq. dielectric constant tensor:
#      x y z
#    x 1.795050 0.000000 -0.011910 
#    y 0.000000 1.796420 0.000000 
#    z -0.011910 0.000000 1.804820 
# 
# From -- ./inp_files/49934.got.cif
#   From: 2010.03.12/outbox.cif.g09.slc.cpg/sg14_25_cif.got.tgz:49934.got - 2010.03.31 13:35:05.
