data_PCOD8124670
_publ_section_title
;
Structure prediction by ZEFSAII (Michael W. Deem and Ramdas Pophale) SiO2 
 PCOD8124670
Probable space group: P 21/C
;
_chemical_formula_sum "Si O2"
_cell_formula_units_Z 32
_cell_length_a 10.085424
_cell_length_b 14.753454
_cell_length_c 10.475111
_cell_angle_alpha 90.000000
_cell_angle_beta 71.261476
_cell_angle_gamma 90.000000
_cell_volume 1476.025822
_symmetry_space_group_name_H-M "P 21/C"
_symmetry_group_IT_number 14
_symmetry_cell_setting 'monoclinic'
loop_
_space_group_symop_operation_xyz
x,y,z
-x,1/2+y,1/2-z
-x,-y,-z
x,1/2-y,1/2+z
loop_
_atom_site_type_symbol
_atom_site_label
_atom_site_fract_x
_atom_site_fract_y
_atom_site_fract_z
Si Si1 0.361787 0.890595 0.777224
Si Si2 0.538094 0.833996 0.492041
Si Si3 0.228822 0.039227 0.671684
Si Si4 0.892248 0.261459 0.607081
Si Si5 0.698375 0.038379 0.837188
Si Si6 0.539003 0.874472 0.967852
Si Si7 0.965302 0.151277 0.827564
Si Si8 0.731732 0.407414 0.056417
O O1 0.484168 0.849377 0.651410
O O2 0.224838 0.828965 0.804333
O O3 0.420813 0.894179 0.899164
O O4 0.321354 0.993585 0.754147
O O5 0.683170 0.884646 0.427647
O O6 0.580140 0.729711 0.458356
O O7 0.423151 0.872239 0.430074
O O8 0.088579 0.079421 0.773180
O O9 0.193381 0.960541 0.581211
O O10 0.973929 0.225619 0.708995
O O11 0.985039 0.306964 0.464643
O O12 0.824578 0.178491 0.555132
O O13 0.819864 0.095453 0.870002
O O14 0.731031 0.025701 0.677812
O O15 0.676235 0.937804 0.904949
O O16 0.551157 0.094593 0.881599
#
# Coordination Sequence:
#
# PCOD8124670 Si02
#       8
#     4   4   4   4   4   4   4   4
#     4  11  21  42  68  90 126 168 218 271 331 387
#     4  11  21  39  62  96 125 164 217 272 328 386
#     4  11  25  41  63  94 136 173 212 268 332 395
#     4  11  22  43  73  93 127 177 223 270 317 403
#     4  10  21  38  63  92 130 163 213 267 327 384
#     4  11  21  37  62  98 122 161 218 280 325 370
#     4  11  24  46  63 100 132 178 222 255 331 400
#     4  10  19  41  67  90 120 173 215 263 322 392
#
# _framework density 21.679838
#
# number of rings (size 3 to 8) (size 9 to 14) (size 15 to 20)
#    0.000    1.250    2.500    6.000    0.000    2.500 
#    9.000    0.000    0.000    0.000    0.000    0.000 
#    0.000    0.000    0.000    0.000    0.000    0.000 
#
# Total GULP energy -396689.129298 kJ/mol
# GULP energy per Si atom -12396.535291 kJ/mol
# Density = 2.163049 g / cm^3
# Si number density = 21.679838 Si / 1000 Ang^3
#
#
#
# Elastic Constant Matrix: (Units=GPa)
#
#
# Indices 1 2 3 4 5 6 
#
# 1 23.2482 24.3143 29.9713 0.0000 -5.9642 0.0000
# 2 24.3143 161.7912 22.3648 0.0000 -34.4379 0.0000
# 3 29.9713 22.3648 101.6730 0.0000 -8.0419 0.0000
# 4 0.0000 0.0000 0.0000 30.0189 0.0000 -20.8956
# 5 -5.9642 -34.4379 -8.0419 0.0000 36.3183 0.0000
# 6 0.0000 0.0000 0.0000 -20.8956 0.0000 14.0239
#
#
#
# Elastic Compliance Matrix: (Units=1/GPa)
#
#
# Indices 1 2 3 4 5 6 
#
# 1 0.080574 -0.009159 -0.021759 0.000000 -0.000271 0.000000
# 2 -0.009159 0.008917 0.001311 0.000000 0.007242 0.000000
# 3 -0.021759 0.001311 0.016058 0.000000 0.001226 0.000000
# 4 0.000000 0.000000 0.000000 -0.896401 0.000000 -1.335637
# 5 -0.000271 0.007242 0.001226 0.000000 0.034628 0.000000
# 6 0.000000 0.000000 0.000000 -1.335637 0.000000 -1.918792
#
#
# Mechanical properties :
#
#
# Convention : Reuss Voigt Hill
#
# Bulk Modulus (GPa) = 21.58092 48.89036 35.23564
# Shear Modulus (GPa) = -1.92281 30.07637 14.07678
#
# Velocity S-wave (km/s) = -0.94278 3.72868 2.55091
# Velocity P-wave (km/s) = 2.96494 6.41385 4.99642
#
# Compressibility (1/GPa) = 0.04633724
#
# Stress axis : x y z
#
# Youngs Moduli (GPa) = 12.41093 112.13952 62.27414
#
# Poissons Ratio (x) = 1.02706 1.35500
# Poissons Ratio (y) = 0.11367 -0.08165
# Poissons Ratio (z) = 0.27004 -0.14702
#
# Static dielectric constant tensor:
#      x y z
#    x 3.535440 0.000000 0.045490 
#    y 0.000000 4.117320 0.000000 
#    z 0.045490 0.000000 4.130300 
# 
# 
# High freq. dielectric constant tensor:
#      x y z
#    x 1.814620 0.000000 0.001770 
#    y 0.000000 1.859910 0.000000 
#    z 0.001770 0.000000 1.871170 
# 
# From -- ./inp_files/29813.got.cif
#   From: 2010.03.12/outbox.cif.g09.slc.cpg/sg14_15_cif.got.tgz:29813.got - 2010.03.31 13:35:05.
