data_PCOD8124765
_publ_section_title
;
Structure prediction by ZEFSAII (Michael W. Deem and Ramdas Pophale) SiO2 
 PCOD8124765
Probable space group: P 21/C
;
_chemical_formula_sum "Si O2"
_cell_formula_units_Z 32
_cell_length_a 17.381915
_cell_length_b 9.173999
_cell_length_c 22.549843
_cell_angle_alpha 90.000000
_cell_angle_beta 28.875613
_cell_angle_gamma 90.000000
_cell_volume 1736.463956
_symmetry_space_group_name_H-M "P 21/C"
_symmetry_group_IT_number 14
_symmetry_cell_setting 'monoclinic'
loop_
_space_group_symop_operation_xyz
x,y,z
-x,1/2+y,1/2-z
-x,-y,-z
x,1/2-y,1/2+z
loop_
_atom_site_type_symbol
_atom_site_label
_atom_site_fract_x
_atom_site_fract_y
_atom_site_fract_z
Si Si1 0.102492 0.826187 0.513307
Si Si2 0.930769 0.668830 0.957201
Si Si3 0.741254 0.153502 0.711067
Si Si4 0.843098 0.182586 0.391937
Si Si5 0.537848 0.682238 0.038015
Si Si6 0.224892 0.190137 0.319249
Si Si7 0.505993 0.341522 0.066673
Si Si8 0.875389 0.840362 0.363229
O O1 0.226909 0.786153 0.377090
O O2 0.167880 0.768480 0.531832
O O3 0.926617 0.762807 0.618624
O O4 0.083332 0.997652 0.527117
O O5 0.876262 0.723800 0.929480
O O6 0.115202 0.711184 0.843979
O O7 0.815621 0.734425 0.085468
O O8 0.576656 0.217177 0.845813
O O9 0.731660 0.979102 0.717885
O O10 0.676245 0.215593 0.473447
O O11 0.973904 0.281667 0.273166
O O12 0.890036 0.014251 0.354001
O O13 0.492518 0.514951 0.077767
O O14 0.523954 0.723611 0.978359
O O15 0.716708 0.714881 0.938215
O O16 0.374527 0.285407 0.200430
#
# Coordination Sequence:
#
# PCOD8124765 Si02
#       8
#     4   4   4   4   4   4   4   4
#     4   8  16  32  52  73  96 123 157 199 240 273
#     4   8  16  32  52  73  96 123 157 199 240 273
#     4   9  17  32  54  74  93 122 161 199 234 279
#     4  10  20  34  51  70  96 128 160 196 237 281
#     4  10  21  34  47  69 102 131 154 191 242 285
#     4   9  17  32  54  74  93 122 161 199 234 279
#     4  10  21  34  47  69 102 131 154 191 242 285
#     4  10  20  34  51  70  96 128 160 196 237 281
#
# _framework density 18.428256000000001
#
# number of rings (size 3 to 8) (size 9 to 14) (size 15 to 20)
#    0.000    2.750    0.000    3.000    0.000    2.500 
#    0.000    3.750    0.000    0.000    0.000    0.000 
#    0.000    0.000    0.000    0.000    0.000    0.000 
#
# Total GULP energy -396755.957590 kJ/mol
# GULP energy per Si atom -12398.623675 kJ/mol
# Density = 1.838631 g / cm^3
# Si number density = 18.428256 Si / 1000 Ang^3
#
#
#
# Elastic Constant Matrix: (Units=GPa)
#
#
# Indices 1 2 3 4 5 6 
#
# 1 140.2780 5.7413 28.8724 0.0000 12.7622 0.0000
# 2 5.7413 7.2081 0.0118 0.0000 -0.4771 0.0000
# 3 28.8724 0.0118 59.8657 0.0000 3.6422 0.0000
# 4 0.0000 0.0000 0.0000 35.6507 0.0000 0.4879
# 5 12.7622 -0.4771 3.6422 0.0000 28.7520 0.0000
# 6 0.0000 0.0000 0.0000 0.4879 0.0000 11.3774
#
#
#
# Elastic Compliance Matrix: (Units=1/GPa)
#
#
# Indices 1 2 3 4 5 6 
#
# 1 0.008529 -0.007013 -0.003905 0.000000 -0.003408 0.000000
# 2 -0.007013 0.144654 0.003042 0.000000 0.005128 0.000000
# 3 -0.003905 0.003042 0.018622 0.000000 -0.000575 0.000000
# 4 0.000000 0.000000 0.000000 0.028066 0.000000 -0.001204
# 5 -0.003408 0.005128 -0.000575 0.000000 0.036451 0.000000
# 6 0.000000 0.000000 0.000000 -0.001204 0.000000 0.087945
#
#
# Mechanical properties :
#
#
# Convention : Reuss Voigt Hill
#
# Bulk Modulus (GPa) = 6.40809 30.73364 18.57087
# Shear Modulus (GPa) = 12.75389 26.67109 19.71249
#
# Velocity S-wave (km/s) = 2.63360 3.80846 3.27416
# Velocity P-wave (km/s) = 3.56829 6.00440 4.93890
#
# Compressibility (1/GPa) = 0.15605264
#
# Stress axis : x y z
#
# Youngs Moduli (GPa) = 117.24037 6.91307 53.70067
#
# Poissons Ratio (x) = 0.04848 0.20970
# Poissons Ratio (y) = 0.82221 -0.16335
# Poissons Ratio (z) = 0.45782 -0.02103
#
# Static dielectric constant tensor:
#      x y z
#    x 3.960110 0.000000 0.254470 
#    y 0.000000 3.004680 0.000000 
#    z 0.254470 0.000000 3.405710 
# 
# 
# High freq. dielectric constant tensor:
#      x y z
#    x 1.726210 0.000000 0.006700 
#    y 0.000000 1.680340 0.000000 
#    z 0.006700 0.000000 1.722100 
# 
# From -- ./inp_files/69133.got.cif
#   From: 2010.03.12/outbox.cif.g09.slc.cpg/sg14_35_cif.got.tgz:69133.got - 2010.03.31 13:35:05.
