data_PCOD8124134
_publ_section_title
;
Structure prediction by ZEFSAII (Michael W. Deem and Ramdas Pophale) SiO2 
 PCOD8124134
Probable space group: P 21/C
;
_chemical_formula_sum "Si O2"
_cell_formula_units_Z 20
_cell_length_a 25.631593
_cell_length_b 4.959286
_cell_length_c 20.834779
_cell_angle_alpha 90.000000
_cell_angle_beta 22.918109
_cell_angle_gamma 90.000000
_cell_volume 1031.327074
_symmetry_space_group_name_H-M "P 21/C"
_symmetry_group_IT_number 14
_symmetry_cell_setting 'monoclinic'
loop_
_space_group_symop_operation_xyz
x,y,z
-x,1/2+y,1/2-z
-x,-y,-z
x,1/2-y,1/2+z
loop_
_atom_site_type_symbol
_atom_site_label
_atom_site_fract_x
_atom_site_fract_y
_atom_site_fract_z
Si Si1 0.012054 0.218940 0.569714
Si Si2 0.143455 0.285383 0.294895
Si Si3 0.629254 0.884207 0.046241
Si Si4 0.932732 0.938662 0.352199
Si Si5 0.334462 0.887790 0.406024
O O1 0.130770 0.314900 0.386647
O O2 0.066302 0.210208 0.580390
O O3 0.886524 0.426636 0.705324
O O4 0.971185 0.916433 0.598950
O O5 0.288259 0.158249 0.113175
O O6 0.471166 0.889948 0.208944
O O7 0.680946 0.130073 0.030851
O O8 0.662802 0.630880 0.049740
O O9 0.789504 0.077490 0.501354
O O10 0.963127 0.690572 0.268735
#
# Coordination Sequence:
#
# PCOD8124134 Si02
#       5
#     4   4   4   4   4
#     4  10  21  33  52  79 103 134 176 210 255 311
#     4  10  19  35  54  74 103 138 174 213 251 302
#     4  10  19  35  54  74 103 138 174 214 253 303
#     4  12  22  34  53  78 109 136 166 218 268 306
#     4  10  21  33  52  79 103 134 176 211 257 312
#
# _framework density 19.392489999999999
#
# number of rings (size 3 to 8) (size 9 to 14) (size 15 to 20)
#    0.000    1.600    0.000    7.200    0.000    0.000 
#    0.000    1.000    0.000    0.000    0.000   19.600 
#    0.000    0.000    0.000    0.000    0.000    0.000 
#
# Total GULP energy -247877.319603 kJ/mol
# GULP energy per Si atom -12393.865980 kJ/mol
# Density = 1.934835 g / cm^3
# Si number density = 19.392490 Si / 1000 Ang^3
#
#
#
# Elastic Constant Matrix: (Units=GPa)
#
#
# Indices 1 2 3 4 5 6 
#
# 1 91.9398 31.6114 62.2108 0.0000 4.0407 0.0000
# 2 31.6114 125.3407 32.1626 0.0000 2.8581 0.0000
# 3 62.2108 32.1626 145.4566 0.0000 8.7443 0.0000
# 4 0.0000 0.0000 0.0000 27.7947 0.0000 -0.4529
# 5 4.0407 2.8581 8.7443 0.0000 24.4021 0.0000
# 6 0.0000 0.0000 0.0000 -0.4529 0.0000 30.0949
#
#
#
# Elastic Compliance Matrix: (Units=1/GPa)
#
#
# Indices 1 2 3 4 5 6 
#
# 1 0.015966 -0.002410 -0.006289 0.000000 -0.000108 0.000000
# 2 -0.002410 0.008825 -0.000902 0.000000 -0.000311 0.000000
# 3 -0.006289 -0.000902 0.009908 0.000000 -0.002404 0.000000
# 4 0.000000 0.000000 0.000000 0.035987 0.000000 0.000542
# 5 -0.000108 -0.000311 -0.002404 0.000000 0.041896 0.000000
# 6 0.000000 0.000000 0.000000 0.000542 0.000000 0.033236
#
#
# Mechanical properties :
#
#
# Convention : Reuss Voigt Hill
#
# Bulk Modulus (GPa) = 64.52934 68.30074 66.41504
# Shear Modulus (GPa) = 29.37980 32.24185 30.81082
#
# Velocity S-wave (km/s) = 3.89653 4.08192 3.99030
# Velocity P-wave (km/s) = 7.32063 7.58371 7.45333
#
# Compressibility (1/GPa) = 0.01549683
#
# Stress axis : x y z
#
# Youngs Moduli (GPa) = 62.63497 113.31936 100.92363
#
# Poissons Ratio (x) = 0.27314 0.63470
# Poissons Ratio (y) = 0.15097 0.09100
# Poissons Ratio (z) = 0.39390 0.10217
#
# Static dielectric constant tensor:
#      x y z
#    x 3.179900 0.000000 0.343820 
#    y 0.000000 3.803860 0.000000 
#    z 0.343820 0.000000 3.028430 
# 
# 
# High freq. dielectric constant tensor:
#      x y z
#    x 1.712760 0.000000 0.016600 
#    y 0.000000 1.786740 0.000000 
#    z 0.016600 0.000000 1.754640 
# 
# From -- ./inp_files/75241.got.cif
#   From: 2010.03.12/outbox.cif.g09.slc.cpg/sg14_38_cif.got.tgz:75241.got - 2010.03.31 13:35:05.
