data_PCOD8124973
_publ_section_title
;
Structure prediction by ZEFSAII (Michael W. Deem and Ramdas Pophale) SiO2 
 PCOD8124973
Probable space group: P 21/C
;
_chemical_formula_sum "Si O2"
_cell_formula_units_Z 32
_cell_length_a 23.920116
_cell_length_b 10.629569
_cell_length_c 11.006213
_cell_angle_alpha 90.000000
_cell_angle_beta 147.022813
_cell_angle_gamma 90.000000
_cell_volume 1523.208049
_symmetry_space_group_name_H-M "P 21/C"
_symmetry_group_IT_number 14
_symmetry_cell_setting 'monoclinic'
loop_
_space_group_symop_operation_xyz
x,y,z
-x,1/2+y,1/2-z
-x,-y,-z
x,1/2-y,1/2+z
loop_
_atom_site_type_symbol
_atom_site_label
_atom_site_fract_x
_atom_site_fract_y
_atom_site_fract_z
Si Si1 0.383917 0.640171 0.329063
Si Si2 0.983559 0.966392 0.652860
Si Si3 0.827049 0.970779 0.160833
Si Si4 0.788854 0.241272 0.120266
Si Si5 0.909207 0.265196 0.086772
Si Si6 0.446876 0.884557 0.546116
Si Si7 0.572496 0.615926 0.515797
Si Si8 0.365856 0.128035 0.297428
O O1 0.377723 0.756761 0.413347
O O2 0.502164 0.625143 0.507120
O O3 0.352503 0.506884 0.335163
O O4 0.311725 0.671620 0.081300
O O5 0.948205 0.091351 0.657237
O O6 0.096135 0.999288 0.808167
O O7 0.898265 0.924522 0.400117
O O8 0.999187 0.838424 0.759111
O O9 0.760070 0.094054 0.073453
O O10 0.741504 0.867039 0.971924
O O11 0.858687 0.259724 0.127720
O O12 0.839956 0.271165 0.343412
O O13 0.499023 0.901761 0.769115
O O14 0.534481 0.875787 0.604700
O O15 0.371028 0.003518 0.390567
O O16 0.636312 0.745742 0.623540
#
# Coordination Sequence:
#
# PCOD8124973 Si02
#       8
#     4   4   4   4   4   4   4   4
#     4  10  21  37  53  82 117 155 187 237 290 341
#     4   9  20  39  61  84 116 153 186 245 292 347
#     4   9  18  39  61  80 116 157 198 228 291 358
#     4  10  21  37  63  88 113 154 205 231 283 362
#     4  10  22  41  62  90 115 152 194 240 296 347
#     4  10  20  36  59  78 112 155 194 237 279 343
#     4  10  22  35  52  82 122 148 184 245 299 324
#     4  10  20  36  56  85 107 149 202 231 277 353
#
# _framework density 21.008292000000001
#
# number of rings (size 3 to 8) (size 9 to 14) (size 15 to 20)
#    0.000    2.250    1.250    1.500    1.750    2.500 
#    6.750    0.000    0.000    0.000    0.000    0.000 
#    0.000    0.000    0.000    0.000    0.000    0.000 
#
# Total GULP energy -396439.004283 kJ/mol
# GULP energy per Si atom -12388.718884 kJ/mol
# Density = 2.096048 g / cm^3
# Si number density = 21.008292 Si / 1000 Ang^3
#
#
#
# Elastic Constant Matrix: (Units=GPa)
#
#
# Indices 1 2 3 4 5 6 
#
# 1 24.5017 9.5217 4.6177 0.0000 -11.4298 0.0000
# 2 9.5217 139.3445 51.2986 0.0000 0.4557 0.0000
# 3 4.6177 51.2986 95.5910 0.0000 -0.8465 0.0000
# 4 0.0000 0.0000 0.0000 29.2089 0.0000 -5.2148
# 5 -11.4298 0.4557 -0.8465 0.0000 26.5373 0.0000
# 6 0.0000 0.0000 0.0000 -5.2148 0.0000 13.8552
#
#
#
# Elastic Compliance Matrix: (Units=1/GPa)
#
#
# Indices 1 2 3 4 5 6 
#
# 1 0.052924 -0.003520 -0.000465 0.000000 0.022840 0.000000
# 2 -0.003520 0.009180 -0.004773 0.000000 -0.001826 0.000000
# 3 -0.000465 -0.004773 0.013048 0.000000 0.000298 0.000000
# 4 0.000000 0.000000 0.000000 0.036702 0.000000 0.013814
# 5 0.022840 -0.001826 0.000298 0.000000 0.047561 0.000000
# 6 0.000000 0.000000 0.000000 0.013814 0.000000 0.077374
#
#
# Mechanical properties :
#
#
# Convention : Reuss Voigt Hill
#
# Bulk Modulus (GPa) = 17.35031 43.36815 30.35923
# Shear Modulus (GPa) = 18.28041 26.85354 22.56698
#
# Velocity S-wave (km/s) = 2.95303 3.57912 3.28105
# Velocity P-wave (km/s) = 4.46138 6.14559 5.36993
#
# Compressibility (1/GPa) = 0.05763586
#
# Stress axis : x y z
#
# Youngs Moduli (GPa) = 18.89505 108.93355 76.64294
#
# Poissons Ratio (x) = 0.38342 0.03567
# Poissons Ratio (y) = 0.06651 0.36578
# Poissons Ratio (z) = 0.00879 0.51989
#
# Static dielectric constant tensor:
#      x y z
#    x 3.460330 0.000000 -0.045180 
#    y 0.000000 4.411460 0.000000 
#    z -0.045180 0.000000 3.760170 
# 
# 
# High freq. dielectric constant tensor:
#      x y z
#    x 1.788640 0.000000 -0.008280 
#    y 0.000000 1.835610 0.000000 
#    z -0.008280 0.000000 1.824520 
# 
# From -- ./inp_files/36249.got.cif
#   From: 2010.03.12/outbox.cif.g09.slc.cpg/sg14_19_cif.got.tgz:36249.got - 2010.03.31 13:35:05.
