data_PCOD8124466
_publ_section_title
;
Structure prediction by ZEFSAII (Michael W. Deem and Ramdas Pophale) SiO2 
 PCOD8124466
Probable space group: P 21/C
;
_chemical_formula_sum "Si O2"
_cell_formula_units_Z 24
_cell_length_a 14.925104
_cell_length_b 11.022639
_cell_length_c 16.266717
_cell_angle_alpha 90.000000
_cell_angle_beta 26.461541
_cell_angle_gamma 90.000000
_cell_volume 1192.463569
_symmetry_space_group_name_H-M "P 21/C"
_symmetry_group_IT_number 14
_symmetry_cell_setting 'monoclinic'
loop_
_space_group_symop_operation_xyz
x,y,z
-x,1/2+y,1/2-z
-x,-y,-z
x,1/2-y,1/2+z
loop_
_atom_site_type_symbol
_atom_site_label
_atom_site_fract_x
_atom_site_fract_y
_atom_site_fract_z
Si Si1 0.362344 0.995388 0.943510
Si Si2 0.495566 0.755859 0.914528
Si Si3 0.774397 0.924926 0.113155
Si Si4 0.199227 0.078693 0.241930
Si Si5 0.754457 0.115359 0.663080
Si Si6 0.781287 0.357764 0.725868
O O1 0.240281 0.998758 0.958922
O O2 0.580551 0.057211 0.749717
O O3 0.373538 0.857209 0.964880
O O4 0.242714 0.072331 0.109801
O O5 0.601737 0.675814 0.757508
O O6 0.669370 0.811862 0.829593
O O7 0.349108 0.667544 0.085947
O O8 0.739753 0.011137 0.220557
O O9 0.984686 0.853405 0.942476
O O10 0.963429 0.098226 0.445443
O O11 0.258710 0.952531 0.237559
O O12 0.724844 0.257032 0.704259
#
# Coordination Sequence:
#
# PCOD8124466 Si02
#       6
#     4   4   4   4   4   4
#     4  11  23  39  63  98 122 155 218 267 301 359
#     4  11  21  41  68  88 122 172 207 253 313 377
#     4  11  27  40  59  96 129 164 206 258 316 372
#     4  10  19  37  65  96 116 158 216 249 308 368
#     4  10  19  37  69  89 118 166 204 256 305 370
#     4  11  22  45  63  85 131 171 203 245 321 384
#
# _framework density 20.126403
#
# number of rings (size 3 to 8) (size 9 to 14) (size 15 to 20)
#    0.000    1.333    5.000    1.500    2.333    1.333 
#    0.000    0.000    0.000    0.000    0.000    0.000 
#    0.000    0.000    0.000    0.000    0.000    0.000 
#
# Total GULP energy -297659.914693 kJ/mol
# GULP energy per Si atom -12402.496446 kJ/mol
# Density = 2.008059 g / cm^3
# Si number density = 20.126403 Si / 1000 Ang^3
#
#
#
# Elastic Constant Matrix: (Units=GPa)
#
#
# Indices 1 2 3 4 5 6 
#
# 1 59.2745 15.0816 34.8675 0.0000 15.6391 0.0000
# 2 15.0816 65.5224 41.1052 0.0000 3.3252 0.0000
# 3 34.8675 41.1052 113.4359 0.0000 3.4970 0.0000
# 4 0.0000 0.0000 0.0000 35.8807 0.0000 1.2573
# 5 15.6391 3.3252 3.4970 0.0000 23.7643 0.0000
# 6 0.0000 0.0000 0.0000 1.2573 0.0000 18.3495
#
#
#
# Elastic Compliance Matrix: (Units=1/GPa)
#
#
# Indices 1 2 3 4 5 6 
#
# 1 0.025276 -0.000591 -0.007077 0.000000 -0.015510 0.000000
# 2 -0.000591 0.019836 -0.006964 0.000000 -0.001362 0.000000
# 3 -0.007077 -0.006964 0.013402 0.000000 0.003660 0.000000
# 4 0.000000 0.000000 0.000000 0.027937 0.000000 -0.001914
# 5 -0.015510 -0.001362 0.003660 0.000000 0.051939 0.000000
# 6 0.000000 0.000000 0.000000 -0.001914 0.000000 0.054629
#
#
# Mechanical properties :
#
#
# Convention : Reuss Voigt Hill
#
# Bulk Modulus (GPa) = 34.18887 46.70462 40.44675
# Shear Modulus (GPa) = 21.54866 25.41079 23.47973
#
# Velocity S-wave (km/s) = 3.27565 3.55711 3.41928
# Velocity P-wave (km/s) = 5.59736 6.33456 5.97734
#
# Compressibility (1/GPa) = 0.02924928
#
# Stress axis : x y z
#
# Youngs Moduli (GPa) = 39.56296 50.41312 74.61786
#
# Poissons Ratio (x) = 0.02980 0.52807
# Poissons Ratio (y) = 0.02339 0.51966
# Poissons Ratio (z) = 0.27999 0.35109
#
# Static dielectric constant tensor:
#      x y z
#    x 3.340540 0.000000 -0.098520 
#    y 0.000000 3.609670 0.000000 
#    z -0.098520 0.000000 3.752390 
# 
# 
# High freq. dielectric constant tensor:
#      x y z
#    x 1.757820 0.000000 -0.004170 
#    y 0.000000 1.789220 0.000000 
#    z -0.004170 0.000000 1.799960 
# 
# From -- ./inp_files/46881.got.cif
#   From: 2010.03.12/outbox.cif.g09.slc.cpg/sg14_24_cif.got.tgz:46881.got - 2010.03.31 13:35:05.
