data_PCOD8124873
_publ_section_title
;
Structure prediction by ZEFSAII (Michael W. Deem and Ramdas Pophale) SiO2 
 PCOD8124873
Probable space group: P 21/C
;
_chemical_formula_sum "Si O2"
_cell_formula_units_Z 24
_cell_length_a 15.077537
_cell_length_b 15.838359
_cell_length_c 4.949472
_cell_angle_alpha 90.000000
_cell_angle_beta 97.102109
_cell_angle_gamma 90.000000
_cell_volume 1172.882307
_symmetry_space_group_name_H-M "P 21/C"
_symmetry_group_IT_number 14
_symmetry_cell_setting 'monoclinic'
loop_
_space_group_symop_operation_xyz
x,y,z
-x,1/2+y,1/2-z
-x,-y,-z
x,1/2-y,1/2+z
loop_
_atom_site_type_symbol
_atom_site_label
_atom_site_fract_x
_atom_site_fract_y
_atom_site_fract_z
Si Si1 0.801952 0.422060 0.156904
Si Si2 0.038387 0.805754 0.253267
Si Si3 0.834830 0.693784 0.670452
Si Si4 0.442951 0.971791 0.728226
Si Si5 0.250887 0.019876 0.834490
Si Si6 0.355688 0.806061 0.543961
O O1 0.896798 0.384252 0.282916
O O2 0.752909 0.460707 0.401535
O O3 0.818572 0.491538 0.927585
O O4 0.741244 0.350585 0.988655
O O5 0.057426 0.771680 0.559407
O O6 0.937034 0.837868 0.179122
O O7 0.814491 0.769378 0.456925
O O8 0.770754 0.615073 0.586287
O O9 0.347365 0.016680 0.726732
O O10 0.430396 0.871647 0.675527
O O11 0.500000 0.000000 0.500000
O O12 0.500000 0.000000 0.000000
O O13 0.365510 0.775095 0.239764
#
# Coordination Sequence:
#
# PCOD8124873 Si02
#       6
#     4   4   4   4   4   4
#     4  11  21  35  59  89 120 152 189 236 289 353
#     4  10  20  35  56  85 121 159 193 232 284 335
#     4  10  22  40  59  82 117 157 199 242 280 334
#     4  11  23  42  62  84 118 153 189 242 298 350
#     4  11  23  39  60  86 113 154 197 238 300 348
#     4  11  21  37  60  88 117 147 186 233 288 347
#
# _framework density 20.462412
#
# number of rings (size 3 to 8) (size 9 to 14) (size 15 to 20)
#    0.000    1.333    0.000    8.000    0.000    1.333 
#    0.000    5.000    0.000    0.000    0.000    0.000 
#    0.000    0.000    0.000    0.000    0.000    0.000 
#
# Total GULP energy -297572.424167 kJ/mol
# GULP energy per Si atom -12398.851007 kJ/mol
# Density = 2.041584 g / cm^3
# Si number density = 20.462412 Si / 1000 Ang^3
#
#
#
# Elastic Constant Matrix: (Units=GPa)
#
#
# Indices 1 2 3 4 5 6 
#
# 1 92.7071 58.5110 33.4525 0.0000 -5.8321 0.0000
# 2 58.5110 102.3481 32.0327 0.0000 3.6497 0.0000
# 3 33.4525 32.0327 116.1514 0.0000 -5.4278 0.0000
# 4 0.0000 0.0000 0.0000 40.2754 0.0000 3.6046
# 5 -5.8321 3.6497 -5.4278 0.0000 29.4331 0.0000
# 6 0.0000 0.0000 0.0000 3.6046 0.0000 33.1389
#
#
#
# Elastic Compliance Matrix: (Units=1/GPa)
#
#
# Indices 1 2 3 4 5 6 
#
# 1 0.018047 -0.009751 -0.002305 0.000000 0.004360 0.000000
# 2 -0.009751 0.016067 -0.001822 0.000000 -0.004261 0.000000
# 3 -0.002305 -0.001822 0.009850 0.000000 0.001586 0.000000
# 4 0.000000 0.000000 0.000000 0.025073 0.000000 -0.002727
# 5 0.004360 -0.004261 0.001586 0.000000 0.035660 0.000000
# 6 0.000000 0.000000 0.000000 -0.002727 0.000000 0.030473
#
#
# Mechanical properties :
#
#
# Convention : Reuss Voigt Hill
#
# Bulk Modulus (GPa) = 61.69585 62.13321 61.91453
# Shear Modulus (GPa) = 29.70381 33.05017 31.37699
#
# Velocity S-wave (km/s) = 3.81416 4.02327 3.92011
# Velocity P-wave (km/s) = 7.04367 7.21199 7.12833
#
# Compressibility (1/GPa) = 0.01620855
#
# Stress axis : x y z
#
# Youngs Moduli (GPa) = 55.41072 62.23776 101.52581
#
# Poissons Ratio (x) = 0.60691 0.23398
# Poissons Ratio (y) = 0.54033 0.18495
# Poissons Ratio (z) = 0.12770 0.11338
#
# Static dielectric constant tensor:
#      x y z
#    x -90.735220 0.000000 -52.869390 
#    y 0.000000 2.569620 0.000000 
#    z -52.869390 0.000000 -25.770730 
# 
# 
# High freq. dielectric constant tensor:
#      x y z
#    x 1.784810 0.000000 -0.006320 
#    y 0.000000 1.792400 0.000000 
#    z -0.006320 0.000000 1.822970 
# 
# From -- ./inp_files/3534.got.cif
#   From: 2010.03.12/outbox.cif.g09.slc.cpg/sg14_2_cif.got.tgz:3534.got - 2010.03.31 13:35:05.
