data_PCOD8124352
_publ_section_title
;
Structure prediction by ZEFSAII (Michael W. Deem and Ramdas Pophale) SiO2 
 PCOD8124352
Probable space group: P 21/C
;
_chemical_formula_sum "Si O2"
_cell_formula_units_Z 28
_cell_length_a 5.063946
_cell_length_b 13.342300
_cell_length_c 22.327964
_cell_angle_alpha 90.000000
_cell_angle_beta 118.821381
_cell_angle_gamma 90.000000
_cell_volume 1321.709092
_symmetry_space_group_name_H-M "P 21/C"
_symmetry_group_IT_number 14
_symmetry_cell_setting 'monoclinic'
loop_
_space_group_symop_operation_xyz
x,y,z
-x,1/2+y,1/2-z
-x,-y,-z
x,1/2-y,1/2+z
loop_
_atom_site_type_symbol
_atom_site_label
_atom_site_fract_x
_atom_site_fract_y
_atom_site_fract_z
Si Si1 0.700230 0.767152 0.212815
Si Si2 0.474021 0.952425 0.120197
Si Si3 0.963927 0.313446 0.858640
Si Si4 0.145678 0.993094 0.450858
Si Si5 0.950301 0.714249 0.870972
Si Si6 0.821606 0.877086 0.052670
Si Si7 0.489539 0.165642 0.099014
O O1 0.670023 0.877211 0.181314
O O2 0.388599 0.708713 0.185041
O O3 0.906794 0.695718 0.194349
O O4 0.862491 0.790562 0.292350
O O5 0.548100 0.928848 0.058721
O O6 0.122859 0.940713 0.096162
O O7 0.572712 0.066524 0.146929
O O8 0.021671 0.421988 0.892896
O O9 0.132947 0.236617 0.920720
O O10 0.059204 0.890369 0.409151
O O11 0.500000 0.000000 0.500000
O O12 0.000000 0.000000 0.500000
O O13 0.225173 0.792181 0.905939
O O14 0.659110 0.749784 0.876032
O O15 0.753513 0.873873 0.975251
#
# Coordination Sequence:
#
# PCOD8124352 Si02
#       7
#     4   4   4   4   4   4   4
#     4  10  23  41  60  90 122 163 213 248 306 372
#     4  10  21  38  62  87 119 156 193 242 299 368
#     4  10  21  40  65  87 123 167 204 256 312 370
#     4  12  25  44  68  97 127 168 218 267 322 371
#     4  12  26  40  60  90 126 162 208 260 296 368
#     4  10  19  36  62  92 118 148 195 247 300 369
#     4  12  23  39  61  91 123 156 193 250 313 354
#
# _framework density 21.18469
#
# number of rings (size 3 to 8) (size 9 to 14) (size 15 to 20)
#    0.000    1.143    0.000    6.857    0.000    4.571 
#    0.000    0.000    0.000    0.000    0.000    0.000 
#    0.000    0.000    0.000    0.000    0.000    0.000 
#
# Total GULP energy -347297.336531 kJ/mol
# GULP energy per Si atom -12403.476305 kJ/mol
# Density = 2.113647 g / cm^3
# Si number density = 21.184690 Si / 1000 Ang^3
#
#
#
# Elastic Constant Matrix: (Units=GPa)
#
#
# Indices 1 2 3 4 5 6 
#
# 1 127.0568 41.9125 35.9228 0.0000 -15.2889 0.0000
# 2 41.9125 147.7917 52.2377 0.0000 6.5679 0.0000
# 3 35.9228 52.2377 115.1780 0.0000 -16.0636 0.0000
# 4 0.0000 0.0000 0.0000 24.5414 0.0000 -3.5059
# 5 -15.2889 6.5679 -16.0636 0.0000 22.4197 0.0000
# 6 0.0000 0.0000 0.0000 -3.5059 0.0000 27.1556
#
#
#
# Elastic Compliance Matrix: (Units=1/GPa)
#
#
# Indices 1 2 3 4 5 6 
#
# 1 0.009872 -0.002815 -0.000831 0.000000 0.006961 0.000000
# 2 -0.002815 0.009530 -0.004556 0.000000 -0.007976 0.000000
# 3 -0.000831 -0.004556 0.012349 0.000000 0.009616 0.000000
# 4 0.000000 0.000000 0.000000 0.041513 0.000000 0.005360
# 5 0.006961 -0.007976 0.009616 0.000000 0.058577 0.000000
# 6 0.000000 0.000000 0.000000 0.005360 0.000000 0.037517
#
#
# Mechanical properties :
#
#
# Convention : Reuss Voigt Hill
#
# Bulk Modulus (GPa) = 65.16865 72.24138 68.70501
# Shear Modulus (GPa) = 26.19478 32.15359 29.17418
#
# Velocity S-wave (km/s) = 3.52020 3.90009 3.71500
# Velocity P-wave (km/s) = 6.88123 7.37941 7.13467
#
# Compressibility (1/GPa) = 0.01534480
#
# Stress axis : x y z
#
# Youngs Moduli (GPa) = 101.29890 104.93660 80.97742
#
# Poissons Ratio (x) = 0.29540 0.06732
# Poissons Ratio (y) = 0.28516 0.36897
# Poissons Ratio (z) = 0.08421 0.47814
#
# Static dielectric constant tensor:
#      x y z
#    x 4.050200 0.000000 -0.097180 
#    y 0.000000 3.961510 0.000000 
#    z -0.097180 0.000000 3.732230 
# 
# 
# High freq. dielectric constant tensor:
#      x y z
#    x 1.848010 0.000000 -0.005310 
#    y 0.000000 1.839930 0.000000 
#    z -0.005310 0.000000 1.825090 
# 
# From -- ./inp_files/63608.got.cif
#   From: 2010.03.12/outbox.cif.g09.slc.cpg/sg14_32_cif.got.tgz:63608.got - 2010.03.31 13:35:05.
