data_PCOD8124868
_publ_section_title
;
Structure prediction by ZEFSAII (Michael W. Deem and Ramdas Pophale) SiO2 
 PCOD8124868
Probable space group: P 21/C
;
_chemical_formula_sum "Si O2"
_cell_formula_units_Z 32
_cell_length_a 8.148762
_cell_length_b 20.125798
_cell_length_c 12.598951
_cell_angle_alpha 90.000000
_cell_angle_beta 125.924823
_cell_angle_gamma 90.000000
_cell_volume 1673.209072
_symmetry_space_group_name_H-M "P 21/C"
_symmetry_group_IT_number 14
_symmetry_cell_setting 'monoclinic'
loop_
_space_group_symop_operation_xyz
x,y,z
-x,1/2+y,1/2-z
-x,-y,-z
x,1/2-y,1/2+z
loop_
_atom_site_type_symbol
_atom_site_label
_atom_site_fract_x
_atom_site_fract_y
_atom_site_fract_z
Si Si1 0.175468 0.639404 0.616378
Si Si2 0.475562 0.239448 0.745860
Si Si3 0.736092 0.144841 0.286670
Si Si4 0.950412 0.102504 0.160836
Si Si5 0.783418 0.024297 0.703448
Si Si6 0.900503 0.765918 0.522105
Si Si7 0.413490 0.563323 0.074446
Si Si8 0.323623 0.182362 0.368456
O O1 0.396662 0.672253 0.709454
O O2 0.155983 0.604976 0.494101
O O3 0.151799 0.586260 0.700323
O O4 0.001278 0.693876 0.568450
O O5 0.570430 0.296960 0.705962
O O6 0.238576 0.226475 0.634108
O O7 0.476096 0.269378 0.863871
O O8 0.784482 0.114147 0.190222
O O9 0.659857 0.088413 0.338674
O O10 0.934778 0.176129 0.416579
O O11 0.121646 0.159816 0.228256
O O12 0.044053 0.030346 0.214903
O O13 0.772698 0.043336 0.573682
O O14 0.560808 0.998906 0.654486
O O15 0.737429 0.776517 0.552537
O O16 0.544489 0.616908 0.056570
#
# Coordination Sequence:
#
# PCOD8124868 Si02
#       8
#     4   4   4   4   4   4   4   4
#     4  11  22  36  55  88 116 149 190 225 283 349
#     4  10  20  35  56  83 113 145 181 235 286 333
#     4   9  21  37  59  83 108 151 185 239 284 329
#     4  10  20  38  56  79 118 149 186 226 284 333
#     4  10  21  37  59  81 110 156 188 237 273 327
#     4  10  20  35  57  86 113 143 186 233 286 332
#     4   9  19  39  61  82 108 145 204 231 275 333
#     4   9  18  35  58  81 109 147 180 237 285 326
#
# _framework density 19.124927
#
# number of rings (size 3 to 8) (size 9 to 14) (size 15 to 20)
#    0.000    2.250    1.250    1.125    1.750    2.500 
#    6.750    1.875    0.000    0.000    0.000    0.000 
#    0.000    0.000    0.000    0.000    0.000    0.000 
#
# Total GULP energy -396713.070630 kJ/mol
# GULP energy per Si atom -12397.283457 kJ/mol
# Density = 1.908140 g / cm^3
# Si number density = 19.124927 Si / 1000 Ang^3
#
#
#
# Elastic Constant Matrix: (Units=GPa)
#
#
# Indices 1 2 3 4 5 6 
#
# 1 73.2380 20.6416 8.2024 0.0000 -6.7956 0.0000
# 2 20.6416 66.0252 27.3914 0.0000 -4.0883 0.0000
# 3 8.2024 27.3914 73.0612 0.0000 2.5375 0.0000
# 4 0.0000 0.0000 0.0000 22.9121 0.0000 -2.4477
# 5 -6.7956 -4.0883 2.5375 0.0000 27.7420 0.0000
# 6 0.0000 0.0000 0.0000 -2.4477 0.0000 27.0362
#
#
#
# Elastic Compliance Matrix: (Units=1/GPa)
#
#
# Indices 1 2 3 4 5 6 
#
# 1 0.015227 -0.004519 -0.000122 0.000000 0.003075 0.000000
# 2 -0.004519 0.019577 -0.006916 0.000000 0.002411 0.000000
# 3 -0.000122 -0.006916 0.016382 0.000000 -0.002548 0.000000
# 4 0.000000 0.000000 0.000000 0.044071 0.000000 0.003990
# 5 0.003075 0.002411 -0.002548 0.000000 0.037388 0.000000
# 6 0.000000 0.000000 0.000000 0.003990 0.000000 0.037349
#
#
# Mechanical properties :
#
#
# Convention : Reuss Voigt Hill
#
# Bulk Modulus (GPa) = 35.62330 36.08836 35.85583
# Shear Modulus (GPa) = 24.69551 25.94399 25.31975
#
# Velocity S-wave (km/s) = 3.59733 3.68714 3.64251
# Velocity P-wave (km/s) = 5.99345 6.08584 6.03982
#
# Compressibility (1/GPa) = 0.02807151
#
# Stress axis : x y z
#
# Youngs Moduli (GPa) = 65.67340 51.08009 61.04189
#
# Poissons Ratio (x) = 0.23085 0.00744
# Poissons Ratio (y) = 0.29681 0.42217
# Poissons Ratio (z) = 0.00801 0.35327
#
# Static dielectric constant tensor:
#      x y z
#    x 3.461620 0.000000 0.074900 
#    y 0.000000 3.506560 0.000000 
#    z 0.074900 0.000000 3.396420 
# 
# 
# High freq. dielectric constant tensor:
#      x y z
#    x 1.738130 0.000000 0.002610 
#    y 0.000000 1.742550 0.000000 
#    z 0.002610 0.000000 1.738510 
# 
# From -- ./inp_files/26784.got.cif
#   From: 2010.03.12/outbox.cif.g09.slc.cpg/sg14_14_cif.got.tgz:26784.got - 2010.03.31 13:35:05.
