data_PCOD8124584
_publ_section_title
;
Structure prediction by ZEFSAII (Michael W. Deem and Ramdas Pophale) SiO2 
 PCOD8124584
Probable space group: P 21/C
;
_chemical_formula_sum "Si O2"
_cell_formula_units_Z 24
_cell_length_a 9.014923
_cell_length_b 15.965373
_cell_length_c 16.392866
_cell_angle_alpha 90.000000
_cell_angle_beta 148.665571
_cell_angle_gamma 90.000000
_cell_volume 1226.948783
_symmetry_space_group_name_H-M "P 21/C"
_symmetry_group_IT_number 14
_symmetry_cell_setting 'monoclinic'
loop_
_space_group_symop_operation_xyz
x,y,z
-x,1/2+y,1/2-z
-x,-y,-z
x,1/2-y,1/2+z
loop_
_atom_site_type_symbol
_atom_site_label
_atom_site_fract_x
_atom_site_fract_y
_atom_site_fract_z
Si Si1 0.848059 0.438353 0.615016
Si Si2 0.102955 0.834884 0.237668
Si Si3 0.444145 0.989181 0.793899
Si Si4 0.034927 0.554010 0.842429
Si Si5 0.395016 0.001892 0.316263
Si Si6 0.555543 0.330039 0.602023
O O1 0.703856 0.470954 0.465066
O O2 0.689989 0.357261 0.577388
O O3 0.838081 0.510333 0.679854
O O4 0.180372 0.424092 0.746271
O O5 0.105650 0.854692 0.337259
O O6 0.233713 0.913711 0.250173
O O7 0.298289 0.756997 0.306053
O O8 0.782063 0.815908 0.059083
O O9 0.365923 0.896888 0.790917
O O10 0.522445 0.980893 0.737220
O O11 0.167430 0.051311 0.672897
O O12 0.325044 0.503817 0.995827
#
# Coordination Sequence:
#
# PCOD8124584 Si02
#       6
#     4   4   4   4   4   4
#     4  10  19  39  63  82 111 158 206 234 279 357
#     4  11  23  39  59  89 120 156 202 247 296 349
#     4  11  20  41  64  88 117 161 197 244 297 357
#     4  10  20  39  60  88 116 154 202 241 281 354
#     4  11  23  36  66  92 119 154 200 247 298 355
#     4  11  23  38  61  87 119 158 200 250 296 349
#
# _framework density 19.560718000000001
#
# number of rings (size 3 to 8) (size 9 to 14) (size 15 to 20)
#    0.000    1.333    5.000    4.000    7.000    0.000 
#    0.000    3.333    0.000    0.000    0.000    0.000 
#    0.000    0.000    0.000    0.000    0.000    0.000 
#
# Total GULP energy -297436.720659 kJ/mol
# GULP energy per Si atom -12393.196694 kJ/mol
# Density = 1.951620 g / cm^3
# Si number density = 19.560718 Si / 1000 Ang^3
#
#
#
# Elastic Constant Matrix: (Units=GPa)
#
#
# Indices 1 2 3 4 5 6 
#
# 1 98.3734 37.6966 14.6266 0.0000 15.9286 0.0000
# 2 37.6966 83.6567 35.5868 0.0000 7.5947 0.0000
# 3 14.6266 35.5868 95.3970 0.0000 21.3922 0.0000
# 4 0.0000 0.0000 0.0000 23.3834 0.0000 10.0574
# 5 15.9286 7.5947 21.3922 0.0000 30.5392 0.0000
# 6 0.0000 0.0000 0.0000 10.0574 0.0000 23.8863
#
#
#
# Elastic Compliance Matrix: (Units=1/GPa)
#
#
# Indices 1 2 3 4 5 6 
#
# 1 0.013338 -0.006146 0.001738 0.000000 -0.006646 0.000000
# 2 -0.006146 0.017042 -0.006149 0.000000 0.003275 0.000000
# 3 0.001738 -0.006149 0.014676 0.000000 -0.009657 0.000000
# 4 0.000000 0.000000 0.000000 0.052223 0.000000 -0.021989
# 5 -0.006646 0.003275 -0.009657 0.000000 0.042162 0.000000
# 6 0.000000 0.000000 0.000000 -0.021989 0.000000 0.051123
#
#
# Mechanical properties :
#
#
# Convention : Reuss Voigt Hill
#
# Bulk Modulus (GPa) = 41.77043 50.36077 46.06560
# Shear Modulus (GPa) = 22.76257 28.19625 25.47941
#
# Velocity S-wave (km/s) = 3.41499 3.80079 3.61304
# Velocity P-wave (km/s) = 6.07866 6.71291 6.40364
#
# Compressibility (1/GPa) = 0.02394038
#
# Stress axis : x y z
#
# Youngs Moduli (GPa) = 74.97189 58.67935 68.14056
#
# Poissons Ratio (x) = 0.36067 -0.11843
# Poissons Ratio (y) = 0.46081 0.41902
# Poissons Ratio (z) = -0.13031 0.36084
#
# Static dielectric constant tensor:
#      x y z
#    x 3.748450 0.000000 0.305740 
#    y 0.000000 3.386770 0.000000 
#    z 0.305740 0.000000 3.678010 
# 
# 
# High freq. dielectric constant tensor:
#      x y z
#    x 1.765300 0.000000 0.024580 
#    y 0.000000 1.721360 0.000000 
#    z 0.024580 0.000000 1.778020 
# 
# From -- ./inp_files/56122.got.cif
#   From: 2010.03.12/outbox.cif.g09.slc.cpg/sg14_29_cif.got.tgz:56122.got - 2010.03.31 13:35:05.
