data_PCOD8124898
_publ_section_title
;
Structure prediction by ZEFSAII (Michael W. Deem and Ramdas Pophale) SiO2 
 PCOD8124898
Probable space group: P 21/C
;
_chemical_formula_sum "Si O2"
_cell_formula_units_Z 20
_cell_length_a 13.247394
_cell_length_b 5.141507
_cell_length_c 17.737665
_cell_angle_alpha 90.000000
_cell_angle_beta 57.761418
_cell_angle_gamma 90.000000
_cell_volume 1021.886227
_symmetry_space_group_name_H-M "P 21/C"
_symmetry_group_IT_number 14
_symmetry_cell_setting 'monoclinic'
loop_
_space_group_symop_operation_xyz
x,y,z
-x,1/2+y,1/2-z
-x,-y,-z
x,1/2-y,1/2+z
loop_
_atom_site_type_symbol
_atom_site_label
_atom_site_fract_x
_atom_site_fract_y
_atom_site_fract_z
Si Si1 0.861774 0.313135 0.852655
Si Si2 0.675332 0.320473 0.056928
Si Si3 0.862796 0.687185 0.256399
Si Si4 0.547671 0.808755 0.139038
Si Si5 0.676393 0.538079 0.210913
O O1 0.830801 0.535813 0.804824
O O2 0.999385 0.330300 0.822356
O O3 0.830568 0.036607 0.828754
O O4 0.785871 0.354188 0.957679
O O5 0.575144 0.545240 0.080828
O O6 0.724280 0.357142 0.123186
O O7 0.616134 0.040852 0.069520
O O8 0.787526 0.657161 0.210378
O O9 0.596137 0.771914 0.206316
O O10 0.407017 0.870896 0.199022
#
# Coordination Sequence:
#
# PCOD8124898 Si02
#       5
#     4   4   4   4   4
#     4  10  22  42  54  85 117 147 190 233 279 329
#     4  10  20  36  60  81 119 142 185 241 272 324
#     4  10  23  38  62  78 115 157 184 228 285 339
#     4  10  20  35  59  84 114 144 183 239 274 331
#     4  10  21  37  62  83 113 149 193 221 289 329
#
# _framework density 19.571649000000001
#
# number of rings (size 3 to 8) (size 9 to 14) (size 15 to 20)
#    1.200    0.800    2.000    1.200    2.800    0.800 
#    0.000    7.000    0.000    0.000    0.000    0.000 
#    0.000    0.000    0.000    0.000    0.000    0.000 
#
# Total GULP energy -247925.440034 kJ/mol
# GULP energy per Si atom -12396.272002 kJ/mol
# Density = 1.952710 g / cm^3
# Si number density = 19.571649 Si / 1000 Ang^3
#
#
#
# Elastic Constant Matrix: (Units=GPa)
#
#
# Indices 1 2 3 4 5 6 
#
# 1 33.3083 -4.2417 9.4270 0.0000 -0.4915 0.0000
# 2 -4.2417 88.7552 2.3975 0.0000 -12.3606 0.0000
# 3 9.4270 2.3975 89.0231 0.0000 -34.5266 0.0000
# 4 0.0000 0.0000 0.0000 22.9316 0.0000 -3.6834
# 5 -0.4915 -12.3606 -34.5266 0.0000 28.2627 0.0000
# 6 0.0000 0.0000 0.0000 -3.6834 0.0000 18.3067
#
#
#
# Elastic Compliance Matrix: (Units=1/GPa)
#
#
# Indices 1 2 3 4 5 6 
#
# 1 0.031662 0.000818 -0.005744 0.000000 -0.006109 0.000000
# 2 0.000818 0.012536 0.003245 0.000000 0.009461 0.000000
# 3 -0.005744 0.003245 0.023310 0.000000 0.029795 0.000000
# 4 0.000000 0.000000 0.000000 0.045064 0.000000 0.009067
# 5 -0.006109 0.009461 0.029795 0.000000 0.075813 0.000000
# 6 0.000000 0.000000 0.000000 0.009067 0.000000 0.056449
#
#
# Mechanical properties :
#
#
# Convention : Reuss Voigt Hill
#
# Bulk Modulus (GPa) = 15.58962 25.13913 20.36437
# Shear Modulus (GPa) = 18.54748 27.46713 23.00730
#
# Velocity S-wave (km/s) = 3.08177 3.75028 3.43234
# Velocity P-wave (km/s) = 4.54376 5.62364 5.11229
#
# Compressibility (1/GPa) = 0.06414524
#
# Stress axis : x y z
#
# Youngs Moduli (GPa) = 31.58341 79.77025 42.90064
#
# Poissons Ratio (x) = -0.06522 0.24643
# Poissons Ratio (y) = -0.02582 -0.13923
# Poissons Ratio (z) = 0.18142 -0.25888
#
# Static dielectric constant tensor:
#      x y z
#    x 3.270290 0.000000 -0.143780 
#    y 0.000000 3.705860 0.000000 
#    z -0.143780 0.000000 3.276940 
# 
# 
# High freq. dielectric constant tensor:
#      x y z
#    x 1.738030 0.000000 -0.018000 
#    y 0.000000 1.778140 0.000000 
#    z -0.018000 0.000000 1.749110 
# 
# From -- ./inp_files/42551.got.cif
#   From: 2010.03.12/outbox.cif.g09.slc.cpg/sg14_22_cif.got.tgz:42551.got - 2010.03.31 13:35:05.
