data_PCOD8124278
_publ_section_title
;
Structure prediction by ZEFSAII (Michael W. Deem and Ramdas Pophale) SiO2 
 PCOD8124278
Probable space group: P 21/C
;
_chemical_formula_sum "Si O2"
_cell_formula_units_Z 24
_cell_length_a 9.047085
_cell_length_b 16.539373
_cell_length_c 8.891953
_cell_angle_alpha 90.000000
_cell_angle_beta 115.825059
_cell_angle_gamma 90.000000
_cell_volume 1197.648300
_symmetry_space_group_name_H-M "P 21/C"
_symmetry_group_IT_number 14
_symmetry_cell_setting 'monoclinic'
loop_
_space_group_symop_operation_xyz
x,y,z
-x,1/2+y,1/2-z
-x,-y,-z
x,1/2-y,1/2+z
loop_
_atom_site_type_symbol
_atom_site_label
_atom_site_fract_x
_atom_site_fract_y
_atom_site_fract_z
Si Si1 0.336768 0.073303 0.562264
Si Si2 0.664003 0.400498 0.067028
Si Si3 0.130751 0.405294 0.234694
Si Si4 0.944446 0.122511 0.919766
Si Si5 0.006451 0.578291 0.227272
Si Si6 0.871522 0.306596 0.945853
O O1 0.497169 0.123153 0.581120
O O2 0.307677 0.090596 0.729399
O O3 0.180078 0.102885 0.396113
O O4 0.367882 0.978486 0.550514
O O5 0.808705 0.419929 0.252004
O O6 0.711232 0.327116 0.975868
O O7 0.121000 0.381702 0.407960
O O8 0.046506 0.492435 0.169841
O O9 0.029661 0.335638 0.106988
O O10 0.881928 0.212092 0.922977
O O11 0.965853 0.072837 0.081953
O O12 0.129595 0.646267 0.214320
#
# Coordination Sequence:
#
# PCOD8124278 Si02
#       6
#     4   4   4   4   4   4
#     4  10  19  36  60  78 110 144 190 223 274 332
#     4  10  20  37  55  82 110 151 180 222 281 343
#     4  10  19  36  57  84 106 149 190 230 267 332
#     4  11  22  33  57  86 116 139 188 236 280 316
#     4  11  18  35  59  86 106 146 191 241 260 321
#     4  10  19  37  56  80 113 156 182 220 284 346
#
# _framework density 20.039272
#
# number of rings (size 3 to 8) (size 9 to 14) (size 15 to 20)
#    0.000    1.667    5.000    3.500    0.000    0.000 
#    0.000    9.167    0.000    0.000    0.000    0.000 
#    0.000    0.000    0.000    0.000    0.000    0.000 
#
# Total GULP energy -297385.715001 kJ/mol
# GULP energy per Si atom -12391.071458 kJ/mol
# Density = 1.999366 g / cm^3
# Si number density = 20.039272 Si / 1000 Ang^3
#
#
#
# Elastic Constant Matrix: (Units=GPa)
#
#
# Indices 1 2 3 4 5 6 
#
# 1 156.6222 14.8185 30.6615 0.0000 -41.8621 0.0000
# 2 14.8185 39.2337 -13.8901 0.0000 -6.4541 0.0000
# 3 30.6615 -13.8901 72.2960 0.0000 -29.0962 0.0000
# 4 0.0000 0.0000 0.0000 24.4255 0.0000 -12.3992
# 5 -41.8621 -6.4541 -29.0962 0.0000 35.0618 0.0000
# 6 0.0000 0.0000 0.0000 -12.3992 0.0000 20.2179
#
#
#
# Elastic Compliance Matrix: (Units=1/GPa)
#
#
# Indices 1 2 3 4 5 6 
#
# 1 0.009496 -0.001715 0.000119 0.000000 0.011121 0.000000
# 2 -0.001715 0.033256 0.013147 0.000000 0.014984 0.000000
# 3 0.000119 0.013147 0.026033 0.000000 0.024166 0.000000
# 4 0.000000 0.000000 0.000000 0.059448 0.000000 0.036458
# 5 0.011121 0.014984 0.024166 0.000000 0.064611 0.000000
# 6 0.000000 0.000000 0.000000 0.036458 0.000000 0.071820
#
#
# Mechanical properties :
#
#
# Convention : Reuss Voigt Hill
#
# Bulk Modulus (GPa) = 10.88300 36.81464 23.84882
# Shear Modulus (GPa) = 18.36937 31.71185 25.04061
#
# Velocity S-wave (km/s) = 3.03094 3.98236 3.53877
# Velocity P-wave (km/s) = 4.20612 6.28941 5.35015
#
# Compressibility (1/GPa) = 0.09188640
#
# Stress axis : x y z
#
# Youngs Moduli (GPa) = 105.30519 30.07006 38.41227
#
# Poissons Ratio (x) = 0.05158 -0.00456
# Poissons Ratio (y) = 0.18063 -0.50502
# Poissons Ratio (z) = -0.01249 -0.39534
#
# Static dielectric constant tensor:
#      x y z
#    x 3.935290 0.000000 -0.614360 
#    y 0.000000 3.414460 0.000000 
#    z -0.614360 0.000000 3.682700 
# 
# 
# High freq. dielectric constant tensor:
#      x y z
#    x 1.769640 0.000000 -0.049140 
#    y 0.000000 1.771390 0.000000 
#    z -0.049140 0.000000 1.766090 
# 
# From -- ./inp_files/8627.got.cif
#   From: 2010.03.12/outbox.cif.g09.slc.cpg/sg14_5_cif.got.tgz:8627.got - 2010.03.31 13:35:05.
