data_PCOD8124806
_publ_section_title
;
Structure prediction by ZEFSAII (Michael W. Deem and Ramdas Pophale) SiO2 
 PCOD8124806
Probable space group: P 21/C
;
_chemical_formula_sum "Si O2"
_cell_formula_units_Z 32
_cell_length_a 18.509450
_cell_length_b 19.559805
_cell_length_c 9.687370
_cell_angle_alpha 90.000000
_cell_angle_beta 29.331703
_cell_angle_gamma 90.000000
_cell_volume 1718.067629
_symmetry_space_group_name_H-M "P 21/C"
_symmetry_group_IT_number 14
_symmetry_cell_setting 'monoclinic'
loop_
_space_group_symop_operation_xyz
x,y,z
-x,1/2+y,1/2-z
-x,-y,-z
x,1/2-y,1/2+z
loop_
_atom_site_type_symbol
_atom_site_label
_atom_site_fract_x
_atom_site_fract_y
_atom_site_fract_z
Si Si1 0.915037 0.411563 0.523911
Si Si2 0.197005 0.778297 0.658562
Si Si3 0.625130 0.673760 0.092134
Si Si4 0.837133 0.945994 0.193927
Si Si5 0.987549 0.842698 0.405661
Si Si6 0.985985 0.633468 0.204354
Si Si7 0.232492 0.244200 0.378938
Si Si8 0.695860 0.311779 0.293514
O O1 0.796906 0.473908 0.734761
O O2 0.920211 0.387548 0.356810
O O3 0.070937 0.440954 0.317065
O O4 0.883841 0.349543 0.679460
O O5 0.077868 0.724073 0.803347
O O6 0.278485 0.756583 0.661141
O O7 0.322491 0.789179 0.334248
O O8 0.692966 0.599053 0.956731
O O9 0.695701 0.717193 0.099511
O O10 0.645979 0.717467 0.917155
O O11 0.455067 0.654956 0.402374
O O12 0.926225 0.922450 0.909178
O O13 0.955375 0.888277 0.595871
O O14 0.833369 0.820395 0.593804
O O15 0.162910 0.638772 0.928444
O O16 0.906795 0.706755 0.358214
#
# Coordination Sequence:
#
# PCOD8124806 Si02
#       8
#     4   4   4   4   4   4   4   4
#     4  11  20  36  60  86 111 147 196 229 281 334
#     4  11  19  35  57  88 110 143 189 238 277 330
#     4  11  22  35  54  88 120 145 181 239 296 324
#     4  10  22  37  57  82 117 152 185 233 280 342
#     4  11  18  32  60  85 109 138 193 238 273 319
#     4  10  20  34  57  79 109 150 191 227 275 337
#     4  11  18  34  54  84 114 144 183 241 282 322
#     4  11  21  33  56  85 114 145 186 237 282 335
#
# _framework density 18.625575999999999
#
# number of rings (size 3 to 8) (size 9 to 14) (size 15 to 20)
#    0.000    1.250    6.250    2.250    0.000    0.500 
#    0.000    0.625    0.000    3.000    0.000    0.000 
#    0.000    0.000    0.000    0.000    0.000    0.000 
#
# Total GULP energy -396656.936506 kJ/mol
# GULP energy per Si atom -12395.529266 kJ/mol
# Density = 1.858318 g / cm^3
# Si number density = 18.625576 Si / 1000 Ang^3
#
#
#
# Elastic Constant Matrix: (Units=GPa)
#
#
# Indices 1 2 3 4 5 6 
#
# 1 74.5576 26.2424 32.3125 0.0000 21.9718 0.0000
# 2 26.2424 79.2543 13.7353 0.0000 4.6428 0.0000
# 3 32.3125 13.7353 98.3186 0.0000 4.8220 0.0000
# 4 0.0000 0.0000 0.0000 13.8987 0.0000 1.9534
# 5 21.9718 4.6428 4.8220 0.0000 37.2355 0.0000
# 6 0.0000 0.0000 0.0000 1.9534 0.0000 17.6411
#
#
#
# Elastic Compliance Matrix: (Units=1/GPa)
#
#
# Indices 1 2 3 4 5 6 
#
# 1 0.020947 -0.005322 -0.005603 0.000000 -0.010971 0.000000
# 2 -0.005322 0.014355 -0.000325 0.000000 0.001393 0.000000
# 3 -0.005603 -0.000325 0.011970 0.000000 0.001796 0.000000
# 4 0.000000 0.000000 0.000000 0.073087 0.000000 -0.008093
# 5 -0.010971 0.001393 0.001796 0.000000 0.032924 0.000000
# 6 0.000000 0.000000 0.000000 -0.008093 0.000000 0.057582
#
#
# Mechanical properties :
#
#
# Convention : Reuss Voigt Hill
#
# Bulk Modulus (GPa) = 40.36753 44.07897 42.22325
# Shear Modulus (GPa) = 20.69367 25.74441 23.21904
#
# Velocity S-wave (km/s) = 3.33684 3.72184 3.53458
# Velocity P-wave (km/s) = 6.04700 6.49513 6.27506
#
# Compressibility (1/GPa) = 0.02477238
#
# Stress axis : x y z
#
# Youngs Moduli (GPa) = 47.73944 69.66441 83.54529
#
# Poissons Ratio (x) = 0.37077 0.46807
# Poissons Ratio (y) = 0.25408 0.02711
# Poissons Ratio (z) = 0.26747 0.02261
#
# Static dielectric constant tensor:
#      x y z
#    x 3.612110 0.000000 0.377620 
#    y 0.000000 3.301760 0.000000 
#    z 0.377620 0.000000 3.464530 
# 
# 
# High freq. dielectric constant tensor:
#      x y z
#    x 1.727460 0.000000 0.030610 
#    y 0.000000 1.696960 0.000000 
#    z 0.030610 0.000000 1.715440 
# 
# From -- ./inp_files/18224.got.cif
#   From: 2010.03.12/outbox.cif.g09.slc.cpg/sg14_10_cif.got.tgz:18224.got - 2010.03.31 13:35:05.
