data_PCOD8124634
_publ_section_title
;
Structure prediction by ZEFSAII (Michael W. Deem and Ramdas Pophale) SiO2 
 PCOD8124634
Probable space group: P 21/C
;
_chemical_formula_sum "Si O2"
_cell_formula_units_Z 32
_cell_length_a 14.634381
_cell_length_b 9.101650
_cell_length_c 22.994943
_cell_angle_alpha 90.000000
_cell_angle_beta 151.328618
_cell_angle_gamma 90.000000
_cell_volume 1469.514188
_symmetry_space_group_name_H-M "P 21/C"
_symmetry_group_IT_number 14
_symmetry_cell_setting 'monoclinic'
loop_
_space_group_symop_operation_xyz
x,y,z
-x,1/2+y,1/2-z
-x,-y,-z
x,1/2-y,1/2+z
loop_
_atom_site_type_symbol
_atom_site_label
_atom_site_fract_x
_atom_site_fract_y
_atom_site_fract_z
Si Si1 0.257927 0.541122 0.571934
Si Si2 0.973433 0.395794 0.154986
Si Si3 0.311203 0.902314 0.404742
Si Si4 0.670775 0.423600 0.629474
Si Si5 0.107096 0.081294 0.203636
Si Si6 0.633275 0.472080 0.244094
Si Si7 0.390293 0.634306 0.275878
Si Si8 0.266821 0.622794 0.083425
O O1 0.222975 0.513901 0.620943
O O2 0.403080 0.420661 0.628582
O O3 0.328962 0.709322 0.603450
O O4 0.063558 0.516621 0.429480
O O5 0.768058 0.396781 0.073335
O O6 0.118956 0.510908 0.266036
O O7 0.075921 0.238440 0.215372
O O8 0.924978 0.421561 0.059157
O O9 0.348516 0.741841 0.401578
O O10 0.500000 0.000000 0.500000
O O11 0.134529 0.969163 0.271275
O O12 0.500000 0.500000 0.500000
O O13 0.656560 0.449983 0.690891
O O14 0.294992 0.078503 0.267438
O O15 0.613716 0.305959 0.210371
O O16 0.426915 0.514727 0.150554
O O17 0.242191 0.602380 0.139728
#
# Coordination Sequence:
#
# PCOD8124634 Si02
#       8
#     4   4   4   4   4   4   4   4
#     4   9  21  37  66  94 131 170 215 275 324 400
#     4  11  26  43  67  98 131 174 220 272 334 396
#     4  12  26  47  69  93 129 175 222 277 333 396
#     4  12  28  44  68  99 134 176 222 276 326 398
#     4  11  22  41  65  93 129 172 216 276 328 397
#     4  10  19  40  63  98 129 172 219 265 338 390
#     4  10  22  41  64  98 132 172 222 268 333 386
#     4   9  21  41  68  94 133 173 217 274 329 398
#
# _framework density 21.775905999999999
#
# number of rings (size 3 to 8) (size 9 to 14) (size 15 to 20)
#    0.000    1.500    1.250    2.625    7.000    1.500 
#    0.000    0.000    0.000    0.000    0.000    0.000 
#    0.000    0.000    0.000    0.000    0.000    0.000 
#
# Total GULP energy -396625.687397 kJ/mol
# GULP energy per Si atom -12394.552731 kJ/mol
# Density = 2.172634 g / cm^3
# Si number density = 21.775906 Si / 1000 Ang^3
#
#
#
# Elastic Constant Matrix: (Units=GPa)
#
#
# Indices 1 2 3 4 5 6 
#
# 1 114.9907 36.5430 32.5618 0.0000 -9.7357 0.0000
# 2 36.5430 100.0365 55.7295 0.0000 -3.0923 0.0000
# 3 32.5618 55.7295 122.9315 0.0000 -17.8592 0.0000
# 4 0.0000 0.0000 0.0000 35.1462 0.0000 -0.2637
# 5 -9.7357 -3.0923 -17.8592 0.0000 33.0585 0.0000
# 6 0.0000 0.0000 0.0000 -0.2637 0.0000 35.3603
#
#
#
# Elastic Compliance Matrix: (Units=1/GPa)
#
#
# Indices 1 2 3 4 5 6 
#
# 1 0.010138 -0.003099 -0.000965 0.000000 0.002175 0.000000
# 2 -0.003099 0.014470 -0.006158 0.000000 -0.002886 0.000000
# 3 -0.000965 -0.006158 0.011999 0.000000 0.005622 0.000000
# 4 0.000000 0.000000 0.000000 0.028454 0.000000 0.000212
# 5 0.002175 -0.002886 0.005622 0.000000 0.033657 0.000000
# 6 0.000000 0.000000 0.000000 0.000212 0.000000 0.028282
#
#
# Mechanical properties :
#
#
# Convention : Reuss Voigt Hill
#
# Bulk Modulus (GPa) = 61.86807 65.29193 63.58000
# Shear Modulus (GPa) = 32.71585 34.92129 33.81857
#
# Velocity S-wave (km/s) = 3.88027 4.00892 3.94512
# Velocity P-wave (km/s) = 6.96766 7.17477 7.07197
#
# Compressibility (1/GPa) = 0.01616343
#
# Stress axis : x y z
#
# Youngs Moduli (GPa) = 98.63444 69.10938 83.34324
#
# Poissons Ratio (x) = 0.21416 0.08040
# Poissons Ratio (y) = 0.30566 0.51324
# Poissons Ratio (z) = 0.09515 0.42559
#
# Static dielectric constant tensor:
#      x y z
#    x 4.037960 0.000000 -0.379030 
#    y 0.000000 3.936430 0.000000 
#    z -0.379030 0.000000 4.040580 
# 
# 
# High freq. dielectric constant tensor:
#      x y z
#    x 1.857040 0.000000 -0.022570 
#    y 0.000000 1.851860 0.000000 
#    z -0.022570 0.000000 1.863100 
# 
# From -- ./inp_files/73769.got.cif
#   From: 2010.03.12/outbox.cif.g09.slc.cpg/sg14_37_cif.got.tgz:73769.got - 2010.03.31 13:35:05.
