data_PCOD8124490
_publ_section_title
;
Structure prediction by ZEFSAII (Michael W. Deem and Ramdas Pophale) SiO2 
 PCOD8124490
Probable space group: P 21/C
;
_chemical_formula_sum "Si O2"
_cell_formula_units_Z 32
_cell_length_a 10.455672
_cell_length_b 9.986179
_cell_length_c 22.022176
_cell_angle_alpha 90.000000
_cell_angle_beta 38.435798
_cell_angle_gamma 90.000000
_cell_volume 1429.382943
_symmetry_space_group_name_H-M "P 21/C"
_symmetry_group_IT_number 14
_symmetry_cell_setting 'monoclinic'
loop_
_space_group_symop_operation_xyz
x,y,z
-x,1/2+y,1/2-z
-x,-y,-z
x,1/2-y,1/2+z
loop_
_atom_site_type_symbol
_atom_site_label
_atom_site_fract_x
_atom_site_fract_y
_atom_site_fract_z
Si Si1 0.053521 0.690337 0.695987
Si Si2 0.767500 0.469583 0.671620
Si Si3 0.520477 0.468988 0.646103
Si Si4 0.355891 0.321466 0.005510
Si Si5 0.669606 0.262035 0.295149
Si Si6 0.387407 0.183796 0.681348
Si Si7 0.198338 0.035613 0.063720
Si Si8 0.286942 0.885165 0.534090
O O1 0.142591 0.744240 0.726215
O O2 0.168242 0.550134 0.636607
O O3 0.090251 0.795323 0.626083
O O4 0.807152 0.664987 0.792765
O O5 0.710022 0.471311 0.622546
O O6 0.721877 0.326064 0.717847
O O7 0.638344 0.585461 0.752666
O O8 0.009530 0.493269 0.588739
O O9 0.361623 0.588531 0.718011
O O10 0.390093 0.335024 0.703792
O O11 0.601521 0.482737 0.546607
O O12 0.220767 0.191972 0.074460
O O13 0.546259 0.348359 0.977811
O O14 0.454995 0.292920 0.902724
O O15 0.220066 0.457889 0.056459
O O16 0.607783 0.152738 0.568827
#
# Coordination Sequence:
#
# PCOD8124490 Si02
#       8
#     4   4   4   4   4   4   4   4
#     4  10  23  38  61  98 124 151 208 256 324 370
#     4  11  23  41  60  89 123 167 215 251 302 371
#     4  11  23  41  63  86 123 171 212 252 305 362
#     4   9  20  35  59  85 118 162 192 249 318 365
#     4  10  22  38  59  91 122 157 203 259 304 372
#     4  11  23  38  64  88 123 165 197 266 312 365
#     4  10  22  39  64  90 121 162 210 261 305 368
#     4  10  19  38  58  87 128 158 194 248 318 377
#
# _framework density 22.387284000000001
#
# number of rings (size 3 to 8) (size 9 to 14) (size 15 to 20)
#    0.000    1.750    2.500    1.125    3.500    3.500 
#    0.000    0.000    0.000    1.500    0.000    0.000 
#    0.000    0.000    0.000    0.000    0.000    0.000 
#
# Total GULP energy -396783.693432 kJ/mol
# GULP energy per Si atom -12399.490420 kJ/mol
# Density = 2.233633 g / cm^3
# Si number density = 22.387284 Si / 1000 Ang^3
#
#
#
# Elastic Constant Matrix: (Units=GPa)
#
#
# Indices 1 2 3 4 5 6 
#
# 1 47.4600 13.2253 -6.6585 0.0000 1.2473 0.0000
# 2 13.2253 156.1281 17.8139 0.0000 5.5405 0.0000
# 3 -6.6585 17.8139 39.5390 0.0000 -1.0766 0.0000
# 4 0.0000 0.0000 0.0000 19.4646 0.0000 -2.9607
# 5 1.2473 5.5405 -1.0766 0.0000 19.8052 0.0000
# 6 0.0000 0.0000 0.0000 -2.9607 0.0000 26.4329
#
#
#
# Elastic Compliance Matrix: (Units=1/GPa)
#
#
# Indices 1 2 3 4 5 6 
#
# 1 0.022445 -0.002440 0.004866 0.000000 -0.000466 0.000000
# 2 -0.002440 0.007102 -0.003666 0.000000 -0.002032 0.000000
# 3 0.004866 -0.003666 0.027823 0.000000 0.002232 0.000000
# 4 0.000000 0.000000 0.000000 0.052266 0.000000 0.005854
# 5 -0.000466 -0.002032 0.002232 0.000000 0.051211 0.000000
# 6 0.000000 0.000000 0.000000 0.005854 0.000000 0.038487
#
#
# Mechanical properties :
#
#
# Convention : Reuss Voigt Hill
#
# Bulk Modulus (GPa) = 18.21766 32.43205 25.32485
# Shear Modulus (GPa) = 22.71578 27.72364 25.21971
#
# Velocity S-wave (km/s) = 3.18885 3.52286 3.36001
# Velocity P-wave (km/s) = 4.65978 5.57366 5.13708
#
# Compressibility (1/GPa) = 0.05489180
#
# Stress axis : x y z
#
# Youngs Moduli (GPa) = 44.55275 140.80355 35.94086
#
# Poissons Ratio (x) = 0.34356 -0.17491
# Poissons Ratio (y) = 0.10871 0.13176
# Poissons Ratio (z) = -0.21682 0.51619
#
# Static dielectric constant tensor:
#      x y z
#    x 3.617200 0.000000 -0.058860 
#    y 0.000000 4.398520 0.000000 
#    z -0.058860 0.000000 3.985810 
# 
# 
# High freq. dielectric constant tensor:
#      x y z
#    x 1.841810 0.000000 -0.001990 
#    y 0.000000 1.901530 0.000000 
#    z -0.001990 0.000000 1.876820 
# 
# From -- ./inp_files/73108.got.cif
#   From: 2010.03.12/outbox.cif.g09.slc.cpg/sg14_37_cif.got.tgz:73108.got - 2010.03.31 13:35:05.
