data_PCOD8124290
_publ_section_title
;
Structure prediction by ZEFSAII (Michael W. Deem and Ramdas Pophale) SiO2 
 PCOD8124290
Probable space group: P 21/C
;
_chemical_formula_sum "Si O2"
_cell_formula_units_Z 28
_cell_length_a 8.783707
_cell_length_b 14.263779
_cell_length_c 13.952309
_cell_angle_alpha 90.000000
_cell_angle_beta 126.003304
_cell_angle_gamma 90.000000
_cell_volume 1414.158134
_symmetry_space_group_name_H-M "P 21/C"
_symmetry_group_IT_number 14
_symmetry_cell_setting 'monoclinic'
loop_
_space_group_symop_operation_xyz
x,y,z
-x,1/2+y,1/2-z
-x,-y,-z
x,1/2-y,1/2+z
loop_
_atom_site_type_symbol
_atom_site_label
_atom_site_fract_x
_atom_site_fract_y
_atom_site_fract_z
Si Si1 0.432534 0.018490 0.112356
Si Si2 0.037490 0.472874 0.803733
Si Si3 0.292171 0.116261 0.547918
Si Si4 0.603390 0.959066 0.689565
Si Si5 0.548235 0.725987 0.060944
Si Si6 0.237273 0.125840 0.739729
Si Si7 0.702383 0.382785 0.581132
O O1 0.353052 0.060271 0.181977
O O2 0.511197 0.099195 0.071824
O O3 0.604468 0.952023 0.200610
O O4 0.275638 0.958406 0.997141
O O5 0.199939 0.484791 0.786108
O O6 0.948859 0.575723 0.787259
O O7 0.890255 0.392495 0.713268
O O8 0.116776 0.435451 0.933344
O O9 0.366121 0.202387 0.511274
O O10 0.216278 0.156795 0.620828
O O11 0.463881 0.044761 0.623041
O O12 0.509367 0.867845 0.607047
O O13 0.707135 0.785770 0.175353
O O14 0.344763 0.778825 0.977060
#
# Coordination Sequence:
#
# PCOD8124290 Si02
#       7
#     4   4   4   4   4   4   4
#     4   8  17  35  59  79 108 156 185 226 294 338
#     4  10  19  36  58  84 115 147 191 235 292 339
#     4  10  21  40  59  80 117 161 185 230 291 349
#     4  10  21  38  58  81 117 157 189 229 291 350
#     4  10  20  35  57  85 114 146 195 234 283 332
#     4   9  19  36  61  84 107 149 199 232 276 343
#     4   9  18  34  58  83 112 145 192 242 275 337
#
# _framework density 19.799766999999999
#
# number of rings (size 3 to 8) (size 9 to 14) (size 15 to 20)
#    0.000    2.571    0.000    3.000    2.000    0.571 
#   10.286    0.000    0.000    0.000    0.000    0.000 
#    0.000    0.000    0.000    0.000    0.000    0.000 
#
# Total GULP energy -347081.083178 kJ/mol
# GULP energy per Si atom -12395.752971 kJ/mol
# Density = 1.975470 g / cm^3
# Si number density = 19.799767 Si / 1000 Ang^3
#
#
#
# Elastic Constant Matrix: (Units=GPa)
#
#
# Indices 1 2 3 4 5 6 
#
# 1 87.8541 43.6801 54.6023 0.0000 -16.6316 0.0000
# 2 43.6801 78.3727 30.4381 0.0000 -7.2361 0.0000
# 3 54.6023 30.4381 102.9458 0.0000 -15.1324 0.0000
# 4 0.0000 0.0000 0.0000 27.5782 0.0000 -2.6065
# 5 -16.6316 -7.2361 -15.1324 0.0000 39.8092 0.0000
# 6 0.0000 0.0000 0.0000 -2.6065 0.0000 18.7882
#
#
#
# Elastic Compliance Matrix: (Units=1/GPa)
#
#
# Indices 1 2 3 4 5 6 
#
# 1 0.021524 -0.008372 -0.008307 0.000000 0.004313 0.000000
# 2 -0.008372 0.017713 -0.000887 0.000000 -0.000615 0.000000
# 3 -0.008307 -0.000887 0.014668 0.000000 0.001944 0.000000
# 4 0.000000 0.000000 0.000000 0.036742 0.000000 0.005097
# 5 0.004313 -0.000615 0.001944 0.000000 0.027549 0.000000
# 6 0.000000 0.000000 0.000000 0.005097 0.000000 0.053932
#
#
# Mechanical properties :
#
#
# Convention : Reuss Voigt Hill
#
# Bulk Modulus (GPa) = 53.26794 58.51263 55.89029
# Shear Modulus (GPa) = 23.41707 26.59858 25.00782
#
# Velocity S-wave (km/s) = 3.44276 3.66919 3.55778
# Velocity P-wave (km/s) = 6.53951 6.89688 6.72057
#
# Compressibility (1/GPa) = 0.01877302
#
# Stress axis : x y z
#
# Youngs Moduli (GPa) = 46.45890 56.45473 68.17537
#
# Poissons Ratio (x) = 0.47263 0.56635
# Poissons Ratio (y) = 0.38895 0.06049
# Poissons Ratio (z) = 0.38594 0.05009
#
# Static dielectric constant tensor:
#      x y z
#    x 3.567920 0.000000 -0.382120 
#    y 0.000000 3.547220 0.000000 
#    z -0.382120 0.000000 4.011060 
# 
# 
# High freq. dielectric constant tensor:
#      x y z
#    x 1.751790 0.000000 -0.018360 
#    y 0.000000 1.759610 0.000000 
#    z -0.018360 0.000000 1.787120 
# 
# From -- ./inp_files/41268.got.cif
#   From: 2010.03.12/outbox.cif.g09.slc.cpg/sg14_21_cif.got.tgz:41268.got - 2010.03.31 13:35:05.
