data_PCOD8124279
_publ_section_title
;
Structure prediction by ZEFSAII (Michael W. Deem and Ramdas Pophale) SiO2 
 PCOD8124279
Probable space group: P 21/C
;
_chemical_formula_sum "Si O2"
_cell_formula_units_Z 28
_cell_length_a 30.360069
_cell_length_b 8.372092
_cell_length_c 10.020810
_cell_angle_alpha 90.000000
_cell_angle_beta 146.111025
_cell_angle_gamma 90.000000
_cell_volume 1420.204735
_symmetry_space_group_name_H-M "P 21/C"
_symmetry_group_IT_number 14
_symmetry_cell_setting 'monoclinic'
loop_
_space_group_symop_operation_xyz
x,y,z
-x,1/2+y,1/2-z
-x,-y,-z
x,1/2-y,1/2+z
loop_
_atom_site_type_symbol
_atom_site_label
_atom_site_fract_x
_atom_site_fract_y
_atom_site_fract_z
Si Si1 0.982227 0.630027 0.065782
Si Si2 0.270272 0.289700 0.917211
Si Si3 0.384275 0.458510 0.615633
Si Si4 0.829890 0.806757 0.573369
Si Si5 0.403607 0.457664 0.371682
Si Si6 0.527539 0.258212 0.066782
Si Si7 0.940940 0.045730 0.736339
O O1 0.966412 0.541657 0.164704
O O2 0.053685 0.760452 0.266503
O O3 0.905908 0.718851 0.820221
O O4 0.000000 0.500000 0.000000
O O5 0.225017 0.329989 0.938144
O O6 0.213213 0.304468 0.645913
O O7 0.342762 0.417088 0.097034
O O8 0.313334 0.115039 0.026732
O O9 0.357823 0.435535 0.395992
O O10 0.399027 0.643485 0.686659
O O11 0.468562 0.372976 0.840438
O O12 0.854939 0.976800 0.566566
O O13 0.433391 0.637845 0.439678
O O14 0.479608 0.340346 0.558490
O O15 0.000000 0.000000 0.000000
#
# Coordination Sequence:
#
# PCOD8124279 Si02
#       7
#     4   4   4   4   4   4   4
#     4  11  23  41  67  97 122 158 205 250 299 358
#     4  11  22  39  62  84 122 169 194 247 306 371
#     4  10  19  36  57  84 116 152 207 252 306 360
#     4  11  22  42  62  88 125 163 204 246 311 363
#     4  10  19  36  58  83 116 153 207 248 310 359
#     4   9  20  34  56  86 110 155 198 263 302 358
#     4  10  21  38  65  92 124 156 199 252 293 357
#
# _framework density 19.715465999999999
#
# number of rings (size 3 to 8) (size 9 to 14) (size 15 to 20)
#    0.000    1.714    2.857    2.571    2.000    0.000 
#    5.143    2.857    0.000    0.000    0.000    0.000 
#    0.000    0.000    0.000    0.000    0.000    0.000 
#
# Total GULP energy -346926.618570 kJ/mol
# GULP energy per Si atom -12390.236377 kJ/mol
# Density = 1.967059 g / cm^3
# Si number density = 19.715466 Si / 1000 Ang^3
#
#
#
# Elastic Constant Matrix: (Units=GPa)
#
#
# Indices 1 2 3 4 5 6 
#
# 1 119.3484 41.4405 19.4588 0.0000 -5.7822 0.0000
# 2 41.4405 115.7276 24.8487 0.0000 2.0433 0.0000
# 3 19.4588 24.8487 82.8759 0.0000 -7.3001 0.0000
# 4 0.0000 0.0000 0.0000 27.4773 0.0000 -2.7654
# 5 -5.7822 2.0433 -7.3001 0.0000 30.5828 0.0000
# 6 0.0000 0.0000 0.0000 -2.7654 0.0000 19.8181
#
#
#
# Elastic Compliance Matrix: (Units=1/GPa)
#
#
# Indices 1 2 3 4 5 6 
#
# 1 0.009797 -0.003292 -0.001155 0.000000 0.001797 0.000000
# 2 -0.003292 0.010393 -0.002512 0.000000 -0.001916 0.000000
# 3 -0.001155 -0.002512 0.013367 0.000000 0.003140 0.000000
# 4 0.000000 0.000000 0.000000 0.036912 0.000000 0.005151
# 5 0.001797 -0.001916 0.003140 0.000000 0.033915 0.000000
# 6 0.000000 0.000000 0.000000 0.005151 0.000000 0.051178
#
#
# Mechanical properties :
#
#
# Convention : Reuss Voigt Hill
#
# Bulk Modulus (GPa) = 50.91806 54.38309 52.65058
# Shear Modulus (GPa) = 28.40471 31.05589 29.73030
#
# Velocity S-wave (km/s) = 3.79982 3.97319 3.88747
# Velocity P-wave (km/s) = 6.71818 6.97798 6.84931
#
# Compressibility (1/GPa) = 0.01963940
#
# Stress axis : x y z
#
# Youngs Moduli (GPa) = 102.06950 96.21866 74.80991
#
# Poissons Ratio (x) = 0.31675 0.08641
# Poissons Ratio (y) = 0.33601 0.18792
# Poissons Ratio (z) = 0.11790 0.24170
#
# Static dielectric constant tensor:
#      x y z
#    x 3.833910 0.000000 -0.029190 
#    y 0.000000 3.731230 0.000000 
#    z -0.029190 0.000000 3.305190 
# 
# 
# High freq. dielectric constant tensor:
#      x y z
#    x 1.768480 0.000000 -0.005760 
#    y 0.000000 1.758310 0.000000 
#    z -0.005760 0.000000 1.768260 
# 
# From -- ./inp_files/19685.got.cif
#   From: 2010.03.12/outbox.cif.g09.slc.cpg/sg14_10_cif.got.tgz:19685.got - 2010.03.31 13:35:05.
