data_PCOD8124963
_publ_section_title
;
Structure prediction by ZEFSAII (Michael W. Deem and Ramdas Pophale) SiO2 
 PCOD8124963
Probable space group: P 21/C
;
_chemical_formula_sum "Si O2"
_cell_formula_units_Z 24
_cell_length_a 17.630777
_cell_length_b 5.393786
_cell_length_c 23.420734
_cell_angle_alpha 90.000000
_cell_angle_beta 30.553022
_cell_angle_gamma 90.000000
_cell_volume 1132.181644
_symmetry_space_group_name_H-M "P 21/C"
_symmetry_group_IT_number 14
_symmetry_cell_setting 'monoclinic'
loop_
_space_group_symop_operation_xyz
x,y,z
-x,1/2+y,1/2-z
-x,-y,-z
x,1/2-y,1/2+z
loop_
_atom_site_type_symbol
_atom_site_label
_atom_site_fract_x
_atom_site_fract_y
_atom_site_fract_z
Si Si1 0.321407 0.161910 0.407095
Si Si2 0.154042 0.697874 0.941244
Si Si3 0.607098 0.921058 0.245715
Si Si4 0.170040 0.342475 0.826884
Si Si5 0.067901 0.437608 0.774457
Si Si6 0.114709 0.436759 0.617627
O O1 0.416375 0.212639 0.287597
O O2 0.260230 0.394495 0.483532
O O3 0.183749 0.990542 0.475137
O O4 0.446329 0.032301 0.366649
O O5 0.166940 0.579350 0.870079
O O6 0.275281 0.910508 0.864873
O O7 0.986672 0.803577 0.060162
O O8 0.685544 0.824022 0.252541
O O9 0.183948 0.420489 0.751729
O O10 0.158446 0.420694 0.656226
O O11 0.993341 0.706974 0.826053
O O12 0.952542 0.205795 0.853222
#
# Coordination Sequence:
#
# PCOD8124963 Si02
#       6
#     4   4   4   4   4   4
#     4  11  21  36  57  85 121 158 203 240 303 367
#     4  10  20  36  55  85 116 155 193 246 302 353
#     4  11  22  34  55  86 121 159 190 249 304 362
#     4  10  21  34  58  86 117 153 198 249 300 350
#     4  10  21  40  62  90 117 156 207 256 293 349
#     4  10  22  38  64  88 117 159 206 251 296 351
#
# _framework density 21.198011000000001
#
# number of rings (size 3 to 8) (size 9 to 14) (size 15 to 20)
#    0.000    1.667    3.333    1.500    2.333    0.000 
#    0.000    0.833    0.000    1.000    0.000    0.000 
#    0.000    0.000    0.000    0.000    0.000    0.000 
#
# Total GULP energy -297388.848993 kJ/mol
# GULP energy per Si atom -12391.202041 kJ/mol
# Density = 2.114976 g / cm^3
# Si number density = 21.198011 Si / 1000 Ang^3
#
#
#
# Elastic Constant Matrix: (Units=GPa)
#
#
# Indices 1 2 3 4 5 6 
#
# 1 134.8420 10.5773 36.6055 0.0000 6.1029 0.0000
# 2 10.5773 53.1581 -2.2193 0.0000 -0.5591 0.0000
# 3 36.6055 -2.2193 43.5170 0.0000 -0.0523 0.0000
# 4 0.0000 0.0000 0.0000 24.3885 0.0000 6.6676
# 5 6.1029 -0.5591 -0.0523 0.0000 35.3599 0.0000
# 6 0.0000 0.0000 0.0000 6.6676 0.0000 19.4683
#
#
#
# Elastic Compliance Matrix: (Units=1/GPa)
#
#
# Indices 1 2 3 4 5 6 
#
# 1 0.009998 -0.002364 -0.008533 0.000000 -0.001776 0.000000
# 2 -0.002364 0.019414 0.002980 0.000000 0.000719 0.000000
# 3 -0.008533 0.002980 0.030311 0.000000 0.001565 0.000000
# 4 0.000000 0.000000 0.000000 0.045239 0.000000 -0.015494
# 5 -0.001776 0.000719 0.001565 0.000000 0.028601 0.000000
# 6 0.000000 0.000000 0.000000 -0.015494 0.000000 0.056672
#
#
# Mechanical properties :
#
#
# Convention : Reuss Voigt Hill
#
# Bulk Modulus (GPa) = 22.78503 35.71602 29.25052
# Shear Modulus (GPa) = 22.65518 28.28025 25.46771
#
# Velocity S-wave (km/s) = 3.27271 3.65649 3.46991
# Velocity P-wave (km/s) = 5.00528 5.89168 5.46648
#
# Compressibility (1/GPa) = 0.04388847
#
# Stress axis : x y z
#
# Youngs Moduli (GPa) = 100.01597 51.50862 32.99105
#
# Poissons Ratio (x) = 0.12179 0.28152
# Poissons Ratio (y) = 0.23648 -0.09831
# Poissons Ratio (z) = 0.85345 -0.15349
#
# Static dielectric constant tensor:
#      x y z
#    x 4.059950 0.000000 0.121300 
#    y 0.000000 3.826570 0.000000 
#    z 0.121300 0.000000 3.530770 
# 
# 
# High freq. dielectric constant tensor:
#      x y z
#    x 1.838000 0.000000 0.006600 
#    y 0.000000 1.832270 0.000000 
#    z 0.006600 0.000000 1.793570 
# 
# From -- ./inp_files/56623.got.cif
#   From: 2010.03.12/outbox.cif.g09.slc.cpg/sg14_29_cif.got.tgz:56623.got - 2010.03.31 13:35:05.
