data_PCOD8124096
_publ_section_title
;
Structure prediction by ZEFSAII (Michael W. Deem and Ramdas Pophale) SiO2 
 PCOD8124096
Probable space group: P 21/C
;
_chemical_formula_sum "Si O2"
_cell_formula_units_Z 24
_cell_length_a 7.704433
_cell_length_b 9.843009
_cell_length_c 14.499178
_cell_angle_alpha 90.000000
_cell_angle_beta 91.017158
_cell_angle_gamma 90.000000
_cell_volume 1099.369051
_symmetry_space_group_name_H-M "P 21/C"
_symmetry_group_IT_number 14
_symmetry_cell_setting 'monoclinic'
loop_
_space_group_symop_operation_xyz
x,y,z
-x,1/2+y,1/2-z
-x,-y,-z
x,1/2-y,1/2+z
loop_
_atom_site_type_symbol
_atom_site_label
_atom_site_fract_x
_atom_site_fract_y
_atom_site_fract_z
Si Si1 0.005106 0.387179 0.351157
Si Si2 0.820079 0.343675 0.632286
Si Si3 0.354223 0.562208 0.185920
Si Si4 0.163472 0.208644 0.680188
Si Si5 0.691589 0.203483 0.945105
Si Si6 0.330008 0.019121 0.190359
O O1 0.120502 0.505251 0.398471
O O2 0.128439 0.292511 0.290447
O O3 0.901612 0.300085 0.426630
O O4 0.860401 0.461464 0.282582
O O5 0.737234 0.348911 0.733868
O O6 0.674338 0.297167 0.556057
O O7 0.981864 0.240573 0.628378
O O8 0.235021 0.438064 0.150053
O O9 0.389256 0.659976 0.099173
O O10 0.536483 0.503156 0.224192
O O11 0.308364 0.323100 0.661043
O O12 0.601960 0.070594 0.896760
#
# Coordination Sequence:
#
# PCOD8124096 Si02
#       6
#     4   4   4   4   4   4
#     4   8  18  34  55  82 104 144 182 225 266 325
#     4  10  19  35  57  83 111 143 194 225 269 332
#     4  11  21  36  57  82 117 146 182 231 282 328
#     4  10  19  34  59  81 109 147 183 233 276 319
#     4  10  20  34  60  80 112 146 188 227 275 325
#     4   9  20  35  56  81 111 146 182 226 279 331
#
# _framework density 21.830704999999998
#
# number of rings (size 3 to 8) (size 9 to 14) (size 15 to 20)
#    1.000    1.333    1.667    1.500    0.000    1.333 
#    0.000    0.000    0.000    5.000    0.000    0.000 
#    0.000    0.000    0.000    0.000    0.000    0.000 
#
# Total GULP energy -297365.487186 kJ/mol
# GULP energy per Si atom -12390.228633 kJ/mol
# Density = 2.178102 g / cm^3
# Si number density = 21.830705 Si / 1000 Ang^3
#
#
#
# Elastic Constant Matrix: (Units=GPa)
#
#
# Indices 1 2 3 4 5 6 
#
# 1 36.9616 11.8637 1.9940 0.0000 13.4915 0.0000
# 2 11.8637 112.5796 45.2640 0.0000 6.9912 0.0000
# 3 1.9940 45.2640 80.1784 0.0000 16.0077 0.0000
# 4 0.0000 0.0000 0.0000 26.9838 0.0000 4.2858
# 5 13.4915 6.9912 16.0077 0.0000 20.6983 0.0000
# 6 0.0000 0.0000 0.0000 4.2858 0.0000 14.4276
#
#
#
# Elastic Compliance Matrix: (Units=1/GPa)
#
#
# Indices 1 2 3 4 5 6 
#
# 1 0.039397 -0.005569 0.008179 0.000000 -0.030124 0.000000
# 2 -0.005569 0.012310 -0.007930 0.000000 0.005605 0.000000
# 3 0.008179 -0.007930 0.020430 0.000000 -0.018452 0.000000
# 4 0.000000 0.000000 0.000000 0.038894 0.000000 -0.011554
# 5 -0.030124 0.005605 -0.018452 0.000000 0.080326 0.000000
# 6 0.000000 0.000000 0.000000 -0.011554 0.000000 0.072744
#
#
# Mechanical properties :
#
#
# Convention : Reuss Voigt Hill
#
# Bulk Modulus (GPa) = 16.26149 38.66255 27.46202
# Shear Modulus (GPa) = 16.93538 23.79513 20.36525
#
# Velocity S-wave (km/s) = 2.78827 3.30507 3.05761
# Velocity P-wave (km/s) = 4.22268 5.68448 5.00721
#
# Compressibility (1/GPa) = 0.06149500
#
# Stress axis : x y z
#
# Youngs Moduli (GPa) = 25.38261 81.23647 48.94866
#
# Poissons Ratio (x) = 0.45243 -0.40033
# Poissons Ratio (y) = 0.14136 0.38816
# Poissons Ratio (z) = -0.20759 0.64420
#
# Static dielectric constant tensor:
#      x y z
#    x 3.643280 0.000000 0.159750 
#    y 0.000000 3.873940 0.000000 
#    z 0.159750 0.000000 3.464640 
# 
# 
# High freq. dielectric constant tensor:
#      x y z
#    x 1.834270 0.000000 0.017080 
#    y 0.000000 1.855780 0.000000 
#    z 0.017080 0.000000 1.820550 
# 
# From -- ./inp_files/39433.got.cif
#   From: 2010.03.12/outbox.cif.g09.slc.cpg/sg14_20_cif.got.tgz:39433.got - 2010.03.31 13:35:05.
