data_PCOD8124526
_publ_section_title
;
Structure prediction by ZEFSAII (Michael W. Deem and Ramdas Pophale) SiO2 
 PCOD8124526
Probable space group: P 21/C
;
_chemical_formula_sum "Si O2"
_cell_formula_units_Z 28
_cell_length_a 9.429210
_cell_length_b 13.151658
_cell_length_c 13.595660
_cell_angle_alpha 90.000000
_cell_angle_beta 131.419992
_cell_angle_gamma 90.000000
_cell_volume 1264.293893
_symmetry_space_group_name_H-M "P 21/C"
_symmetry_group_IT_number 14
_symmetry_cell_setting 'monoclinic'
loop_
_space_group_symop_operation_xyz
x,y,z
-x,1/2+y,1/2-z
-x,-y,-z
x,1/2-y,1/2+z
loop_
_atom_site_type_symbol
_atom_site_label
_atom_site_fract_x
_atom_site_fract_y
_atom_site_fract_z
Si Si1 0.219157 0.650932 0.244248
Si Si2 0.923388 0.839707 0.950486
Si Si3 0.110794 0.447589 0.265426
Si Si4 0.824697 0.471217 0.300224
Si Si5 0.154019 0.663913 0.986583
Si Si6 0.818420 0.753180 0.595689
Si Si7 0.572292 0.328461 0.065450
O O1 0.256737 0.536390 0.301388
O O2 0.384774 0.723922 0.357049
O O3 0.023346 0.694982 0.199249
O O4 0.221277 0.645678 0.127767
O O5 0.015434 0.761809 0.915132
O O6 0.784987 0.919727 0.832116
O O7 0.794050 0.783165 0.971621
O O8 0.105719 0.891586 0.085815
O O9 0.208024 0.341642 0.341608
O O10 0.996120 0.489447 0.305146
O O11 0.969229 0.431063 0.108479
O O12 0.642013 0.426138 0.160345
O O13 0.335931 0.676587 0.000138
O O14 0.655288 0.835093 0.547122
#
# Coordination Sequence:
#
# PCOD8124526 Si02
#       7
#     4   4   4   4   4   4   4
#     4  11  21  42  63  85 126 162 207 260 306 374
#     4   9  17  36  63  87 115 163 209 244 300 368
#     4  10  20  37  63  90 121 165 204 250 319 370
#     4   9  17  34  63  89 117 160 206 248 304 364
#     4  10  19  38  62  89 124 166 199 256 314 363
#     4  10  22  41  62  92 123 166 206 258 314 368
#     4  11  21  40  63  91 129 157 206 258 310 367
#
# _framework density 22.146749
#
# number of rings (size 3 to 8) (size 9 to 14) (size 15 to 20)
#    0.000    2.000    5.714    1.286    0.000    0.571 
#    5.143    7.143    0.000    1.714    0.000    0.000 
#    0.000    0.000    0.000    0.000    0.000    0.000 
#
# Total GULP energy -347121.228023 kJ/mol
# GULP energy per Si atom -12397.186715 kJ/mol
# Density = 2.209634 g / cm^3
# Si number density = 22.146749 Si / 1000 Ang^3
#
#
#
# Elastic Constant Matrix: (Units=GPa)
#
#
# Indices 1 2 3 4 5 6 
#
# 1 70.3329 16.9615 16.6730 0.0000 -0.5142 0.0000
# 2 16.9615 67.2358 8.5855 0.0000 -13.6788 0.0000
# 3 16.6730 8.5855 52.2178 0.0000 -14.8689 0.0000
# 4 0.0000 0.0000 0.0000 32.0244 0.0000 -8.2094
# 5 -0.5142 -13.6788 -14.8689 0.0000 28.5377 0.0000
# 6 0.0000 0.0000 0.0000 -8.2094 0.0000 19.4155
#
#
#
# Elastic Compliance Matrix: (Units=1/GPa)
#
#
# Indices 1 2 3 4 5 6 
#
# 1 0.016679 -0.004450 -0.006007 0.000000 -0.004962 0.000000
# 2 -0.004450 0.017680 0.001062 0.000000 0.008948 0.000000
# 3 -0.006007 0.001062 0.024668 0.000000 0.013253 0.000000
# 4 0.000000 0.000000 0.000000 0.035022 0.000000 0.014808
# 5 -0.004962 0.008948 0.013253 0.000000 0.046146 0.000000
# 6 0.000000 0.000000 0.000000 0.014808 0.000000 0.057767
#
#
# Mechanical properties :
#
#
# Convention : Reuss Voigt Hill
#
# Bulk Modulus (GPa) = 24.85285 30.46960 27.66123
# Shear Modulus (GPa) = 21.72356 25.83328 23.77842
#
# Velocity S-wave (km/s) = 3.13532 3.41905 3.28025
# Velocity P-wave (km/s) = 4.93490 5.41982 5.18303
#
# Compressibility (1/GPa) = 0.04023683
#
# Stress axis : x y z
#
# Youngs Moduli (GPa) = 59.95567 56.55971 40.53865
#
# Poissons Ratio (x) = 0.25170 0.24351
# Poissons Ratio (y) = 0.26681 -0.04304
# Poissons Ratio (z) = 0.36015 -0.06005
#
# Static dielectric constant tensor:
#      x y z
#    x 3.607350 0.000000 -0.344500 
#    y 0.000000 4.093600 0.000000 
#    z -0.344500 0.000000 3.965880 
# 
# 
# High freq. dielectric constant tensor:
#      x y z
#    x 1.840890 0.000000 -0.029230 
#    y 0.000000 1.877210 0.000000 
#    z -0.029230 0.000000 1.868190 
# 
# From -- ./inp_files/25586.got.cif
#   From: 2010.03.12/outbox.cif.g09.slc.cpg/sg14_13_cif.got.tgz:25586.got - 2010.03.31 13:35:05.
