data_PCOD8124643
_publ_section_title
;
Structure prediction by ZEFSAII (Michael W. Deem and Ramdas Pophale) SiO2 
 PCOD8124643
Probable space group: P 21/C
;
_chemical_formula_sum "Si O2"
_cell_formula_units_Z 32
_cell_length_a 10.934536
_cell_length_b 14.585943
_cell_length_c 16.748607
_cell_angle_alpha 90.000000
_cell_angle_beta 34.430332
_cell_angle_gamma 90.000000
_cell_volume 1510.331343
_symmetry_space_group_name_H-M "P 21/C"
_symmetry_group_IT_number 14
_symmetry_cell_setting 'monoclinic'
loop_
_space_group_symop_operation_xyz
x,y,z
-x,1/2+y,1/2-z
-x,-y,-z
x,1/2-y,1/2+z
loop_
_atom_site_type_symbol
_atom_site_label
_atom_site_fract_x
_atom_site_fract_y
_atom_site_fract_z
Si Si1 0.028881 0.300553 0.135696
Si Si2 0.690054 0.092232 0.529808
Si Si3 0.582538 0.351420 0.631903
Si Si4 0.895955 0.286181 0.038173
Si Si5 0.559744 0.896695 0.627472
Si Si6 0.713801 0.701629 0.748752
Si Si7 0.028199 0.910729 0.183255
Si Si8 0.167032 0.612249 0.220067
O O1 0.927442 0.374293 0.251943
O O2 0.000534 0.195111 0.177818
O O3 0.889350 0.322765 0.131549
O O4 0.285063 0.312351 0.980068
O O5 0.456417 0.125036 0.689399
O O6 0.710610 0.131398 0.428944
O O7 0.885301 0.129932 0.480174
O O8 0.695824 0.983435 0.522985
O O9 0.464877 0.412550 0.763157
O O10 0.415845 0.297186 0.663074
O O11 0.690326 0.276496 0.631983
O O12 0.754472 0.406434 0.486802
O O13 0.113396 0.225301 0.912822
O O14 0.331758 0.888986 0.705322
O O15 0.842629 0.660330 0.754424
O O16 0.956961 0.015811 0.218221
#
# Coordination Sequence:
#
# PCOD8124643 Si02
#       8
#     4   4   4   4   4   4   4   4
#     4  12  24  42  68  98 131 171 218 277 323 390
#     4  11  23  41  67  98 129 174 218 269 329 392
#     4  10  22  41  63  99 131 172 215 269 328 384
#     4  10  22  40  65  93 135 173 211 266 335 381
#     4  12  23  42  71  96 128 169 231 267 316 396
#     4  10  19  40  65  92 127 172 214 261 322 388
#     4  11  24  43  68  97 135 175 217 271 330 382
#     4  12  24  44  68  98 131 170 224 273 322 389
#
# _framework density 21.187403
#
# number of rings (size 3 to 8) (size 9 to 14) (size 15 to 20)
#    0.000    1.000    5.000    3.375    0.000    2.000 
#    0.000    0.000    0.000    3.000    0.000    0.000 
#    0.000    0.000    0.000    0.000    0.000    0.000 
#
# Total GULP energy -396657.507339 kJ/mol
# GULP energy per Si atom -12395.547104 kJ/mol
# Density = 2.113918 g / cm^3
# Si number density = 21.187403 Si / 1000 Ang^3
#
#
#
# Elastic Constant Matrix: (Units=GPa)
#
#
# Indices 1 2 3 4 5 6 
#
# 1 72.5551 34.3917 32.5323 0.0000 17.2326 0.0000
# 2 34.3917 97.1087 37.1867 0.0000 -1.1749 0.0000
# 3 32.5323 37.1867 108.8842 0.0000 10.1472 0.0000
# 4 0.0000 0.0000 0.0000 36.4371 0.0000 -2.3847
# 5 17.2326 -1.1749 10.1472 0.0000 28.6948 0.0000
# 6 0.0000 0.0000 0.0000 -2.3847 0.0000 27.5134
#
#
#
# Elastic Compliance Matrix: (Units=1/GPa)
#
#
# Indices 1 2 3 4 5 6 
#
# 1 0.020966 -0.006432 -0.002967 0.000000 -0.011805 0.000000
# 2 -0.006432 0.013930 -0.003360 0.000000 0.005621 0.000000
# 3 -0.002967 -0.003360 0.011442 0.000000 -0.002402 0.000000
# 4 0.000000 0.000000 0.000000 0.027601 0.000000 0.002392
# 5 -0.011805 0.005621 -0.002402 0.000000 0.043018 0.000000
# 6 0.000000 0.000000 0.000000 0.002392 0.000000 0.036553
#
#
# Mechanical properties :
#
#
# Convention : Reuss Voigt Hill
#
# Bulk Modulus (GPa) = 48.03022 54.08547 51.05785
# Shear Modulus (GPa) = 26.88638 30.15820 28.52229
#
# Velocity S-wave (km/s) = 3.56614 3.77689 3.67303
# Velocity P-wave (km/s) = 6.29880 6.67851 6.49143
#
# Compressibility (1/GPa) = 0.02082022
#
# Stress axis : x y z
#
# Youngs Moduli (GPa) = 47.69727 71.78711 87.39814
#
# Poissons Ratio (x) = 0.46170 0.25935
# Poissons Ratio (y) = 0.30677 0.29363
# Poissons Ratio (z) = 0.14154 0.24118
#
# Static dielectric constant tensor:
#      x y z
#    x 3.946930 0.000000 0.012240 
#    y 0.000000 3.833120 0.000000 
#    z 0.012240 0.000000 3.796960 
# 
# 
# High freq. dielectric constant tensor:
#      x y z
#    x 1.826070 0.000000 0.004530 
#    y 0.000000 1.822500 0.000000 
#    z 0.004530 0.000000 1.832350 
# 
# From -- ./inp_files/57979.got.cif
#   From: 2010.03.12/outbox.cif.g09.slc.cpg/sg14_29_cif.got.tgz:57979.got - 2010.03.31 13:35:05.
