data_PCOD8124819
_publ_section_title
;
Structure prediction by ZEFSAII (Michael W. Deem and Ramdas Pophale) SiO2 
 PCOD8124819
Probable space group: P 21/C
;
_chemical_formula_sum "Si O2"
_cell_formula_units_Z 32
_cell_length_a 9.042738
_cell_length_b 14.481754
_cell_length_c 12.776076
_cell_angle_alpha 90.000000
_cell_angle_beta 124.308169
_cell_angle_gamma 90.000000
_cell_volume 1382.000120
_symmetry_space_group_name_H-M "P 21/C"
_symmetry_group_IT_number 14
_symmetry_cell_setting 'monoclinic'
loop_
_space_group_symop_operation_xyz
x,y,z
-x,1/2+y,1/2-z
-x,-y,-z
x,1/2-y,1/2+z
loop_
_atom_site_type_symbol
_atom_site_label
_atom_site_fract_x
_atom_site_fract_y
_atom_site_fract_z
Si Si1 0.124676 0.384239 0.965392
Si Si2 0.753617 0.137228 0.388343
Si Si3 0.293869 0.763389 0.435013
Si Si4 0.653444 0.843906 0.100443
Si Si5 0.403054 0.034055 0.736852
Si Si6 0.740009 0.697789 0.409860
Si Si7 0.608140 0.190798 0.748254
Si Si8 0.093798 0.318216 0.733880
O O1 0.126107 0.275688 0.993389
O O2 0.143813 0.391534 0.845833
O O3 0.928927 0.419142 0.922779
O O4 0.275535 0.440077 0.086966
O O5 0.741977 0.146556 0.507891
O O6 0.764686 0.244912 0.356714
O O7 0.586825 0.078059 0.269608
O O8 0.456149 0.699518 0.541410
O O9 0.362915 0.817597 0.362255
O O10 0.119789 0.699495 0.349683
O O11 0.666967 0.937628 0.175321
O O12 0.686326 0.866388 0.989462
O O13 0.807216 0.778393 0.206698
O O14 0.591131 0.087536 0.790314
O O15 0.571409 0.752476 0.294940
O O16 0.839027 0.643615 0.353492
#
# Coordination Sequence:
#
# PCOD8124819 Si02
#       8
#     4   4   4   4   4   4   4   4
#     4  10  20  34  58  94 126 159 213 263 316 381
#     4  12  21  36  65  95 124 168 211 271 319 380
#     4  11  21  36  64  91 123 166 220 259 315 384
#     4  10  20  37  58  91 128 162 213 263 312 389
#     4  11  22  39  61  94 133 164 212 266 329 380
#     4   9  18  34  60  85 115 171 206 249 317 375
#     4  10  21  39  56  91 125 162 210 256 326 385
#     4  11  18  35  63  92 119 172 214 260 318 386
#
# _framework density 23.154847
#
# number of rings (size 3 to 8) (size 9 to 14) (size 15 to 20)
#    0.000    1.500    6.250    1.125    0.000    0.500 
#    0.000    2.500    0.000    0.750    0.000    2.625 
#    0.000    0.000    0.000    0.000    0.000    0.000 
#
# Total GULP energy -396418.457395 kJ/mol
# GULP energy per Si atom -12388.076794 kJ/mol
# Density = 2.310215 g / cm^3
# Si number density = 23.154847 Si / 1000 Ang^3
#
#
#
# Elastic Constant Matrix: (Units=GPa)
#
#
# Indices 1 2 3 4 5 6 
#
# 1 100.4532 8.9047 32.4855 0.0000 -17.8307 0.0000
# 2 8.9047 20.0756 3.2648 0.0000 -11.5286 0.0000
# 3 32.4855 3.2648 80.3563 0.0000 -14.7669 0.0000
# 4 0.0000 0.0000 0.0000 16.0404 0.0000 2.6371
# 5 -17.8307 -11.5286 -14.7669 0.0000 46.1736 0.0000
# 6 0.0000 0.0000 0.0000 2.6371 0.0000 13.9361
#
#
#
# Elastic Compliance Matrix: (Units=1/GPa)
#
#
# Indices 1 2 3 4 5 6 
#
# 1 0.012070 -0.003231 -0.004292 0.000000 0.002482 0.000000
# 2 -0.003231 0.059022 0.001473 0.000000 0.013960 0.000000
# 3 -0.004292 0.001473 0.014750 0.000000 0.003428 0.000000
# 4 0.000000 0.000000 0.000000 0.064344 0.000000 -0.012176
# 5 0.002482 0.013960 0.003428 0.000000 0.027197 0.000000
# 6 0.000000 0.000000 0.000000 -0.012176 0.000000 0.074060
#
#
# Mechanical properties :
#
#
# Convention : Reuss Voigt Hill
#
# Bulk Modulus (GPa) = 13.56061 32.24389 22.90225
# Shear Modulus (GPa) = 17.35372 25.64537 21.49955
#
# Velocity S-wave (km/s) = 2.74060 3.33161 3.05045
# Velocity P-wave (km/s) = 3.98544 5.36238 4.72434
#
# Compressibility (1/GPa) = 0.07374302
#
# Stress axis : x y z
#
# Youngs Moduli (GPa) = 82.85155 16.94287 67.79773
#
# Poissons Ratio (x) = 0.05473 0.29100
# Poissons Ratio (y) = 0.26765 -0.09990
# Poissons Ratio (z) = 0.35561 -0.02496
#
# Static dielectric constant tensor:
#      x y z
#    x 4.426020 0.000000 -0.239130 
#    y 0.000000 4.003150 0.000000 
#    z -0.239130 0.000000 4.360920 
# 
# 
# High freq. dielectric constant tensor:
#      x y z
#    x 1.922110 0.000000 -0.017080 
#    y 0.000000 1.857830 0.000000 
#    z -0.017080 0.000000 1.927660 
# 
# From -- ./inp_files/41249.got.cif
#   From: 2010.03.12/outbox.cif.g09.slc.cpg/sg14_21_cif.got.tgz:41249.got - 2010.03.31 13:35:05.
