data_PCOD8124995
_publ_section_title
;
Structure prediction by ZEFSAII (Michael W. Deem and Ramdas Pophale) SiO2 
 PCOD8124995
Probable space group: P 21/C
;
_chemical_formula_sum "Si O2"
_cell_formula_units_Z 32
_cell_length_a 13.454061
_cell_length_b 9.140859
_cell_length_c 20.382343
_cell_angle_alpha 90.000000
_cell_angle_beta 38.486600
_cell_angle_gamma 90.000000
_cell_volume 1559.970383
_symmetry_space_group_name_H-M "P 21/C"
_symmetry_group_IT_number 14
_symmetry_cell_setting 'monoclinic'
loop_
_space_group_symop_operation_xyz
x,y,z
-x,1/2+y,1/2-z
-x,-y,-z
x,1/2-y,1/2+z
loop_
_atom_site_type_symbol
_atom_site_label
_atom_site_fract_x
_atom_site_fract_y
_atom_site_fract_z
Si Si1 0.368633 0.702087 0.946514
Si Si2 0.763549 0.484164 0.248602
Si Si3 0.194441 0.782001 0.159256
Si Si4 0.724734 0.700146 0.766403
Si Si5 0.474129 0.961684 0.810703
Si Si6 0.132276 0.050079 0.552656
Si Si7 0.301208 0.250118 0.865075
Si Si8 0.916538 0.529250 0.772181
O O1 0.546323 0.635754 0.849883
O O2 0.367749 0.861304 0.913716
O O3 0.334425 0.723078 0.041102
O O4 0.240390 0.592445 0.979279
O O5 0.728014 0.351454 0.316400
O O6 0.732280 0.642403 0.299567
O O7 0.633795 0.464152 0.258583
O O8 0.947837 0.479437 0.129255
O O9 0.077627 0.646056 0.236537
O O10 0.093655 0.906358 0.173397
O O11 0.789551 0.739141 0.659001
O O12 0.818584 0.582851 0.759891
O O13 0.354513 0.085031 0.849853
O O14 0.542618 0.855606 0.718206
O O15 0.186694 0.190213 0.481827
O O16 0.150560 0.080959 0.621560
#
# Coordination Sequence:
#
# PCOD8124995 Si02
#       8
#     4   4   4   4   4   4   4   4
#     4   9  20  34  56  84 113 146 188 236 284 332
#     4   9  21  37  57  84 112 150 191 232 285 337
#     4  10  20  36  58  83 112 149 186 233 286 335
#     4  10  21  37  54  83 117 147 186 234 285 339
#     4  10  22  38  58  82 113 151 190 237 283 335
#     4  10  20  38  60  83 111 151 193 230 284 342
#     4  10  21  37  59  83 114 152 189 232 284 335
#     4  10  21  36  58  82 114 149 187 236 285 336
#
# _framework density 20.513210999999998
#
# number of rings (size 3 to 8) (size 9 to 14) (size 15 to 20)
#    0.000    2.500    0.000    3.750    0.000   12.000 
#    0.000    2.500    0.000   10.500    0.000    0.000 
#    0.000    0.000    0.000    0.000    0.000    0.000 
#
# Total GULP energy -396469.024881 kJ/mol
# GULP energy per Si atom -12389.657028 kJ/mol
# Density = 2.046652 g / cm^3
# Si number density = 20.513211 Si / 1000 Ang^3
#
#
#
# Elastic Constant Matrix: (Units=GPa)
#
#
# Indices 1 2 3 4 5 6 
#
# 1 69.5896 25.8704 21.5548 0.0000 10.7505 0.0000
# 2 25.8704 71.8953 7.0895 0.0000 9.9589 0.0000
# 3 21.5548 7.0895 63.4399 0.0000 2.1267 0.0000
# 4 0.0000 0.0000 0.0000 31.3022 0.0000 1.4322
# 5 10.7505 9.9589 2.1267 0.0000 18.1761 0.0000
# 6 0.0000 0.0000 0.0000 1.4322 0.0000 40.6518
#
#
#
# Elastic Compliance Matrix: (Units=1/GPa)
#
#
# Indices 1 2 3 4 5 6 
#
# 1 0.019323 -0.005302 -0.005709 0.000000 -0.007856 0.000000
# 2 -0.005302 0.016633 0.000144 0.000000 -0.005994 0.000000
# 3 -0.005709 0.000144 0.017645 0.000000 0.001234 0.000000
# 4 0.000000 0.000000 0.000000 0.031998 0.000000 -0.001127
# 5 -0.007856 -0.005994 0.001234 0.000000 0.062804 0.000000
# 6 0.000000 0.000000 0.000000 -0.001127 0.000000 0.024639
#
#
# Mechanical properties :
#
#
# Convention : Reuss Voigt Hill
#
# Bulk Modulus (GPa) = 31.38140 34.88379 33.13260
# Shear Modulus (GPa) = 24.34272 28.05335 26.19804
#
# Velocity S-wave (km/s) = 3.44857 3.70209 3.57757
# Velocity P-wave (km/s) = 5.58464 5.94276 5.76648
#
# Compressibility (1/GPa) = 0.03186601
#
# Stress axis : x y z
#
# Youngs Moduli (GPa) = 51.75168 60.12103 56.67182
#
# Poissons Ratio (x) = 0.31876 0.32357
# Poissons Ratio (y) = 0.27438 -0.00814
# Poissons Ratio (z) = 0.29548 -0.00863
#
# Static dielectric constant tensor:
#      x y z
#    x 3.588360 0.000000 0.067970 
#    y 0.000000 3.849130 0.000000 
#    z 0.067970 0.000000 3.697030 
# 
# 
# High freq. dielectric constant tensor:
#      x y z
#    x 1.787130 0.000000 0.002210 
#    y 0.000000 1.807750 0.000000 
#    z 0.002210 0.000000 1.790040 
# 
# From -- ./inp_files/68202.got.cif
#   From: 2010.03.12/outbox.cif.g09.slc.cpg/sg14_35_cif.got.tgz:68202.got - 2010.03.31 13:35:05.
