data_PCOD8124756
_publ_section_title
;
Structure prediction by ZEFSAII (Michael W. Deem and Ramdas Pophale) SiO2 
 PCOD8124756
Probable space group: P 21/C
;
_chemical_formula_sum "Si O2"
_cell_formula_units_Z 24
_cell_length_a 19.512290
_cell_length_b 8.582196
_cell_length_c 15.328279
_cell_angle_alpha 90.000000
_cell_angle_beta 21.522330
_cell_angle_gamma 90.000000
_cell_volume 941.683460
_symmetry_space_group_name_H-M "P 21/C"
_symmetry_group_IT_number 14
_symmetry_cell_setting 'monoclinic'
loop_
_space_group_symop_operation_xyz
x,y,z
-x,1/2+y,1/2-z
-x,-y,-z
x,1/2-y,1/2+z
loop_
_atom_site_type_symbol
_atom_site_label
_atom_site_fract_x
_atom_site_fract_y
_atom_site_fract_z
Si Si1 0.922812 0.443156 0.451483
Si Si2 0.056932 0.377287 0.747508
Si Si3 0.483875 0.919621 0.892936
Si Si4 0.204360 0.410243 0.841739
Si Si5 0.465757 0.222354 0.823209
Si Si6 0.239859 0.098708 0.708000
O O1 0.923993 0.570934 0.374447
O O2 0.748066 0.477217 0.724946
O O3 0.913439 0.269430 0.422507
O O4 0.109489 0.471220 0.286915
O O5 0.256070 0.327826 0.547722
O O6 0.981436 0.516774 0.897338
O O7 0.427548 0.788739 0.887807
O O8 0.652626 0.856357 0.751772
O O9 0.568233 0.072657 0.742778
O O10 0.303173 0.960019 0.163679
O O11 0.147239 0.259959 0.853684
O O12 0.442906 0.358911 0.924865
#
# Coordination Sequence:
#
# PCOD8124756 Si02
#       6
#     4   4   4   4   4   4
#     4  10  20  33  57  88 120 151 191 250 297 339
#     4  11  22  38  61  91 120 156 203 250 296 356
#     4  10  22  40  61  87 123 162 197 247 305 359
#     4  10  21  40  64  88 120 160 202 246 300 357
#     4  10  22  38  59  86 122 161 201 248 298 356
#     4   9  19  37  58  85 119 154 194 244 294 348
#
# _framework density 25.486272
#
# number of rings (size 3 to 8) (size 9 to 14) (size 15 to 20)
#    0.000    2.000    0.000    4.000    0.000    8.667 
#    0.000    5.000    0.000    8.000    0.000    0.000 
#    0.000    0.000    0.000    0.000    0.000    0.000 
#
# Total GULP energy -297537.633058 kJ/mol
# GULP energy per Si atom -12397.401377 kJ/mol
# Density = 2.542826 g / cm^3
# Si number density = 25.486272 Si / 1000 Ang^3
#
#
#
# Elastic Constant Matrix: (Units=GPa)
#
#
# Indices 1 2 3 4 5 6 
#
# 1 101.2336 35.3159 21.1891 0.0000 36.3055 0.0000
# 2 35.3159 37.8052 -9.0413 0.0000 1.9735 0.0000
# 3 21.1891 -9.0413 38.0565 0.0000 20.5101 0.0000
# 4 0.0000 0.0000 0.0000 41.4312 0.0000 18.4476
# 5 36.3055 1.9735 20.5101 0.0000 33.9200 0.0000
# 6 0.0000 0.0000 0.0000 18.4476 0.0000 53.9003
#
#
#
# Elastic Compliance Matrix: (Units=1/GPa)
#
#
# Indices 1 2 3 4 5 6 
#
# 1 0.033172 -0.032473 -0.011967 0.000000 -0.026379 0.000000
# 2 -0.032473 0.061543 0.023586 0.000000 0.016914 0.000000
# 3 -0.011967 0.023586 0.048032 0.000000 -0.017606 0.000000
# 4 0.000000 0.000000 0.000000 0.028476 0.000000 -0.009746
# 5 -0.026379 0.016914 -0.017606 0.000000 0.067377 0.000000
# 6 0.000000 0.000000 0.000000 -0.009746 0.000000 0.021888
#
#
# Mechanical properties :
#
#
# Convention : Reuss Voigt Hill
#
# Bulk Modulus (GPa) = 9.89723 30.22476 20.06099
# Shear Modulus (GPa) = 14.88643 34.49238 24.68941
#
# Velocity S-wave (km/s) = 2.41943 3.68281 3.11582
# Velocity P-wave (km/s) = 3.42004 5.47440 4.56430
#
# Compressibility (1/GPa) = 0.10103835
#
# Stress axis : x y z
#
# Youngs Moduli (GPa) = 30.14628 16.24867 20.81951
#
# Poissons Ratio (x) = 0.52764 0.24915
# Poissons Ratio (y) = 0.97893 -0.49104
# Poissons Ratio (z) = 0.36077 -0.38323
#
# Static dielectric constant tensor:
#      x y z
#    x 4.812200 0.000000 0.615420 
#    y 0.000000 4.728810 0.000000 
#    z 0.615420 0.000000 4.339610 
# 
# 
# High freq. dielectric constant tensor:
#      x y z
#    x 2.028290 0.000000 0.039940 
#    y 0.000000 2.013270 0.000000 
#    z 0.039940 0.000000 1.989650 
# 
# From -- ./inp_files/61673.got.cif
#   From: 2010.03.12/outbox.cif.g09.slc.cpg/sg14_31_cif.got.tgz:61673.got - 2010.03.31 13:35:05.
