data_PCOD8124308
_publ_section_title
;
Structure prediction by ZEFSAII (Michael W. Deem and Ramdas Pophale) SiO2 
 PCOD8124308
Probable space group: P 21/C
;
_chemical_formula_sum "Si O2"
_cell_formula_units_Z 32
_cell_length_a 26.808938
_cell_length_b 9.652836
_cell_length_c 19.478476
_cell_angle_alpha 90.000000
_cell_angle_beta 18.757437
_cell_angle_gamma 90.000000
_cell_volume 1620.894465
_symmetry_space_group_name_H-M "P 21/C"
_symmetry_group_IT_number 14
_symmetry_cell_setting 'monoclinic'
loop_
_space_group_symop_operation_xyz
x,y,z
-x,1/2+y,1/2-z
-x,-y,-z
x,1/2-y,1/2+z
loop_
_atom_site_type_symbol
_atom_site_label
_atom_site_fract_x
_atom_site_fract_y
_atom_site_fract_z
Si Si1 0.872061 0.563732 0.385852
Si Si2 0.643785 0.897436 0.311785
Si Si3 0.243220 0.293772 0.056632
Si Si4 0.347240 0.431581 0.051214
Si Si5 0.203478 0.966410 0.517406
Si Si6 0.458827 0.380744 0.604612
Si Si7 0.588800 0.253475 0.060778
Si Si8 0.317894 0.676883 0.416289
O O1 0.758170 0.590481 0.598331
O O2 0.868156 0.673743 0.327650
O O3 0.832602 0.412519 0.407736
O O4 0.046050 0.571966 0.185253
O O5 0.729814 0.915755 0.272990
O O6 0.569312 0.747415 0.407894
O O7 0.500000 0.000000 0.500000
O O8 0.254879 0.321878 0.123242
O O9 0.177779 0.443832 0.119192
O O10 0.408427 0.239181 0.814795
O O11 0.338917 0.593377 0.041229
O O12 0.528830 0.391298 0.815384
O O13 0.301675 0.830217 0.406813
O O14 0.300101 0.074197 0.346601
O O15 0.500000 0.500000 0.500000
O O16 0.594077 0.339345 0.483985
O O17 0.678508 0.177234 0.005418
#
# Coordination Sequence:
#
# PCOD8124308 Si02
#       8
#     4   4   4   4   4   4   4   4
#     4  12  23  40  62  87 127 164 207 252 294 380
#     4  12  21  39  60  92 123 160 200 255 316 354
#     4  10  20  39  58  88 120 160 203 253 298 353
#     4  11  20  36  65  90 122 154 207 258 307 359
#     4  11  23  39  61  88 121 163 204 242 303 365
#     4  11  23  39  61  92 124 153 201 265 304 359
#     4  10  19  36  59  89 122 149 205 261 294 359
#     4  11  21  34  64  89 112 166 206 246 306 355
#
# _framework density 19.742186
#
# number of rings (size 3 to 8) (size 9 to 14) (size 15 to 20)
#    0.000    1.000    7.500    1.500    0.000    1.000 
#    0.000    0.625    2.750    1.500    0.000    0.000 
#    0.000    0.000    0.000    0.000    0.000    0.000 
#
# Total GULP energy -396502.292066 kJ/mol
# GULP energy per Si atom -12390.696627 kJ/mol
# Density = 1.969725 g / cm^3
# Si number density = 19.742186 Si / 1000 Ang^3
#
#
#
# Elastic Constant Matrix: (Units=GPa)
#
#
# Indices 1 2 3 4 5 6 
#
# 1 140.4628 44.0712 27.4661 0.0000 0.7568 0.0000
# 2 44.0712 120.8611 18.8671 0.0000 5.5498 0.0000
# 3 27.4661 18.8671 37.1411 0.0000 -10.3765 0.0000
# 4 0.0000 0.0000 0.0000 20.1018 0.0000 -4.6133
# 5 0.7568 5.5498 -10.3765 0.0000 19.2441 0.0000
# 6 0.0000 0.0000 0.0000 -4.6133 0.0000 46.4964
#
#
#
# Elastic Compliance Matrix: (Units=1/GPa)
#
#
# Indices 1 2 3 4 5 6 
#
# 1 0.009089 -0.002142 -0.006547 0.000000 -0.003270 0.000000
# 2 -0.002142 0.010110 -0.005113 0.000000 -0.005588 0.000000
# 3 -0.006547 -0.005113 0.041027 0.000000 0.023854 0.000000
# 4 0.000000 0.000000 0.000000 0.050906 0.000000 0.005051
# 5 -0.003270 -0.005588 0.023854 0.000000 0.066566 0.000000
# 6 0.000000 0.000000 0.000000 0.005051 0.000000 0.022008
#
#
# Mechanical properties :
#
#
# Convention : Reuss Voigt Hill
#
# Bulk Modulus (GPa) = 30.65332 53.25266 41.95299
# Shear Modulus (GPa) = 20.99213 31.03916 26.01564
#
# Velocity S-wave (km/s) = 3.26439 3.96943 3.63405
# Velocity P-wave (km/s) = 5.45608 6.93117 6.23738
#
# Compressibility (1/GPa) = 0.03262289
#
# Stress axis : x y z
#
# Youngs Moduli (GPa) = 110.02025 98.91374 24.37403
#
# Poissons Ratio (x) = 0.21189 0.15957
# Poissons Ratio (y) = 0.23568 0.12462
# Poissons Ratio (z) = 0.72028 0.50572
#
# Static dielectric constant tensor:
#      x y z
#    x 3.701800 0.000000 -0.195340 
#    y 0.000000 3.764960 0.000000 
#    z -0.195340 0.000000 3.198540 
# 
# 
# High freq. dielectric constant tensor:
#      x y z
#    x 1.791430 0.000000 -0.009100 
#    y 0.000000 1.788850 0.000000 
#    z -0.009100 0.000000 1.711740 
# 
# From -- ./inp_files/70490.got.cif
#   From: 2010.03.12/outbox.cif.g09.slc.cpg/sg14_36_cif.got.tgz:70490.got - 2010.03.31 13:35:05.
