data_PCOD8124306
_publ_section_title
;
Structure prediction by ZEFSAII (Michael W. Deem and Ramdas Pophale) SiO2 
 PCOD8124306
Probable space group: P 21/C
;
_chemical_formula_sum "Si O2"
_cell_formula_units_Z 28
_cell_length_a 6.911550
_cell_length_b 19.063313
_cell_length_c 10.881027
_cell_angle_alpha 90.000000
_cell_angle_beta 64.674311
_cell_angle_gamma 90.000000
_cell_volume 1295.864852
_symmetry_space_group_name_H-M "P 21/C"
_symmetry_group_IT_number 14
_symmetry_cell_setting 'monoclinic'
loop_
_space_group_symop_operation_xyz
x,y,z
-x,1/2+y,1/2-z
-x,-y,-z
x,1/2-y,1/2+z
loop_
_atom_site_type_symbol
_atom_site_label
_atom_site_fract_x
_atom_site_fract_y
_atom_site_fract_z
Si Si1 0.076100 0.901558 0.012098
Si Si2 0.881287 0.678897 0.346275
Si Si3 0.762011 0.286325 0.224852
Si Si4 0.733729 0.510574 0.709009
Si Si5 0.396856 0.720540 0.477280
Si Si6 0.046527 0.936922 0.644329
Si Si7 0.746100 0.441535 0.174352
O O1 0.921190 0.875117 0.945563
O O2 0.223386 0.840682 0.021905
O O3 0.230718 0.964079 0.923091
O O4 0.915572 0.928686 0.161623
O O5 0.002304 0.752226 0.337655
O O6 0.965755 0.640940 0.200099
O O7 0.633302 0.692439 0.395634
O O8 0.647873 0.273770 0.123295
O O9 0.629794 0.250028 0.375114
O O10 0.776541 0.369875 0.242879
O O11 0.758602 0.461580 0.821771
O O12 0.503512 0.545307 0.775382
O O13 0.132151 0.930959 0.485359
O O14 0.850729 0.991963 0.713938
#
# Coordination Sequence:
#
# PCOD8124306 Si02
#       7
#     4   4   4   4   4   4   4
#     4   9  20  36  60  89 114 155 209 251 306 380
#     4  10  22  42  62  85 124 163 207 262 308 364
#     4  11  25  40  61  93 123 160 214 256 307 379
#     4  10  19  36  59  86 121 154 196 258 311 364
#     4  11  23  41  62  86 121 164 205 255 314 367
#     4  10  22  38  60  89 122 163 209 253 309 379
#     4  11  22  37  59  90 125 163 207 258 316 371
#
# _framework density 21.607192000000001
#
# number of rings (size 3 to 8) (size 9 to 14) (size 15 to 20)
#    0.000    1.714    0.000    3.857    0.000    5.714 
#    0.000   10.000    0.000    0.000    0.000    0.000 
#    0.000    0.000    0.000    0.000    0.000    0.000 
#
# Total GULP energy -347165.611488 kJ/mol
# GULP energy per Si atom -12398.771839 kJ/mol
# Density = 2.155801 g / cm^3
# Si number density = 21.607192 Si / 1000 Ang^3
#
#
#
# Elastic Constant Matrix: (Units=GPa)
#
#
# Indices 1 2 3 4 5 6 
#
# 1 86.7860 29.3935 28.6963 0.0000 -12.6170 0.0000
# 2 29.3935 72.9234 -0.9116 0.0000 -10.1588 0.0000
# 3 28.6963 -0.9116 66.2012 0.0000 5.7406 0.0000
# 4 0.0000 0.0000 0.0000 28.4187 0.0000 0.4246
# 5 -12.6170 -10.1588 5.7406 0.0000 34.5590 0.0000
# 6 0.0000 0.0000 0.0000 0.4246 0.0000 23.8992
#
#
#
# Elastic Compliance Matrix: (Units=1/GPa)
#
#
# Indices 1 2 3 4 5 6 
#
# 1 0.017100 -0.006191 -0.007996 0.000000 0.005751 0.000000
# 2 -0.006191 0.016542 0.002725 0.000000 0.002150 0.000000
# 3 -0.007996 0.002725 0.019067 0.000000 -0.005286 0.000000
# 4 0.000000 0.000000 0.000000 0.035197 0.000000 -0.000625
# 5 0.005751 0.002150 -0.005286 0.000000 0.032546 0.000000
# 6 0.000000 0.000000 0.000000 -0.000625 0.000000 0.041853
#
#
# Mechanical properties :
#
#
# Convention : Reuss Voigt Hill
#
# Bulk Modulus (GPa) = 33.57444 37.80746 35.69095
# Shear Modulus (GPa) = 25.62026 28.62422 27.12224
#
# Velocity S-wave (km/s) = 3.44718 3.64367 3.54678
# Velocity P-wave (km/s) = 5.60503 5.93611 5.77294
#
# Compressibility (1/GPa) = 0.02978456
#
# Stress axis : x y z
#
# Youngs Moduli (GPa) = 58.48111 60.45200 52.44553
#
# Poissons Ratio (x) = 0.37427 0.41936
# Poissons Ratio (y) = 0.36207 -0.14292
# Poissons Ratio (z) = 0.46762 -0.16474
#
# Static dielectric constant tensor:
#      x y z
#    x 3.801400 0.000000 0.163050 
#    y 0.000000 3.962960 0.000000 
#    z 0.163050 0.000000 4.004080 
# 
# 
# High freq. dielectric constant tensor:
#      x y z
#    x 1.845480 0.000000 0.008010 
#    y 0.000000 1.848050 0.000000 
#    z 0.008010 0.000000 1.855490 
# 
# From -- ./inp_files/21701.got.cif
#   From: 2010.03.12/outbox.cif.g09.slc.cpg/sg14_11_cif.got.tgz:21701.got - 2010.03.31 13:35:05.
