data_PCOD8124141
_publ_section_title
;
Structure prediction by ZEFSAII (Michael W. Deem and Ramdas Pophale) SiO2 
 PCOD8124141
Probable space group: P 21/C
;
_chemical_formula_sum "Si O2"
_cell_formula_units_Z 20
_cell_length_a 18.343647
_cell_length_b 9.058101
_cell_length_c 18.188440
_cell_angle_alpha 90.000000
_cell_angle_beta 20.297139
_cell_angle_gamma 90.000000
_cell_volume 1048.355545
_symmetry_space_group_name_H-M "P 21/C"
_symmetry_group_IT_number 14
_symmetry_cell_setting 'monoclinic'
loop_
_space_group_symop_operation_xyz
x,y,z
-x,1/2+y,1/2-z
-x,-y,-z
x,1/2-y,1/2+z
loop_
_atom_site_type_symbol
_atom_site_label
_atom_site_fract_x
_atom_site_fract_y
_atom_site_fract_z
Si Si1 0.590261 0.694286 0.581687
Si Si2 0.307575 0.621681 0.255105
Si Si3 0.656099 0.389747 0.946724
Si Si4 0.634044 0.364911 0.578341
Si Si5 0.973011 0.874003 0.193094
O O1 0.452800 0.739886 0.640879
O O2 0.545561 0.524560 0.640861
O O3 0.522176 0.793198 0.715376
O O4 0.835386 0.725050 0.332535
O O5 0.254803 0.633173 0.219340
O O6 0.088828 0.628557 0.505172
O O7 0.428884 0.469059 0.159296
O O8 0.818028 0.485892 0.841622
O O9 0.635983 0.230968 0.002825
O O10 0.866375 0.383870 0.391562
#
# Coordination Sequence:
#
# PCOD8124141 Si02
#       5
#     4   4   4   4   4
#     4  10  21  35  53  78 107 139 179 220 265 314
#     4   9  20  37  56  79 107 142 178 216 261 318
#     4  10  20  36  58  80 107 142 178 215 264 316
#     4  11  21  35  55  80 107 140 178 222 266 312
#     4  10  19  35  55  78 107 141 178 217 261 316
#
# _framework density 19.077499
#
# number of rings (size 3 to 8) (size 9 to 14) (size 15 to 20)
#    0.000    2.000    0.000    5.400    0.000    2.400 
#    0.000    1.000    0.000    0.000    0.000    0.000 
#    0.000    0.000    0.000    0.000    0.000    0.000 
#
# Total GULP energy -248066.830756 kJ/mol
# GULP energy per Si atom -12403.341538 kJ/mol
# Density = 1.903408 g / cm^3
# Si number density = 19.077499 Si / 1000 Ang^3
#
#
#
# Elastic Constant Matrix: (Units=GPa)
#
#
# Indices 1 2 3 4 5 6 
#
# 1 92.1263 54.3966 17.5457 0.0000 4.9026 0.0000
# 2 54.3966 141.9197 41.4183 0.0000 12.0130 0.0000
# 3 17.5457 41.4183 91.6759 0.0000 5.1353 0.0000
# 4 0.0000 0.0000 0.0000 21.6136 0.0000 6.8286
# 5 4.9026 12.0130 5.1353 0.0000 20.0976 0.0000
# 6 0.0000 0.0000 0.0000 6.8286 0.0000 28.1164
#
#
#
# Elastic Compliance Matrix: (Units=1/GPa)
#
#
# Indices 1 2 3 4 5 6 
#
# 1 0.014037 -0.005279 -0.000291 0.000000 -0.000194 0.000000
# 2 -0.005279 0.010427 -0.003473 0.000000 -0.004057 0.000000
# 3 -0.000291 -0.003473 0.012593 0.000000 -0.001071 0.000000
# 4 0.000000 0.000000 0.000000 0.050112 0.000000 -0.012171
# 5 -0.000194 -0.004057 -0.001071 0.000000 0.052503 0.000000
# 6 0.000000 0.000000 0.000000 -0.012171 0.000000 0.038522
#
#
# Mechanical properties :
#
#
# Convention : Reuss Voigt Hill
#
# Bulk Modulus (GPa) = 52.71155 61.38256 57.04706
# Shear Modulus (GPa) = 24.67864 28.12293 26.40078
#
# Velocity S-wave (km/s) = 3.60057 3.84362 3.72408
# Velocity P-wave (km/s) = 6.70639 7.20716 6.96128
#
# Compressibility (1/GPa) = 0.01897117
#
# Stress axis : x y z
#
# Youngs Moduli (GPa) = 71.23784 95.90761 79.41116
#
# Poissons Ratio (x) = 0.50631 0.02308
# Poissons Ratio (y) = 0.37608 0.27580
# Poissons Ratio (z) = 0.02070 0.33309
#
# Static dielectric constant tensor:
#      x y z
#    x 3.485480 0.000000 0.023910 
#    y 0.000000 3.422180 0.000000 
#    z 0.023910 0.000000 3.511240 
# 
# 
# High freq. dielectric constant tensor:
#      x y z
#    x 1.740230 0.000000 0.003540 
#    y 0.000000 1.730300 0.000000 
#    z 0.003540 0.000000 1.748420 
# 
# From -- ./inp_files/52512.got.cif
#   From: 2010.03.12/outbox.cif.g09.slc.cpg/sg14_27_cif.got.tgz:52512.got - 2010.03.31 13:35:05.
