data_PCOD8124419
_publ_section_title
;
Structure prediction by ZEFSAII (Michael W. Deem and Ramdas Pophale) SiO2 
 PCOD8124419
Probable space group: P 21/C
;
_chemical_formula_sum "Si O2"
_cell_formula_units_Z 20
_cell_length_a 5.125233
_cell_length_b 22.226309
_cell_length_c 9.263767
_cell_angle_alpha 90.000000
_cell_angle_beta 117.414375
_cell_angle_gamma 90.000000
_cell_volume 936.773840
_symmetry_space_group_name_H-M "P 21/C"
_symmetry_group_IT_number 14
_symmetry_cell_setting 'monoclinic'
loop_
_space_group_symop_operation_xyz
x,y,z
-x,1/2+y,1/2-z
-x,-y,-z
x,1/2-y,1/2+z
loop_
_atom_site_type_symbol
_atom_site_label
_atom_site_fract_x
_atom_site_fract_y
_atom_site_fract_z
Si Si1 0.488248 0.610054 0.223232
Si Si2 0.528499 0.234793 0.117082
Si Si3 0.961537 0.954189 0.681651
Si Si4 0.834463 0.706131 0.748236
Si Si5 0.975716 0.084439 0.608106
O O1 0.509700 0.674764 0.299134
O O2 0.805280 0.581543 0.271648
O O3 0.304877 0.564661 0.279785
O O4 0.326700 0.615013 0.025911
O O5 0.298450 0.281360 0.127768
O O6 0.863757 0.257703 0.203537
O O7 0.419786 0.224510 0.927529
O O8 0.840471 0.935865 0.489391
O O9 0.918569 0.025626 0.692081
O O10 0.872678 0.633994 0.751525
#
# Coordination Sequence:
#
# PCOD8124419 Si02
#       5
#     4   4   4   4   4
#     4  10  19  37  60  85 124 157 209 246 307 365
#     4  12  26  43  62  94 125 171 210 260 324 366
#     4   9  20  34  65  90 119 166 203 250 304 382
#     4  12  26  42  64  92 128 167 211 266 310 382
#     4   9  21  36  63  90 125 158 217 239 315 368
#
# _framework density 21.349869000000002
#
# number of rings (size 3 to 8) (size 9 to 14) (size 15 to 20)
#    1.200    0.400    0.000    5.400    5.600    0.000 
#    0.000    2.000    0.000    0.000    0.000    0.000 
#    0.000    0.000    0.000    0.000    0.000    0.000 
#
# Total GULP energy -247839.054459 kJ/mol
# GULP energy per Si atom -12391.952723 kJ/mol
# Density = 2.130128 g / cm^3
# Si number density = 21.349869 Si / 1000 Ang^3
#
#
#
# Elastic Constant Matrix: (Units=GPa)
#
#
# Indices 1 2 3 4 5 6 
#
# 1 111.6318 13.5831 17.6802 0.0000 0.3517 0.0000
# 2 13.5831 111.7729 36.6274 0.0000 9.3061 0.0000
# 3 17.6802 36.6274 32.2705 0.0000 5.9911 0.0000
# 4 0.0000 0.0000 0.0000 28.7112 0.0000 -1.2987
# 5 0.3517 9.3061 5.9911 0.0000 19.5677 0.0000
# 6 0.0000 0.0000 0.0000 -1.2987 0.0000 25.8613
#
#
#
# Elastic Compliance Matrix: (Units=1/GPa)
#
#
# Indices 1 2 3 4 5 6 
#
# 1 0.009906 0.000863 -0.006677 0.000000 0.001456 0.000000
# 2 0.000863 0.014390 -0.016468 0.000000 -0.001817 0.000000
# 3 -0.006677 -0.016468 0.054987 0.000000 -0.008884 0.000000
# 4 0.000000 0.000000 0.000000 0.034909 0.000000 0.001753
# 5 0.001456 -0.001817 -0.008884 0.000000 0.054663 0.000000
# 6 0.000000 0.000000 0.000000 0.001753 0.000000 0.038756
#
#
# Mechanical properties :
#
#
# Convention : Reuss Voigt Hill
#
# Bulk Modulus (GPa) = 28.80308 43.49518 36.14913
# Shear Modulus (GPa) = 18.95765 27.34702 23.15234
#
# Velocity S-wave (km/s) = 2.98308 3.58285 3.29663
# Velocity P-wave (km/s) = 5.03839 6.12638 5.60883
#
# Compressibility (1/GPa) = 0.03471851
#
# Stress axis : x y z
#
# Youngs Moduli (GPa) = 100.94969 69.49500 18.18623
#
# Poissons Ratio (x) = -0.05997 0.12143
# Poissons Ratio (y) = -0.08712 0.29949
# Poissons Ratio (z) = 0.67404 1.14443
#
# Static dielectric constant tensor:
#      x y z
#    x 3.753560 0.000000 -0.063410 
#    y 0.000000 3.803020 0.000000 
#    z -0.063410 0.000000 3.422460 
# 
# 
# High freq. dielectric constant tensor:
#      x y z
#    x 1.837680 0.000000 -0.008400 
#    y 0.000000 1.851010 0.000000 
#    z -0.008400 0.000000 1.792760 
# 
# From -- ./inp_files/5415.got.cif
#   From: 2010.03.12/outbox.cif.g09.slc.cpg/sg14_3_cif.got.tgz:5415.got - 2010.03.31 13:35:05.
