data_PCOD8124573
_publ_section_title
;
Structure prediction by ZEFSAII (Michael W. Deem and Ramdas Pophale) SiO2 
 PCOD8124573
Probable space group: P 21/C
;
_chemical_formula_sum "Si O2"
_cell_formula_units_Z 24
_cell_length_a 8.762076
_cell_length_b 9.922428
_cell_length_c 27.603366
_cell_angle_alpha 90.000000
_cell_angle_beta 31.825446
_cell_angle_gamma 90.000000
_cell_volume 1265.529072
_symmetry_space_group_name_H-M "P 21/C"
_symmetry_group_IT_number 14
_symmetry_cell_setting 'monoclinic'
loop_
_space_group_symop_operation_xyz
x,y,z
-x,1/2+y,1/2-z
-x,-y,-z
x,1/2-y,1/2+z
loop_
_atom_site_type_symbol
_atom_site_label
_atom_site_fract_x
_atom_site_fract_y
_atom_site_fract_z
Si Si1 0.819657 0.618780 0.994379
Si Si2 0.272797 0.108103 0.372984
Si Si3 0.786152 0.505829 0.855491
Si Si4 0.287794 0.229472 0.068909
Si Si5 0.897693 0.492239 0.714307
Si Si6 0.049673 0.737973 0.124057
O O1 0.778538 0.672646 0.059992
O O2 0.558720 0.517954 0.050525
O O3 0.815374 0.744729 0.958749
O O4 0.115484 0.536009 0.910503
O O5 0.156477 0.216384 0.366403
O O6 0.610315 0.082164 0.273144
O O7 0.842590 0.652981 0.862073
O O8 0.918098 0.495873 0.766657
O O9 0.948749 0.397036 0.844536
O O10 0.632695 0.221319 0.979525
O O11 0.169827 0.087404 0.119229
O O12 0.906172 0.644890 0.694124
#
# Coordination Sequence:
#
# PCOD8124573 Si02
#       6
#     4   4   4   4   4   4
#     4   9  18  36  60  79 103 149 198 228 260 342
#     4  10  20  36  57  83 109 147 194 230 274 333
#     4  10  19  39  61  82 107 157 196 223 270 348
#     4  11  20  39  59  83 114 155 188 230 282 342
#     4  11  25  34  56  90 124 138 184 249 291 317
#     4  11  21  39  60  85 113 154 190 230 284 341
#
# _framework density 18.964400000000001
#
# number of rings (size 3 to 8) (size 9 to 14) (size 15 to 20)
#    0.000    1.667    3.333    2.500    2.333    0.000 
#    0.000    0.833    0.000    0.000    0.000    0.000 
#    0.000    0.000    0.000    0.000    0.000    0.000 
#
# Total GULP energy -297714.385313 kJ/mol
# GULP energy per Si atom -12404.766055 kJ/mol
# Density = 1.892124 g / cm^3
# Si number density = 18.964400 Si / 1000 Ang^3
#
#
#
# Elastic Constant Matrix: (Units=GPa)
#
#
# Indices 1 2 3 4 5 6 
#
# 1 121.1317 25.1561 32.1325 0.0000 7.4597 0.0000
# 2 25.1561 53.8953 17.1521 0.0000 7.5339 0.0000
# 3 32.1325 17.1521 73.6821 0.0000 6.8554 0.0000
# 4 0.0000 0.0000 0.0000 24.6046 0.0000 2.6232
# 5 7.4597 7.5339 6.8554 0.0000 21.7939 0.0000
# 6 0.0000 0.0000 0.0000 2.6232 0.0000 12.8599
#
#
#
# Elastic Compliance Matrix: (Units=1/GPa)
#
#
# Indices 1 2 3 4 5 6 
#
# 1 0.009942 -0.003385 -0.003441 0.000000 -0.001151 0.000000
# 2 -0.003385 0.021884 -0.003113 0.000000 -0.005427 0.000000
# 3 -0.003441 -0.003113 0.016057 0.000000 -0.002797 0.000000
# 4 0.000000 0.000000 0.000000 0.041546 0.000000 -0.008475
# 5 -0.001151 -0.005427 -0.002797 0.000000 0.049034 0.000000
# 6 0.000000 0.000000 0.000000 -0.008475 0.000000 0.079489
#
#
# Mechanical properties :
#
#
# Convention : Reuss Voigt Hill
#
# Bulk Modulus (GPa) = 35.70693 44.17672 39.94182
# Shear Modulus (GPa) = 20.22939 23.46960 21.84950
#
# Velocity S-wave (km/s) = 3.26959 3.52171 3.39799
# Velocity P-wave (km/s) = 5.75525 6.31520 6.04171
#
# Compressibility (1/GPa) = 0.02800577
#
# Stress axis : x y z
#
# Youngs Moduli (GPa) = 100.58378 45.69610 62.27715
#
# Poissons Ratio (x) = 0.15466 0.21428
# Poissons Ratio (y) = 0.34044 0.19388
# Poissons Ratio (z) = 0.34608 0.14226
#
# Static dielectric constant tensor:
#      x y z
#    x 3.716850 0.000000 0.115620 
#    y 0.000000 3.197010 0.000000 
#    z 0.115620 0.000000 3.385780 
# 
# 
# High freq. dielectric constant tensor:
#      x y z
#    x 1.749730 0.000000 0.007430 
#    y 0.000000 1.715220 0.000000 
#    z 0.007430 0.000000 1.735050 
# 
# From -- ./inp_files/39047.got.cif
#   From: 2010.03.12/outbox.cif.g09.slc.cpg/sg14_20_cif.got.tgz:39047.got - 2010.03.31 13:35:05.
