data_PCOD8124083
_publ_section_title
;
Structure prediction by ZEFSAII (Michael W. Deem and Ramdas Pophale) SiO2 
 PCOD8124083
Probable space group: P 21/C
;
_chemical_formula_sum "Si O2"
_cell_formula_units_Z 32
_cell_length_a 18.062359
_cell_length_b 5.276732
_cell_length_c 22.304146
_cell_angle_alpha 90.000000
_cell_angle_beta 129.557808
_cell_angle_gamma 90.000000
_cell_volume 1638.964645
_symmetry_space_group_name_H-M "P 21/C"
_symmetry_group_IT_number 14
_symmetry_cell_setting 'monoclinic'
loop_
_space_group_symop_operation_xyz
x,y,z
-x,1/2+y,1/2-z
-x,-y,-z
x,1/2-y,1/2+z
loop_
_atom_site_type_symbol
_atom_site_label
_atom_site_fract_x
_atom_site_fract_y
_atom_site_fract_z
Si Si1 0.627420 0.398244 0.189190
Si Si2 0.190754 0.624828 0.406859
Si Si3 0.651097 0.742665 0.037566
Si Si4 0.209959 0.551009 0.806054
Si Si5 0.558888 0.231237 0.780251
Si Si6 0.537071 0.903115 0.087908
Si Si7 0.637645 0.320294 0.947915
Si Si8 0.989899 0.854326 0.780907
O O1 0.741641 0.383042 0.232709
O O2 0.623628 0.356967 0.258402
O O3 0.577758 0.669458 0.148929
O O4 0.578191 0.169445 0.128937
O O5 0.256789 0.379976 0.443472
O O6 0.180511 0.709270 0.331650
O O7 0.247886 0.821118 0.478771
O O8 0.080548 0.584977 0.372547
O O9 0.699792 0.575659 0.114308
O O10 0.563288 0.875607 0.029863
O O11 0.599939 0.582858 0.957801
O O12 0.115399 0.381091 0.743718
O O13 0.503722 0.487419 0.732686
O O14 0.624451 0.308032 0.870461
O O15 0.420830 0.902017 0.045120
O O16 0.001655 0.562668 0.767486
#
# Coordination Sequence:
#
# PCOD8124083 Si02
#       8
#     4   4   4   4   4   4   4   4
#     4  11  21  38  59  81 111 149 198 235 274 328
#     4  10  20  34  54  82 119 144 187 223 291 345
#     4  10  20  35  52  87 116 148 181 228 288 351
#     4   9  19  35  56  84 114 146 183 233 285 339
#     4  12  24  42  58  79 109 155 206 237 269 325
#     4  11  22  37  56  82 116 151 184 231 283 343
#     4  11  24  35  55  80 116 158 185 237 280 334
#     4  10  19  34  57  83 114 147 180 228 283 345
#
# _framework density 19.524522999999999
#
# number of rings (size 3 to 8) (size 9 to 14) (size 15 to 20)
#    0.000    1.500    5.000    0.375    3.500    0.500 
#    0.000    0.000    0.000    0.750    0.000    0.875 
#    0.000    0.000    0.000    0.000    0.000    0.000 
#
# Total GULP energy -396447.641198 kJ/mol
# GULP energy per Si atom -12388.988787 kJ/mol
# Density = 1.948008 g / cm^3
# Si number density = 19.524523 Si / 1000 Ang^3
#
#
#
# Elastic Constant Matrix: (Units=GPa)
#
#
# Indices 1 2 3 4 5 6 
#
# 1 92.6798 17.4431 60.7722 0.0000 7.3476 0.0000
# 2 17.4431 81.7452 17.6142 0.0000 2.9902 0.0000
# 3 60.7722 17.6142 99.8250 0.0000 -1.3151 0.0000
# 4 0.0000 0.0000 0.0000 24.0356 0.0000 0.9529
# 5 7.3476 2.9902 -1.3151 0.0000 41.4938 0.0000
# 6 0.0000 0.0000 0.0000 0.9529 0.0000 24.8451
#
#
#
# Elastic Compliance Matrix: (Units=1/GPa)
#
#
# Indices 1 2 3 4 5 6 
#
# 1 0.018654 -0.001448 -0.011147 0.000000 -0.003552 0.000000
# 2 -0.001448 0.012870 -0.001398 0.000000 -0.000715 0.000000
# 3 -0.011147 -0.001398 0.017085 0.000000 0.002616 0.000000
# 4 0.000000 0.000000 0.000000 0.041668 0.000000 -0.001598
# 5 -0.003552 -0.000715 0.002616 0.000000 0.024863 0.000000
# 6 0.000000 0.000000 0.000000 -0.001598 0.000000 0.040311
#
#
# Mechanical properties :
#
#
# Convention : Reuss Voigt Hill
#
# Bulk Modulus (GPa) = 48.49679 51.76768 50.13223
# Shear Modulus (GPa) = 26.27258 29.96960 28.12109
#
# Velocity S-wave (km/s) = 3.67225 3.92212 3.79924
# Velocity P-wave (km/s) = 6.54778 6.86167 6.70656
#
# Compressibility (1/GPa) = 0.02061992
#
# Stress axis : x y z
#
# Youngs Moduli (GPa) = 53.60902 77.70174 58.53062
#
# Poissons Ratio (x) = 0.11255 0.65246
# Poissons Ratio (y) = 0.07765 0.08185
# Poissons Ratio (z) = 0.59759 0.10867
#
# Static dielectric constant tensor:
#      x y z
#    x 3.898350 0.000000 0.415150 
#    y 0.000000 3.968830 0.000000 
#    z 0.415150 0.000000 3.612070 
# 
# 
# High freq. dielectric constant tensor:
#      x y z
#    x 1.745780 0.000000 0.024560 
#    y 0.000000 1.786710 0.000000 
#    z 0.024560 0.000000 1.734170 
# 
# From -- ./inp_files/68961.got.cif
#   From: 2010.03.12/outbox.cif.g09.slc.cpg/sg14_35_cif.got.tgz:68961.got - 2010.03.31 13:35:05.
