data_PCOD8124349
_publ_section_title
;
Structure prediction by ZEFSAII (Michael W. Deem and Ramdas Pophale) SiO2 
 PCOD8124349
Probable space group: P 21/C
;
_chemical_formula_sum "Si O2"
_cell_formula_units_Z 32
_cell_length_a 10.669522
_cell_length_b 12.904864
_cell_length_c 11.327653
_cell_angle_alpha 90.000000
_cell_angle_beta 103.585134
_cell_angle_gamma 90.000000
_cell_volume 1516.053114
_symmetry_space_group_name_H-M "P 21/C"
_symmetry_group_IT_number 14
_symmetry_cell_setting 'monoclinic'
loop_
_space_group_symop_operation_xyz
x,y,z
-x,1/2+y,1/2-z
-x,-y,-z
x,1/2-y,1/2+z
loop_
_atom_site_type_symbol
_atom_site_label
_atom_site_fract_x
_atom_site_fract_y
_atom_site_fract_z
Si Si1 0.645322 0.997881 0.662305
Si Si2 0.146143 0.413141 0.630145
Si Si3 0.098451 0.458872 0.364696
Si Si4 0.217608 0.616907 0.995562
Si Si5 0.204393 0.640902 0.249406
Si Si6 0.998304 0.779535 0.306791
Si Si7 0.508740 0.302373 0.927623
Si Si8 0.542188 0.223153 0.687271
O O1 0.716226 0.938016 0.782975
O O2 0.533538 0.922488 0.590064
O O3 0.749477 0.019856 0.581481
O O4 0.587019 0.104146 0.699026
O O5 0.164865 0.411257 0.494313
O O6 0.046573 0.503041 0.643706
O O7 0.100989 0.300721 0.659964
O O8 0.188565 0.554293 0.345946
O O9 0.090471 0.368802 0.266817
O O10 0.089521 0.675948 0.928552
O O11 0.193715 0.579257 0.123442
O O12 0.336142 0.698923 0.021944
O O13 0.089706 0.725528 0.229256
O O14 0.340666 0.696553 0.291377
O O15 0.467905 0.241380 0.797548
O O16 0.459097 0.257836 0.045814
#
# Coordination Sequence:
#
# PCOD8124349 Si02
#       8
#     4   4   4   4   4   4   4   4
#     4  11  21  42  62  89 124 164 199 250 316 360
#     4  10  22  37  61  86 126 161 201 251 311 363
#     4  10  21  37  56  89 122 161 203 253 300 366
#     4  10  19  36  62  86 117 156 203 251 295 367
#     4  10  20  33  62  91 115 152 214 247 298 364
#     4  11  19  37  55  92 121 163 201 248 308 361
#     4  10  22  39  66  94 117 159 211 254 308 365
#     4  10  20  39  67  91 118 161 207 257 299 374
#
# _framework density 21.107441000000001
#
# number of rings (size 3 to 8) (size 9 to 14) (size 15 to 20)
#    0.000    1.750    3.750    2.250    1.750    2.500 
#    4.500    3.125    0.000    0.000    0.000    0.000 
#    0.000    0.000    0.000    0.000    0.000    0.000 
#
# Total GULP energy -396624.473401 kJ/mol
# GULP energy per Si atom -12394.514794 kJ/mol
# Density = 2.105940 g / cm^3
# Si number density = 21.107441 Si / 1000 Ang^3
#
#
#
# Elastic Constant Matrix: (Units=GPa)
#
#
# Indices 1 2 3 4 5 6 
#
# 1 18.0755 20.5831 22.4342 0.0000 -1.0671 0.0000
# 2 20.5831 109.7776 51.6542 0.0000 -1.7491 0.0000
# 3 22.4342 51.6542 157.0370 0.0000 -13.0885 0.0000
# 4 0.0000 0.0000 0.0000 25.4419 0.0000 2.4725
# 5 -1.0671 -1.7491 -13.0885 0.0000 17.1938 0.0000
# 6 0.0000 0.0000 0.0000 2.4725 0.0000 24.8874
#
#
#
# Elastic Compliance Matrix: (Units=1/GPa)
#
#
# Indices 1 2 3 4 5 6 
#
# 1 0.077044 -0.010905 -0.007595 0.000000 -0.002109 0.000000
# 2 -0.010905 0.012368 -0.002629 0.000000 -0.001420 0.000000
# 3 -0.007595 -0.002629 0.008815 0.000000 0.005972 0.000000
# 4 0.000000 0.000000 0.000000 0.039688 0.000000 -0.003943
# 5 -0.002109 -0.001420 0.005972 0.000000 0.062431 0.000000
# 6 0.000000 0.000000 0.000000 -0.003943 0.000000 0.040573
#
#
# Mechanical properties :
#
#
# Convention : Reuss Voigt Hill
#
# Bulk Modulus (GPa) = 17.86701 52.69256 35.27979
# Shear Modulus (GPa) = 16.56537 26.18587 21.37562
#
# Velocity S-wave (km/s) = 2.80449 3.52603 3.18576
# Velocity P-wave (km/s) = 4.35546 6.44945 5.50297
#
# Compressibility (1/GPa) = 0.05596908
#
# Stress axis : x y z
#
# Youngs Moduli (GPa) = 12.97962 80.85164 113.43850
#
# Poissons Ratio (x) = 0.88172 0.86158
# Poissons Ratio (y) = 0.14155 0.29820
# Poissons Ratio (z) = 0.09858 0.21254
#
# Static dielectric constant tensor:
#      x y z
#    x 3.504580 0.000000 -0.229420 
#    y 0.000000 3.638080 0.000000 
#    z -0.229420 0.000000 4.317100 
# 
# 
# High freq. dielectric constant tensor:
#      x y z
#    x 1.792550 0.000000 -0.004760 
#    y 0.000000 1.815960 0.000000 
#    z -0.004760 0.000000 1.847940 
# 
# From -- ./inp_files/29388.got.cif
#   From: 2010.03.12/outbox.cif.g09.slc.cpg/sg14_15_cif.got.tgz:29388.got - 2010.03.31 13:35:05.
