data_PCOD8124708
_publ_section_title
;
Structure prediction by ZEFSAII (Michael W. Deem and Ramdas Pophale) SiO2 
 PCOD8124708
Probable space group: P 21/C
;
_chemical_formula_sum "Si O2"
_cell_formula_units_Z 32
_cell_length_a 11.564582
_cell_length_b 29.745426
_cell_length_c 4.955207
_cell_angle_alpha 90.000000
_cell_angle_beta 103.373711
_cell_angle_gamma 90.000000
_cell_volume 1658.334559
_symmetry_space_group_name_H-M "P 21/C"
_symmetry_group_IT_number 14
_symmetry_cell_setting 'monoclinic'
loop_
_space_group_symop_operation_xyz
x,y,z
-x,1/2+y,1/2-z
-x,-y,-z
x,1/2-y,1/2+z
loop_
_atom_site_type_symbol
_atom_site_label
_atom_site_fract_x
_atom_site_fract_y
_atom_site_fract_z
Si Si1 0.256940 0.884918 0.258818
Si Si2 0.328498 0.280143 0.105684
Si Si3 0.621021 0.279413 0.674302
Si Si4 0.493068 0.349631 0.932952
Si Si5 0.532459 0.554645 0.211183
Si Si6 0.943734 0.779664 0.589691
Si Si7 0.160030 0.660692 0.199310
Si Si8 0.382600 0.965340 0.130491
O O1 0.390027 0.864421 0.335516
O O2 0.192392 0.879672 0.511273
O O3 0.268105 0.937324 0.174405
O O4 0.176324 0.857753 0.007523
O O5 0.358142 0.239179 0.917222
O O6 0.405418 0.324222 0.088722
O O7 0.191951 0.295538 0.011236
O O8 0.599103 0.264294 0.353450
O O9 0.529418 0.318758 0.698764
O O10 0.754861 0.296246 0.799340
O O11 0.426392 0.393234 0.768708
O O12 0.636481 0.519939 0.365628
O O13 0.417526 0.550015 0.347390
O O14 0.495498 0.543321 0.885268
O O15 0.971570 0.739201 0.400369
O O16 0.025499 0.823132 0.581973
#
# Coordination Sequence:
#
# PCOD8124708 Si02
#       8
#     4   4   4   4   4   4   4   4
#     4  10  20  30  49  73 100 121 147 195 242 290
#     4  10  22  36  51  68  94 131 165 201 233 268
#     4  11  20  28  41  62  92 121 143 181 229 273
#     4  10  20  33  47  72  98 125 159 190 233 286
#     4   9  18  28  48  65  95 129 155 189 222 280
#     4  10  20  36  52  67  91 125 168 205 230 267
#     4  11  20  32  48  70  92 123 159 193 236 281
#     4   9  16  31  44  69  96 125 154 182 235 283
#
# _framework density 19.296467
#
# number of rings (size 3 to 8) (size 9 to 14) (size 15 to 20)
#    0.000    2.000    0.000    6.000    0.000    5.000 
#    0.000    0.000    0.000    0.000    0.000    1.750 
#    0.000    0.000    0.000    0.750    0.000    0.000 
#
# Total GULP energy -396739.189173 kJ/mol
# GULP energy per Si atom -12398.099662 kJ/mol
# Density = 1.925255 g / cm^3
# Si number density = 19.296467 Si / 1000 Ang^3
#
#
#
# Elastic Constant Matrix: (Units=GPa)
#
#
# Indices 1 2 3 4 5 6 
#
# 1 58.2518 20.4128 7.9962 0.0000 -8.2619 0.0000
# 2 20.4128 84.4797 10.3076 0.0000 -4.9608 0.0000
# 3 7.9962 10.3076 68.8151 0.0000 -9.6511 0.0000
# 4 0.0000 0.0000 0.0000 21.6358 0.0000 -7.9701
# 5 -8.2619 -4.9608 -9.6511 0.0000 17.8234 0.0000
# 6 0.0000 0.0000 0.0000 -7.9701 0.0000 20.5382
#
#
#
# Elastic Compliance Matrix: (Units=1/GPa)
#
#
# Indices 1 2 3 4 5 6 
#
# 1 0.019834 -0.004269 -0.000587 0.000000 0.007688 0.000000
# 2 -0.004269 0.013087 -0.001332 0.000000 0.000942 0.000000
# 3 -0.000587 -0.001332 0.015918 0.000000 0.007977 0.000000
# 4 0.000000 0.000000 0.000000 0.053929 0.000000 0.020928
# 5 0.007688 0.000942 0.007977 0.000000 0.064251 0.000000
# 6 0.000000 0.000000 0.000000 0.020928 0.000000 0.056811
#
#
# Mechanical properties :
#
#
# Convention : Reuss Voigt Hill
#
# Bulk Modulus (GPa) = 27.42592 32.10888 29.76740
# Shear Modulus (GPa) = 20.13206 23.52149 21.82678
#
# Velocity S-wave (km/s) = 3.23352 3.49514 3.36687
# Velocity P-wave (km/s) = 5.30893 5.74142 5.52940
#
# Compressibility (1/GPa) = 0.03646185
#
# Stress axis : x y z
#
# Youngs Moduli (GPa) = 50.41877 76.41397 62.82156
#
# Poissons Ratio (x) = 0.32624 0.03688
# Poissons Ratio (y) = 0.21526 0.08368
# Poissons Ratio (z) = 0.02959 0.10178
#
# Static dielectric constant tensor:
#      x y z
#    x 3.298380 0.000000 -0.195490 
#    y 0.000000 3.810000 0.000000 
#    z -0.195490 0.000000 3.559290 
# 
# 
# High freq. dielectric constant tensor:
#      x y z
#    x 1.703030 0.000000 -0.021860 
#    y 0.000000 1.741970 0.000000 
#    z -0.021860 0.000000 1.767420 
# 
# From -- ./inp_files/3347.got.cif
#   From: 2010.03.12/outbox.cif.g09.slc.cpg/sg14_2_cif.got.tgz:3347.got - 2010.03.31 13:35:05.
