data_PCOD8124159
_publ_section_title
;
Structure prediction by ZEFSAII (Michael W. Deem and Ramdas Pophale) SiO2 
 PCOD8124159
Probable space group: P 21/C
;
_chemical_formula_sum "Si O2"
_cell_formula_units_Z 28
_cell_length_a 21.377066
_cell_length_b 7.702200
_cell_length_c 23.620796
_cell_angle_alpha 90.000000
_cell_angle_beta 157.928627
_cell_angle_gamma 90.000000
_cell_volume 1461.401189
_symmetry_space_group_name_H-M "P 21/C"
_symmetry_group_IT_number 14
_symmetry_cell_setting 'monoclinic'
loop_
_space_group_symop_operation_xyz
x,y,z
-x,1/2+y,1/2-z
-x,-y,-z
x,1/2-y,1/2+z
loop_
_atom_site_type_symbol
_atom_site_label
_atom_site_fract_x
_atom_site_fract_y
_atom_site_fract_z
Si Si1 0.699483 0.446195 0.076530
Si Si2 0.054913 0.188401 0.865323
Si Si3 0.541437 0.632513 0.610224
Si Si4 0.960863 0.585775 0.768571
Si Si5 0.644524 0.814131 0.319964
Si Si6 0.335831 0.309552 0.407183
Si Si7 0.680403 0.115793 0.434299
O O1 0.621074 0.608342 0.044522
O O2 0.897149 0.424042 0.254706
O O3 0.608721 0.270235 0.019799
O O4 0.667998 0.486454 0.983722
O O5 0.996333 0.385001 0.807976
O O6 0.125740 0.115150 0.865110
O O7 0.208047 0.180589 0.038514
O O8 0.651534 0.661993 0.758371
O O9 0.465841 0.438218 0.547214
O O10 0.663200 0.656619 0.659082
O O11 0.848934 0.656992 0.725167
O O12 0.133701 0.697785 0.912578
O O13 0.668880 0.995983 0.370233
O O14 0.462651 0.757510 0.188471
#
# Coordination Sequence:
#
# PCOD8124159 Si02
#       7
#     4   4   4   4   4   4   4
#     4  10  20  39  60  85 112 148 201 239 282 348
#     4  10  20  35  59  88 117 149 189 250 293 344
#     4  10  23  39  58  85 116 154 196 238 281 350
#     4  10  19  35  56  85 113 147 199 228 286 349
#     4  10  21  36  55  85 125 142 187 245 302 341
#     4  11  21  37  65  80 111 161 199 230 284 343
#     4   9  21  33  55  87 113 148 181 242 302 339
#
# _framework density 19.159692
#
# number of rings (size 3 to 8) (size 9 to 14) (size 15 to 20)
#    0.000    2.000    1.429    3.000    4.000    1.143 
#    0.000    3.571    0.000    0.000    0.000    0.000 
#    0.000    0.000    0.000    0.000    0.000    0.000 
#
# Total GULP energy -347113.911659 kJ/mol
# GULP energy per Si atom -12396.925416 kJ/mol
# Density = 1.911608 g / cm^3
# Si number density = 19.159692 Si / 1000 Ang^3
#
#
#
# Elastic Constant Matrix: (Units=GPa)
#
#
# Indices 1 2 3 4 5 6 
#
# 1 125.2253 33.2946 63.9030 0.0000 -2.3763 0.0000
# 2 33.2946 63.9605 27.6892 0.0000 -0.8846 0.0000
# 3 63.9030 27.6892 108.8169 0.0000 -12.3565 0.0000
# 4 0.0000 0.0000 0.0000 27.0778 0.0000 1.8615
# 5 -2.3763 -0.8846 -12.3565 0.0000 25.2194 0.0000
# 6 0.0000 0.0000 0.0000 1.8615 0.0000 27.0162
#
#
#
# Elastic Compliance Matrix: (Units=1/GPa)
#
#
# Indices 1 2 3 4 5 6 
#
# 1 0.012217 -0.003570 -0.006512 0.000000 -0.002165 0.000000
# 2 -0.003570 0.018680 -0.002775 0.000000 -0.001041 0.000000
# 3 -0.006512 -0.002775 0.014443 0.000000 0.006365 0.000000
# 4 0.000000 0.000000 0.000000 0.037106 0.000000 -0.002557
# 5 -0.002165 -0.001041 0.006365 0.000000 0.042530 0.000000
# 6 0.000000 0.000000 0.000000 -0.002557 0.000000 0.037191
#
#
# Mechanical properties :
#
#
# Convention : Reuss Voigt Hill
#
# Bulk Modulus (GPa) = 50.95306 60.86404 55.90855
# Shear Modulus (GPa) = 25.71720 27.40373 26.56047
#
# Velocity S-wave (km/s) = 3.66766 3.78601 3.72730
# Velocity P-wave (km/s) = 6.67737 7.13775 6.91139
#
# Compressibility (1/GPa) = 0.01962591
#
# Stress axis : x y z
#
# Youngs Moduli (GPa) = 81.85509 53.53311 69.23985
#
# Poissons Ratio (x) = 0.19113 0.45086
# Poissons Ratio (y) = 0.29226 0.19212
# Poissons Ratio (z) = 0.53301 0.14854
#
# Static dielectric constant tensor:
#      x y z
#    x 3.492760 0.000000 0.054910 
#    y 0.000000 3.475180 0.000000 
#    z 0.054910 0.000000 3.829870 
# 
# 
# High freq. dielectric constant tensor:
#      x y z
#    x 1.738410 0.000000 0.006710 
#    y 0.000000 1.744180 0.000000 
#    z 0.006710 0.000000 1.737860 
# 
# From -- ./inp_files/64605.got.cif
#   From: 2010.03.12/outbox.cif.g09.slc.cpg/sg14_33_cif.got.tgz:64605.got - 2010.03.31 13:35:05.
