data_PCOD8124392
_publ_section_title
;
Structure prediction by ZEFSAII (Michael W. Deem and Ramdas Pophale) SiO2 
 PCOD8124392
Probable space group: P 21/C
;
_chemical_formula_sum "Si O2"
_cell_formula_units_Z 28
_cell_length_a 5.181585
_cell_length_b 11.447424
_cell_length_c 23.160281
_cell_angle_alpha 90.000000
_cell_angle_beta 77.798354
_cell_angle_gamma 90.000000
_cell_volume 1342.736886
_symmetry_space_group_name_H-M "P 21/C"
_symmetry_group_IT_number 14
_symmetry_cell_setting 'monoclinic'
loop_
_space_group_symop_operation_xyz
x,y,z
-x,1/2+y,1/2-z
-x,-y,-z
x,1/2-y,1/2+z
loop_
_atom_site_type_symbol
_atom_site_label
_atom_site_fract_x
_atom_site_fract_y
_atom_site_fract_z
Si Si1 0.570000 0.232902 0.603763
Si Si2 0.855121 0.197911 0.293199
Si Si3 0.718466 0.946410 0.316374
Si Si4 0.336680 0.350948 0.304841
Si Si5 0.243226 0.847504 0.008092
Si Si6 0.685116 0.579116 0.568054
Si Si7 0.019306 0.226284 0.164989
O O1 0.668625 0.232190 0.532472
O O2 0.299847 0.309475 0.622929
O O3 0.790441 0.298714 0.630789
O O4 0.518281 0.101616 0.630538
O O5 0.784292 0.078893 0.330663
O O6 0.588313 0.267718 0.294832
O O7 0.071737 0.271952 0.317719
O O8 0.973618 0.154590 0.226008
O O9 0.639689 0.932667 0.252609
O O10 0.972825 0.864011 0.316572
O O11 0.332283 0.431934 0.361957
O O12 0.422809 0.857006 0.056614
O O13 0.938140 0.841398 0.039840
O O14 0.293608 0.952342 0.960684
#
# Coordination Sequence:
#
# PCOD8124392 Si02
#       7
#     4   4   4   4   4   4   4
#     4  10  19  37  57  84 113 143 194 235 279 338
#     4  11  21  37  56  83 123 149 187 231 291 351
#     4   9  23  35  59  85 118 151 191 226 293 350
#     4  11  23  38  57  88 120 152 187 239 291 346
#     4  10  21  39  61  84 113 152 196 237 286 344
#     4  10  22  39  58  88 114 151 193 239 296 333
#     4   9  19  35  50  88 108 149 188 221 283 339
#
# _framework density 20.852931999999999
#
# number of rings (size 3 to 8) (size 9 to 14) (size 15 to 20)
#    0.857    1.143    1.429    1.714    4.000    0.000 
#    5.143    0.000    0.000    5.143    0.000    0.000 
#    0.000    0.000    0.000    0.000    0.000    0.000 
#
# Total GULP energy -346991.610458 kJ/mol
# GULP energy per Si atom -12392.557516 kJ/mol
# Density = 2.080547 g / cm^3
# Si number density = 20.852932 Si / 1000 Ang^3
#
#
#
# Elastic Constant Matrix: (Units=GPa)
#
#
# Indices 1 2 3 4 5 6 
#
# 1 133.6712 14.5519 2.5965 0.0000 2.5785 0.0000
# 2 14.5519 39.2274 4.1332 0.0000 2.9331 0.0000
# 3 2.5965 4.1332 47.9157 0.0000 10.5036 0.0000
# 4 0.0000 0.0000 0.0000 19.4347 0.0000 -1.9381
# 5 2.5785 2.9331 10.5036 0.0000 34.6567 0.0000
# 6 0.0000 0.0000 0.0000 -1.9381 0.0000 17.3880
#
#
#
# Elastic Compliance Matrix: (Units=1/GPa)
#
#
# Indices 1 2 3 4 5 6 
#
# 1 0.007800 -0.002859 -0.000109 0.000000 -0.000305 0.000000
# 2 -0.002859 0.026859 -0.001832 0.000000 -0.001505 0.000000
# 3 -0.000109 -0.001832 0.022492 0.000000 -0.006654 0.000000
# 4 0.000000 0.000000 0.000000 0.052033 0.000000 0.005800
# 5 -0.000305 -0.001505 -0.006654 0.000000 0.031021 0.000000
# 6 0.000000 0.000000 0.000000 0.005800 0.000000 0.058157
#
#
# Mechanical properties :
#
#
# Convention : Reuss Voigt Hill
#
# Bulk Modulus (GPa) = 21.03018 29.26417 25.14718
# Shear Modulus (GPa) = 22.34003 27.59807 24.96905
#
# Velocity S-wave (km/s) = 3.27664 3.64189 3.46408
# Velocity P-wave (km/s) = 4.94187 5.63458 5.29956
#
# Compressibility (1/GPa) = 0.04755071
#
# Stress axis : x y z
#
# Youngs Moduli (GPa) = 128.19976 37.23198 44.45934
#
# Poissons Ratio (x) = 0.10646 0.00485
# Poissons Ratio (y) = 0.36656 0.08145
# Poissons Ratio (z) = 0.01399 0.06821
#
# Static dielectric constant tensor:
#      x y z
#    x 3.894210 0.000000 -0.021550 
#    y 0.000000 3.269170 0.000000 
#    z -0.021550 0.000000 3.764070 
# 
# 
# High freq. dielectric constant tensor:
#      x y z
#    x 1.832410 0.000000 -0.000140 
#    y 0.000000 1.769690 0.000000 
#    z -0.000140 0.000000 1.809840 
# 
# From -- ./inp_files/63289.got.cif
#   From: 2010.03.12/outbox.cif.g09.slc.cpg/sg14_32_cif.got.tgz:63289.got - 2010.03.31 13:35:05.
