data_PCOD8124729
_publ_section_title
;
Structure prediction by ZEFSAII (Michael W. Deem and Ramdas Pophale) SiO2 
 PCOD8124729
Probable space group: P 21/C
;
_chemical_formula_sum "Si O2"
_cell_formula_units_Z 32
_cell_length_a 7.985070
_cell_length_b 12.862331
_cell_length_c 16.052516
_cell_angle_alpha 90.000000
_cell_angle_beta 120.730025
_cell_angle_gamma 90.000000
_cell_volume 1417.196766
_symmetry_space_group_name_H-M "P 21/C"
_symmetry_group_IT_number 14
_symmetry_cell_setting 'monoclinic'
loop_
_space_group_symop_operation_xyz
x,y,z
-x,1/2+y,1/2-z
-x,-y,-z
x,1/2-y,1/2+z
loop_
_atom_site_type_symbol
_atom_site_label
_atom_site_fract_x
_atom_site_fract_y
_atom_site_fract_z
Si Si1 0.821035 0.163393 0.133005
Si Si2 0.499074 0.667560 0.579783
Si Si3 0.643766 0.355376 0.158977
Si Si4 0.870190 0.547737 0.194824
Si Si5 0.402563 0.448295 0.238378
Si Si6 0.844268 0.721886 0.879793
Si Si7 0.529982 0.843695 0.708952
Si Si8 0.259718 0.193463 0.469871
O O1 0.722171 0.236722 0.178107
O O2 0.925008 0.065557 0.204113
O O3 0.976370 0.231869 0.122740
O O4 0.664412 0.125224 0.025201
O O5 0.561340 0.570732 0.653839
O O6 0.421329 0.764179 0.617758
O O7 0.687851 0.709088 0.576735
O O8 0.823200 0.426141 0.170602
O O9 0.582180 0.392634 0.235213
O O10 0.458749 0.363596 0.050022
O O11 0.689750 0.593437 0.199040
O O12 0.877381 0.609012 0.109657
O O13 0.194768 0.398163 0.158279
O O14 0.387272 0.571552 0.215496
O O15 0.638952 0.779064 0.808148
O O16 0.869719 0.733196 0.985406
#
# Coordination Sequence:
#
# PCOD8124729 Si02
#       8
#     4   4   4   4   4   4   4   4
#     4  10  20  33  48  76 108 129 157 206 257 294
#     4   9  18  33  52  74 100 129 164 206 246 293
#     4   9  18  33  53  74  95 128 171 206 241 293
#     4   9  17  32  52  72  98 133 168 201 243 298
#     4   9  17  34  56  72  91 131 174 204 237 294
#     4   9  18  32  49  73 101 128 164 205 247 292
#     4   8  16  33  54  70  92 132 173 199 236 299
#     4   9  17  32  54  71  94 134 173 203 236 289
#
# _framework density 22.579787
#
# number of rings (size 3 to 8) (size 9 to 14) (size 15 to 20)
#    0.000    3.000    0.000    1.125    0.000    4.000 
#    0.000   15.000    0.000    0.000    0.000    0.000 
#    0.000    0.000    0.000    0.000    0.000    0.000 
#
# Total GULP energy -396584.923329 kJ/mol
# GULP energy per Si atom -12393.278854 kJ/mol
# Density = 2.252839 g / cm^3
# Si number density = 22.579787 Si / 1000 Ang^3
#
#
#
# Elastic Constant Matrix: (Units=GPa)
#
#
# Indices 1 2 3 4 5 6 
#
# 1 26.6059 -18.2712 3.2482 0.0000 7.4643 0.0000
# 2 -18.2712 31.4925 4.4003 0.0000 1.8727 0.0000
# 3 3.2482 4.4003 100.5144 0.0000 -9.3710 0.0000
# 4 0.0000 0.0000 0.0000 26.6683 0.0000 2.0599
# 5 7.4643 1.8727 -9.3710 0.0000 18.3192 0.0000
# 6 0.0000 0.0000 0.0000 2.0599 0.0000 11.7858
#
#
#
# Elastic Compliance Matrix: (Units=1/GPa)
#
#
# Indices 1 2 3 4 5 6 
#
# 1 0.092036 0.057683 -0.010023 0.000000 -0.048525 0.000000
# 2 0.057683 0.068410 -0.008088 0.000000 -0.034634 0.000000
# 3 -0.010023 -0.008088 0.011640 0.000000 0.010865 0.000000
# 4 0.000000 0.000000 0.000000 0.038011 0.000000 -0.006643
# 5 -0.048525 -0.034634 0.010865 0.000000 0.083457 0.000000
# 6 0.000000 0.000000 0.000000 -0.006643 0.000000 0.086009
#
#
# Mechanical properties :
#
#
# Convention : Reuss Voigt Hill
#
# Bulk Modulus (GPa) = 3.98043 15.26305 9.62174
# Shear Modulus (GPa) = 13.01534 22.63703 17.82619
#
# Velocity S-wave (km/s) = 2.40347 3.16972 2.81281
# Velocity P-wave (km/s) = 3.07716 4.49115 3.84963
#
# Compressibility (1/GPa) = 0.25122890
#
# Stress axis : x y z
#
# Youngs Moduli (GPa) = 10.86531 14.61785 85.91238
#
# Poissons Ratio (x) = -0.84320 0.86114
# Poissons Ratio (y) = -0.62674 0.69484
# Poissons Ratio (z) = 0.10891 0.11823
#
# Static dielectric constant tensor:
#      x y z
#    x 3.834110 0.000000 -0.197520 
#    y 0.000000 4.196430 0.000000 
#    z -0.197520 0.000000 4.080420 
# 
# 
# High freq. dielectric constant tensor:
#      x y z
#    x 1.874630 0.000000 -0.019040 
#    y 0.000000 1.876590 0.000000 
#    z -0.019040 0.000000 1.883210 
# 
# From -- ./inp_files/41245.got.cif
#   From: 2010.03.12/outbox.cif.g09.slc.cpg/sg14_21_cif.got.tgz:41245.got - 2010.03.31 13:35:05.
