data_PCOD8124156
_publ_section_title
;
Structure prediction by ZEFSAII (Michael W. Deem and Ramdas Pophale) SiO2 
 PCOD8124156
Probable space group: P 21/C
;
_chemical_formula_sum "Si O2"
_cell_formula_units_Z 28
_cell_length_a 8.516652
_cell_length_b 20.933692
_cell_length_c 14.186881
_cell_angle_alpha 90.000000
_cell_angle_beta 146.191114
_cell_angle_gamma 90.000000
_cell_volume 1407.368710
_symmetry_space_group_name_H-M "P 21/C"
_symmetry_group_IT_number 14
_symmetry_cell_setting 'monoclinic'
loop_
_space_group_symop_operation_xyz
x,y,z
-x,1/2+y,1/2-z
-x,-y,-z
x,1/2-y,1/2+z
loop_
_atom_site_type_symbol
_atom_site_label
_atom_site_fract_x
_atom_site_fract_y
_atom_site_fract_z
Si Si1 0.034960 0.100973 0.867874
Si Si2 0.943574 0.329331 0.141511
Si Si3 0.341090 0.893949 0.142714
Si Si4 0.959938 0.577758 0.977524
Si Si5 0.309683 0.873079 0.820786
Si Si6 0.223105 0.975829 0.913660
Si Si7 0.436938 0.715102 0.546164
O O1 0.899096 0.149592 0.726836
O O2 0.904250 0.113410 0.903871
O O3 0.978699 0.029086 0.800694
O O4 0.372873 0.105159 0.042469
O O5 0.967285 0.393208 0.089324
O O6 0.224704 0.285955 0.276992
O O7 0.674843 0.285465 0.983009
O O8 0.639449 0.904437 0.343443
O O9 0.297275 0.956034 0.056961
O O10 0.319942 0.831960 0.067258
O O11 0.000000 0.500000 0.000000
O O12 0.146328 0.621419 0.140920
O O13 0.125524 0.917196 0.800180
O O14 0.330666 0.805142 0.887051
O O15 0.500000 0.000000 0.000000
#
# Coordination Sequence:
#
# PCOD8124156 Si02
#       7
#     4   4   4   4   4   4   4
#     4  10  19  35  56  82 107 144 185 229 280 333
#     4  10  22  39  60  79 114 152 191 240 286 349
#     4  10  21  35  57  84 115 145 186 236 280 341
#     4  11  21  37  58  87 117 152 190 237 294 343
#     4   9  19  35  57  77 108 147 184 228 281 344
#     4   9  16  33  56  78 107 145 179 216 273 338
#     4   9  21  40  56  79 108 151 193 230 288 342
#
# _framework density 19.895285000000001
#
# number of rings (size 3 to 8) (size 9 to 14) (size 15 to 20)
#    0.000    2.286    0.000    5.571    0.000    3.429 
#    0.000   11.429    0.000    0.000    0.000    0.000 
#    0.000    0.000    0.000    0.000    0.000    0.000 
#
# Total GULP energy -346884.010891 kJ/mol
# GULP energy per Si atom -12388.714675 kJ/mol
# Density = 1.985000 g / cm^3
# Si number density = 19.895285 Si / 1000 Ang^3
#
#
#
# Elastic Constant Matrix: (Units=GPa)
#
#
# Indices 1 2 3 4 5 6 
#
# 1 129.4528 35.9365 29.3272 0.0000 -6.7731 0.0000
# 2 35.9365 92.3947 30.3866 0.0000 3.8537 0.0000
# 3 29.3272 30.3866 82.2370 0.0000 -11.1908 0.0000
# 4 0.0000 0.0000 0.0000 29.4710 0.0000 -0.4865
# 5 -6.7731 3.8537 -11.1908 0.0000 18.0031 0.0000
# 6 0.0000 0.0000 0.0000 -0.4865 0.0000 24.3232
#
#
#
# Elastic Compliance Matrix: (Units=1/GPa)
#
#
# Indices 1 2 3 4 5 6 
#
# 1 0.009135 -0.003126 -0.001687 0.000000 0.003057 0.000000
# 2 -0.003126 0.014007 -0.005057 0.000000 -0.007318 0.000000
# 3 -0.001687 -0.005057 0.016048 0.000000 0.010424 0.000000
# 4 0.000000 0.000000 0.000000 0.033943 0.000000 0.000679
# 5 0.003057 -0.007318 0.010424 0.000000 0.064742 0.000000
# 6 0.000000 0.000000 0.000000 0.000679 0.000000 0.041127
#
#
# Mechanical properties :
#
#
# Convention : Reuss Voigt Hill
#
# Bulk Modulus (GPa) = 51.40844 55.04277 53.22561
# Shear Modulus (GPa) = 24.36370 28.25507 26.30939
#
# Velocity S-wave (km/s) = 3.50322 3.77263 3.64042
# Velocity P-wave (km/s) = 6.50069 6.83398 6.66942
#
# Compressibility (1/GPa) = 0.01945206
#
# Stress axis : x y z
#
# Youngs Moduli (GPa) = 109.47418 71.39235 62.31166
#
# Poissons Ratio (x) = 0.22315 0.10509
# Poissons Ratio (y) = 0.34218 0.31509
# Poissons Ratio (z) = 0.18464 0.36101
#
# Static dielectric constant tensor:
#      x y z
#    x 3.658690 0.000000 -0.183780 
#    y 0.000000 3.758080 0.000000 
#    z -0.183780 0.000000 3.460050 
# 
# 
# High freq. dielectric constant tensor:
#      x y z
#    x 1.777260 0.000000 -0.011760 
#    y 0.000000 1.772550 0.000000 
#    z -0.011760 0.000000 1.757160 
# 
# From -- ./inp_files/42114.got.cif
#   From: 2010.03.12/outbox.cif.g09.slc.cpg/sg14_22_cif.got.tgz:42114.got - 2010.03.31 13:35:05.
