data_PCOD8124735
_publ_section_title
;
Structure prediction by ZEFSAII (Michael W. Deem and Ramdas Pophale) SiO2 
 PCOD8124735
Probable space group: P 21/C
;
_chemical_formula_sum "Si O2"
_cell_formula_units_Z 32
_cell_length_a 7.826133
_cell_length_b 16.817706
_cell_length_c 14.076645
_cell_angle_alpha 90.000000
_cell_angle_beta 117.436821
_cell_angle_gamma 90.000000
_cell_volume 1644.337725
_symmetry_space_group_name_H-M "P 21/C"
_symmetry_group_IT_number 14
_symmetry_cell_setting 'monoclinic'
loop_
_space_group_symop_operation_xyz
x,y,z
-x,1/2+y,1/2-z
-x,-y,-z
x,1/2-y,1/2+z
loop_
_atom_site_type_symbol
_atom_site_label
_atom_site_fract_x
_atom_site_fract_y
_atom_site_fract_z
Si Si1 0.810754 0.703889 0.190320
Si Si2 0.805122 0.692411 0.966585
Si Si3 0.568734 0.841757 0.913680
Si Si4 0.443224 0.417212 0.783346
Si Si5 0.498094 0.829418 0.099747
Si Si6 0.768507 0.197888 0.427808
Si Si7 0.781961 0.260636 0.221705
Si Si8 0.457734 0.899873 0.287858
O O1 0.796978 0.678604 0.077226
O O2 0.754785 0.624769 0.234558
O O3 0.665200 0.773055 0.183706
O O4 0.015884 0.739666 0.275687
O O5 0.019219 0.674372 0.979681
O O6 0.750004 0.785166 0.933921
O O7 0.661360 0.632142 0.877998
O O8 0.544925 0.909982 0.828780
O O9 0.382958 0.786823 0.872560
O O10 0.574178 0.875307 0.023923
O O11 0.627283 0.378328 0.883810
O O12 0.436103 0.508703 0.809969
O O13 0.322478 0.767964 0.030630
O O14 0.446947 0.891133 0.170169
O O15 0.798267 0.235404 0.333635
O O16 0.720012 0.353892 0.206161
#
# Coordination Sequence:
#
# PCOD8124735 Si02
#       8
#     4   4   4   4   4   4   4   4
#     4   9  17  33  55  73  96 135 180 219 252 301
#     4   9  17  32  55  77  98 133 179 217 253 305
#     4   9  18  32  52  75 100 139 182 211 244 299
#     4  10  20  33  50  78 113 137 161 211 269 311
#     4   9  18  32  52  75 100 138 182 215 243 294
#     4   8  16  32  53  76 100 132 176 216 249 298
#     4   8  16  33  53  72  97 134 180 216 247 300
#     4  10  20  33  50  78 112 136 164 214 267 309
#
# _framework density 19.460723000000002
#
# number of rings (size 3 to 8) (size 9 to 14) (size 15 to 20)
#    0.000    3.000    0.000    2.250    0.000    3.500 
#    0.000    3.750    0.000   15.750    0.000    0.000 
#    0.000    0.000    0.000    0.000    0.000    0.000 
#
# Total GULP energy -396481.927952 kJ/mol
# GULP energy per Si atom -12390.060248 kJ/mol
# Density = 1.941643 g / cm^3
# Si number density = 19.460723 Si / 1000 Ang^3
#
#
#
# Elastic Constant Matrix: (Units=GPa)
#
#
# Indices 1 2 3 4 5 6 
#
# 1 110.3695 42.6953 23.5049 0.0000 23.7254 0.0000
# 2 42.6953 81.2015 26.7433 0.0000 6.6122 0.0000
# 3 23.5049 26.7433 55.6126 0.0000 8.6221 0.0000
# 4 0.0000 0.0000 0.0000 15.7577 0.0000 -0.9869
# 5 23.7254 6.6122 8.6221 0.0000 21.0215 0.0000
# 6 0.0000 0.0000 0.0000 -0.9869 0.0000 19.0705
#
#
#
# Elastic Compliance Matrix: (Units=1/GPa)
#
#
# Indices 1 2 3 4 5 6 
#
# 1 0.014773 -0.006270 -0.001014 0.000000 -0.014285 0.000000
# 2 -0.006270 0.017360 -0.006353 0.000000 0.004222 0.000000
# 3 -0.001014 -0.006353 0.022402 0.000000 -0.006046 0.000000
# 4 0.000000 0.000000 0.000000 0.063668 0.000000 0.003295
# 5 -0.014285 0.004222 -0.006046 0.000000 0.064845 0.000000
# 6 0.000000 0.000000 0.000000 0.003295 0.000000 0.052607
#
#
# Mechanical properties :
#
#
# Convention : Reuss Voigt Hill
#
# Bulk Modulus (GPa) = 36.68135 48.11895 42.40015
# Shear Modulus (GPa) = 18.38128 21.45261 19.91695
#
# Velocity S-wave (km/s) = 3.07666 3.32377 3.20260
# Velocity P-wave (km/s) = 5.61346 6.28568 5.95906
#
# Compressibility (1/GPa) = 0.02726181
#
# Stress axis : x y z
#
# Youngs Moduli (GPa) = 67.69251 57.60232 44.63822
#
# Poissons Ratio (x) = 0.36119 0.04525
# Poissons Ratio (y) = 0.42445 0.28358
# Poissons Ratio (z) = 0.06862 0.36593
#
# Static dielectric constant tensor:
#      x y z
#    x 3.970190 0.000000 0.212550 
#    y 0.000000 3.104400 0.000000 
#    z 0.212550 0.000000 3.738350 
# 
# 
# High freq. dielectric constant tensor:
#      x y z
#    x 1.761710 0.000000 -0.005560 
#    y 0.000000 1.709980 0.000000 
#    z -0.005560 0.000000 1.763560 
# 
# From -- ./inp_files/41254.got.cif
#   From: 2010.03.12/outbox.cif.g09.slc.cpg/sg14_21_cif.got.tgz:41254.got - 2010.03.31 13:35:05.
