data_PCOD8124721
_publ_section_title
;
Structure prediction by ZEFSAII (Michael W. Deem and Ramdas Pophale) SiO2 
 PCOD8124721
Probable space group: P 21/C
;
_chemical_formula_sum "Si O2"
_cell_formula_units_Z 32
_cell_length_a 13.157552
_cell_length_b 15.947935
_cell_length_c 21.307800
_cell_angle_alpha 90.000000
_cell_angle_beta 20.947513
_cell_angle_gamma 90.000000
_cell_volume 1598.488381
_symmetry_space_group_name_H-M "P 21/C"
_symmetry_group_IT_number 14
_symmetry_cell_setting 'monoclinic'
loop_
_space_group_symop_operation_xyz
x,y,z
-x,1/2+y,1/2-z
-x,-y,-z
x,1/2-y,1/2+z
loop_
_atom_site_type_symbol
_atom_site_label
_atom_site_fract_x
_atom_site_fract_y
_atom_site_fract_z
Si Si1 0.370894 0.422457 0.872933
Si Si2 0.825460 0.704198 0.703356
Si Si3 0.000478 0.787372 0.470849
Si Si4 0.396685 0.594891 0.807598
Si Si5 0.032608 0.886438 0.915504
Si Si6 0.139333 0.471148 0.266585
Si Si7 0.798368 0.501149 0.904544
Si Si8 0.193901 0.669654 0.052471
O O1 0.275268 0.335019 0.897399
O O2 0.325116 0.495680 0.847459
O O3 0.707443 0.421536 0.693095
O O4 0.182868 0.439750 0.044515
O O5 0.919743 0.740831 0.582087
O O6 0.949847 0.609629 0.640631
O O7 0.487722 0.707449 0.909955
O O8 0.957979 0.758450 0.683717
O O9 0.090785 0.713333 0.369903
O O10 0.258276 0.854919 0.328577
O O11 0.731221 0.609019 0.624508
O O12 0.250823 0.632900 0.951709
O O13 0.993045 0.943048 0.875950
O O14 0.057486 0.457204 0.240149
O O15 0.471037 0.483829 0.081134
O O16 0.934478 0.408320 0.834063
#
# Coordination Sequence:
#
# PCOD8124721 Si02
#       8
#     4   4   4   4   4   4   4   4
#     4  10  21  35  58  79 106 148 180 221 272 323
#     4  10  20  32  54  82 109 136 177 218 275 317
#     4  11  22  33  50  84 120 139 167 224 284 329
#     4  10  20  34  52  80 113 143 174 218 276 331
#     4  11  21  33  54  83 108 138 186 220 265 318
#     4   9  19  35  57  79 101 147 187 225 249 318
#     4   8  17  38  57  74 104 141 192 216 262 314
#     4   9  18  33  54  80 105 140 175 225 262 320
#
# _framework density 20.018913000000001
#
# number of rings (size 3 to 8) (size 9 to 14) (size 15 to 20)
#    0.000    2.250    1.250    2.250    3.500    0.000 
#    2.250    0.000    2.750    1.500    0.000    0.000 
#    0.000    0.000    0.000    0.000    0.000    0.000 
#
# Total GULP energy -396463.685808 kJ/mol
# GULP energy per Si atom -12389.490182 kJ/mol
# Density = 1.997335 g / cm^3
# Si number density = 20.018913 Si / 1000 Ang^3
#
#
#
# Elastic Constant Matrix: (Units=GPa)
#
#
# Indices 1 2 3 4 5 6 
#
# 1 58.7378 52.5767 24.1864 0.0000 1.0036 0.0000
# 2 52.5767 140.8132 28.9981 0.0000 5.9205 0.0000
# 3 24.1864 28.9981 29.6362 0.0000 -7.2331 0.0000
# 4 0.0000 0.0000 0.0000 25.0215 0.0000 -5.4880
# 5 1.0036 5.9205 -7.2331 0.0000 19.8839 0.0000
# 6 0.0000 0.0000 0.0000 -5.4880 0.0000 37.7641
#
#
#
# Elastic Compliance Matrix: (Units=1/GPa)
#
#
# Indices 1 2 3 4 5 6 
#
# 1 0.032467 -0.007543 -0.020816 0.000000 -0.006965 0.000000
# 2 -0.007543 0.011450 -0.006351 0.000000 -0.005339 0.000000
# 3 -0.020816 -0.006351 0.063281 0.000000 0.025961 0.000000
# 4 0.000000 0.000000 0.000000 0.041281 0.000000 0.005999
# 5 -0.006965 -0.005339 0.025961 0.000000 0.061677 0.000000
# 6 0.000000 0.000000 0.000000 0.005999 0.000000 0.027352
#
#
# Mechanical properties :
#
#
# Convention : Reuss Voigt Hill
#
# Bulk Modulus (GPa) = 26.47001 48.96774 37.71888
# Shear Modulus (GPa) = 15.64841 24.76230 20.20536
#
# Velocity S-wave (km/s) = 2.79889 3.52084 3.18042
# Velocity P-wave (km/s) = 4.86788 6.40642 5.68940
#
# Compressibility (1/GPa) = 0.03777860
#
# Stress axis : x y z
#
# Youngs Moduli (GPa) = 30.80060 87.33375 15.80250
#
# Poissons Ratio (x) = 0.65875 0.32894
# Poissons Ratio (y) = 0.23233 0.10036
# Poissons Ratio (z) = 0.64114 0.55466
#
# Static dielectric constant tensor:
#      x y z
#    x 4.010550 0.000000 -0.023560 
#    y 0.000000 4.286730 0.000000 
#    z -0.023560 0.000000 3.326390 
# 
# 
# High freq. dielectric constant tensor:
#      x y z
#    x 1.760510 0.000000 -0.013470 
#    y 0.000000 1.800100 0.000000 
#    z -0.013470 0.000000 1.737360 
# 
# From -- ./inp_files/73963.got.cif
#   From: 2010.03.12/outbox.cif.g09.slc.cpg/sg14_37_cif.got.tgz:73963.got - 2010.03.31 13:35:05.
