data_PCOD8124482
_publ_section_title
;
Structure prediction by ZEFSAII (Michael W. Deem and Ramdas Pophale) SiO2 
 PCOD8124482
Probable space group: P 21/C
;
_chemical_formula_sum "Si O2"
_cell_formula_units_Z 32
_cell_length_a 19.797540
_cell_length_b 9.444483
_cell_length_c 27.477782
_cell_angle_alpha 90.000000
_cell_angle_beta 159.269817
_cell_angle_gamma 90.000000
_cell_volume 1818.589078
_symmetry_space_group_name_H-M "P 21/C"
_symmetry_group_IT_number 14
_symmetry_cell_setting 'monoclinic'
loop_
_space_group_symop_operation_xyz
x,y,z
-x,1/2+y,1/2-z
-x,-y,-z
x,1/2-y,1/2+z
loop_
_atom_site_type_symbol
_atom_site_label
_atom_site_fract_x
_atom_site_fract_y
_atom_site_fract_z
Si Si1 0.916912 0.565252 0.151806
Si Si2 0.079127 0.814407 0.997923
Si Si3 0.808442 0.028822 0.474031
Si Si4 0.149508 0.940355 0.207868
Si Si5 0.391738 0.039708 0.228701
Si Si6 0.463381 0.985681 0.570031
Si Si7 0.123480 0.643780 0.797774
Si Si8 0.913255 0.737526 0.987870
O O1 0.995108 0.441744 0.240606
O O2 0.056017 0.696291 0.250811
O O3 0.917284 0.511544 0.096793
O O4 0.697676 0.601129 0.020972
O O5 0.939722 0.918683 0.875131
O O6 0.139786 0.689536 0.003038
O O7 0.264837 0.897626 0.141973
O O8 0.967041 0.748417 0.967762
O O9 0.580789 0.015066 0.324781
O O10 0.876607 0.925085 0.476936
O O11 0.379421 0.944723 0.358936
O O12 0.087879 0.932067 0.222320
O O13 0.083114 0.799724 0.135197
O O14 0.437711 0.078730 0.315446
O O15 0.276117 0.170986 0.128120
O O16 0.349623 0.861187 0.464353
#
# Coordination Sequence:
#
# PCOD8124482 Si02
#       8
#     4   4   4   4   4   4   4   4
#     4   9  22  37  58  84 111 145 190 236 283 331
#     4  11  22  35  60  86 117 150 188 232 282 351
#     4  11  22  36  56  85 121 148 184 239 295 322
#     4  11  19  37  61  85 106 155 195 220 284 343
#     4  10  19  38  57  85 111 153 191 229 275 351
#     4   9  19  35  64  77 113 145 192 234 270 342
#     4  10  21  37  62  81 109 147 190 237 282 327
#     4  11  20  37  60  82 121 148 188 236 278 350
#
# _framework density 17.596057999999999
#
# number of rings (size 3 to 8) (size 9 to 14) (size 15 to 20)
#    0.750    1.000    3.750    2.250    1.750    0.000 
#    0.000    0.000    2.750    1.500    0.000    0.000 
#    0.000    0.000    0.000    0.000    0.000    0.000 
#
# Total GULP energy -396665.553910 kJ/mol
# GULP energy per Si atom -12395.798560 kJ/mol
# Density = 1.755601 g / cm^3
# Si number density = 17.596058 Si / 1000 Ang^3
#
#
#
# Elastic Constant Matrix: (Units=GPa)
#
#
# Indices 1 2 3 4 5 6 
#
# 1 77.6796 30.8025 21.4870 0.0000 -10.3152 0.0000
# 2 30.8025 67.8291 30.9193 0.0000 -3.6019 0.0000
# 3 21.4870 30.9193 82.3920 0.0000 -4.2097 0.0000
# 4 0.0000 0.0000 0.0000 19.1586 0.0000 -1.4630
# 5 -10.3152 -3.6019 -4.2097 0.0000 28.6695 0.0000
# 6 0.0000 0.0000 0.0000 -1.4630 0.0000 30.1023
#
#
#
# Elastic Compliance Matrix: (Units=1/GPa)
#
#
# Indices 1 2 3 4 5 6 
#
# 1 0.016558 -0.006520 -0.001621 0.000000 0.004900 0.000000
# 2 -0.006520 0.020398 -0.005988 0.000000 -0.000662 0.000000
# 3 -0.001621 -0.005988 0.014850 0.000000 0.000845 0.000000
# 4 0.000000 0.000000 0.000000 0.052390 0.000000 0.002546
# 5 0.004900 -0.000662 0.000845 0.000000 0.036684 0.000000
# 6 0.000000 0.000000 0.000000 0.002546 0.000000 0.033344
#
#
# Mechanical properties :
#
#
# Convention : Reuss Voigt Hill
#
# Bulk Modulus (GPa) = 42.46707 43.81314 43.14011
# Shear Modulus (GPa) = 23.77180 25.23220 24.50200
#
# Velocity S-wave (km/s) = 3.67955 3.79089 3.73563
# Velocity P-wave (km/s) = 6.49915 6.64188 6.57090
#
# Compressibility (1/GPa) = 0.02354765
#
# Stress axis : x y z
#
# Youngs Moduli (GPa) = 60.39393 49.02332 67.33882
#
# Poissons Ratio (x) = 0.31964 0.10915
# Poissons Ratio (y) = 0.39378 0.40325
# Poissons Ratio (z) = 0.09789 0.29357
#
# Static dielectric constant tensor:
#      x y z
#    x 3.316770 0.000000 -0.017340 
#    y 0.000000 3.022520 0.000000 
#    z -0.017340 0.000000 3.310840 
# 
# 
# High freq. dielectric constant tensor:
#      x y z
#    x 1.689780 0.000000 -0.005370 
#    y 0.000000 1.657840 0.000000 
#    z -0.005370 0.000000 1.679870 
# 
# From -- ./inp_files/57065.got.cif
#   From: 2010.03.12/outbox.cif.g09.slc.cpg/sg14_29_cif.got.tgz:57065.got - 2010.03.31 13:35:05.
