data_PCOD8124736
_publ_section_title
;
Structure prediction by ZEFSAII (Michael W. Deem and Ramdas Pophale) SiO2 
 PCOD8124736
Probable space group: P 21/C
;
_chemical_formula_sum "Si O2"
_cell_formula_units_Z 24
_cell_length_a 29.274882
_cell_length_b 5.067407
_cell_length_c 20.178828
_cell_angle_alpha 90.000000
_cell_angle_beta 23.568872
_cell_angle_gamma 90.000000
_cell_volume 1196.947777
_symmetry_space_group_name_H-M "P 21/C"
_symmetry_group_IT_number 14
_symmetry_cell_setting 'monoclinic'
loop_
_space_group_symop_operation_xyz
x,y,z
-x,1/2+y,1/2-z
-x,-y,-z
x,1/2-y,1/2+z
loop_
_atom_site_type_symbol
_atom_site_label
_atom_site_fract_x
_atom_site_fract_y
_atom_site_fract_z
Si Si1 0.451491 0.718107 0.716019
Si Si2 0.030653 0.847155 0.746494
Si Si3 0.187544 0.446808 0.398170
Si Si4 0.314051 0.062570 0.596021
Si Si5 0.745817 0.052444 0.609445
Si Si6 0.362062 0.549214 0.459369
O O1 0.556432 0.894330 0.547844
O O2 0.381730 0.594456 0.748073
O O3 0.506133 0.485161 0.689444
O O4 0.367614 0.894839 0.873597
O O5 0.165369 0.919062 0.571045
O O6 0.019067 0.536860 0.745850
O O7 0.951447 0.912543 0.915662
O O8 0.224375 0.404322 0.274078
O O9 0.224555 0.736170 0.373038
O O10 0.247359 0.236159 0.367520
O O11 0.289946 0.284538 0.571441
O O12 0.298912 0.780220 0.583017
#
# Coordination Sequence:
#
# PCOD8124736 Si02
#       6
#     4   4   4   4   4   4
#     4  10  21  34  53  71 101 129 175 200 238 289
#     4   8  16  33  49  69  97 130 165 193 239 294
#     4  10  20  34  50  76 105 129 156 203 256 296
#     4  10  20  33  51  72 101 136 158 198 250 298
#     4  10  21  31  54  76  98 131 165 205 241 292
#     4  10  20  35  50  71  94 139 168 198 237 289
#
# _framework density 20.051000999999999
#
# number of rings (size 3 to 8) (size 9 to 14) (size 15 to 20)
#    1.000    1.333    1.667    1.000    2.333    1.333 
#    0.000    0.000    0.000    2.000    0.000    0.000 
#    0.000    0.000    0.000    0.000    0.000    0.000 
#
# Total GULP energy -297341.568527 kJ/mol
# GULP energy per Si atom -12389.232022 kJ/mol
# Density = 2.000536 g / cm^3
# Si number density = 20.051001 Si / 1000 Ang^3
#
#
#
# Elastic Constant Matrix: (Units=GPa)
#
#
# Indices 1 2 3 4 5 6 
#
# 1 9.2616 3.0251 3.3930 0.0000 8.9105 0.0000
# 2 3.0251 90.5179 11.0432 0.0000 6.3173 0.0000
# 3 3.3930 11.0432 106.0637 0.0000 33.3482 0.0000
# 4 0.0000 0.0000 0.0000 26.6042 0.0000 5.2016
# 5 8.9105 6.3173 33.3482 0.0000 26.1908 0.0000
# 6 0.0000 0.0000 0.0000 5.2016 0.0000 16.7269
#
#
#
# Elastic Compliance Matrix: (Units=1/GPa)
#
#
# Indices 1 2 3 4 5 6 
#
# 1 0.191641 -0.002698 0.024089 0.000000 -0.095221 0.000000
# 2 -0.002698 0.011293 -0.000870 0.000000 -0.000698 0.000000
# 3 0.024089 -0.000870 0.018776 0.000000 -0.031893 0.000000
# 4 0.000000 0.000000 0.000000 0.040021 0.000000 -0.012445
# 5 -0.095221 -0.000698 -0.031893 0.000000 0.111353 0.000000
# 6 0.000000 0.000000 0.000000 -0.012445 0.000000 0.063654
#
#
# Mechanical properties :
#
#
# Convention : Reuss Voigt Hill
#
# Bulk Modulus (GPa) = 3.80587 26.75175 15.27881
# Shear Modulus (GPa) = 10.34598 26.46318 18.40458
#
# Velocity S-wave (km/s) = 2.27399 3.63684 3.03295
# Velocity P-wave (km/s) = 2.96596 5.56833 4.46112
#
# Compressibility (1/GPa) = 0.26275226
#
# Stress axis : x y z
#
# Youngs Moduli (GPa) = 5.21809 88.55379 53.26007
#
# Poissons Ratio (x) = 0.23893 -1.28300
# Poissons Ratio (y) = 0.01408 0.04633
# Poissons Ratio (z) = -0.12570 0.07704
#
# Static dielectric constant tensor:
#      x y z
#    x 2.896890 0.000000 0.021010 
#    y 0.000000 3.748720 0.000000 
#    z 0.021010 0.000000 3.761430 
# 
# 
# High freq. dielectric constant tensor:
#      x y z
#    x 1.708260 0.000000 0.012370 
#    y 0.000000 1.801240 0.000000 
#    z 0.012370 0.000000 1.785100 
# 
# From -- ./inp_files/62083.got.cif
#   From: 2010.03.12/outbox.cif.g09.slc.cpg/sg14_32_cif.got.tgz:62083.got - 2010.03.31 13:35:05.
