data_PCOD8124041
_publ_section_title
;
Structure prediction by ZEFSAII (Michael W. Deem and Ramdas Pophale) SiO2 
 PCOD8124041
Probable space group: P 21/C
;
_chemical_formula_sum "Si O2"
_cell_formula_units_Z 32
_cell_length_a 10.783870
_cell_length_b 7.733334
_cell_length_c 21.363206
_cell_angle_alpha 90.000000
_cell_angle_beta 103.914640
_cell_angle_gamma 90.000000
_cell_volume 1729.309654
_symmetry_space_group_name_H-M "P 21/C"
_symmetry_group_IT_number 14
_symmetry_cell_setting 'monoclinic'
loop_
_space_group_symop_operation_xyz
x,y,z
-x,1/2+y,1/2-z
-x,-y,-z
x,1/2-y,1/2+z
loop_
_atom_site_type_symbol
_atom_site_label
_atom_site_fract_x
_atom_site_fract_y
_atom_site_fract_z
Si Si1 0.807237 0.344989 0.696445
Si Si2 0.567857 0.343644 0.587629
Si Si3 0.288910 0.517927 0.750638
Si Si4 0.466652 0.004987 0.642713
Si Si5 0.595509 0.184188 0.948594
Si Si6 0.190141 0.511927 0.168067
Si Si7 0.076331 0.164561 0.163476
Si Si8 0.805673 0.138275 0.882702
O O1 0.696421 0.407043 0.636659
O O2 0.780796 0.145981 0.709617
O O3 0.809404 0.466583 0.757230
O O4 0.940339 0.361075 0.677436
O O5 0.496487 0.189236 0.614995
O O6 0.480391 0.511156 0.575591
O O7 0.601217 0.275969 0.522537
O O8 0.425392 0.456701 0.792796
O O9 0.189810 0.359007 0.729154
O O10 0.305460 0.612930 0.684765
O O11 0.332882 0.024171 0.661441
O O12 0.465449 0.851830 0.591867
O O13 0.740071 0.148832 0.942339
O O14 0.096544 0.354771 0.137477
O O15 0.128386 0.678277 0.125877
O O16 0.092440 0.018536 0.110587
#
# Coordination Sequence:
#
# PCOD8124041 Si02
#       8
#     4   4   4   4   4   4   4   4
#     4  10  20  35  49  77 110 137 178 210 259 316
#     4  10  22  35  54  77 105 143 173 221 259 309
#     4   8  19  32  50  79 104 134 166 217 264 316
#     4  10  20  35  54  81 105 130 177 220 270 313
#     4  10  20  37  55  76 106 137 179 216 267 308
#     4  10  20  30  55  78 102 141 164 214 275 312
#     4  10  19  34  51  75 109 142 165 214 262 316
#     4   8  19  34  49  77 104 132 174 215 257 313
#
# _framework density 18.504494999999999
#
# number of rings (size 3 to 8) (size 9 to 14) (size 15 to 20)
#    0.750    1.750    0.000    1.875    3.500    2.000 
#    0.000    0.625    0.000    3.000    0.000    0.000 
#    0.000    0.000    0.000    0.000    0.000    0.000 
#
# Total GULP energy -396594.042074 kJ/mol
# GULP energy per Si atom -12393.563815 kJ/mol
# Density = 1.846238 g / cm^3
# Si number density = 18.504495 Si / 1000 Ang^3
#
#
#
# Elastic Constant Matrix: (Units=GPa)
#
#
# Indices 1 2 3 4 5 6 
#
# 1 81.3369 37.8753 13.3612 0.0000 -24.5918 0.0000
# 2 37.8753 108.8602 16.8519 0.0000 -11.3745 0.0000
# 3 13.3612 16.8519 22.3402 0.0000 -13.7731 0.0000
# 4 0.0000 0.0000 0.0000 16.4001 0.0000 -4.2209
# 5 -24.5918 -11.3745 -13.7731 0.0000 18.0778 0.0000
# 6 0.0000 0.0000 0.0000 -4.2209 0.0000 21.3135
#
#
#
# Elastic Compliance Matrix: (Units=1/GPa)
#
#
# Indices 1 2 3 4 5 6 
#
# 1 0.026079 -0.007091 0.016732 0.000000 0.043763 0.000000
# 2 -0.007091 0.012340 -0.011744 0.000000 -0.010830 0.000000
# 3 0.016732 -0.011744 0.100117 0.000000 0.091648 0.000000
# 4 0.000000 0.000000 0.000000 0.064250 0.000000 0.012724
# 5 0.043763 -0.010830 0.091648 0.000000 0.177859 0.000000
# 6 0.000000 0.000000 0.000000 0.012724 0.000000 0.049438
#
#
# Mechanical properties :
#
#
# Convention : Reuss Voigt Hill
#
# Bulk Modulus (GPa) = 7.44438 38.74601 23.09519
# Shear Modulus (GPa) = 10.43697 20.78819 15.61258
#
# Velocity S-wave (km/s) = 2.37749 3.35537 2.90783
# Velocity P-wave (km/s) = 3.40123 5.99963 4.87667
#
# Compressibility (1/GPa) = 0.13432960
#
# Stress axis : x y z
#
# Youngs Moduli (GPa) = 38.34434 81.03903 9.98836
#
# Poissons Ratio (x) = 0.57467 -0.16712
# Poissons Ratio (y) = 0.27191 0.11730
# Poissons Ratio (z) = -0.64157 0.95170
#
# Static dielectric constant tensor:
#      x y z
#    x 3.183500 0.000000 -0.157590 
#    y 0.000000 3.527180 0.000000 
#    z -0.157590 0.000000 3.262690 
# 
# 
# High freq. dielectric constant tensor:
#      x y z
#    x 1.707520 0.000000 -0.022150 
#    y 0.000000 1.731720 0.000000 
#    z -0.022150 0.000000 1.692510 
# 
# From -- ./inp_files/64860.got.cif
#   From: 2010.03.12/outbox.cif.g09.slc.cpg/sg14_33_cif.got.tgz:64860.got - 2010.03.31 13:35:05.
