data_PCOD8124602
_publ_section_title
;
Structure prediction by ZEFSAII (Michael W. Deem and Ramdas Pophale) SiO2 
 PCOD8124602
Probable space group: P 21/C
;
_chemical_formula_sum "Si O2"
_cell_formula_units_Z 20
_cell_length_a 7.868932
_cell_length_b 12.822495
_cell_length_c 12.975752
_cell_angle_alpha 90.000000
_cell_angle_beta 31.984703
_cell_angle_gamma 90.000000
_cell_volume 693.497600
_symmetry_space_group_name_H-M "P 21/C"
_symmetry_group_IT_number 14
_symmetry_cell_setting 'monoclinic'
loop_
_space_group_symop_operation_xyz
x,y,z
-x,1/2+y,1/2-z
-x,-y,-z
x,1/2-y,1/2+z
loop_
_atom_site_type_symbol
_atom_site_label
_atom_site_fract_x
_atom_site_fract_y
_atom_site_fract_z
Si Si1 0.705904 0.422279 0.665757
Si Si2 0.594730 0.389653 0.084794
Si Si3 0.570424 0.386730 0.503938
Si Si4 0.903491 0.763260 0.553065
Si Si5 0.264012 0.308857 0.078893
O O1 0.449802 0.488519 0.865492
O O2 0.535223 0.386831 0.646042
O O3 0.842916 0.311535 0.639362
O O4 0.000000 0.500000 0.500000
O O5 0.929178 0.348491 0.958562
O O6 0.559000 0.374986 0.978949
O O7 0.311573 0.313299 0.268934
O O8 0.500000 0.500000 0.500000
O O9 0.306917 0.312431 0.587071
O O10 0.925749 0.352171 0.291006
O O11 0.710752 0.822655 0.559733
#
# Coordination Sequence:
#
# PCOD8124602 Si02
#       5
#     4   4   4   4   4
#     4  10  19  39  64  92 127 171 218 277 336 400
#     4  11  22  42  66  95 129 172 225 281 336 405
#     4  12  24  44  73 103 137 187 234 282 354 412
#     4  11  22  39  64  94 130 170 220 277 340 403
#     4  12  23  41  71 102 136 181 233 285 344 415
#
# _framework density 28.839319
#
# number of rings (size 3 to 8) (size 9 to 14) (size 15 to 20)
#    0.000    0.800    6.000    4.800    0.000    0.000 
#    0.000    2.000    8.800    0.000    0.000    0.000 
#    0.000    0.000    0.000    0.000    0.000    0.000 
#
# Total GULP energy -247952.362639 kJ/mol
# GULP energy per Si atom -12397.618132 kJ/mol
# Density = 2.877368 g / cm^3
# Si number density = 28.839319 Si / 1000 Ang^3
#
#
#
# Elastic Constant Matrix: (Units=GPa)
#
#
# Indices 1 2 3 4 5 6 
#
# 1 217.9593 43.3187 42.6447 0.0000 7.6186 0.0000
# 2 43.3187 159.0328 6.3015 0.0000 -18.5049 0.0000
# 3 42.6447 6.3015 74.8743 0.0000 -4.2976 0.0000
# 4 0.0000 0.0000 0.0000 55.8418 0.0000 -10.8813
# 5 7.6186 -18.5049 -4.2976 0.0000 61.1948 0.0000
# 6 0.0000 0.0000 0.0000 -10.8813 0.0000 62.5625
#
#
#
# Elastic Compliance Matrix: (Units=1/GPa)
#
#
# Indices 1 2 3 4 5 6 
#
# 1 0.005553 -0.001550 -0.003111 0.000000 -0.001378 0.000000
# 2 -0.001550 0.006964 0.000430 0.000000 0.002329 0.000000
# 3 -0.003111 0.000430 0.015183 0.000000 0.001584 0.000000
# 4 0.000000 0.000000 0.000000 0.018536 0.000000 0.003224
# 5 -0.001378 0.002329 0.001584 0.000000 0.017328 0.000000
# 6 0.000000 0.000000 0.000000 0.003224 0.000000 0.016545
#
#
# Mechanical properties :
#
#
# Convention : Reuss Voigt Hill
#
# Bulk Modulus (GPa) = 51.98098 70.71070 61.34584
# Shear Modulus (GPa) = 52.64105 59.89324 56.26714
#
# Velocity S-wave (km/s) = 4.27701 4.56213 4.42187
# Velocity P-wave (km/s) = 6.51567 7.23345 6.88392
#
# Compressibility (1/GPa) = 0.01923781
#
# Stress axis : x y z
#
# Youngs Moduli (GPa) = 180.08477 143.59402 65.86530
#
# Poissons Ratio (x) = 0.22252 0.20493
# Poissons Ratio (y) = 0.27907 -0.02833
# Poissons Ratio (z) = 0.56031 -0.06177
#
# Static dielectric constant tensor:
#      x y z
#    x 6.573420 0.000000 -0.107360 
#    y 0.000000 6.469860 0.000000 
#    z -0.107360 0.000000 5.561660 
# 
# 
# High freq. dielectric constant tensor:
#      x y z
#    x 2.189150 0.000000 -0.012020 
#    y 0.000000 2.203270 0.000000 
#    z -0.012020 0.000000 2.185760 
# 
# From -- ./inp_files/40552.got.cif
#   From: 2010.03.12/outbox.cif.g09.slc.cpg/sg14_21_cif.got.tgz:40552.got - 2010.03.31 13:35:05.
