data_PCOD8124659
_publ_section_title
;
Structure prediction by ZEFSAII (Michael W. Deem and Ramdas Pophale) SiO2 
 PCOD8124659
Probable space group: P 21/C
;
_chemical_formula_sum "Si O2"
_cell_formula_units_Z 24
_cell_length_a 8.963579
_cell_length_b 14.311135
_cell_length_c 16.709336
_cell_angle_alpha 90.000000
_cell_angle_beta 30.748048
_cell_angle_gamma 90.000000
_cell_volume 1095.871848
_symmetry_space_group_name_H-M "P 21/C"
_symmetry_group_IT_number 14
_symmetry_cell_setting 'monoclinic'
loop_
_space_group_symop_operation_xyz
x,y,z
-x,1/2+y,1/2-z
-x,-y,-z
x,1/2-y,1/2+z
loop_
_atom_site_type_symbol
_atom_site_label
_atom_site_fract_x
_atom_site_fract_y
_atom_site_fract_z
Si Si1 0.365799 0.189538 0.554347
Si Si2 0.468934 0.921309 0.897772
Si Si3 0.531315 0.727871 0.819730
Si Si4 0.050933 0.646933 0.294119
Si Si5 0.114197 0.543916 0.711246
Si Si6 0.958992 0.154915 0.014692
O O1 0.489508 0.171258 0.586939
O O2 0.629483 0.188741 0.369953
O O3 0.201821 0.287727 0.623504
O O4 0.138685 0.107717 0.635848
O O5 0.662223 0.830596 0.783828
O O6 0.214093 0.932563 0.947516
O O7 0.672205 0.012569 0.813748
O O8 0.305003 0.899362 0.058062
O O9 0.216930 0.748041 0.923650
O O10 0.723251 0.668589 0.669910
O O11 0.009739 0.635016 0.407190
O O12 0.023872 0.546981 0.265653
#
# Coordination Sequence:
#
# PCOD8124659 Si02
#       6
#     4   4   4   4   4   4
#     4  12  23  42  66  97 121 177 214 268 307 390
#     4   9  21  39  62  91 126 169 206 262 322 371
#     4  10  19  41  62  89 123 168 212 248 320 380
#     4  12  25  40  66  98 131 161 221 267 320 379
#     4  11  22  42  66  95 129 169 223 261 313 388
#     4  10  21  40  63  93 128 167 207 265 327 369
#
# _framework density 21.900371
#
# number of rings (size 3 to 8) (size 9 to 14) (size 15 to 20)
#    1.000    0.333    3.333    3.500    2.333    0.667 
#    0.000    0.833    0.000    0.000    0.000    0.000 
#    0.000    0.000    0.000    0.000    0.000    0.000 
#
# Total GULP energy -297426.703677 kJ/mol
# GULP energy per Si atom -12392.779320 kJ/mol
# Density = 2.185052 g / cm^3
# Si number density = 21.900371 Si / 1000 Ang^3
#
#
#
# Elastic Constant Matrix: (Units=GPa)
#
#
# Indices 1 2 3 4 5 6 
#
# 1 66.8189 4.4410 8.3090 0.0000 8.9960 0.0000
# 2 4.4410 39.0013 1.9796 0.0000 4.3426 0.0000
# 3 8.3090 1.9796 86.4992 0.0000 8.9774 0.0000
# 4 0.0000 0.0000 0.0000 26.4327 0.0000 -11.4506
# 5 8.9960 4.3426 8.9774 0.0000 31.2306 0.0000
# 6 0.0000 0.0000 0.0000 -11.4506 0.0000 11.9912
#
#
#
# Elastic Compliance Matrix: (Units=1/GPa)
#
#
# Indices 1 2 3 4 5 6 
#
# 1 0.015728 -0.001286 -0.001061 0.000000 -0.004047 0.000000
# 2 -0.001286 0.026153 -0.000140 0.000000 -0.003226 0.000000
# 3 -0.001061 -0.000140 0.011990 0.000000 -0.003121 0.000000
# 4 0.000000 0.000000 0.000000 0.064523 0.000000 0.061614
# 5 -0.004047 -0.003226 -0.003121 0.000000 0.034531 0.000000
# 6 0.000000 0.000000 0.000000 0.061614 0.000000 0.142231
#
#
# Mechanical properties :
#
#
# Convention : Reuss Voigt Hill
#
# Bulk Modulus (GPa) = 20.45206 24.64206 22.54706
# Shear Modulus (GPa) = 15.80125 25.77021 20.78573
#
# Velocity S-wave (km/s) = 2.68900 3.43403 3.08410
# Velocity P-wave (km/s) = 4.35889 5.19613 4.79581
#
# Compressibility (1/GPa) = 0.04889482
#
# Stress axis : x y z
#
# Youngs Moduli (GPa) = 63.58044 38.23664 83.40337
#
# Poissons Ratio (x) = 0.04919 0.08852
# Poissons Ratio (y) = 0.08180 0.01169
# Poissons Ratio (z) = 0.06748 0.00536
#
# Static dielectric constant tensor:
#      x y z
#    x 3.917490 0.000000 -0.125230 
#    y 0.000000 3.705230 0.000000 
#    z -0.125230 0.000000 3.755900 
# 
# 
# High freq. dielectric constant tensor:
#      x y z
#    x 1.864530 0.000000 -0.007750 
#    y 0.000000 1.844970 0.000000 
#    z -0.007750 0.000000 1.845040 
# 
# From -- ./inp_files/41063.got.cif
#   From: 2010.03.12/outbox.cif.g09.slc.cpg/sg14_21_cif.got.tgz:41063.got - 2010.03.31 13:35:05.
