data_PCOD8124124
_publ_section_title
;
Structure prediction by ZEFSAII (Michael W. Deem and Ramdas Pophale) SiO2 
 PCOD8124124
Probable space group: P 21/C
;
_chemical_formula_sum "Si O2"
_cell_formula_units_Z 24
_cell_length_a 18.480617
_cell_length_b 13.222123
_cell_length_c 9.904771
_cell_angle_alpha 90.000000
_cell_angle_beta 30.308129
_cell_angle_gamma 90.000000
_cell_volume 1221.384700
_symmetry_space_group_name_H-M "P 21/C"
_symmetry_group_IT_number 14
_symmetry_cell_setting 'monoclinic'
loop_
_space_group_symop_operation_xyz
x,y,z
-x,1/2+y,1/2-z
-x,-y,-z
x,1/2-y,1/2+z
loop_
_atom_site_type_symbol
_atom_site_label
_atom_site_fract_x
_atom_site_fract_y
_atom_site_fract_z
Si Si1 0.540204 0.758372 0.425335
Si Si2 0.161747 0.537068 0.741884
Si Si3 0.343375 0.460102 0.223645
Si Si4 0.342950 0.770051 0.987521
Si Si5 0.346508 0.962586 0.431749
Si Si6 0.338832 0.055927 0.175372
O O1 0.654448 0.847530 0.215603
O O2 0.447270 0.719856 0.448594
O O3 0.641389 0.671204 0.316747
O O4 0.431855 0.801461 0.712681
O O5 0.222911 0.524841 0.492983
O O6 0.205628 0.652680 0.720248
O O7 0.226060 0.454373 0.738705
O O8 0.000000 0.500000 0.000000
O O9 0.307080 0.466355 0.122214
O O10 0.500000 0.500000 0.000000
O O11 0.299437 0.652143 0.043072
O O12 0.271752 0.995293 0.412212
O O13 0.512616 0.983977 0.127530
#
# Coordination Sequence:
#
# PCOD8124124 Si02
#       6
#     4   4   4   4   4   4
#     4  11  20  32  65  92 116 146 202 255 297 349
#     4  12  25  40  56  82 125 163 197 244 307 365
#     4  12  19  38  61  92 114 152 202 247 292 352
#     4  11  19  34  57  90 112 154 197 244 305 348
#     4  10  19  34  65  91 117 144 204 259 287 349
#     4  10  20  36  56  93 121 147 190 257 305 338
#
# _framework density 19.649826999999998
#
# number of rings (size 3 to 8) (size 9 to 14) (size 15 to 20)
#    0.000    1.000    5.000    5.000    0.000    0.000 
#    0.000    5.833    0.000    0.000    0.000    0.000 
#    0.000    0.000    0.000    0.000    0.000    0.000 
#
# Total GULP energy -297315.215048 kJ/mol
# GULP energy per Si atom -12388.133960 kJ/mol
# Density = 1.960510 g / cm^3
# Si number density = 19.649827 Si / 1000 Ang^3
#
#
#
# Elastic Constant Matrix: (Units=GPa)
#
#
# Indices 1 2 3 4 5 6 
#
# 1 96.7294 38.2016 49.0428 0.0000 21.6196 0.0000
# 2 38.2016 114.9306 33.4174 0.0000 -8.5493 0.0000
# 3 49.0428 33.4174 84.5513 0.0000 9.6362 0.0000
# 4 0.0000 0.0000 0.0000 25.8060 0.0000 5.7163
# 5 21.6196 -8.5493 9.6362 0.0000 27.4477 0.0000
# 6 0.0000 0.0000 0.0000 5.7163 0.0000 32.1276
#
#
#
# Elastic Compliance Matrix: (Units=1/GPa)
#
#
# Indices 1 2 3 4 5 6 
#
# 1 0.019493 -0.005352 -0.007554 0.000000 -0.014369 0.000000
# 2 -0.005352 0.011894 -0.002603 0.000000 0.008834 0.000000
# 3 -0.007554 -0.002603 0.017346 0.000000 -0.000951 0.000000
# 4 0.000000 0.000000 0.000000 0.040341 0.000000 -0.007178
# 5 -0.014369 0.008834 -0.000951 0.000000 0.050836 0.000000
# 6 0.000000 0.000000 0.000000 -0.007178 0.000000 0.032403
#
#
# Mechanical properties :
#
#
# Convention : Reuss Voigt Hill
#
# Bulk Modulus (GPa) = 56.45000 59.72611 58.08805
# Shear Modulus (GPa) = 23.89643 28.77956 26.33799
#
# Velocity S-wave (km/s) = 3.49107 3.83119 3.66508
# Velocity P-wave (km/s) = 6.71121 7.07332 6.89465
#
# Compressibility (1/GPa) = 0.01771479
#
# Stress axis : x y z
#
# Youngs Moduli (GPa) = 51.29984 84.07674 57.65011
#
# Poissons Ratio (x) = 0.44996 0.43549
# Poissons Ratio (y) = 0.27455 0.15009
# Poissons Ratio (z) = 0.38752 0.21889
#
# Static dielectric constant tensor:
#      x y z
#    x 4.222270 0.000000 0.607090 
#    y 0.000000 4.606330 0.000000 
#    z 0.607090 0.000000 3.545910 
# 
# 
# High freq. dielectric constant tensor:
#      x y z
#    x 1.764200 0.000000 0.046890 
#    y 0.000000 1.782600 0.000000 
#    z 0.046890 0.000000 1.718350 
# 
# From -- ./inp_files/17960.got.cif
#   From: 2010.03.12/outbox.cif.g09.slc.cpg/sg14_9_cif.got.tgz:17960.got - 2010.03.31 13:35:05.
