data_PCOD8124882
_publ_section_title
;
Structure prediction by ZEFSAII (Michael W. Deem and Ramdas Pophale) SiO2 
 PCOD8124882
Probable space group: P 21/C
;
_chemical_formula_sum "Si O2"
_cell_formula_units_Z 32
_cell_length_a 12.882812
_cell_length_b 15.968646
_cell_length_c 8.213195
_cell_angle_alpha 90.000000
_cell_angle_beta 67.734090
_cell_angle_gamma 90.000000
_cell_volume 1563.640712
_symmetry_space_group_name_H-M "P 21/C"
_symmetry_group_IT_number 14
_symmetry_cell_setting 'monoclinic'
loop_
_space_group_symop_operation_xyz
x,y,z
-x,1/2+y,1/2-z
-x,-y,-z
x,1/2-y,1/2+z
loop_
_atom_site_type_symbol
_atom_site_label
_atom_site_fract_x
_atom_site_fract_y
_atom_site_fract_z
Si Si1 0.678529 0.226792 0.678373
Si Si2 0.847291 0.869581 0.060269
Si Si3 0.854175 0.558175 0.012004
Si Si4 0.162199 0.816192 0.146474
Si Si5 0.924773 0.779318 0.338016
Si Si6 0.573160 0.130915 0.444520
Si Si7 0.931775 0.005239 0.792924
Si Si8 0.336665 0.449101 0.126189
O O1 0.784921 0.273848 0.541494
O O2 0.735995 0.172337 0.786072
O O3 0.616999 0.163374 0.593193
O O4 0.591884 0.296065 0.800343
O O5 0.901649 0.822917 0.179858
O O6 0.727261 0.908170 0.181066
O O7 0.845868 0.801912 0.913691
O O8 0.925658 0.945674 0.953977
O O9 0.895851 0.654109 0.997200
O O10 0.733570 0.552588 0.998807
O O11 0.941369 0.504418 0.849989
O O12 0.847513 0.524687 0.199285
O O13 0.057811 0.758031 0.270393
O O14 0.109467 0.904283 0.127185
O O15 0.442681 0.110404 0.535070
O O16 0.634953 0.045662 0.351585
#
# Coordination Sequence:
#
# PCOD8124882 Si02
#       8
#     4   4   4   4   4   4   4   4
#     4  10  21  37  61  83 109 146 190 243 292 332
#     4  11  22  36  57  83 118 155 189 231 286 351
#     4   9  20  36  56  82 118 154 185 230 282 341
#     4  10  20  35  57  84 112 142 183 237 288 340
#     4  10  21  34  52  84 117 150 187 226 283 355
#     4  10  22  40  59  84 110 147 201 247 289 334
#     4  10  20  35  57  87 116 148 188 226 283 353
#     4  10  22  39  59  82 116 154 193 241 287 339
#
# _framework density 20.465060000000001
#
# number of rings (size 3 to 8) (size 9 to 14) (size 15 to 20)
#    0.000    2.000    0.000    3.000    0.000   11.500 
#    0.000    2.500    0.000    9.000    0.000    0.000 
#    0.000    0.000    0.000    0.000    0.000    0.000 
#
# Total GULP energy -396672.663664 kJ/mol
# GULP energy per Si atom -12396.020739 kJ/mol
# Density = 2.041848 g / cm^3
# Si number density = 20.465060 Si / 1000 Ang^3
#
#
#
# Elastic Constant Matrix: (Units=GPa)
#
#
# Indices 1 2 3 4 5 6 
#
# 1 100.5873 42.8928 37.9535 0.0000 -15.2418 0.0000
# 2 42.8928 117.9970 55.7159 0.0000 -13.6838 0.0000
# 3 37.9535 55.7159 71.8382 0.0000 -12.2104 0.0000
# 4 0.0000 0.0000 0.0000 39.1959 0.0000 -3.4088
# 5 -15.2418 -13.6838 -12.2104 0.0000 25.6537 0.0000
# 6 0.0000 0.0000 0.0000 -3.4088 0.0000 25.8393
#
#
#
# Elastic Compliance Matrix: (Units=1/GPa)
#
#
# Indices 1 2 3 4 5 6 
#
# 1 0.013271 -0.002131 -0.004583 0.000000 0.004567 0.000000
# 2 -0.002131 0.013850 -0.009330 0.000000 0.001681 0.000000
# 3 -0.004583 -0.009330 0.024229 0.000000 0.003833 0.000000
# 4 0.000000 0.000000 0.000000 0.025809 0.000000 0.003405
# 5 0.004567 0.001681 0.003833 0.000000 0.044415 0.000000
# 6 0.000000 0.000000 0.000000 0.003405 0.000000 0.039150
#
#
# Mechanical properties :
#
#
# Convention : Reuss Voigt Hill
#
# Bulk Modulus (GPa) = 51.91299 62.61632 57.26465
# Shear Modulus (GPa) = 25.09633 28.39514 26.74574
#
# Velocity S-wave (km/s) = 3.50566 3.72895 3.61903
# Velocity P-wave (km/s) = 6.46590 7.01450 6.74578
#
# Compressibility (1/GPa) = 0.01926300
#
# Stress axis : x y z
#
# Youngs Moduli (GPa) = 75.34987 72.20346 41.27292
#
# Poissons Ratio (x) = 0.15385 0.18914
# Poissons Ratio (y) = 0.16055 0.38508
# Poissons Ratio (z) = 0.34530 0.67367
#
# Static dielectric constant tensor:
#      x y z
#    x 3.507840 0.000000 -0.044160 
#    y 0.000000 3.963750 0.000000 
#    z -0.044160 0.000000 3.763100 
# 
# 
# High freq. dielectric constant tensor:
#      x y z
#    x 1.784220 0.000000 0.003210 
#    y 0.000000 1.809930 0.000000 
#    z 0.003210 0.000000 1.799240 
# 
# From -- ./inp_files/13284.got.cif
#   From: 2010.03.12/outbox.cif.g09.slc.cpg/sg14_7_cif.got.tgz:13284.got - 2010.03.31 13:35:05.
