data_PCOD8124622
_publ_section_title
;
Structure prediction by ZEFSAII (Michael W. Deem and Ramdas Pophale) SiO2 
 PCOD8124622
Probable space group: P 21/C
;
_chemical_formula_sum "Si O2"
_cell_formula_units_Z 24
_cell_length_a 11.246833
_cell_length_b 14.255446
_cell_length_c 14.662219
_cell_angle_alpha 90.000000
_cell_angle_beta 29.415875
_cell_angle_gamma 90.000000
_cell_volume 1154.570864
_symmetry_space_group_name_H-M "P 21/C"
_symmetry_group_IT_number 14
_symmetry_cell_setting 'monoclinic'
loop_
_space_group_symop_operation_xyz
x,y,z
-x,1/2+y,1/2-z
-x,-y,-z
x,1/2-y,1/2+z
loop_
_atom_site_type_symbol
_atom_site_label
_atom_site_fract_x
_atom_site_fract_y
_atom_site_fract_z
Si Si1 0.758523 0.474136 0.107840
Si Si2 0.645498 0.080374 0.216735
Si Si3 0.547719 0.297079 0.951265
Si Si4 0.912142 0.414136 0.813171
Si Si5 0.536576 0.593310 0.535310
Si Si6 0.150168 0.072616 0.786164
O O1 0.585778 0.561795 0.194482
O O2 0.609251 0.407635 0.273721
O O3 0.833811 0.415574 0.969807
O O4 0.000000 0.500000 0.000000
O O5 0.578533 0.167665 0.326299
O O6 0.702435 0.986319 0.236563
O O7 0.883930 0.103379 0.997509
O O8 0.779690 0.329353 0.852412
O O9 0.549943 0.185147 0.960647
O O10 0.301250 0.334661 0.161983
O O11 0.856826 0.513181 0.802238
O O12 0.191009 0.391885 0.616971
O O13 0.500000 0.500000 0.500000
#
# Coordination Sequence:
#
# PCOD8124622 Si02
#       6
#     4   4   4   4   4   4
#     4  12  23  42  69  96 139 180 221 277 354 401
#     4  10  20  39  70 105 128 171 227 289 333 402
#     4  11  24  43  71 103 132 181 240 276 334 410
#     4  11  22  44  71  98 136 178 225 290 339 408
#     4  12  28  46  61  99 146 187 219 276 349 412
#     4  10  19  39  74  99 132 168 228 287 340 389
#
# _framework density 20.786944999999999
#
# number of rings (size 3 to 8) (size 9 to 14) (size 15 to 20)
#    0.000    1.000    6.667    1.000    0.000    4.000 
#    3.000    0.000    0.000    0.000    0.000    0.000 
#    0.000    0.000    0.000    0.000    0.000    0.000 
#
# Total GULP energy -297638.861803 kJ/mol
# GULP energy per Si atom -12401.619242 kJ/mol
# Density = 2.073963 g / cm^3
# Si number density = 20.786945 Si / 1000 Ang^3
#
#
#
# Elastic Constant Matrix: (Units=GPa)
#
#
# Indices 1 2 3 4 5 6 
#
# 1 133.1389 54.2852 69.8264 0.0000 -15.2774 0.0000
# 2 54.2852 140.7238 58.9916 0.0000 -2.2876 0.0000
# 3 69.8264 58.9916 171.8878 0.0000 -5.8971 0.0000
# 4 0.0000 0.0000 0.0000 16.5508 0.0000 10.8625
# 5 -15.2774 -2.2876 -5.8971 0.0000 44.4244 0.0000
# 6 0.0000 0.0000 0.0000 10.8625 0.0000 6.1993
#
#
#
# Elastic Compliance Matrix: (Units=1/GPa)
#
#
# Indices 1 2 3 4 5 6 
#
# 1 0.010703 -0.002687 -0.003319 0.000000 0.003102 0.000000
# 2 -0.002687 0.008975 -0.002014 0.000000 -0.000729 0.000000
# 3 -0.003319 -0.002014 0.007850 0.000000 -0.000203 0.000000
# 4 0.000000 0.000000 0.000000 -0.402784 0.000000 0.705766
# 5 0.003102 -0.000729 -0.000203 0.000000 0.023512 0.000000
# 6 0.000000 0.000000 0.000000 0.705766 0.000000 -1.075349
#
#
# Mechanical properties :
#
#
# Convention : Reuss Voigt Hill
#
# Bulk Modulus (GPa) = 87.04401 90.21743 88.63072
# Shear Modulus (GPa) = -3.55310 30.94472 13.69581
#
# Velocity S-wave (km/s) = -1.30882 3.86250 2.56962
# Velocity P-wave (km/s) = 6.29931 7.96160 7.17873
#
# Compressibility (1/GPa) = 0.01148844
#
# Stress axis : x y z
#
# Youngs Moduli (GPa) = 93.42830 111.42184 127.38286
#
# Poissons Ratio (x) = 0.29938 0.42285
# Poissons Ratio (y) = 0.25104 0.25651
# Poissons Ratio (z) = 0.31013 0.22437
#
# Static dielectric constant tensor:
#      x y z
#    x 3.685430 0.000000 -0.163870 
#    y 0.000000 3.368280 0.000000 
#    z -0.163870 0.000000 4.053230 
# 
# 
# High freq. dielectric constant tensor:
#      x y z
#    x 1.821220 0.000000 -0.002900 
#    y 0.000000 1.778020 0.000000 
#    z -0.002900 0.000000 1.843510 
# 
# From -- ./inp_files/44876.got.cif
#   From: 2010.03.12/outbox.cif.g09.slc.cpg/sg14_23_cif.got.tgz:44876.got - 2010.03.31 13:35:05.
