data_PCOD8124727
_publ_section_title
;
Structure prediction by ZEFSAII (Michael W. Deem and Ramdas Pophale) SiO2 
 PCOD8124727
Probable space group: P 21/C
;
_chemical_formula_sum "Si O2"
_cell_formula_units_Z 32
_cell_length_a 16.339793
_cell_length_b 21.721895
_cell_length_c 15.612475
_cell_angle_alpha 90.000000
_cell_angle_beta 17.159308
_cell_angle_gamma 90.000000
_cell_volume 1634.863511
_symmetry_space_group_name_H-M "P 21/C"
_symmetry_group_IT_number 14
_symmetry_cell_setting 'monoclinic'
loop_
_space_group_symop_operation_xyz
x,y,z
-x,1/2+y,1/2-z
-x,-y,-z
x,1/2-y,1/2+z
loop_
_atom_site_type_symbol
_atom_site_label
_atom_site_fract_x
_atom_site_fract_y
_atom_site_fract_z
Si Si1 0.133651 0.193900 0.054396
Si Si2 0.611122 0.632696 0.551189
Si Si3 0.607890 0.238117 0.294953
Si Si4 0.866349 0.693901 0.821698
Si Si5 0.886941 0.065654 0.710367
Si Si6 0.392111 0.738117 0.010731
Si Si7 0.113050 0.934348 0.484260
Si Si8 0.611132 0.867303 0.726558
O O1 0.236422 0.135321 0.007528
O O2 0.208544 0.250000 0.041456
O O3 0.321023 0.200322 0.781773
O O4 0.816203 0.198895 0.342070
O O5 0.443456 0.693064 0.687598
O O6 0.864916 0.615920 0.234526
O O7 0.371807 0.580958 0.787987
O O8 0.321023 0.200322 0.576181
O O9 0.716447 0.240290 0.283553
O O10 0.816203 0.198895 0.025524
O O11 0.763580 0.635321 0.980370
O O12 0.775244 0.062583 0.724755
O O13 0.135065 0.115924 0.464377
O O14 0.000004 0.000002 0.628773
O O15 0.628175 0.080957 0.031615
O O16 0.443458 0.806936 0.925487
#
# Coordination Sequence:
#
# PCOD8124727 Si02
#       8
#     4   4   4   4   4   4   4   4
#     4  10  20  33  48  72 102 134 170 210 251 305
#     4  11  21  35  53  74 107 147 177 210 265 310
#     4  11  20  32  51  75 103 135 172 207 250 311
#     4  10  20  33  48  72 102 134 170 210 251 305
#     4  11  22  35  52  77 108 142 184 224 252 294
#     4  11  20  32  51  75 103 135 172 207 250 311
#     4  11  22  35  52  77 108 142 184 224 252 294
#     4  11  21  35  53  74 107 147 177 210 265 310
#
# _framework density 19.573499999999999
#
# number of rings (size 3 to 8) (size 9 to 14) (size 15 to 20)
#    0.000    1.250    0.000   10.500    0.000    2.000 
#    0.000    0.000    0.000    0.000    0.000    0.000 
#    0.000   70.000    0.000    0.000    0.000    0.000 
#
# Total GULP energy -396427.520852 kJ/mol
# GULP energy per Si atom -12388.360027 kJ/mol
# Density = 1.952895 g / cm^3
# Si number density = 19.573500 Si / 1000 Ang^3
#
#
#
# Elastic Constant Matrix: (Units=GPa)
#
#
# Indices 1 2 3 4 5 6 
#
# 1 78.5837 22.1859 23.5568 0.0000 -3.6042 0.0000
# 2 22.1859 37.6896 21.3807 0.0000 0.2289 0.0000
# 3 23.5568 21.3807 112.8893 0.0000 -6.0613 0.0000
# 4 0.0000 0.0000 0.0000 30.6761 0.0000 -2.2838
# 5 -3.6042 0.2289 -6.0613 0.0000 34.6018 0.0000
# 6 0.0000 0.0000 0.0000 -2.2838 0.0000 22.5698
#
#
#
# Elastic Compliance Matrix: (Units=1/GPa)
#
#
# Indices 1 2 3 4 5 6 
#
# 1 0.015612 -0.008283 -0.001614 0.000000 0.001398 0.000000
# 2 -0.008283 0.034170 -0.004847 0.000000 -0.001938 0.000000
# 3 -0.001614 -0.004847 0.010202 0.000000 0.001651 0.000000
# 4 0.000000 0.000000 0.000000 0.032846 0.000000 0.003324
# 5 0.001398 -0.001938 0.001651 0.000000 0.029348 0.000000
# 6 0.000000 0.000000 0.000000 0.003324 0.000000 0.044643
#
#
# Mechanical properties :
#
#
# Convention : Reuss Voigt Hill
#
# Bulk Modulus (GPa) = 32.79201 40.37883 36.58542
# Shear Modulus (GPa) = 24.21624 28.37215 26.29419
#
# Velocity S-wave (km/s) = 3.52119 3.81138 3.66916
# Velocity P-wave (km/s) = 5.77247 6.32795 6.05658
#
# Compressibility (1/GPa) = 0.03049523
#
# Stress axis : x y z
#
# Youngs Moduli (GPa) = 64.05501 29.26575 98.02269
#
# Poissons Ratio (x) = 0.24240 0.15820
# Poissons Ratio (y) = 0.53055 0.47514
# Poissons Ratio (z) = 0.10338 0.14186
#
# Static dielectric constant tensor:
#      x y z
#    x 3.632560 0.000000 -0.026570 
#    y 0.000000 3.455380 0.000000 
#    z -0.026570 0.000000 3.726800 
# 
# 
# High freq. dielectric constant tensor:
#      x y z
#    x 1.743840 0.000000 -0.012980 
#    y 0.000000 1.713340 0.000000 
#    z -0.012980 0.000000 1.789890 
# 
# From -- ./inp_files/47694.got.cif
#   From: 2010.03.12/outbox.cif.g09.slc.cpg/sg14_24_cif.got.tgz:47694.got - 2010.03.31 13:35:05.
