data_PCOD8124381
_publ_section_title
;
Structure prediction by ZEFSAII (Michael W. Deem and Ramdas Pophale) SiO2 
 PCOD8124381
Probable space group: P 21/C
;
_chemical_formula_sum "Si O2"
_cell_formula_units_Z 32
_cell_length_a 8.486126
_cell_length_b 14.343462
_cell_length_c 19.377268
_cell_angle_alpha 90.000000
_cell_angle_beta 136.528258
_cell_angle_gamma 90.000000
_cell_volume 1622.715520
_symmetry_space_group_name_H-M "P 21/C"
_symmetry_group_IT_number 14
_symmetry_cell_setting 'monoclinic'
loop_
_space_group_symop_operation_xyz
x,y,z
-x,1/2+y,1/2-z
-x,-y,-z
x,1/2-y,1/2+z
loop_
_atom_site_type_symbol
_atom_site_label
_atom_site_fract_x
_atom_site_fract_y
_atom_site_fract_z
Si Si1 0.218655 0.247167 0.153099
Si Si2 0.332433 0.986615 0.747921
Si Si3 0.216538 0.067804 0.576660
Si Si4 0.969519 0.646980 0.786657
Si Si5 0.798619 0.569960 0.447954
Si Si6 0.477484 0.672908 0.920884
Si Si7 0.167389 0.189765 0.911902
Si Si8 0.301074 0.724619 0.230745
O O1 0.134175 0.330328 0.076033
O O2 0.096370 0.261873 0.188242
O O3 0.164070 0.151043 0.096903
O O4 0.492761 0.247238 0.256886
O O5 0.383010 0.021836 0.686391
O O6 0.141692 0.052872 0.720472
O O7 0.569421 0.989448 0.863713
O O8 0.232100 0.883021 0.714690
O O9 0.370444 0.084562 0.557223
O O10 0.000000 0.000000 0.500000
O O11 0.874131 0.659522 0.679501
O O12 0.244004 0.634133 0.880100
O O13 0.775973 0.604209 0.519647
O O14 0.000000 0.500000 0.500000
O O15 0.402231 0.742420 0.836122
O O16 0.631368 0.732873 0.022960
O O17 0.928195 0.226385 0.867067
#
# Coordination Sequence:
#
# PCOD8124381 Si02
#       8
#     4   4   4   4   4   4   4   4
#     4   9  20  44  57  91 126 160 208 270 304 378
#     4  10  21  40  57  97 125 162 212 268 313 370
#     4  10  19  36  67  87 118 167 220 251 305 381
#     4  10  24  38  64  91 135 163 199 270 330 375
#     4  11  24  39  68  97 122 165 228 263 308 383
#     4  10  20  41  58  90 127 165 204 258 315 384
#     4  11  21  41  64  91 120 174 204 258 323 379
#     4   9  19  39  66  80 122 163 214 250 313 369
#
# _framework density 19.720030000000001
#
# number of rings (size 3 to 8) (size 9 to 14) (size 15 to 20)
#    0.000    2.000    3.750    0.750    7.000    1.500 
#    4.500    6.875    0.000    0.000    0.000    0.000 
#    0.000    0.000    0.000    0.000    0.000    0.000 
#
# Total GULP energy -396581.849765 kJ/mol
# GULP energy per Si atom -12393.182805 kJ/mol
# Density = 1.967515 g / cm^3
# Si number density = 19.720030 Si / 1000 Ang^3
#
#
#
# Elastic Constant Matrix: (Units=GPa)
#
#
# Indices 1 2 3 4 5 6 
#
# 1 125.4699 47.6380 47.7441 0.0000 16.1431 0.0000
# 2 47.6380 102.4179 35.0950 0.0000 16.3264 0.0000
# 3 47.7441 35.0950 100.3568 0.0000 17.0212 0.0000
# 4 0.0000 0.0000 0.0000 33.3364 0.0000 8.1998
# 5 16.1431 16.3264 17.0212 0.0000 34.3023 0.0000
# 6 0.0000 0.0000 0.0000 8.1998 0.0000 31.6878
#
#
#
# Elastic Compliance Matrix: (Units=1/GPa)
#
#
# Indices 1 2 3 4 5 6 
#
# 1 0.010933 -0.003566 -0.003679 0.000000 -0.001622 0.000000
# 2 -0.003566 0.012695 -0.002187 0.000000 -0.003279 0.000000
# 3 -0.003679 -0.002187 0.013113 0.000000 -0.003735 0.000000
# 4 0.000000 0.000000 0.000000 0.032036 0.000000 -0.008290
# 5 -0.001622 -0.003279 -0.003735 0.000000 0.033330 0.000000
# 6 0.000000 0.000000 0.000000 -0.008290 0.000000 0.033703
#
#
# Mechanical properties :
#
#
# Convention : Reuss Voigt Hill
#
# Bulk Modulus (GPa) = 55.93865 65.46654 60.70260
# Shear Modulus (GPa) = 31.12726 33.04982 32.08854
#
# Velocity S-wave (km/s) = 3.97729 4.09828 4.03824
# Velocity P-wave (km/s) = 7.03703 7.46087 7.25205
#
# Compressibility (1/GPa) = 0.01787673
#
# Stress axis : x y z
#
# Youngs Moduli (GPa) = 91.46992 78.77422 76.26127
#
# Poissons Ratio (x) = 0.28090 0.28056
# Poissons Ratio (y) = 0.32617 0.16677
# Poissons Ratio (z) = 0.33651 0.17226
#
# Static dielectric constant tensor:
#      x y z
#    x 3.717040 0.000000 0.152330 
#    y 0.000000 3.600980 0.000000 
#    z 0.152330 0.000000 3.753230 
# 
# 
# High freq. dielectric constant tensor:
#      x y z
#    x 1.754970 0.000000 0.010200 
#    y 0.000000 1.767770 0.000000 
#    z 0.010200 0.000000 1.777600 
# 
# From -- ./inp_files/65852.got.cif
#   From: 2010.03.12/outbox.cif.g09.slc.cpg/sg14_33_cif.got.tgz:65852.got - 2010.03.31 13:35:05.
