data_PCOD8124587
_publ_section_title
;
Structure prediction by ZEFSAII (Michael W. Deem and Ramdas Pophale) SiO2 
 PCOD8124587
Probable space group: P 21/C
;
_chemical_formula_sum "Si O2"
_cell_formula_units_Z 20
_cell_length_a 13.202472
_cell_length_b 11.720755
_cell_length_c 9.453322
_cell_angle_alpha 90.000000
_cell_angle_beta 147.038907
_cell_angle_gamma 90.000000
_cell_volume 795.883680
_symmetry_space_group_name_H-M "P 21/C"
_symmetry_group_IT_number 14
_symmetry_cell_setting 'monoclinic'
loop_
_space_group_symop_operation_xyz
x,y,z
-x,1/2+y,1/2-z
-x,-y,-z
x,1/2-y,1/2+z
loop_
_atom_site_type_symbol
_atom_site_label
_atom_site_fract_x
_atom_site_fract_y
_atom_site_fract_z
Si Si1 0.741562 0.716172 0.603912
Si Si2 0.389964 0.893410 0.807680
Si Si3 0.068058 0.879452 0.633476
Si Si4 0.744166 0.000848 0.914195
Si Si5 0.684758 0.966883 0.533711
O O1 0.539087 0.701790 0.438942
O O2 0.779052 0.623336 0.525777
O O3 0.747109 0.843414 0.546991
O O4 0.899943 0.708770 0.912711
O O5 0.249899 0.839505 0.757374
O O6 0.269688 0.937826 0.531230
O O7 0.500000 0.000000 0.000000
O O8 0.126902 0.899124 0.866232
O O9 0.000000 0.000000 0.500000
O O10 0.793521 0.995892 0.806309
O O11 0.533740 0.036576 0.693403
#
# Coordination Sequence:
#
# PCOD8124587 Si02
#       5
#     4   4   4   4   4
#     4  10  22  37  67  90 129 167 211 251 316 377
#     4  11  20  40  67  90 124 174 201 254 321 376
#     4  10  19  39  63  86 122 169 209 244 314 374
#     4   9  20  37  61  95 127 160 209 265 305 369
#     4  10  21  38  64  97 127 164 209 261 312 367
#
# _framework density 25.129300000000001
#
# number of rings (size 3 to 8) (size 9 to 14) (size 15 to 20)
#    0.000    2.000    6.000    0.000    2.800    0.000 
#    0.000   14.000    0.000    0.000    0.000    0.000 
#    0.000    0.000    0.000    0.000    0.000    0.000 
#
# Total GULP energy -247948.189423 kJ/mol
# GULP energy per Si atom -12397.409471 kJ/mol
# Density = 2.507210 g / cm^3
# Si number density = 25.129300 Si / 1000 Ang^3
#
#
#
# Elastic Constant Matrix: (Units=GPa)
#
#
# Indices 1 2 3 4 5 6 
#
# 1 110.1325 25.6481 48.0911 0.0000 -33.7515 0.0000
# 2 25.6481 63.2853 39.3810 0.0000 -6.0590 0.0000
# 3 48.0911 39.3810 105.4140 0.0000 -22.2282 0.0000
# 4 0.0000 0.0000 0.0000 12.7838 0.0000 -5.1887
# 5 -33.7515 -6.0590 -22.2282 0.0000 49.4718 0.0000
# 6 0.0000 0.0000 0.0000 -5.1887 0.0000 16.0773
#
#
#
# Elastic Compliance Matrix: (Units=1/GPa)
#
#
# Indices 1 2 3 4 5 6 
#
# 1 0.013491 -0.002468 -0.003707 0.000000 0.007236 0.000000
# 2 -0.002468 0.021087 -0.007249 0.000000 -0.002358 0.000000
# 3 -0.003707 -0.007249 0.014543 0.000000 0.003118 0.000000
# 4 0.000000 0.000000 0.000000 0.090015 0.000000 0.029051
# 5 0.007236 -0.002358 0.003118 0.000000 0.026262 0.000000
# 6 0.000000 0.000000 0.000000 0.029051 0.000000 0.071575
#
#
# Mechanical properties :
#
#
# Convention : Reuss Voigt Hill
#
# Bulk Modulus (GPa) = 44.89750 56.11914 50.50832
# Shear Modulus (GPa) = 18.43348 26.71401 22.57375
#
# Velocity S-wave (km/s) = 2.71134 3.26400 3.00042
# Velocity P-wave (km/s) = 5.26376 6.04860 5.66978
#
# Compressibility (1/GPa) = 0.02227296
#
# Stress axis : x y z
#
# Youngs Moduli (GPa) = 74.12306 47.42290 68.76152
#
# Poissons Ratio (x) = 0.11705 0.25489
# Poissons Ratio (y) = 0.18295 0.49845
# Poissons Ratio (z) = 0.27476 0.34377
#
# Static dielectric constant tensor:
#      x y z
#    x 4.985350 0.000000 -0.447670 
#    y 0.000000 4.154640 0.000000 
#    z -0.447670 0.000000 5.754870 
# 
# 
# High freq. dielectric constant tensor:
#      x y z
#    x 1.992600 0.000000 -0.012560 
#    y 0.000000 1.967630 0.000000 
#    z -0.012560 0.000000 2.012680 
# 
# From -- ./inp_files/48732.got.cif
#   From: 2010.03.12/outbox.cif.g09.slc.cpg/sg14_25_cif.got.tgz:48732.got - 2010.03.31 13:35:05.
