data_PCOD8124733
_publ_section_title
;
Structure prediction by ZEFSAII (Michael W. Deem and Ramdas Pophale) SiO2 
 PCOD8124733
Probable space group: P 21/C
;
_chemical_formula_sum "Si O2"
_cell_formula_units_Z 32
_cell_length_a 18.948421
_cell_length_b 9.670801
_cell_length_c 21.273687
_cell_angle_alpha 90.000000
_cell_angle_beta 152.961066
_cell_angle_gamma 90.000000
_cell_volume 1772.163189
_symmetry_space_group_name_H-M "P 21/C"
_symmetry_group_IT_number 14
_symmetry_cell_setting 'monoclinic'
loop_
_space_group_symop_operation_xyz
x,y,z
-x,1/2+y,1/2-z
-x,-y,-z
x,1/2-y,1/2+z
loop_
_atom_site_type_symbol
_atom_site_label
_atom_site_fract_x
_atom_site_fract_y
_atom_site_fract_z
Si Si1 0.352621 0.006647 0.275177
Si Si2 0.616767 0.828514 0.900106
Si Si3 0.388137 0.900106 0.171480
Si Si4 0.584088 0.724826 0.006643
Si Si5 0.045177 0.400103 0.328519
Si Si6 0.429200 0.775173 0.506644
Si Si7 0.183446 0.828518 0.900107
Si Si8 0.802268 0.506646 0.224823
O O1 0.304139 0.963415 0.166520
O O2 0.470418 0.895186 0.395186
O O3 0.202609 0.012662 0.202610
O O4 0.439666 0.155709 0.344294
O O5 0.532274 0.697364 0.802632
O O6 0.546301 0.971761 0.817889
O O7 0.601035 0.833479 0.963413
O O8 0.799830 0.817879 0.028239
O O9 0.256647 0.817883 0.028238
O O10 0.751078 0.655708 0.155705
O O11 0.512659 0.797395 0.012658
O O12 0.089480 0.528235 0.317890
O O13 0.927009 0.302632 0.197368
O O14 0.971102 0.463416 0.333481
O O15 0.325794 0.666517 0.463417
O O16 0.319949 0.895183 0.395184
#
# Coordination Sequence:
#
# PCOD8124733 Si02
#       8
#     4   4   4   4   4   4   4   4
#     4   8  14  27  49  73  95 126 169 208 239 280
#     4  10  20  33  50  74 102 130 163 203 248 297
#     4  10  20  33  50  74 102 130 163 203 248 297
#     4   8  14  27  49  73  95 126 169 208 239 280
#     4  10  20  33  50  74 102 130 163 203 248 297
#     4   8  14  27  49  73  95 126 169 208 239 280
#     4  10  20  33  50  74 102 130 163 203 248 297
#     4   8  14  27  49  73  95 126 169 208 239 280
#
# _framework density 18.057027999999999
#
# number of rings (size 3 to 8) (size 9 to 14) (size 15 to 20)
#    0.000    3.000    0.000    3.000    0.000    3.000 
#    0.000    5.000    0.000    4.500    0.000    7.000 
#    0.000    0.000    0.000    0.000    0.000    0.000 
#
# Total GULP energy -396456.030834 kJ/mol
# GULP energy per Si atom -12389.250964 kJ/mol
# Density = 1.801593 g / cm^3
# Si number density = 18.057028 Si / 1000 Ang^3
#
#
#
# Elastic Constant Matrix: (Units=GPa)
#
#
# Indices 1 2 3 4 5 6 
#
# 1 148.6329 67.8335 67.8379 0.0000 0.3348 0.0000
# 2 67.8335 83.4197 43.1497 0.0000 0.2333 0.0000
# 3 67.8379 43.1497 83.4322 0.0000 0.2810 0.0000
# 4 0.0000 0.0000 0.0000 34.0006 0.0000 -0.1075
# 5 0.3348 0.2333 0.2810 0.0000 22.6681 0.0000
# 6 0.0000 0.0000 0.0000 -0.1075 0.0000 22.6633
#
#
#
# Elastic Compliance Matrix: (Units=1/GPa)
#
#
# Indices 1 2 3 4 5 6 
#
# 1 0.013171 -0.007059 -0.007058 0.000000 -0.000034 0.000000
# 2 -0.007059 0.020149 -0.004681 0.000000 -0.000045 0.000000
# 3 -0.007058 -0.004681 0.020146 0.000000 -0.000097 0.000000
# 4 0.000000 0.000000 0.000000 0.029412 0.000000 0.000139
# 5 -0.000034 -0.000045 -0.000097 0.000000 0.044117 0.000000
# 6 0.000000 0.000000 0.000000 0.000139 0.000000 0.044125
#
#
# Mechanical properties :
#
#
# Convention : Reuss Voigt Hill
#
# Bulk Modulus (GPa) = 63.01376 74.79189 68.90282
# Shear Modulus (GPa) = 23.36368 24.97731 24.17050
#
# Velocity S-wave (km/s) = 3.60096 3.72324 3.66261
# Velocity P-wave (km/s) = 7.22925 7.74552 7.49183
#
# Compressibility (1/GPa) = 0.01586955
#
# Stress axis : x y z
#
# Youngs Moduli (GPa) = 75.92244 49.62968 49.63733
#
# Poissons Ratio (x) = 0.35035 0.35036
# Poissons Ratio (y) = 0.53595 0.23235
# Poissons Ratio (z) = 0.53589 0.23231
#
# Static dielectric constant tensor:
#      x y z
#    x 3.944000 0.000000 0.007130 
#    y 0.000000 3.191260 0.000000 
#    z 0.007130 0.000000 3.191370 
# 
# 
# High freq. dielectric constant tensor:
#      x y z
#    x 1.708810 0.000000 0.000310 
#    y 0.000000 1.676420 0.000000 
#    z 0.000310 0.000000 1.676430 
# 
# From -- ./inp_files/69234.got.cif
#   From: 2010.03.12/outbox.cif.g09.slc.cpg/sg14_35_cif.got.tgz:69234.got - 2010.03.31 13:35:05.
