data_PCOD8124174
_publ_section_title
;
Structure prediction by ZEFSAII (Michael W. Deem and Ramdas Pophale) SiO2 
 PCOD8124174
Probable space group: P 21/C
;
_chemical_formula_sum "Si O2"
_cell_formula_units_Z 32
_cell_length_a 25.029649
_cell_length_b 12.885208
_cell_length_c 13.144220
_cell_angle_alpha 90.000000
_cell_angle_beta 22.135447
_cell_angle_gamma 90.000000
_cell_volume 1597.308909
_symmetry_space_group_name_H-M "P 21/C"
_symmetry_group_IT_number 14
_symmetry_cell_setting 'monoclinic'
loop_
_space_group_symop_operation_xyz
x,y,z
-x,1/2+y,1/2-z
-x,-y,-z
x,1/2-y,1/2+z
loop_
_atom_site_type_symbol
_atom_site_label
_atom_site_fract_x
_atom_site_fract_y
_atom_site_fract_z
Si Si1 0.781653 0.187116 0.531922
Si Si2 0.046798 0.894459 0.280387
Si Si3 0.462697 0.671101 0.384974
Si Si4 0.200637 0.432128 0.621555
Si Si5 0.849567 0.952361 0.460582
Si Si6 0.604922 0.547680 0.544655
Si Si7 0.304763 0.281044 0.877197
Si Si8 0.446676 0.785748 0.224583
O O1 0.901770 0.275210 0.315467
O O2 0.701905 0.186030 0.564367
O O3 0.849715 0.073220 0.427896
O O4 0.669961 0.217030 0.817327
O O5 0.925709 0.906446 0.578418
O O6 0.000418 0.926379 0.247324
O O7 0.170381 0.973565 0.097465
O O8 0.462922 0.548127 0.395700
O O9 0.616914 0.709885 0.151351
O O10 0.436417 0.682262 0.309863
O O11 0.344161 0.464798 0.428630
O O12 0.224547 0.328413 0.512850
O O13 0.741815 0.921150 0.738909
O O14 0.808827 0.875047 0.438758
O O15 0.482900 0.633860 0.752037
O O16 0.429086 0.283933 0.575788
#
# Coordination Sequence:
#
# PCOD8124174 Si02
#       8
#     4   4   4   4   4   4   4   4
#     4  10  21  38  58  84 114 148 196 229 283 349
#     4  10  22  38  59  82 113 158 193 232 278 333
#     4  10  19  35  59  85 114 148 179 237 290 336
#     4  10  20  38  60  84 113 152 195 233 278 339
#     4   9  20  36  58  80 108 152 190 233 273 334
#     4   9  17  34  58  82 109 145 190 222 284 341
#     4  10  20  36  60  86 112 146 191 231 287 338
#     4  10  19  35  57  86 114 145 179 235 289 336
#
# _framework density 20.033695000000002
#
# number of rings (size 3 to 8) (size 9 to 14) (size 15 to 20)
#    0.000    2.250    1.250    1.500    1.750    4.000 
#    2.250    2.500    0.000    0.000    0.000    0.000 
#    0.000    0.000    0.000    0.000    0.000    0.000 
#
# Total GULP energy -396537.416695 kJ/mol
# GULP energy per Si atom -12391.794272 kJ/mol
# Density = 1.998810 g / cm^3
# Si number density = 20.033695 Si / 1000 Ang^3
#
#
#
# Elastic Constant Matrix: (Units=GPa)
#
#
# Indices 1 2 3 4 5 6 
#
# 1 144.5138 50.4625 22.6315 0.0000 -25.1192 0.0000
# 2 50.4625 107.3307 22.0677 0.0000 -13.1761 0.0000
# 3 22.6315 22.0677 19.4434 0.0000 -12.7714 0.0000
# 4 0.0000 0.0000 0.0000 20.3626 0.0000 -3.6775
# 5 -25.1192 -13.1761 -12.7714 0.0000 18.4519 0.0000
# 6 0.0000 0.0000 0.0000 -3.6775 0.0000 38.1062
#
#
#
# Elastic Compliance Matrix: (Units=1/GPa)
#
#
# Indices 1 2 3 4 5 6 
#
# 1 0.010059 -0.003200 -0.001069 0.000000 0.010669 0.000000
# 2 -0.003200 0.013196 -0.014531 0.000000 -0.004990 0.000000
# 3 -0.001069 -0.014531 0.112578 0.000000 0.066089 0.000000
# 4 0.000000 0.000000 0.000000 0.049981 0.000000 0.004823
# 5 0.010669 -0.004990 0.066089 0.000000 0.110899 0.000000
# 6 0.000000 0.000000 0.000000 0.004823 0.000000 0.026708
#
#
# Mechanical properties :
#
#
# Convention : Reuss Voigt Hill
#
# Bulk Modulus (GPa) = 10.17970 51.29015 30.73492
# Shear Modulus (GPa) = 12.69794 27.12590 19.91192
#
# Velocity S-wave (km/s) = 2.52033 3.68368 3.15607
# Velocity P-wave (km/s) = 3.68262 6.61440 5.35313
#
# Compressibility (1/GPa) = 0.09823471
#
# Stress axis : x y z
#
# Youngs Moduli (GPa) = 99.41434 75.77792 8.88272
#
# Poissons Ratio (x) = 0.24248 0.00949
# Poissons Ratio (y) = 0.31811 0.12907
# Poissons Ratio (z) = 0.10623 1.10113
#
# Static dielectric constant tensor:
#      x y z
#    x 3.971950 0.000000 -0.181710 
#    y 0.000000 3.601080 0.000000 
#    z -0.181710 0.000000 3.307230 
# 
# 
# High freq. dielectric constant tensor:
#      x y z
#    x 1.796740 0.000000 -0.015850 
#    y 0.000000 1.789080 0.000000 
#    z -0.015850 0.000000 1.738740 
# 
# From -- ./inp_files/44377.got.cif
#   From: 2010.03.12/outbox.cif.g09.slc.cpg/sg14_23_cif.got.tgz:44377.got - 2010.03.31 13:35:05.
