data_PCOD8124828
_publ_section_title
;
Structure prediction by ZEFSAII (Michael W. Deem and Ramdas Pophale) SiO2 
 PCOD8124828
Probable space group: P 21/C
;
_chemical_formula_sum "Si O2"
_cell_formula_units_Z 32
_cell_length_a 15.436249
_cell_length_b 23.163883
_cell_length_c 9.397243
_cell_angle_alpha 90.000000
_cell_angle_beta 27.679108
_cell_angle_gamma 90.000000
_cell_volume 1560.835869
_symmetry_space_group_name_H-M "P 21/C"
_symmetry_group_IT_number 14
_symmetry_cell_setting 'monoclinic'
loop_
_space_group_symop_operation_xyz
x,y,z
-x,1/2+y,1/2-z
-x,-y,-z
x,1/2-y,1/2+z
loop_
_atom_site_type_symbol
_atom_site_label
_atom_site_fract_x
_atom_site_fract_y
_atom_site_fract_z
Si Si1 0.237365 0.257622 0.052937
Si Si2 0.716263 0.564385 0.229573
Si Si3 0.685277 0.436548 0.310855
Si Si4 0.921953 0.822389 0.480491
Si Si5 0.342379 0.172875 0.661397
Si Si6 0.290267 0.616625 0.429420
Si Si7 0.066815 0.955463 0.049381
Si Si8 0.006190 0.084567 0.129730
O O1 0.130780 0.300169 0.100404
O O2 0.101926 0.222539 0.356468
O O3 0.366941 0.293952 0.973831
O O4 0.351180 0.214826 0.785099
O O5 0.719985 0.503178 0.307778
O O6 0.501237 0.575198 0.507273
O O7 0.803333 0.618891 0.189333
O O8 0.846331 0.554227 0.902368
O O9 0.655688 0.399013 0.491095
O O10 0.863135 0.412080 0.967715
O O11 0.141953 0.831776 0.149456
O O12 0.521438 0.133342 0.425464
O O13 0.150742 0.136656 0.938007
O O14 0.199377 0.561992 0.485004
O O15 0.112404 0.022926 0.961377
O O16 0.109250 0.914187 0.851375
#
# Coordination Sequence:
#
# PCOD8124828 Si02
#       8
#     4   4   4   4   4   4   4   4
#     4  10  23  41  59  77 106 151 196 236 282 325
#     4   9  19  37  59  82 119 155 186 227 278 341
#     4  10  20  34  60  91 114 149 188 222 282 350
#     4  10  21  39  59  81 111 147 189 237 279 325
#     4  11  23  40  59  82 114 148 188 238 282 330
#     4  11  22  36  59  87 114 144 183 233 285 339
#     4   9  20  36  57  87 119 152 184 222 282 346
#     4  10  20  37  58  83 119 153 184 227 280 338
#
# _framework density 20.501836000000001
#
# number of rings (size 3 to 8) (size 9 to 14) (size 15 to 20)
#    0.000    2.000    0.000    3.750    0.000    9.000 
#    0.000    5.000    0.000    0.000    0.000    0.000 
#    0.000    0.000    0.000    0.000    0.000    0.000 
#
# Total GULP energy -396560.902760 kJ/mol
# GULP energy per Si atom -12392.528211 kJ/mol
# Density = 2.045517 g / cm^3
# Si number density = 20.501836 Si / 1000 Ang^3
#
#
#
# Elastic Constant Matrix: (Units=GPa)
#
#
# Indices 1 2 3 4 5 6 
#
# 1 60.5219 21.1186 42.8506 0.0000 4.2518 0.0000
# 2 21.1186 78.3611 39.1781 0.0000 -2.6230 0.0000
# 3 42.8506 39.1781 85.9233 0.0000 -7.7949 0.0000
# 4 0.0000 0.0000 0.0000 29.5882 0.0000 10.8513
# 5 4.2518 -2.6230 -7.7949 0.0000 28.1566 0.0000
# 6 0.0000 0.0000 0.0000 10.8513 0.0000 21.9554
#
#
#
# Elastic Compliance Matrix: (Units=1/GPa)
#
#
# Indices 1 2 3 4 5 6 
#
# 1 0.027240 -0.000587 -0.014048 0.000000 -0.008057 0.000000
# 2 -0.000587 0.016551 -0.007289 0.000000 -0.000387 0.000000
# 3 -0.014048 -0.007289 0.022668 0.000000 0.007718 0.000000
# 4 0.000000 0.000000 0.000000 0.041280 0.000000 -0.020402
# 5 -0.008057 -0.000387 0.007718 0.000000 0.038833 0.000000
# 6 0.000000 0.000000 0.000000 -0.020402 0.000000 0.055631
#
#
# Mechanical properties :
#
#
# Convention : Reuss Voigt Hill
#
# Bulk Modulus (GPa) = 44.22759 47.90012 46.06386
# Shear Modulus (GPa) = 19.71705 24.05062 21.88384
#
# Velocity S-wave (km/s) = 3.10453 3.42876 3.27067
# Velocity P-wave (km/s) = 5.87113 6.25218 6.06465
#
# Compressibility (1/GPa) = 0.02261032
#
# Stress axis : x y z
#
# Youngs Moduli (GPa) = 36.71041 60.41934 44.11559
#
# Poissons Ratio (x) = 0.03550 0.61973
# Poissons Ratio (y) = 0.02157 0.32155
# Poissons Ratio (z) = 0.51571 0.44039
#
# Static dielectric constant tensor:
#      x y z
#    x 3.658670 0.000000 0.140730 
#    y 0.000000 3.893220 0.000000 
#    z 0.140730 0.000000 3.619190 
# 
# 
# High freq. dielectric constant tensor:
#      x y z
#    x 1.797630 0.000000 0.009070 
#    y 0.000000 1.807850 0.000000 
#    z 0.009070 0.000000 1.792560 
# 
# From -- ./inp_files/17080.got.cif
#   From: 2010.03.12/outbox.cif.g09.slc.cpg/sg14_9_cif.got.tgz:17080.got - 2010.03.31 13:35:05.
