data_PCOD8124281
_publ_section_title
;
Structure prediction by ZEFSAII (Michael W. Deem and Ramdas Pophale) SiO2 
 PCOD8124281
Probable space group: P 21/C
;
_chemical_formula_sum "Si O2"
_cell_formula_units_Z 28
_cell_length_a 19.646278
_cell_length_b 8.415836
_cell_length_c 13.785019
_cell_angle_alpha 90.000000
_cell_angle_beta 34.519035
_cell_angle_gamma 90.000000
_cell_volume 1291.584436
_symmetry_space_group_name_H-M "P 21/C"
_symmetry_group_IT_number 14
_symmetry_cell_setting 'monoclinic'
loop_
_space_group_symop_operation_xyz
x,y,z
-x,1/2+y,1/2-z
-x,-y,-z
x,1/2-y,1/2+z
loop_
_atom_site_type_symbol
_atom_site_label
_atom_site_fract_x
_atom_site_fract_y
_atom_site_fract_z
Si Si1 0.124582 0.978669 0.672277
Si Si2 0.245009 0.533590 0.495868
Si Si3 0.809743 0.213107 0.759808
Si Si4 0.501054 0.122186 0.358390
Si Si5 0.926447 0.267491 0.426532
Si Si6 0.545129 0.227171 0.512824
Si Si7 0.334127 0.308905 0.886959
O O1 0.249521 0.037486 0.478424
O O2 0.047743 0.131343 0.793345
O O3 0.156273 0.881160 0.731620
O O4 0.055157 0.872534 0.673925
O O5 0.172233 0.574600 0.680355
O O6 0.378110 0.608820 0.347483
O O7 0.180409 0.613635 0.479336
O O8 0.251838 0.346559 0.468449
O O9 0.896740 0.188875 0.565587
O O10 0.673314 0.199312 0.885283
O O11 0.524822 0.233910 0.421922
O O12 0.397295 0.204488 0.417588
O O13 0.457760 0.950054 0.442363
O O14 0.436536 0.329350 0.685689
#
# Coordination Sequence:
#
# PCOD8124281 Si02
#       7
#     4   4   4   4   4   4   4
#     4  11  25  44  67  91 125 170 210 258 319 371
#     4  10  22  37  62  93 128 166 208 261 313 363
#     4  11  21  41  65  94 124 166 211 259 315 373
#     4  10  19  36  57  90 130 164 204 254 305 381
#     4  11  24  45  65  91 125 164 217 263 309 375
#     4  10  20  35  61  93 125 167 207 249 316 373
#     4  11  22  38  63  94 132 167 208 257 317 375
#
# _framework density 21.678799999999999
#
# number of rings (size 3 to 8) (size 9 to 14) (size 15 to 20)
#    0.000    1.429    4.286    1.286    0.000    1.143 
#    0.000   10.714    0.000    0.000    0.000    0.000 
#    0.000    0.000    0.000    0.000    0.000    0.000 
#
# Total GULP energy -347285.114001 kJ/mol
# GULP energy per Si atom -12403.039786 kJ/mol
# Density = 2.162946 g / cm^3
# Si number density = 21.678800 Si / 1000 Ang^3
#
#
#
# Elastic Constant Matrix: (Units=GPa)
#
#
# Indices 1 2 3 4 5 6 
#
# 1 53.4684 3.6006 9.5722 0.0000 11.0118 0.0000
# 2 3.6006 29.1459 16.9650 0.0000 2.7266 0.0000
# 3 9.5722 16.9650 84.5523 0.0000 13.0403 0.0000
# 4 0.0000 0.0000 0.0000 35.3169 0.0000 -4.8562
# 5 11.0118 2.7266 13.0403 0.0000 35.4567 0.0000
# 6 0.0000 0.0000 0.0000 -4.8562 0.0000 28.1337
#
#
#
# Elastic Compliance Matrix: (Units=1/GPa)
#
#
# Indices 1 2 3 4 5 6 
#
# 1 0.020177 -0.001292 -0.001138 0.000000 -0.005748 0.000000
# 2 -0.001292 0.038930 -0.007702 0.000000 0.000240 0.000000
# 3 -0.001138 -0.007702 0.014158 0.000000 -0.004261 0.000000
# 4 0.000000 0.000000 0.000000 0.029003 0.000000 0.005006
# 5 -0.005748 0.000240 -0.004261 0.000000 0.031537 0.000000
# 6 0.000000 0.000000 0.000000 0.005006 0.000000 0.036409
#
#
# Mechanical properties :
#
#
# Convention : Reuss Voigt Hill
#
# Bulk Modulus (GPa) = 18.86759 25.27136 22.06947
# Shear Modulus (GPa) = 24.02134 28.91669 26.46902
#
# Velocity S-wave (km/s) = 3.33236 3.65618 3.49802
# Velocity P-wave (km/s) = 4.85060 5.43194 5.14948
#
# Compressibility (1/GPa) = 0.05300094
#
# Stress axis : x y z
#
# Youngs Moduli (GPa) = 49.56053 25.68684 70.62913
#
# Poissons Ratio (x) = 0.03319 0.08041
# Poissons Ratio (y) = 0.06404 0.54398
# Poissons Ratio (z) = 0.05642 0.19784
#
# Static dielectric constant tensor:
#      x y z
#    x 3.846640 0.000000 0.017950 
#    y 0.000000 3.626320 0.000000 
#    z 0.017950 0.000000 3.925240 
# 
# 
# High freq. dielectric constant tensor:
#      x y z
#    x 1.853870 0.000000 -0.002090 
#    y 0.000000 1.835110 0.000000 
#    z -0.002090 0.000000 1.852860 
# 
# From -- ./inp_files/43179.got.cif
#   From: 2010.03.12/outbox.cif.g09.slc.cpg/sg14_22_cif.got.tgz:43179.got - 2010.03.31 13:35:05.
