data_PCOD8124183
_publ_section_title
;
Structure prediction by ZEFSAII (Michael W. Deem and Ramdas Pophale) SiO2 
 PCOD8124183
Probable space group: P 21/C
;
_chemical_formula_sum "Si O2"
_cell_formula_units_Z 28
_cell_length_a 7.853325
_cell_length_b 14.652568
_cell_length_c 11.948529
_cell_angle_alpha 90.000000
_cell_angle_beta 68.054692
_cell_angle_gamma 90.000000
_cell_volume 1275.307403
_symmetry_space_group_name_H-M "P 21/C"
_symmetry_group_IT_number 14
_symmetry_cell_setting 'monoclinic'
loop_
_space_group_symop_operation_xyz
x,y,z
-x,1/2+y,1/2-z
-x,-y,-z
x,1/2-y,1/2+z
loop_
_atom_site_type_symbol
_atom_site_label
_atom_site_fract_x
_atom_site_fract_y
_atom_site_fract_z
Si Si1 0.370367 0.188589 0.689932
Si Si2 0.708715 0.363221 0.230927
Si Si3 0.896864 0.924853 0.381083
Si Si4 0.854244 0.374705 0.840271
Si Si5 0.129009 0.818313 0.896065
Si Si6 0.845536 0.711155 0.087198
Si Si7 0.390867 0.713551 0.524279
O O1 0.552346 0.126695 0.673127
O O2 0.194637 0.126124 0.703869
O O3 0.339037 0.249955 0.810077
O O4 0.411138 0.258204 0.575982
O O5 0.819992 0.270702 0.187287
O O6 0.605672 0.360349 0.376569
O O7 0.879161 0.434482 0.182891
O O8 0.820173 0.874317 0.510440
O O9 0.824407 0.027920 0.406733
O O10 0.875867 0.394648 0.700421
O O11 0.685125 0.311375 0.916769
O O12 0.033614 0.322501 0.838670
O O13 0.278557 0.837952 0.954113
O O14 0.934473 0.798141 0.001806
#
# Coordination Sequence:
#
# PCOD8124183 Si02
#       7
#     4   4   4   4   4   4   4
#     4  11  21  35  60  85 111 152 196 230 278 342
#     4   9  19  36  55  81 113 147 192 235 272 334
#     4  11  22  37  60  87 117 148 185 240 292 334
#     4  10  20  36  60  88 116 147 186 239 294 333
#     4   8  16  33  57  79 106 145 188 228 274 333
#     4  10  19  35  58  82 109 149 194 228 272 341
#     4   9  18  36  58  82 113 149 193 239 275 333
#
# _framework density 21.955489
#
# number of rings (size 3 to 8) (size 9 to 14) (size 15 to 20)
#    0.000    2.286    0.000    5.571    0.000    0.571 
#    0.000    7.143    0.000    2.571    0.000    0.000 
#    0.000    0.000    0.000    0.000    0.000    0.000 
#
# Total GULP energy -346870.994683 kJ/mol
# GULP energy per Si atom -12388.249810 kJ/mol
# Density = 2.190552 g / cm^3
# Si number density = 21.955489 Si / 1000 Ang^3
#
#
#
# Elastic Constant Matrix: (Units=GPa)
#
#
# Indices 1 2 3 4 5 6 
#
# 1 76.2821 11.9004 25.7451 0.0000 0.2177 0.0000
# 2 11.9004 36.7536 12.2500 0.0000 -3.8489 0.0000
# 3 25.7451 12.2500 117.3106 0.0000 2.8086 0.0000
# 4 0.0000 0.0000 0.0000 17.0860 0.0000 7.2680
# 5 0.2177 -3.8489 2.8086 0.0000 30.6488 0.0000
# 6 0.0000 0.0000 0.0000 7.2680 0.0000 10.6488
#
#
#
# Elastic Compliance Matrix: (Units=1/GPa)
#
#
# Indices 1 2 3 4 5 6 
#
# 1 0.014657 -0.003845 -0.002807 0.000000 -0.000330 0.000000
# 2 -0.003845 0.029651 -0.002347 0.000000 0.003966 0.000000
# 3 -0.002807 -0.002347 0.009413 0.000000 -0.001137 0.000000
# 4 0.000000 0.000000 0.000000 0.082471 0.000000 -0.056288
# 5 -0.000330 0.003966 -0.001137 0.000000 0.033232 0.000000
# 6 0.000000 0.000000 0.000000 -0.056288 0.000000 0.132324
#
#
# Mechanical properties :
#
#
# Convention : Reuss Voigt Hill
#
# Bulk Modulus (GPa) = 27.99392 36.68192 32.33792
# Shear Modulus (GPa) = 15.07590 23.70679 19.39134
#
# Velocity S-wave (km/s) = 2.62326 3.28954 2.97511
# Velocity P-wave (km/s) = 4.68543 5.58317 5.15389
#
# Compressibility (1/GPa) = 0.03572204
#
# Stress axis : x y z
#
# Youngs Moduli (GPa) = 68.22466 33.72593 106.23779
#
# Poissons Ratio (x) = 0.12967 0.29825
# Poissons Ratio (y) = 0.26231 0.24938
# Poissons Ratio (z) = 0.19153 0.07917
#
# Static dielectric constant tensor:
#      x y z
#    x 3.913670 0.000000 0.158470 
#    y 0.000000 3.455580 0.000000 
#    z 0.158470 0.000000 4.434000 
# 
# 
# High freq. dielectric constant tensor:
#      x y z
#    x 1.862590 0.000000 0.014690 
#    y 0.000000 1.799180 0.000000 
#    z 0.014690 0.000000 1.880010 
# 
# From -- ./inp_files/25100.got.cif
#   From: 2010.03.12/outbox.cif.g09.slc.cpg/sg14_13_cif.got.tgz:25100.got - 2010.03.31 13:35:05.
