data_PCOD8124061
_publ_section_title
;
Structure prediction by ZEFSAII (Michael W. Deem and Ramdas Pophale) SiO2 
 PCOD8124061
Probable space group: P 21/C
;
_chemical_formula_sum "Si O2"
_cell_formula_units_Z 28
_cell_length_a 13.168299
_cell_length_b 12.709951
_cell_length_c 14.979264
_cell_angle_alpha 90.000000
_cell_angle_beta 41.081083
_cell_angle_gamma 90.000000
_cell_volume 1647.452693
_symmetry_space_group_name_H-M "P 21/C"
_symmetry_group_IT_number 14
_symmetry_cell_setting 'monoclinic'
loop_
_space_group_symop_operation_xyz
x,y,z
-x,1/2+y,1/2-z
-x,-y,-z
x,1/2-y,1/2+z
loop_
_atom_site_type_symbol
_atom_site_label
_atom_site_fract_x
_atom_site_fract_y
_atom_site_fract_z
Si Si1 0.290898 0.230003 0.417270
Si Si2 0.707661 0.874047 0.406885
Si Si3 0.368745 0.431786 0.629671
Si Si4 0.170676 0.023270 0.418936
Si Si5 0.522446 0.787400 0.373602
Si Si6 0.121997 0.322515 0.675765
Si Si7 0.213401 0.592963 0.070493
O O1 0.375825 0.168594 0.445180
O O2 0.183697 0.146073 0.436540
O O3 0.408183 0.289400 0.273008
O O4 0.177240 0.318175 0.535354
O O5 0.602947 0.869846 0.387842
O O6 0.854236 0.794463 0.296019
O O7 0.759466 0.994463 0.381808
O O8 0.500000 0.500000 0.500000
O O9 0.295842 0.498075 0.758962
O O10 0.458310 0.328395 0.601304
O O11 0.228719 0.407065 0.655397
O O12 0.211159 0.944879 0.470885
O O13 0.000000 0.000000 0.500000
O O14 0.343745 0.818288 0.490584
O O15 0.944997 0.352869 0.796817
#
# Coordination Sequence:
#
# PCOD8124061 Si02
#       7
#     4   4   4   4   4   4   4
#     4   8  19  36  53  75 109 144 173 228 276 323
#     4   8  19  37  55  72 114 142 175 228 283 325
#     4  10  21  35  57  82 111 142 186 235 281 320
#     4  10  19  34  55  83 109 143 187 227 277 331
#     4  10  20  35  57  78 107 148 183 221 283 332
#     4   9  19  36  52  75 111 139 175 231 277 315
#     4  11  20  32  58  83 105 147 190 222 275 340
#
# _framework density 16.995936
#
# number of rings (size 3 to 8) (size 9 to 14) (size 15 to 20)
#    0.857    1.714    1.429    0.429    2.000    2.286 
#    0.000    0.714    0.000    0.000    0.000    0.000 
#    0.000    0.000    0.000    0.000    0.000    0.000 
#
# Total GULP energy -346921.583748 kJ/mol
# GULP energy per Si atom -12390.056562 kJ/mol
# Density = 1.695725 g / cm^3
# Si number density = 16.995936 Si / 1000 Ang^3
#
#
#
# Elastic Constant Matrix: (Units=GPa)
#
#
# Indices 1 2 3 4 5 6 
#
# 1 86.2934 28.2593 60.4994 0.0000 -8.5501 0.0000
# 2 28.2593 56.1704 53.0142 0.0000 -11.3558 0.0000
# 3 60.4994 53.0142 139.2229 0.0000 -7.9119 0.0000
# 4 0.0000 0.0000 0.0000 28.4423 0.0000 1.5653
# 5 -8.5501 -11.3558 -7.9119 0.0000 30.9766 0.0000
# 6 0.0000 0.0000 0.0000 1.5653 0.0000 14.3673
#
#
#
# Elastic Compliance Matrix: (Units=1/GPa)
#
#
# Indices 1 2 3 4 5 6 
#
# 1 0.017032 -0.001933 -0.006533 0.000000 0.002324 0.000000
# 2 -0.001933 0.029890 -0.010096 0.000000 0.007845 0.000000
# 3 -0.006533 -0.010096 0.013753 0.000000 -0.001992 0.000000
# 4 0.000000 0.000000 0.000000 0.035371 0.000000 -0.003854
# 5 0.002324 0.007845 -0.001992 0.000000 0.035291 0.000000
# 6 0.000000 0.000000 0.000000 -0.003854 0.000000 0.070022
#
#
# Mechanical properties :
#
#
# Convention : Reuss Voigt Hill
#
# Bulk Modulus (GPa) = 42.46105 62.80361 52.63233
# Shear Modulus (GPa) = 20.29766 24.08483 22.19124
#
# Velocity S-wave (km/s) = 3.45956 3.76851 3.61734
# Velocity P-wave (km/s) = 6.40277 7.48117 6.96288
#
# Compressibility (1/GPa) = 0.02355100
#
# Stress axis : x y z
#
# Youngs Moduli (GPa) = 58.71319 33.45578 72.71164
#
# Poissons Ratio (x) = 0.06467 0.47504
# Poissons Ratio (y) = 0.11349 0.73410
# Poissons Ratio (z) = 0.38358 0.33777
#
# Static dielectric constant tensor:
#      x y z
#    x 3.311290 0.000000 0.218170 
#    y 0.000000 3.078370 0.000000 
#    z 0.218170 0.000000 3.136040 
# 
# 
# High freq. dielectric constant tensor:
#      x y z
#    x 1.656550 0.000000 0.012710 
#    y 0.000000 1.646470 0.000000 
#    z 0.012710 0.000000 1.645830 
# 
# From -- ./inp_files/44906.got.cif
#   From: 2010.03.12/outbox.cif.g09.slc.cpg/sg14_23_cif.got.tgz:44906.got - 2010.03.31 13:35:05.
