data_PCOD8124738
_publ_section_title
;
Structure prediction by ZEFSAII (Michael W. Deem and Ramdas Pophale) SiO2 
 PCOD8124738
Probable space group: P 21/C
;
_chemical_formula_sum "Si O2"
_cell_formula_units_Z 24
_cell_length_a 11.940619
_cell_length_b 21.865421
_cell_length_c 13.608355
_cell_angle_alpha 90.000000
_cell_angle_beta 158.885602
_cell_angle_gamma 90.000000
_cell_volume 1279.887181
_symmetry_space_group_name_H-M "P 21/C"
_symmetry_group_IT_number 14
_symmetry_cell_setting 'monoclinic'
loop_
_space_group_symop_operation_xyz
x,y,z
-x,1/2+y,1/2-z
-x,-y,-z
x,1/2-y,1/2+z
loop_
_atom_site_type_symbol
_atom_site_label
_atom_site_fract_x
_atom_site_fract_y
_atom_site_fract_z
Si Si1 0.729524 0.170001 0.477928
Si Si2 0.375121 0.068519 0.296057
Si Si3 0.249648 0.330137 0.981903
Si Si4 0.682791 0.431557 0.252907
Si Si5 0.406023 0.203345 0.023343
Si Si6 0.573476 0.296765 0.436799
O O1 0.536109 0.109749 0.345435
O O2 0.618633 0.224537 0.458228
O O3 0.097960 0.163993 0.796217
O O4 0.676321 0.182735 0.318778
O O5 0.609847 0.067974 0.578440
O O6 0.334831 0.000403 0.218453
O O7 0.035751 0.094007 0.052067
O O8 0.364255 0.275789 0.004933
O O9 0.881209 0.336395 0.663275
O O10 0.433249 0.391335 0.106140
O O11 0.302457 0.317087 0.140760
O O12 0.490186 0.190077 0.980464
#
# Coordination Sequence:
#
# PCOD8124738 Si02
#       6
#     4   4   4   4   4   4
#     4  10  20  33  52  75 101 133 166 207 253 298
#     4  10  20  34  54  78 103 132 167 210 256 300
#     4  10  20  33  52  75 101 133 166 207 253 298
#     4  10  20  34  54  78 103 132 167 210 256 300
#     4  10  20  33  51  75 102 133 167 205 251 300
#     4  10  20  33  51  75 102 133 167 205 251 300
#
# _framework density 18.751653000000001
#
# number of rings (size 3 to 8) (size 9 to 14) (size 15 to 20)
#    0.000    2.000    0.000    4.000    0.000    5.333 
#    0.000    0.000    0.000    6.000    0.000    0.000 
#    0.000    0.000    0.000    0.000    0.000    0.000 
#
# Total GULP energy -297598.481474 kJ/mol
# GULP energy per Si atom -12399.936728 kJ/mol
# Density = 1.870897 g / cm^3
# Si number density = 18.751653 Si / 1000 Ang^3
#
#
#
# Elastic Constant Matrix: (Units=GPa)
#
#
# Indices 1 2 3 4 5 6 
#
# 1 73.2207 28.4808 0.2564 0.0000 6.5226 0.0000
# 2 28.4808 72.2931 24.6358 0.0000 19.8024 0.0000
# 3 0.2564 24.6358 80.5469 0.0000 -1.7662 0.0000
# 4 0.0000 0.0000 0.0000 27.5086 0.0000 7.1938
# 5 6.5226 19.8024 -1.7662 0.0000 20.4613 0.0000
# 6 0.0000 0.0000 0.0000 7.1938 0.0000 15.6943
#
#
#
# Elastic Compliance Matrix: (Units=1/GPa)
#
#
# Indices 1 2 3 4 5 6 
#
# 1 0.016569 -0.008155 0.002503 0.000000 0.002827 0.000000
# 2 -0.008155 0.026488 -0.008597 0.000000 -0.023777 0.000000
# 3 0.002503 -0.008597 0.015230 0.000000 0.008837 0.000000
# 4 0.000000 0.000000 0.000000 0.041303 0.000000 -0.018932
# 5 0.002827 -0.023777 0.008837 0.000000 0.071746 0.000000
# 6 0.000000 0.000000 0.000000 -0.018932 0.000000 0.072396
#
#
# Mechanical properties :
#
#
# Convention : Reuss Voigt Hill
#
# Bulk Modulus (GPa) = 33.56784 36.97852 35.27318
# Shear Modulus (GPa) = 17.72051 24.24536 20.98294
#
# Velocity S-wave (km/s) = 3.07744 3.59969 3.34876
# Velocity P-wave (km/s) = 5.52880 6.08605 5.81410
#
# Compressibility (1/GPa) = 0.02979042
#
# Stress axis : x y z
#
# Youngs Moduli (GPa) = 60.35446 37.75294 65.65825
#
# Poissons Ratio (x) = 0.30787 -0.16437
# Poissons Ratio (y) = 0.49218 0.56446
# Poissons Ratio (z) = -0.15110 0.32456
#
# Static dielectric constant tensor:
#      x y z
#    x 3.140980 0.000000 -0.166750 
#    y 0.000000 3.285120 0.000000 
#    z -0.166750 0.000000 3.684760 
# 
# 
# High freq. dielectric constant tensor:
#      x y z
#    x 1.714620 0.000000 -0.013100 
#    y 0.000000 1.701500 0.000000 
#    z -0.013100 0.000000 1.750750 
# 
# From -- ./inp_files/21157.got.cif
#   From: 2010.03.12/outbox.cif.g09.slc.cpg/sg14_11_cif.got.tgz:21157.got - 2010.03.31 13:35:05.
