data_PCOD8124450
_publ_section_title
;
Structure prediction by ZEFSAII (Michael W. Deem and Ramdas Pophale) SiO2 
 PCOD8124450
Probable space group: P 21/C
;
_chemical_formula_sum "Si O2"
_cell_formula_units_Z 24
_cell_length_a 8.831643
_cell_length_b 14.121541
_cell_length_c 14.137612
_cell_angle_alpha 90.000000
_cell_angle_beta 43.766028
_cell_angle_gamma 90.000000
_cell_volume 1219.626673
_symmetry_space_group_name_H-M "P 21/C"
_symmetry_group_IT_number 14
_symmetry_cell_setting 'monoclinic'
loop_
_space_group_symop_operation_xyz
x,y,z
-x,1/2+y,1/2-z
-x,-y,-z
x,1/2-y,1/2+z
loop_
_atom_site_type_symbol
_atom_site_label
_atom_site_fract_x
_atom_site_fract_y
_atom_site_fract_z
Si Si1 0.124007 0.514781 0.188468
Si Si2 0.415804 0.318194 0.328409
Si Si3 0.496423 0.390142 0.758481
Si Si4 0.484336 0.570814 0.894779
Si Si5 0.355930 0.520950 0.657259
Si Si6 0.967105 0.094728 0.070963
O O1 0.296415 0.431352 0.138912
O O2 0.903616 0.468993 0.244612
O O3 0.049996 0.579069 0.309273
O O4 0.256867 0.582212 0.054879
O O5 0.402277 0.205609 0.345149
O O6 0.494119 0.342587 0.187088
O O7 0.564949 0.378800 0.333933
O O8 0.164443 0.337995 0.459414
O O9 0.478412 0.470188 0.845409
O O10 0.386221 0.430659 0.713032
O O11 0.747868 0.361565 0.625893
O O12 0.500000 0.500000 0.500000
O O13 0.000000 0.000000 0.000000
#
# Coordination Sequence:
#
# PCOD8124450 Si02
#       6
#     4   4   4   4   4   4
#     4  10  19  37  64  85 119 160 207 256 309 361
#     4  11  22  39  64  89 123 167 208 251 314 374
#     4  10  23  38  61  93 123 164 213 249 316 373
#     4   9  21  40  60  85 127 167 194 255 325 360
#     4  11  21  39  63  93 121 160 215 262 297 367
#     4  11  18  41  65  81 126 176 200 242 322 385
#
# _framework density 19.678152999999998
#
# number of rings (size 3 to 8) (size 9 to 14) (size 15 to 20)
#    0.000    1.667    6.667    0.000    0.000    5.333 
#    9.000    3.333    3.667    0.000    0.000    0.000 
#    0.000    0.000    0.000    0.000    0.000    0.000 
#
# Total GULP energy -297389.680607 kJ/mol
# GULP energy per Si atom -12391.236692 kJ/mol
# Density = 1.963336 g / cm^3
# Si number density = 19.678153 Si / 1000 Ang^3
#
#
#
# Elastic Constant Matrix: (Units=GPa)
#
#
# Indices 1 2 3 4 5 6 
#
# 1 118.2318 26.6967 43.5002 0.0000 -16.7660 0.0000
# 2 26.6967 95.1463 17.4874 0.0000 -5.9171 0.0000
# 3 43.5002 17.4874 126.4491 0.0000 -7.5153 0.0000
# 4 0.0000 0.0000 0.0000 25.0898 0.0000 -4.8680
# 5 -16.7660 -5.9171 -7.5153 0.0000 40.8249 0.0000
# 6 0.0000 0.0000 0.0000 -4.8680 0.0000 13.6488
#
#
#
# Elastic Compliance Matrix: (Units=1/GPa)
#
#
# Indices 1 2 3 4 5 6 
#
# 1 0.010595 -0.002181 -0.003138 0.000000 0.003458 0.000000
# 2 -0.002181 0.011302 -0.000777 0.000000 0.000599 0.000000
# 3 -0.003138 -0.000777 0.009112 0.000000 0.000276 0.000000
# 4 0.000000 0.000000 0.000000 0.042820 0.000000 0.015272
# 5 0.003458 0.000599 0.000276 0.000000 0.026052 0.000000
# 6 0.000000 0.000000 0.000000 0.015272 0.000000 0.078714
#
#
# Mechanical properties :
#
#
# Convention : Reuss Voigt Hill
#
# Bulk Modulus (GPa) = 53.14320 57.24397 55.19358
# Shear Modulus (GPa) = 25.37306 32.72223 29.04764
#
# Velocity S-wave (km/s) = 3.59472 4.08226 3.84622
# Velocity P-wave (km/s) = 6.65539 7.16750 6.91618
#
# Compressibility (1/GPa) = 0.01881708
#
# Stress axis : x y z
#
# Youngs Moduli (GPa) = 94.38226 88.47813 109.74983
#
# Poissons Ratio (x) = 0.19298 0.34437
# Poissons Ratio (y) = 0.20586 0.08529
# Poissons Ratio (z) = 0.29615 0.06876
#
# Static dielectric constant tensor:
#      x y z
#    x 3.888370 0.000000 0.002040 
#    y 0.000000 3.146930 0.000000 
#    z 0.002040 0.000000 3.703360 
# 
# 
# High freq. dielectric constant tensor:
#      x y z
#    x 1.776060 0.000000 -0.003210 
#    y 0.000000 1.730640 0.000000 
#    z -0.003210 0.000000 1.788230 
# 
# From -- ./inp_files/41055.got.cif
#   From: 2010.03.12/outbox.cif.g09.slc.cpg/sg14_21_cif.got.tgz:41055.got - 2010.03.31 13:35:05.
