data_PCOD8124566
_publ_section_title
;
Structure prediction by ZEFSAII (Michael W. Deem and Ramdas Pophale) SiO2 
 PCOD8124566
Probable space group: P 21/C
;
_chemical_formula_sum "Si O2"
_cell_formula_units_Z 20
_cell_length_a 7.045518
_cell_length_b 11.217183
_cell_length_c 12.491634
_cell_angle_alpha 90.000000
_cell_angle_beta 124.783322
_cell_angle_gamma 90.000000
_cell_volume 810.822700
_symmetry_space_group_name_H-M "P 21/C"
_symmetry_group_IT_number 14
_symmetry_cell_setting 'monoclinic'
loop_
_space_group_symop_operation_xyz
x,y,z
-x,1/2+y,1/2-z
-x,-y,-z
x,1/2-y,1/2+z
loop_
_atom_site_type_symbol
_atom_site_label
_atom_site_fract_x
_atom_site_fract_y
_atom_site_fract_z
Si Si1 0.054340 0.617111 0.705790
Si Si2 0.249454 0.396088 0.584985
Si Si3 0.581924 0.864725 0.415610
Si Si4 0.230977 0.316680 0.809715
Si Si5 0.663236 0.932066 0.222269
O O1 0.986251 0.586888 0.560080
O O2 0.001359 0.756320 0.717161
O O3 0.897632 0.531399 0.733428
O O4 0.320290 0.597665 0.810214
O O5 0.366785 0.273998 0.584937
O O6 0.181673 0.399699 0.689946
O O7 0.441648 0.492917 0.616310
O O8 0.649622 0.897813 0.559563
O O9 0.717809 0.940617 0.367879
O O10 0.398074 0.206868 0.826524
#
# Coordination Sequence:
#
# PCOD8124566 Si02
#       5
#     4   4   4   4   4
#     4   9  20  36  57  81 108 145 187 221 273 330
#     4  10  19  39  59  80 115 146 181 236 267 326
#     4  10  20  38  56  80 115 144 179 233 279 321
#     4   8  20  36  55  80 113 144 177 234 269 326
#     4   9  20  37  57  85 110 141 194 223 271 330
#
# _framework density 24.666305000000001
#
# number of rings (size 3 to 8) (size 9 to 14) (size 15 to 20)
#    1.200    1.600    0.000    0.600    0.000    4.800 
#    3.600    1.000    0.000    0.000    0.000    0.000 
#    0.000    0.000    0.000    0.000    0.000    0.000 
#
# Total GULP energy -247823.087133 kJ/mol
# GULP energy per Si atom -12391.154357 kJ/mol
# Density = 2.461016 g / cm^3
# Si number density = 24.666305 Si / 1000 Ang^3
#
#
#
# Elastic Constant Matrix: (Units=GPa)
#
#
# Indices 1 2 3 4 5 6 
#
# 1 97.2340 -16.0659 78.0928 0.0000 -31.9722 0.0000
# 2 -16.0659 33.6145 25.0403 0.0000 -4.0971 0.0000
# 3 78.0928 25.0403 198.8191 0.0000 -44.7868 0.0000
# 4 0.0000 0.0000 0.0000 35.0386 0.0000 0.7795
# 5 -31.9722 -4.0971 -44.7868 0.0000 35.4469 0.0000
# 6 0.0000 0.0000 0.0000 0.7795 0.0000 7.2128
#
#
#
# Elastic Compliance Matrix: (Units=1/GPa)
#
#
# Indices 1 2 3 4 5 6 
#
# 1 0.026468 0.021813 -0.010061 0.000000 0.013683 0.000000
# 2 0.021813 0.050907 -0.012891 0.000000 0.009271 0.000000
# 3 -0.010061 -0.012891 0.011498 0.000000 0.003962 0.000000
# 4 0.000000 0.000000 0.000000 0.028609 0.000000 -0.003092
# 5 0.013683 0.009271 0.003962 0.000000 0.046630 0.000000
# 6 0.000000 0.000000 0.000000 -0.003092 0.000000 0.138976
#
#
# Mechanical properties :
#
#
# Convention : Reuss Voigt Hill
#
# Bulk Modulus (GPa) = 11.54799 55.97799 33.76299
# Shear Modulus (GPa) = 14.95968 31.71304 23.33636
#
# Velocity S-wave (km/s) = 2.46536 3.58953 3.07918
# Velocity P-wave (km/s) = 3.57713 6.31847 5.13414
#
# Compressibility (1/GPa) = 0.08659516
#
# Stress axis : x y z
#
# Youngs Moduli (GPa) = 37.78084 19.64358 86.97378
#
# Poissons Ratio (x) = -0.42849 0.87508
# Poissons Ratio (y) = -0.82412 1.12116
# Poissons Ratio (z) = 0.38013 0.25322
#
# Static dielectric constant tensor:
#      x y z
#    x 4.283530 0.000000 -0.593630 
#    y 0.000000 4.335070 0.000000 
#    z -0.593630 0.000000 4.624490 
# 
# 
# High freq. dielectric constant tensor:
#      x y z
#    x 1.970230 0.000000 -0.030850 
#    y 0.000000 1.989690 0.000000 
#    z -0.030850 0.000000 1.982120 
# 
# From -- ./inp_files/25073.got.cif
#   From: 2010.03.12/outbox.cif.g09.slc.cpg/sg14_13_cif.got.tgz:25073.got - 2010.03.31 13:35:05.
