data_PCOD8124758
_publ_section_title
;
Structure prediction by ZEFSAII (Michael W. Deem and Ramdas Pophale) SiO2 
 PCOD8124758
Probable space group: P 21/C
;
_chemical_formula_sum "Si O2"
_cell_formula_units_Z 32
_cell_length_a 18.812823
_cell_length_b 13.576720
_cell_length_c 8.796321
_cell_angle_alpha 90.000000
_cell_angle_beta 134.838753
_cell_angle_gamma 90.000000
_cell_volume 1593.139114
_symmetry_space_group_name_H-M "P 21/C"
_symmetry_group_IT_number 14
_symmetry_cell_setting 'monoclinic'
loop_
_space_group_symop_operation_xyz
x,y,z
-x,1/2+y,1/2-z
-x,-y,-z
x,1/2-y,1/2+z
loop_
_atom_site_type_symbol
_atom_site_label
_atom_site_fract_x
_atom_site_fract_y
_atom_site_fract_z
Si Si1 0.078275 0.866155 0.363465
Si Si2 0.816260 0.092933 0.919442
Si Si3 0.632613 0.225365 0.553283
Si Si4 0.656369 0.961078 0.226302
Si Si5 0.468770 0.640849 0.359457
Si Si6 0.750218 0.098813 0.148209
Si Si7 0.142929 0.048867 0.290165
Si Si8 0.014847 0.787320 0.963652
O O1 0.185113 0.865721 0.607439
O O2 0.999352 0.825539 0.374420
O O3 0.067367 0.976359 0.274195
O O4 0.070749 0.789563 0.210774
O O5 0.712549 0.141566 0.713294
O O6 0.835539 0.997177 0.842933
O O7 0.810846 0.064813 0.090129
O O8 0.908946 0.166952 0.044091
O O9 0.539087 0.174667 0.326791
O O10 0.588480 0.276672 0.633070
O O11 0.680863 0.306784 0.511489
O O12 0.753829 0.928628 0.467863
O O13 0.590552 0.038196 0.221351
O O14 0.686713 0.004968 0.107915
O O15 0.584851 0.867607 0.084816
O O16 0.089319 0.153765 0.186547
#
# Coordination Sequence:
#
# PCOD8124758 Si02
#       8
#     4   4   4   4   4   4   4   4
#     4  10  20  35  56  84 117 155 199 239 286 350
#     4  11  19  32  56  88 117 145 189 245 288 341
#     4  11  19  31  56  89 114 137 188 237 295 343
#     4   9  20  39  58  78 118 153 189 234 301 351
#     4  10  20  36  58  87 113 149 186 244 296 349
#     4  10  20  33  58  89 113 150 191 244 289 342
#     4  10  22  40  58  84 122 162 197 246 296 346
#     4  11  22  36  58  87 121 158 196 244 300 345
#
# _framework density 20.086129
#
# number of rings (size 3 to 8) (size 9 to 14) (size 15 to 20)
#    0.000    1.750    3.750    2.250    3.500    0.000 
#    0.000   14.375    0.000    0.000    0.000    0.000 
#    0.000    0.000    0.000    0.000    0.000    0.000 
#
# Total GULP energy -396437.330806 kJ/mol
# GULP energy per Si atom -12388.666588 kJ/mol
# Density = 2.004041 g / cm^3
# Si number density = 20.086129 Si / 1000 Ang^3
#
#
#
# Elastic Constant Matrix: (Units=GPa)
#
#
# Indices 1 2 3 4 5 6 
#
# 1 66.0156 30.8799 43.8217 0.0000 -0.7130 0.0000
# 2 30.8799 50.5442 30.2847 0.0000 6.2237 0.0000
# 3 43.8217 30.2847 100.5555 0.0000 2.4449 0.0000
# 4 0.0000 0.0000 0.0000 24.2838 0.0000 12.3883
# 5 -0.7130 6.2237 2.4449 0.0000 26.0940 0.0000
# 6 0.0000 0.0000 0.0000 12.3883 0.0000 26.4612
#
#
#
# Elastic Compliance Matrix: (Units=1/GPa)
#
#
# Indices 1 2 3 4 5 6 
#
# 1 0.025840 -0.011587 -0.007873 0.000000 0.004207 0.000000
# 2 -0.011587 0.030031 -0.003822 0.000000 -0.007121 0.000000
# 3 -0.007873 -0.003822 0.014543 0.000000 -0.000666 0.000000
# 4 0.000000 0.000000 0.000000 0.054101 0.000000 -0.025328
# 5 0.004207 -0.007121 -0.000666 0.000000 0.040199 0.000000
# 6 0.000000 0.000000 0.000000 -0.025328 0.000000 0.049649
#
#
# Mechanical properties :
#
#
# Convention : Reuss Voigt Hill
#
# Bulk Modulus (GPa) = 41.93062 47.45422 44.69242
# Shear Modulus (GPa) = 18.59586 22.84307 20.71946
#
# Velocity S-wave (km/s) = 3.04601 3.37598 3.21523
# Velocity P-wave (km/s) = 5.76989 6.23482 6.00685
#
# Compressibility (1/GPa) = 0.02384892
#
# Stress axis : x y z
#
# Youngs Moduli (GPa) = 38.69960 33.29934 68.76104
#
# Poissons Ratio (x) = 0.38585 0.54139
# Poissons Ratio (y) = 0.44843 0.26277
# Poissons Ratio (z) = 0.30470 0.12725
#
# Static dielectric constant tensor:
#      x y z
#    x 3.589810 0.000000 -0.117400 
#    y 0.000000 3.638430 0.000000 
#    z -0.117400 0.000000 3.675640 
# 
# 
# High freq. dielectric constant tensor:
#      x y z
#    x 1.761590 0.000000 -0.014690 
#    y 0.000000 1.754620 0.000000 
#    z -0.014690 0.000000 1.793590 
# 
# From -- ./inp_files/19081.got.cif
#   From: 2010.03.12/outbox.cif.g09.slc.cpg/sg14_10_cif.got.tgz:19081.got - 2010.03.31 13:35:05.
