data_PCOD8124987
_publ_section_title
;
Structure prediction by ZEFSAII (Michael W. Deem and Ramdas Pophale) SiO2 
 PCOD8124987
Probable space group: P 21/C
;
_chemical_formula_sum "Si O2"
_cell_formula_units_Z 28
_cell_length_a 9.374890
_cell_length_b 13.446936
_cell_length_c 19.751271
_cell_angle_alpha 90.000000
_cell_angle_beta 145.644610
_cell_angle_gamma 90.000000
_cell_volume 1405.119948
_symmetry_space_group_name_H-M "P 21/C"
_symmetry_group_IT_number 14
_symmetry_cell_setting 'monoclinic'
loop_
_space_group_symop_operation_xyz
x,y,z
-x,1/2+y,1/2-z
-x,-y,-z
x,1/2-y,1/2+z
loop_
_atom_site_type_symbol
_atom_site_label
_atom_site_fract_x
_atom_site_fract_y
_atom_site_fract_z
Si Si1 0.292079 0.000583 0.823471
Si Si2 0.640956 0.503447 0.862543
Si Si3 0.178663 0.369283 0.657742
Si Si4 0.004247 0.101106 0.409708
Si Si5 0.422909 0.165614 0.771432
Si Si6 0.979964 0.318258 0.441247
Si Si7 0.160245 0.479508 0.419127
O O1 0.370199 0.101357 0.816984
O O2 0.127998 0.025674 0.825583
O O3 0.125155 0.926639 0.712092
O O4 0.554183 0.948463 0.948396
O O5 0.364584 0.456966 0.755492
O O6 0.816568 0.419197 0.898573
O O7 0.663649 0.604580 0.828076
O O8 0.742716 0.534231 0.977460
O O9 0.253509 0.263191 0.717376
O O10 0.177333 0.357582 0.575605
O O11 0.910147 0.409005 0.581530
O O12 0.068882 0.217725 0.438826
O O13 0.713954 0.195862 0.875291
O O14 0.968863 0.400977 0.378451
#
# Coordination Sequence:
#
# PCOD8124987 Si02
#       7
#     4   4   4   4   4   4   4
#     4  10  24  44  60  87 130 177 200 252 315 377
#     4  10  20  36  57  93 124 154 195 262 317 358
#     4  12  22  37  66  96 121 158 212 265 307 367
#     4  10  21  37  62  88 126 160 203 256 318 363
#     4  11  21  36  64  93 121 154 210 261 314 363
#     4  12  21  36  66  97 116 160 211 266 305 366
#     4  11  24  41  63  88 130 168 212 250 309 380
#
# _framework density 19.927123999999999
#
# number of rings (size 3 to 8) (size 9 to 14) (size 15 to 20)
#    0.000    1.143    5.714    2.143    0.000    1.143 
#    0.000    0.714    0.000    0.000    0.000    0.000 
#    0.000    0.000    0.000    0.000    0.000    0.000 
#
# Total GULP energy -347109.264738 kJ/mol
# GULP energy per Si atom -12396.759455 kJ/mol
# Density = 1.988177 g / cm^3
# Si number density = 19.927124 Si / 1000 Ang^3
#
#
#
# Elastic Constant Matrix: (Units=GPa)
#
#
# Indices 1 2 3 4 5 6 
#
# 1 77.1745 38.1553 30.2652 0.0000 -22.0382 0.0000
# 2 38.1553 112.1984 42.0802 0.0000 -9.8208 0.0000
# 3 30.2652 42.0802 111.4821 0.0000 -15.1230 0.0000
# 4 0.0000 0.0000 0.0000 27.3008 0.0000 7.6063
# 5 -22.0382 -9.8208 -15.1230 0.0000 29.0779 0.0000
# 6 0.0000 0.0000 0.0000 7.6063 0.0000 17.9866
#
#
#
# Elastic Compliance Matrix: (Units=1/GPa)
#
#
# Indices 1 2 3 4 5 6 
#
# 1 0.019593 -0.004915 -0.001802 0.000000 0.012253 0.000000
# 2 -0.004915 0.011683 -0.003277 0.000000 -0.001483 0.000000
# 3 -0.001802 -0.003277 0.011147 0.000000 0.003325 0.000000
# 4 0.000000 0.000000 0.000000 0.041521 0.000000 -0.017559
# 5 0.012253 -0.001483 0.003325 0.000000 0.044905 0.000000
# 6 0.000000 0.000000 0.000000 -0.017559 0.000000 0.063022
#
#
# Mechanical properties :
#
#
# Convention : Reuss Voigt Hill
#
# Bulk Modulus (GPa) = 44.57043 57.98403 51.27723
# Shear Modulus (GPa) = 22.79591 27.56336 25.17963
#
# Velocity S-wave (km/s) = 3.38592 3.72319 3.55855
# Velocity P-wave (km/s) = 6.14013 6.90247 6.53243
#
# Compressibility (1/GPa) = 0.02243640
#
# Stress axis : x y z
#
# Youngs Moduli (GPa) = 51.03867 85.59207 89.70851
#
# Poissons Ratio (x) = 0.42066 0.16165
# Poissons Ratio (y) = 0.25084 0.29397
# Poissons Ratio (z) = 0.09197 0.28048
#
# Static dielectric constant tensor:
#      x y z
#    x 3.292130 0.000000 0.062150 
#    y 0.000000 3.551740 0.000000 
#    z 0.062150 0.000000 3.815470 
# 
# 
# High freq. dielectric constant tensor:
#      x y z
#    x 1.738430 0.000000 0.005890 
#    y 0.000000 1.780090 0.000000 
#    z 0.005890 0.000000 1.788890 
# 
# From -- ./inp_files/24878.got.cif
#   From: 2010.03.12/outbox.cif.g09.slc.cpg/sg14_13_cif.got.tgz:24878.got - 2010.03.31 13:35:05.
