data_PCOD8124371
_publ_section_title
;
Structure prediction by ZEFSAII (Michael W. Deem and Ramdas Pophale) SiO2 
 PCOD8124371
Probable space group: P 21/C
;
_chemical_formula_sum "Si O2"
_cell_formula_units_Z 32
_cell_length_a 17.738881
_cell_length_b 17.356241
_cell_length_c 5.176711
_cell_angle_alpha 90.000000
_cell_angle_beta 90.438394
_cell_angle_gamma 90.000000
_cell_volume 1593.760649
_symmetry_space_group_name_H-M "P 21/C"
_symmetry_group_IT_number 14
_symmetry_cell_setting 'monoclinic'
loop_
_space_group_symop_operation_xyz
x,y,z
-x,1/2+y,1/2-z
-x,-y,-z
x,1/2-y,1/2+z
loop_
_atom_site_type_symbol
_atom_site_label
_atom_site_fract_x
_atom_site_fract_y
_atom_site_fract_z
Si Si1 0.933933 0.923999 0.721146
Si Si2 0.695656 0.213045 0.262647
Si Si3 0.907787 0.021020 0.219581
Si Si4 0.741340 0.042404 0.234432
Si Si5 0.299354 0.447335 0.767034
Si Si6 0.809814 0.802638 0.761072
Si Si7 0.524548 0.545941 0.250654
Si Si8 0.523730 0.214195 0.256624
O O1 0.916323 0.954245 0.433712
O O2 0.892543 0.842326 0.756024
O O3 0.904657 0.983647 0.935449
O O4 0.024605 0.916553 0.756523
O O5 0.736609 0.249752 0.514122
O O6 0.695793 0.120960 0.262864
O O7 0.609842 0.242968 0.262191
O O8 0.829340 0.064336 0.262552
O O9 0.717118 0.983201 0.454521
O O10 0.725931 0.005593 0.956102
O O11 0.255223 0.367053 0.743763
O O12 0.387889 0.432258 0.744400
O O13 0.800808 0.746104 0.520066
O O14 0.500000 0.500000 0.500000
O O15 0.476889 0.623124 0.250397
O O16 0.500000 0.500000 0.000000
O O17 0.482097 0.248435 0.507944
#
# Coordination Sequence:
#
# PCOD8124371 Si02
#       8
#     4   4   4   4   4   4   4   4
#     4  10  20  38  59  92 117 160 211 246 301 362
#     4  10  21  36  56  86 115 150 190 243 312 371
#     4  10  19  36  65  86 121 155 206 257 292 362
#     4  12  21  40  64  91 123 162 201 264 298 379
#     4  12  25  40  63  92 122 162 219 249 321 378
#     4  12  24  40  61  91 135 172 209 265 315 370
#     4  12  25  42  63  91 121 158 206 276 315 364
#     4  10  21  38  59  79 112 155 196 236 304 380
#
# _framework density 20.078298
#
# number of rings (size 3 to 8) (size 9 to 14) (size 15 to 20)
#    0.000    1.000    2.500    5.250    0.000    3.000 
#    0.000    1.250    0.000    0.000    0.000    0.000 
#    0.000    0.000    0.000    0.000    0.000    0.000 
#
# Total GULP energy -396817.203157 kJ/mol
# GULP energy per Si atom -12400.537599 kJ/mol
# Density = 2.003260 g / cm^3
# Si number density = 20.078298 Si / 1000 Ang^3
#
#
#
# Elastic Constant Matrix: (Units=GPa)
#
#
# Indices 1 2 3 4 5 6 
#
# 1 83.4692 7.7380 8.6445 0.0000 -7.1572 0.0000
# 2 7.7380 102.1167 32.5800 0.0000 1.9597 0.0000
# 3 8.6445 32.5800 123.1578 0.0000 -3.8604 0.0000
# 4 0.0000 0.0000 0.0000 44.9625 0.0000 -1.8442
# 5 -7.1572 1.9597 -3.8604 0.0000 19.2054 0.0000
# 6 0.0000 0.0000 0.0000 -1.8442 0.0000 36.5791
#
#
#
# Elastic Compliance Matrix: (Units=1/GPa)
#
#
# Indices 1 2 3 4 5 6 
#
# 1 0.012513 -0.000878 -0.000500 0.000000 0.004652 0.000000
# 2 -0.000878 0.010811 -0.002861 0.000000 -0.002005 0.000000
# 3 -0.000500 -0.002861 0.008971 0.000000 0.001909 0.000000
# 4 0.000000 0.000000 0.000000 0.022287 0.000000 0.001124
# 5 0.004652 -0.002005 0.001909 0.000000 0.054391 0.000000
# 6 0.000000 0.000000 0.000000 0.001124 0.000000 0.027395
#
#
# Mechanical properties :
#
#
# Convention : Reuss Voigt Hill
#
# Bulk Modulus (GPa) = 41.98798 45.18542 43.58670
# Shear Modulus (GPa) = 32.72601 37.46815 35.09708
#
# Velocity S-wave (km/s) = 4.04161 4.32453 4.18546
# Velocity P-wave (km/s) = 6.53735 6.89121 6.71661
#
# Compressibility (1/GPa) = 0.02381634
#
# Stress axis : x y z
#
# Youngs Moduli (GPa) = 79.91981 92.50244 111.46449
#
# Poissons Ratio (x) = 0.08120 0.05576
# Poissons Ratio (y) = 0.07016 0.31891
# Poissons Ratio (z) = 0.03998 0.26465
#
# Static dielectric constant tensor:
#      x y z
#    x 3.859840 0.000000 -0.008790 
#    y 0.000000 3.437000 0.000000 
#    z -0.008790 0.000000 4.187200 
# 
# 
# High freq. dielectric constant tensor:
#      x y z
#    x 1.778030 0.000000 -0.001580 
#    y 0.000000 1.768340 0.000000 
#    z -0.001580 0.000000 1.815840 
# 
# From -- ./inp_files/4187.got.cif
#   From: 2010.03.12/outbox.cif.g09.slc.cpg/sg14_3_cif.got.tgz:4187.got - 2010.03.31 13:35:05.
