data_PCOD8124294
_publ_section_title
;
Structure prediction by ZEFSAII (Michael W. Deem and Ramdas Pophale) SiO2 
 PCOD8124294
Probable space group: P 21/C
;
_chemical_formula_sum "Si O2"
_cell_formula_units_Z 28
_cell_length_a 10.016171
_cell_length_b 8.374930
_cell_length_c 23.883816
_cell_angle_alpha 90.000000
_cell_angle_beta 43.388769
_cell_angle_gamma 90.000000
_cell_volume 1376.285859
_symmetry_space_group_name_H-M "P 21/C"
_symmetry_group_IT_number 14
_symmetry_cell_setting 'monoclinic'
loop_
_space_group_symop_operation_xyz
x,y,z
-x,1/2+y,1/2-z
-x,-y,-z
x,1/2-y,1/2+z
loop_
_atom_site_type_symbol
_atom_site_label
_atom_site_fract_x
_atom_site_fract_y
_atom_site_fract_z
Si Si1 0.228377 0.950991 0.476543
Si Si2 0.588762 0.538194 0.678970
Si Si3 0.141984 0.215673 0.419082
Si Si4 0.953371 0.591459 0.858162
Si Si5 0.335643 0.061772 0.652103
Si Si6 0.289332 0.822910 0.758598
Si Si7 0.255384 0.332196 0.757299
O O1 0.244522 0.066221 0.418081
O O2 0.117360 0.047638 0.558465
O O3 0.440587 0.890882 0.428218
O O4 0.091777 0.796796 0.503670
O O5 0.768432 0.613881 0.587414
O O6 0.429641 0.679852 0.735875
O O7 0.674826 0.473501 0.711454
O O8 0.476741 0.396650 0.680963
O O9 0.218890 0.212178 0.332376
O O10 0.764683 0.585133 0.876890
O O11 0.064848 0.761307 0.829087
O O12 0.100890 0.464867 0.785845
O O13 0.226279 0.181389 0.726984
O O14 0.325396 0.885459 0.683584
#
# Coordination Sequence:
#
# PCOD8124294 Si02
#       7
#     4   4   4   4   4   4   4
#     4  10  22  38  60  88 121 160 194 240 314 364
#     4  11  18  35  60  92 117 145 193 259 311 342
#     4  10  19  36  58  88 119 145 190 252 300 354
#     4  10  24  39  58  88 123 162 203 238 297 369
#     4  12  20  40  63  84 119 165 205 244 287 366
#     4  11  21  35  64  92 118 154 204 258 299 351
#     4  10  21  35  62  92 114 149 205 252 297 344
#
# _framework density 20.344611
#
# number of rings (size 3 to 8) (size 9 to 14) (size 15 to 20)
#    0.000    1.429    4.286    1.286    0.000    2.286 
#    0.000    2.857    0.000    1.714    0.000    0.000 
#    0.000    0.000    0.000    0.000    0.000    0.000 
#
# Total GULP energy -346972.978400 kJ/mol
# GULP energy per Si atom -12391.892086 kJ/mol
# Density = 2.029831 g / cm^3
# Si number density = 20.344611 Si / 1000 Ang^3
#
#
#
# Elastic Constant Matrix: (Units=GPa)
#
#
# Indices 1 2 3 4 5 6 
#
# 1 85.0692 11.0671 15.2391 0.0000 -23.0004 0.0000
# 2 11.0671 53.0506 9.4601 0.0000 -2.6006 0.0000
# 3 15.2391 9.4601 60.3953 0.0000 -17.7628 0.0000
# 4 0.0000 0.0000 0.0000 30.2829 0.0000 -9.7364
# 5 -23.0004 -2.6006 -17.7628 0.0000 36.3798 0.0000
# 6 0.0000 0.0000 0.0000 -9.7364 0.0000 24.1933
#
#
#
# Elastic Compliance Matrix: (Units=1/GPa)
#
#
# Indices 1 2 3 4 5 6 
#
# 1 0.014552 -0.002480 -0.000735 0.000000 0.008664 0.000000
# 2 -0.002480 0.019815 -0.002945 0.000000 -0.001590 0.000000
# 3 -0.000735 -0.002945 0.019857 0.000000 0.009020 0.000000
# 4 0.000000 0.000000 0.000000 0.037930 0.000000 0.015264
# 5 0.008664 -0.001590 0.009020 0.000000 0.037256 0.000000
# 6 0.000000 0.000000 0.000000 0.015264 0.000000 0.047477
#
#
# Mechanical properties :
#
#
# Convention : Reuss Voigt Hill
#
# Bulk Modulus (GPa) = 23.86480 30.00531 26.93505
# Shear Modulus (GPa) = 24.60931 29.02111 26.81521
#
# Velocity S-wave (km/s) = 3.48174 3.78097 3.63443
# Velocity P-wave (km/s) = 5.28385 5.81735 5.55700
#
# Compressibility (1/GPa) = 0.04190272
#
# Stress axis : x y z
#
# Youngs Moduli (GPa) = 68.71923 50.46783 50.35913
#
# Poissons Ratio (x) = 0.12516 0.03702
# Poissons Ratio (y) = 0.17042 0.14833
# Poissons Ratio (z) = 0.05052 0.14865
#
# Static dielectric constant tensor:
#      x y z
#    x 3.702210 0.000000 -0.325220 
#    y 0.000000 3.843230 0.000000 
#    z -0.325220 0.000000 3.653080 
# 
# 
# High freq. dielectric constant tensor:
#      x y z
#    x 1.793040 0.000000 -0.021560 
#    y 0.000000 1.788960 0.000000 
#    z -0.021560 0.000000 1.781700 
# 
# From -- ./inp_files/50209.got.cif
#   From: 2010.03.12/outbox.cif.g09.slc.cpg/sg14_26_cif.got.tgz:50209.got - 2010.03.31 13:35:05.
