data_PCOD8124191
_publ_section_title
;
Structure prediction by ZEFSAII (Michael W. Deem and Ramdas Pophale) SiO2 
 PCOD8124191
Probable space group: P 21/C
;
_chemical_formula_sum "Si O2"
_cell_formula_units_Z 28
_cell_length_a 8.972370
_cell_length_b 25.269639
_cell_length_c 7.824488
_cell_angle_alpha 90.000000
_cell_angle_beta 131.329121
_cell_angle_gamma 90.000000
_cell_volume 1332.173463
_symmetry_space_group_name_H-M "P 21/C"
_symmetry_group_IT_number 14
_symmetry_cell_setting 'monoclinic'
loop_
_space_group_symop_operation_xyz
x,y,z
-x,1/2+y,1/2-z
-x,-y,-z
x,1/2-y,1/2+z
loop_
_atom_site_type_symbol
_atom_site_label
_atom_site_fract_x
_atom_site_fract_y
_atom_site_fract_z
Si Si1 0.228036 0.513566 0.645318
Si Si2 0.301432 0.120589 0.619821
Si Si3 0.676487 0.184861 0.532613
Si Si4 0.150611 0.860251 0.649751
Si Si5 0.519150 0.922484 0.570053
Si Si6 0.413631 0.556476 0.467913
Si Si7 0.370606 0.700752 0.622759
O O1 0.352372 0.458877 0.703349
O O2 0.259696 0.552898 0.510166
O O3 0.000000 0.500000 0.500000
O O4 0.314866 0.545656 0.874200
O O5 0.343818 0.081337 0.494743
O O6 0.396284 0.093519 0.857767
O O7 0.411270 0.176805 0.679661
O O8 0.070558 0.127724 0.465365
O O9 0.855334 0.170692 0.536221
O O10 0.519118 0.136873 0.391357
O O11 0.746088 0.192812 0.782859
O O12 0.583881 0.238811 0.389798
O O13 0.279211 0.914894 0.720315
O O14 0.248376 0.826918 0.878705
O O15 0.500000 0.500000 0.500000
#
# Coordination Sequence:
#
# PCOD8124191 Si02
#       7
#     4   4   4   4   4   4   4
#     4  10  19  35  58  86 119 159 199 239 293 359
#     4   9  21  40  59  87 125 164 204 252 308 362
#     4  11  21  41  65  86 121 160 202 257 309 366
#     4  11  22  41  63  88 125 161 203 257 302 365
#     4   9  20  36  57  86 121 158 196 245 301 352
#     4  10  21  36  58  90 127 161 202 251 302 361
#     4  10  22  43  60  86 121 158 202 257 314 363
#
# _framework density 21.018283
#
# number of rings (size 3 to 8) (size 9 to 14) (size 15 to 20)
#    0.000    2.000    1.429    2.571    0.000    1.714 
#    5.143    7.143    0.000    0.000    0.000    0.000 
#    0.000    0.000    0.000    0.000    0.000    0.000 
#
# Total GULP energy -346933.627081 kJ/mol
# GULP energy per Si atom -12390.486681 kJ/mol
# Density = 2.097044 g / cm^3
# Si number density = 21.018283 Si / 1000 Ang^3
#
#
#
# Elastic Constant Matrix: (Units=GPa)
#
#
# Indices 1 2 3 4 5 6 
#
# 1 76.3910 37.0541 52.7940 0.0000 -2.6561 0.0000
# 2 37.0541 144.7362 46.1853 0.0000 10.4092 0.0000
# 3 52.7940 46.1853 87.5521 0.0000 16.6463 0.0000
# 4 0.0000 0.0000 0.0000 22.5442 0.0000 -7.2675
# 5 -2.6561 10.4092 16.6463 0.0000 41.0016 0.0000
# 6 0.0000 0.0000 0.0000 -7.2675 0.0000 34.9673
#
#
#
# Elastic Compliance Matrix: (Units=1/GPa)
#
#
# Indices 1 2 3 4 5 6 
#
# 1 0.025312 -0.002052 -0.015812 0.000000 0.008580 0.000000
# 2 -0.002052 0.008479 -0.003035 0.000000 -0.001053 0.000000
# 3 -0.015812 -0.003035 0.024497 0.000000 -0.010199 0.000000
# 4 0.000000 0.000000 0.000000 0.047543 0.000000 0.009881
# 5 0.008580 -0.001053 -0.010199 0.000000 0.029353 0.000000
# 6 0.000000 0.000000 0.000000 0.009881 0.000000 0.030652
#
#
# Mechanical properties :
#
#
# Convention : Reuss Voigt Hill
#
# Bulk Modulus (GPa) = 60.64545 64.52736 62.58641
# Shear Modulus (GPa) = 23.45989 31.21235 27.33612
#
# Velocity S-wave (km/s) = 3.34453 3.85776 3.61028
# Velocity P-wave (km/s) = 6.62049 7.11409 6.87172
#
# Compressibility (1/GPa) = 0.01648928
#
# Stress axis : x y z
#
# Youngs Moduli (GPa) = 39.50724 117.94333 40.82144
#
# Poissons Ratio (x) = 0.24196 0.64548
# Poissons Ratio (y) = 0.08105 0.12391
# Poissons Ratio (z) = 0.62470 0.35800
#
# Static dielectric constant tensor:
#      x y z
#    x 3.951190 0.000000 -0.333930 
#    y 0.000000 4.143170 0.000000 
#    z -0.333930 0.000000 3.570470 
# 
# 
# High freq. dielectric constant tensor:
#      x y z
#    x 1.824620 0.000000 -0.019890 
#    y 0.000000 1.842240 0.000000 
#    z -0.019890 0.000000 1.793030 
# 
# From -- ./inp_files/11193.got.cif
#   From: 2010.03.12/outbox.cif.g09.slc.cpg/sg14_6_cif.got.tgz:11193.got - 2010.03.31 13:35:05.
