data_PCOD8124782
_publ_section_title
;
Structure prediction by ZEFSAII (Michael W. Deem and Ramdas Pophale) SiO2 
 PCOD8124782
Probable space group: P 21/C
;
_chemical_formula_sum "Si O2"
_cell_formula_units_Z 28
_cell_length_a 8.269187
_cell_length_b 11.718590
_cell_length_c 20.638627
_cell_angle_alpha 90.000000
_cell_angle_beta 41.918288
_cell_angle_gamma 90.000000
_cell_volume 1336.106285
_symmetry_space_group_name_H-M "P 21/C"
_symmetry_group_IT_number 14
_symmetry_cell_setting 'monoclinic'
loop_
_space_group_symop_operation_xyz
x,y,z
-x,1/2+y,1/2-z
-x,-y,-z
x,1/2-y,1/2+z
loop_
_atom_site_type_symbol
_atom_site_label
_atom_site_fract_x
_atom_site_fract_y
_atom_site_fract_z
Si Si1 0.735340 0.905356 0.745872
Si Si2 0.537184 0.643438 0.054971
Si Si3 0.302024 0.743342 0.409870
Si Si4 0.300945 0.663144 0.773864
Si Si5 0.208136 0.233391 0.398021
Si Si6 0.926851 0.255459 0.776027
Si Si7 0.336702 0.399156 0.124712
O O1 0.459638 0.867252 0.843339
O O2 0.819476 0.856841 0.651788
O O3 0.909331 0.862912 0.752038
O O4 0.767812 0.040105 0.733597
O O5 0.726164 0.669887 0.054909
O O6 0.385354 0.531590 0.122049
O O7 0.328742 0.742161 0.107994
O O8 0.691422 0.625063 0.943982
O O9 0.233779 0.820319 0.368155
O O10 0.437112 0.825189 0.419511
O O11 0.049644 0.702999 0.516961
O O12 0.591219 0.673917 0.680271
O O13 0.158352 0.759107 0.774068
O O14 0.093301 0.141563 0.735553
#
# Coordination Sequence:
#
# PCOD8124782 Si02
#       7
#     4   4   4   4   4   4   4
#     4  10  21  37  57  81 110 145 182 223 272 322
#     4  10  20  34  55  81 108 142 182 224 272 322
#     4  10  21  36  56  82 112 142 180 224 269 324
#     4  10  21  37  57  81 110 145 182 223 272 322
#     4  10  21  36  56  82 112 142 180 224 269 324
#     4  10  20  34  54  78 108 140 180 226 266 314
#     4  10  20  34  55  81 108 142 182 224 272 322
#
# _framework density 20.956416000000001
#
# number of rings (size 3 to 8) (size 9 to 14) (size 15 to 20)
#    0.000    2.000    0.000    3.429    0.000    5.143 
#    0.000    1.429    0.000   47.143    0.000    0.000 
#    0.000    0.000    0.000    0.000    0.000    0.000 
#
# Total GULP energy -347018.867936 kJ/mol
# GULP energy per Si atom -12393.530998 kJ/mol
# Density = 2.090872 g / cm^3
# Si number density = 20.956416 Si / 1000 Ang^3
#
#
#
# Elastic Constant Matrix: (Units=GPa)
#
#
# Indices 1 2 3 4 5 6 
#
# 1 91.7152 16.5357 21.7936 0.0000 -3.4253 0.0000
# 2 16.5357 60.1298 12.4027 0.0000 3.9259 0.0000
# 3 21.7936 12.4027 82.7038 0.0000 -19.2394 0.0000
# 4 0.0000 0.0000 0.0000 12.8858 0.0000 4.1072
# 5 -3.4253 3.9259 -19.2394 0.0000 36.9615 0.0000
# 6 0.0000 0.0000 0.0000 4.1072 0.0000 26.8647
#
#
#
# Elastic Compliance Matrix: (Units=1/GPa)
#
#
# Indices 1 2 3 4 5 6 
#
# 1 0.012055 -0.002741 -0.002774 0.000000 -0.000036 0.000000
# 2 -0.002741 0.018216 -0.002866 0.000000 -0.003680 0.000000
# 3 -0.002774 -0.002866 0.015090 0.000000 0.007902 0.000000
# 4 0.000000 0.000000 0.000000 0.081580 0.000000 -0.012472
# 5 -0.000036 -0.003680 0.007902 0.000000 0.031556 0.000000
# 6 0.000000 0.000000 0.000000 -0.012472 0.000000 0.039130
#
#
# Mechanical properties :
#
#
# Convention : Reuss Voigt Hill
#
# Bulk Modulus (GPa) = 34.96430 37.33475 36.14952
# Shear Modulus (GPa) = 22.32917 27.59685 24.96301
#
# Velocity S-wave (km/s) = 3.26775 3.63281 3.45510
# Velocity P-wave (km/s) = 5.56400 5.95403 5.76232
#
# Compressibility (1/GPa) = 0.02860060
#
# Stress axis : x y z
#
# Youngs Moduli (GPa) = 82.95116 54.89749 66.26734
#
# Poissons Ratio (x) = 0.15046 0.18383
# Poissons Ratio (y) = 0.22734 0.18990
# Poissons Ratio (z) = 0.23011 0.15732
#
# Static dielectric constant tensor:
#      x y z
#    x 4.049110 0.000000 -0.094620 
#    y 0.000000 3.502510 0.000000 
#    z -0.094620 0.000000 3.778480 
# 
# 
# High freq. dielectric constant tensor:
#      x y z
#    x 1.847550 0.000000 -0.012530 
#    y 0.000000 1.783800 0.000000 
#    z -0.012530 0.000000 1.817890 
# 
# From -- ./inp_files/39760.got.cif
#   From: 2010.03.12/outbox.cif.g09.slc.cpg/sg14_20_cif.got.tgz:39760.got - 2010.03.31 13:35:05.
