data_PCOD8124632
_publ_section_title
;
Structure prediction by ZEFSAII (Michael W. Deem and Ramdas Pophale) SiO2 
 PCOD8124632
Probable space group: P 21/C
;
_chemical_formula_sum "Si O2"
_cell_formula_units_Z 20
_cell_length_a 7.597770
_cell_length_b 13.719626
_cell_length_c 9.458631
_cell_angle_alpha 90.000000
_cell_angle_beta 90.524919
_cell_angle_gamma 90.000000
_cell_volume 985.912724
_symmetry_space_group_name_H-M "P 21/C"
_symmetry_group_IT_number 14
_symmetry_cell_setting 'monoclinic'
loop_
_space_group_symop_operation_xyz
x,y,z
-x,1/2+y,1/2-z
-x,-y,-z
x,1/2-y,1/2+z
loop_
_atom_site_type_symbol
_atom_site_label
_atom_site_fract_x
_atom_site_fract_y
_atom_site_fract_z
Si Si1 0.303839 0.632986 0.224197
Si Si2 0.996344 0.607295 0.439716
Si Si3 0.782326 0.155963 0.816027
Si Si4 0.659433 0.950048 0.805104
Si Si5 0.819459 0.040985 0.553563
O O1 0.122080 0.618018 0.305312
O O2 0.335950 0.747493 0.194047
O O3 0.465009 0.593272 0.319261
O O4 0.300400 0.575433 0.076940
O O5 0.060161 0.676827 0.568997
O O6 0.000000 0.500000 0.500000
O O7 0.794903 0.623349 0.386881
O O8 0.666589 0.061796 0.867468
O O9 0.861456 0.131345 0.661190
O O10 0.715707 0.956798 0.639580
O O11 0.000000 0.000000 0.500000
#
# Coordination Sequence:
#
# PCOD8124632 Si02
#       5
#     4   4   4   4   4
#     4  12  20  39  66  85 131 160 200 266 295 364
#     4  10  20  41  60  86 119 160 207 248 310 361
#     4   9  22  37  60  94 121 160 209 248 308 361
#     4   9  22  39  62  91 116 165 209 241 315 365
#     4  10  19  40  63  86 123 165 202 254 310 361
#
# _framework density 20.285769999999999
#
# number of rings (size 3 to 8) (size 9 to 14) (size 15 to 20)
#    1.200    0.800    2.000    1.800    0.000    3.200 
#    0.000   12.000    0.000    0.000    0.000    0.000 
#    0.000    0.000    0.000    0.000    0.000    0.000 
#
# Total GULP energy -247773.251007 kJ/mol
# GULP energy per Si atom -12388.662550 kJ/mol
# Density = 2.023960 g / cm^3
# Si number density = 20.285770 Si / 1000 Ang^3
#
#
#
# Elastic Constant Matrix: (Units=GPa)
#
#
# Indices 1 2 3 4 5 6 
#
# 1 104.2181 43.7068 26.0876 0.0000 31.7321 0.0000
# 2 43.7068 81.9114 5.5731 0.0000 18.4297 0.0000
# 3 26.0876 5.5731 90.9593 0.0000 28.0401 0.0000
# 4 0.0000 0.0000 0.0000 14.8315 0.0000 0.6306
# 5 31.7321 18.4297 28.0401 0.0000 31.5333 0.0000
# 6 0.0000 0.0000 0.0000 0.6306 0.0000 24.7630
#
#
#
# Elastic Compliance Matrix: (Units=1/GPa)
#
#
# Indices 1 2 3 4 5 6 
#
# 1 0.015787 -0.005647 -0.000416 0.000000 -0.012217 0.000000
# 2 -0.005647 0.016436 0.002510 0.000000 -0.006155 0.000000
# 3 -0.000416 0.002510 0.015543 0.000000 -0.014870 0.000000
# 4 0.000000 0.000000 0.000000 0.067497 0.000000 -0.001719
# 5 -0.012217 -0.006155 -0.014870 0.000000 0.060827 0.000000
# 6 0.000000 0.000000 0.000000 -0.001719 0.000000 0.040427
#
#
# Mechanical properties :
#
#
# Convention : Reuss Voigt Hill
#
# Bulk Modulus (GPa) = 24.59364 47.53597 36.06480
# Shear Modulus (GPa) = 21.08144 27.67363 24.37753
#
# Velocity S-wave (km/s) = 3.22720 3.69750 3.47032
# Velocity P-wave (km/s) = 5.10258 6.45854 5.82018
#
# Compressibility (1/GPa) = 0.04066092
#
# Stress axis : x y z
#
# Youngs Moduli (GPa) = 63.34236 60.84375 64.33587
#
# Poissons Ratio (x) = 0.34358 0.02675
# Poissons Ratio (y) = 0.35769 -0.16149
# Poissons Ratio (z) = 0.02634 -0.15272
#
# Static dielectric constant tensor:
#      x y z
#    x 4.598780 0.000000 1.986550 
#    y 0.000000 3.581640 0.000000 
#    z 1.986550 0.000000 6.431290 
# 
# 
# High freq. dielectric constant tensor:
#      x y z
#    x 1.766830 0.000000 0.017230 
#    y 0.000000 1.766900 0.000000 
#    z 0.017230 0.000000 1.809560 
# 
# From -- ./inp_files/20836.got.cif
#   From: 2010.03.12/outbox.cif.g09.slc.cpg/sg14_11_cif.got.tgz:20836.got - 2010.03.31 13:35:05.
