data_PCOD8124575
_publ_section_title
;
Structure prediction by ZEFSAII (Michael W. Deem and Ramdas Pophale) SiO2 
 PCOD8124575
Probable space group: P 21/C
;
_chemical_formula_sum "Si O2"
_cell_formula_units_Z 32
_cell_length_a 15.666827
_cell_length_b 9.724993
_cell_length_c 10.771121
_cell_angle_alpha 90.000000
_cell_angle_beta 55.864340
_cell_angle_gamma 90.000000
_cell_volume 1358.345046
_symmetry_space_group_name_H-M "P 21/C"
_symmetry_group_IT_number 14
_symmetry_cell_setting 'monoclinic'
loop_
_space_group_symop_operation_xyz
x,y,z
-x,1/2+y,1/2-z
-x,-y,-z
x,1/2-y,1/2+z
loop_
_atom_site_type_symbol
_atom_site_label
_atom_site_fract_x
_atom_site_fract_y
_atom_site_fract_z
Si Si1 0.405567 0.172288 0.519855
Si Si2 0.183133 0.957293 0.933175
Si Si3 0.949977 0.109588 0.178573
Si Si4 0.832157 0.008152 0.592026
Si Si5 0.962396 0.071556 0.698504
Si Si6 0.368381 0.632978 0.116343
Si Si7 0.231135 0.712235 0.032082
Si Si8 0.707792 0.739130 0.636232
O O1 0.528352 0.197137 0.409341
O O2 0.368574 0.227069 0.684293
O O3 0.352517 0.247647 0.445647
O O4 0.385508 0.010569 0.530598
O O5 0.080215 0.942376 0.934364
O O6 0.285429 0.883116 0.793469
O O7 0.211473 0.113813 0.938912
O O8 0.170466 0.859277 0.067680
O O9 0.990567 0.266581 0.158837
O O10 0.839627 0.101386 0.336914
O O11 0.035929 0.000393 0.162975
O O12 0.777344 0.868248 0.606135
O O13 0.944143 0.016194 0.436207
O O14 0.854762 0.031391 0.719288
O O15 0.758375 0.136216 0.610052
O O16 0.332961 0.732870 0.031784
#
# Coordination Sequence:
#
# PCOD8124575 Si02
#       8
#     4   4   4   4   4   4   4   4
#     4  10  22  41  65  97 125 166 209 256 315 378
#     4  10  22  39  61  89 128 159 210 264 314 371
#     4  10  22  37  59  87 121 161 209 263 317 375
#     4  10  21  39  61  83 120 163 208 254 317 383
#     4  10  22  38  58  87 117 162 215 257 314 380
#     4   9  20  40  65  84 124 172 200 248 319 386
#     4  10  19  39  61  85 117 165 207 246 318 380
#     4  11  24  41  65  95 130 163 212 262 316 374
#
# _framework density 23.55808
#
# number of rings (size 3 to 8) (size 9 to 14) (size 15 to 20)
#    0.000    2.000    2.500    0.000    5.250    2.000 
#    0.000    1.875    0.000    0.000    0.000    0.000 
#    0.000    0.000    0.000    0.000    0.000    0.000 
#
# Total GULP energy -396618.528335 kJ/mol
# GULP energy per Si atom -12394.329010 kJ/mol
# Density = 2.350446 g / cm^3
# Si number density = 23.558080 Si / 1000 Ang^3
#
#
#
# Elastic Constant Matrix: (Units=GPa)
#
#
# Indices 1 2 3 4 5 6 
#
# 1 158.5640 83.1096 49.5570 0.0000 36.9679 0.0000
# 2 83.1096 147.1875 21.0635 0.0000 23.0700 0.0000
# 3 49.5570 21.0635 86.4541 0.0000 25.2995 0.0000
# 4 0.0000 0.0000 0.0000 28.8354 0.0000 10.9445
# 5 36.9679 23.0700 25.2995 0.0000 39.4985 0.0000
# 6 0.0000 0.0000 0.0000 10.9445 0.0000 38.7916
#
#
#
# Elastic Compliance Matrix: (Units=1/GPa)
#
#
# Indices 1 2 3 4 5 6 
#
# 1 0.011350 -0.005046 -0.003729 0.000000 -0.005286 0.000000
# 2 -0.005046 0.009754 0.000986 0.000000 -0.001606 0.000000
# 3 -0.003729 0.000986 0.015521 0.000000 -0.007027 0.000000
# 4 0.000000 0.000000 0.000000 0.038839 0.000000 -0.010958
# 5 -0.005286 -0.001606 -0.007027 0.000000 0.035704 0.000000
# 6 0.000000 0.000000 0.000000 -0.010958 0.000000 0.028870
#
#
# Mechanical properties :
#
#
# Convention : Reuss Voigt Hill
#
# Bulk Modulus (GPa) = 47.51723 77.74063 62.62893
# Shear Modulus (GPa) = 30.74444 37.32346 34.03395
#
# Velocity S-wave (km/s) = 3.61646 3.98467 3.80502
# Velocity P-wave (km/s) = 6.13616 7.36487 6.77841
#
# Compressibility (1/GPa) = 0.02104500
#
# Stress axis : x y z
#
# Youngs Moduli (GPa) = 88.10903 102.52199 64.43052
#
# Poissons Ratio (x) = 0.51736 0.24028
# Poissons Ratio (y) = 0.44462 -0.06353
# Poissons Ratio (z) = 0.32859 -0.10109
#
# Static dielectric constant tensor:
#      x y z
#    x 4.547080 0.000000 0.177400 
#    y 0.000000 4.125960 0.000000 
#    z 0.177400 0.000000 4.631420 
# 
# 
# High freq. dielectric constant tensor:
#      x y z
#    x 1.944050 0.000000 0.012940 
#    y 0.000000 1.933400 0.000000 
#    z 0.012940 0.000000 1.950920 
# 
# From -- ./inp_files/31784.got.cif
#   From: 2010.03.12/outbox.cif.g09.slc.cpg/sg14_16_cif.got.tgz:31784.got - 2010.03.31 13:35:05.
