data_PCOD8124204
_publ_section_title
;
Structure prediction by ZEFSAII (Michael W. Deem and Ramdas Pophale) SiO2 
 PCOD8124204
Probable space group: P 21/C
;
_chemical_formula_sum "Si O2"
_cell_formula_units_Z 32
_cell_length_a 28.098712
_cell_length_b 13.128346
_cell_length_c 10.524739
_cell_angle_alpha 90.000000
_cell_angle_beta 25.533463
_cell_angle_gamma 90.000000
_cell_volume 1673.491423
_symmetry_space_group_name_H-M "P 21/C"
_symmetry_group_IT_number 14
_symmetry_cell_setting 'monoclinic'
loop_
_space_group_symop_operation_xyz
x,y,z
-x,1/2+y,1/2-z
-x,-y,-z
x,1/2-y,1/2+z
loop_
_atom_site_type_symbol
_atom_site_label
_atom_site_fract_x
_atom_site_fract_y
_atom_site_fract_z
Si Si1 0.209213 0.100544 0.707342
Si Si2 0.465357 0.151628 0.497272
Si Si3 0.937143 0.059408 0.830264
Si Si4 0.677673 0.024073 0.046112
Si Si5 0.966014 0.739758 0.770828
Si Si6 0.778298 0.618538 0.112542
Si Si7 0.390472 0.287184 0.900715
Si Si8 0.885577 0.087002 0.674038
O O1 0.247720 0.105131 0.471081
O O2 0.319976 0.114121 0.525547
O O3 0.120698 0.189411 0.947552
O O4 0.154762 0.990104 0.857197
O O5 0.581722 0.095727 0.226398
O O6 0.463873 0.244382 0.604635
O O7 0.456993 0.189667 0.370623
O O8 0.367787 0.070829 0.761190
O O9 0.884435 0.047716 0.819493
O O10 0.960656 0.176554 0.805811
O O11 0.051453 0.996565 0.563869
O O12 0.758777 0.093469 0.935839
O O13 0.750860 0.986043 0.750959
O O14 0.051712 0.805132 0.481958
O O15 0.903775 0.657829 0.830958
O O16 0.696351 0.700968 0.363239
#
# Coordination Sequence:
#
# PCOD8124204 Si02
#       8
#     4   4   4   4   4   4   4   4
#     4  10  20  33  59  88 112 152 194 236 288 341
#     4  10  21  38  65  86 111 154 196 246 290 343
#     4  10  20  35  55  84 117 152 192 237 282 352
#     4  10  21  39  59  83 117 156 192 234 300 345
#     4  10  20  34  54  87 117 154 190 235 284 348
#     4  10  19  35  59  85 116 150 192 238 286 348
#     4  10  19  37  63  89 114 143 199 245 289 341
#     4  10  20  37  57  80 118 155 192 233 293 348
#
# _framework density 19.121699
#
# number of rings (size 3 to 8) (size 9 to 14) (size 15 to 20)
#    0.000    2.000    2.500    1.500    0.000    2.500 
#    4.500    0.625    0.000    0.000    0.000    0.000 
#    0.000    0.000    0.000    0.000    0.000    0.000 
#
# Total GULP energy -396666.495658 kJ/mol
# GULP energy per Si atom -12395.827989 kJ/mol
# Density = 1.907818 g / cm^3
# Si number density = 19.121699 Si / 1000 Ang^3
#
#
#
# Elastic Constant Matrix: (Units=GPa)
#
#
# Indices 1 2 3 4 5 6 
#
# 1 118.6426 29.2609 44.2865 0.0000 -2.6471 0.0000
# 2 29.2609 69.6165 29.2404 0.0000 -7.7636 0.0000
# 3 44.2865 29.2404 62.9866 0.0000 -6.8553 0.0000
# 4 0.0000 0.0000 0.0000 15.1035 0.0000 -1.1834
# 5 -2.6471 -7.7636 -6.8553 0.0000 28.9533 0.0000
# 6 0.0000 0.0000 0.0000 -1.1834 0.0000 27.5936
#
#
#
# Elastic Compliance Matrix: (Units=1/GPa)
#
#
# Indices 1 2 3 4 5 6 
#
# 1 0.011648 -0.001907 -0.007436 0.000000 -0.001207 0.000000
# 2 -0.001907 0.018396 -0.006858 0.000000 0.003135 0.000000
# 3 -0.007436 -0.006858 0.024649 0.000000 0.003317 0.000000
# 4 0.000000 0.000000 0.000000 0.066433 0.000000 0.002849
# 5 -0.001207 0.003135 0.003317 0.000000 0.036054 0.000000
# 6 0.000000 0.000000 0.000000 0.002849 0.000000 0.036363
#
#
# Mechanical properties :
#
#
# Convention : Reuss Voigt Hill
#
# Bulk Modulus (GPa) = 44.86010 50.75790 47.80900
# Shear Modulus (GPa) = 21.42481 24.22727 22.82604
#
# Velocity S-wave (km/s) = 3.35094 3.56336 3.45878
# Velocity P-wave (km/s) = 6.20346 6.59791 6.40372
#
# Compressibility (1/GPa) = 0.02229152
#
# Stress axis : x y z
#
# Youngs Moduli (GPa) = 85.85435 54.35940 40.56940
#
# Poissons Ratio (x) = 0.10367 0.30166
# Poissons Ratio (y) = 0.16374 0.27822
# Poissons Ratio (z) = 0.63837 0.37279
#
# Static dielectric constant tensor:
#      x y z
#    x 3.476670 0.000000 0.021720 
#    y 0.000000 3.430840 0.000000 
#    z 0.021720 0.000000 3.409690 
# 
# 
# High freq. dielectric constant tensor:
#      x y z
#    x 1.748410 0.000000 0.001580 
#    y 0.000000 1.728710 0.000000 
#    z 0.001580 0.000000 1.727220 
# 
# From -- ./inp_files/19524.got.cif
#   From: 2010.03.12/outbox.cif.g09.slc.cpg/sg14_10_cif.got.tgz:19524.got - 2010.03.31 13:35:05.
