data_PCOD8124516
_publ_section_title
;
Structure prediction by ZEFSAII (Michael W. Deem and Ramdas Pophale) SiO2 
 PCOD8124516
Probable space group: P 21/C
;
_chemical_formula_sum "Si O2"
_cell_formula_units_Z 32
_cell_length_a 10.853672
_cell_length_b 7.694811
_cell_length_c 30.250917
_cell_angle_alpha 90.000000
_cell_angle_beta 148.491029
_cell_angle_gamma 90.000000
_cell_volume 1320.411326
_symmetry_space_group_name_H-M "P 21/C"
_symmetry_group_IT_number 14
_symmetry_cell_setting 'monoclinic'
loop_
_space_group_symop_operation_xyz
x,y,z
-x,1/2+y,1/2-z
-x,-y,-z
x,1/2-y,1/2+z
loop_
_atom_site_type_symbol
_atom_site_label
_atom_site_fract_x
_atom_site_fract_y
_atom_site_fract_z
Si Si1 0.893663 0.871890 0.379112
Si Si2 0.147452 0.109079 0.197796
Si Si3 0.269683 0.019582 0.840307
Si Si4 0.831438 0.725651 0.615523
Si Si5 0.427393 0.092031 0.642591
Si Si6 0.148582 0.849704 0.333626
Si Si7 0.290201 0.925770 0.755254
Si Si8 0.362974 0.066355 0.520332
O O1 0.847849 0.668896 0.352443
O O2 0.820780 0.918234 0.406997
O O3 0.712288 0.981094 0.292563
O O4 0.171258 0.914385 0.456905
O O5 0.038636 0.289278 0.186192
O O6 0.407048 0.075880 0.297584
O O7 0.978145 0.948417 0.150995
O O8 0.295190 0.821162 0.863445
O O9 0.390327 0.035819 0.828445
O O10 0.355091 0.164293 0.902682
O O11 0.987912 0.068921 0.750088
O O12 0.709054 0.769410 0.531836
O O13 0.014168 0.880731 0.685579
O O14 0.562216 0.252855 0.706076
O O15 0.376267 0.120698 0.575669
O O16 0.367508 0.982636 0.414403
#
# Coordination Sequence:
#
# PCOD8124516 Si02
#       8
#     4   4   4   4   4   4   4   4
#     4  11  23  40  66  93 125 165 219 267 313 374
#     4  10  22  40  63  93 119 164 220 264 305 373
#     4  11  18  36  61  90 122 167 207 259 306 383
#     4   9  21  37  59  87 129 161 200 254 321 384
#     4  11  22  44  64  88 126 174 219 261 308 374
#     4  11  21  37  64  90 131 157 210 261 319 384
#     4  10  19  38  61  89 117 167 218 257 308 368
#     4  11  23  41  60  95 131 173 196 259 340 384
#
# _framework density 24.234870999999998
#
# number of rings (size 3 to 8) (size 9 to 14) (size 15 to 20)
#    0.000    1.500    3.750    2.625    0.000    2.500 
#    0.000    4.375    0.000    0.000    0.000    0.000 
#    0.000    0.000    0.000    0.000    0.000    0.000 
#
# Total GULP energy -396436.885494 kJ/mol
# GULP energy per Si atom -12388.652672 kJ/mol
# Density = 2.417971 g / cm^3
# Si number density = 24.234871 Si / 1000 Ang^3
#
#
#
# Elastic Constant Matrix: (Units=GPa)
#
#
# Indices 1 2 3 4 5 6 
#
# 1 100.0600 18.2440 36.2784 0.0000 -7.1136 0.0000
# 2 18.2440 49.1989 27.2005 0.0000 -8.8224 0.0000
# 3 36.2784 27.2005 104.0313 0.0000 -11.9048 0.0000
# 4 0.0000 0.0000 0.0000 24.6030 0.0000 -10.4669
# 5 -7.1136 -8.8224 -11.9048 0.0000 38.9780 0.0000
# 6 0.0000 0.0000 0.0000 -10.4669 0.0000 23.4764
#
#
#
# Elastic Compliance Matrix: (Units=1/GPa)
#
#
# Indices 1 2 3 4 5 6 
#
# 1 0.011696 -0.002358 -0.003398 0.000000 0.000563 0.000000
# 2 -0.002358 0.024735 -0.005237 0.000000 0.003569 0.000000
# 3 -0.003398 -0.005237 0.012393 0.000000 0.001980 0.000000
# 4 0.000000 0.000000 0.000000 0.050160 0.000000 0.022363
# 5 0.000563 0.003569 0.001980 0.000000 0.027171 0.000000
# 6 0.000000 0.000000 0.000000 0.022363 0.000000 0.052567
#
#
# Mechanical properties :
#
#
# Convention : Reuss Voigt Hill
#
# Bulk Modulus (GPa) = 37.25802 46.30400 41.78101
# Shear Modulus (GPa) = 23.84904 28.84929 26.34917
#
# Velocity S-wave (km/s) = 3.14041 3.45397 3.30091
# Velocity P-wave (km/s) = 5.34384 5.92067 5.63964
#
# Compressibility (1/GPa) = 0.02683986
#
# Stress axis : x y z
#
# Youngs Moduli (GPa) = 85.50070 40.42829 80.68957
#
# Poissons Ratio (x) = 0.09531 0.27416
# Poissons Ratio (y) = 0.20157 0.42256
# Poissons Ratio (z) = 0.29051 0.21172
#
# Static dielectric constant tensor:
#      x y z
#    x 4.373470 0.000000 -0.168650 
#    y 0.000000 4.534460 0.000000 
#    z -0.168650 0.000000 4.427590 
# 
# 
# High freq. dielectric constant tensor:
#      x y z
#    x 1.954000 0.000000 -0.020910 
#    y 0.000000 1.971570 0.000000 
#    z -0.020910 0.000000 1.947420 
# 
# From -- ./inp_files/80012.got.cif
#   From: 2010.03.12/outbox.cif.g09.slc.cpg/sg14_41_cif.got.tgz:80012.got - 2010.03.31 13:35:05.
