data_PCOD8124520
_publ_section_title
;
Structure prediction by ZEFSAII (Michael W. Deem and Ramdas Pophale) SiO2 
 PCOD8124520
Probable space group: P 21/C
;
_chemical_formula_sum "Si O2"
_cell_formula_units_Z 28
_cell_length_a 18.190080
_cell_length_b 12.067924
_cell_length_c 22.250450
_cell_angle_alpha 90.000000
_cell_angle_beta 16.760825
_cell_angle_gamma 90.000000
_cell_volume 1408.532470
_symmetry_space_group_name_H-M "P 21/C"
_symmetry_group_IT_number 14
_symmetry_cell_setting 'monoclinic'
loop_
_space_group_symop_operation_xyz
x,y,z
-x,1/2+y,1/2-z
-x,-y,-z
x,1/2-y,1/2+z
loop_
_atom_site_type_symbol
_atom_site_label
_atom_site_fract_x
_atom_site_fract_y
_atom_site_fract_z
Si Si1 0.965691 0.125506 0.081771
Si Si2 0.500076 0.268141 0.330053
Si Si3 0.436007 0.602594 0.507675
Si Si4 0.947594 0.105907 0.959383
Si Si5 0.110195 0.324794 0.044952
Si Si6 0.418080 0.195675 0.526019
Si Si7 0.737770 0.506401 0.166729
O O1 0.660312 0.112490 0.332733
O O2 0.038565 0.247229 0.045409
O O3 0.053261 0.122089 0.944050
O O4 0.110188 0.025817 0.003312
O O5 0.261967 0.253701 0.472100
O O6 0.392334 0.248479 0.480574
O O7 0.636365 0.386706 0.225700
O O8 0.695574 0.178313 0.149908
O O9 0.500000 0.500000 0.500000
O O10 0.557993 0.711235 0.441552
O O11 0.540186 0.576187 0.360517
O O12 0.138262 0.623777 0.729424
O O13 0.157960 0.132701 0.744581
O O14 0.249414 0.429746 0.906595
O O15 0.000000 0.500000 0.000000
#
# Coordination Sequence:
#
# PCOD8124520 Si02
#       7
#     4   4   4   4   4   4   4
#     4   9  20  39  60  88 120 157 213 253 296 386
#     4  11  25  38  58  96 132 158 204 268 320 382
#     4  11  20  39  67  92 117 165 222 266 302 378
#     4  10  20  37  66  86 117 168 203 248 319 371
#     4  11  25  40  59  94 131 162 208 266 323 370
#     4  10  19  38  61  92 120 158 213 261 308 372
#     4  12  22  42  72  95 122 173 223 266 313 386
#
# _framework density 19.878847
#
# number of rings (size 3 to 8) (size 9 to 14) (size 15 to 20)
#    0.000    1.429    2.857    3.857    2.000    1.143 
#    0.000    0.000    0.000    0.000    0.000    0.000 
#    0.000    0.000    0.000    0.000    0.000    0.000 
#
# Total GULP energy -347025.664416 kJ/mol
# GULP energy per Si atom -12393.773729 kJ/mol
# Density = 1.983360 g / cm^3
# Si number density = 19.878847 Si / 1000 Ang^3
#
#
#
# Elastic Constant Matrix: (Units=GPa)
#
#
# Indices 1 2 3 4 5 6 
#
# 1 63.1913 23.4432 35.0133 0.0000 -6.3520 0.0000
# 2 23.4432 94.2657 40.3185 0.0000 0.6383 0.0000
# 3 35.0133 40.3185 106.6033 0.0000 10.0191 0.0000
# 4 0.0000 0.0000 0.0000 35.3834 0.0000 1.2419
# 5 -6.3520 0.6383 10.0191 0.0000 27.5149 0.0000
# 6 0.0000 0.0000 0.0000 1.2419 0.0000 32.6504
#
#
#
# Elastic Compliance Matrix: (Units=1/GPa)
#
#
# Indices 1 2 3 4 5 6 
#
# 1 0.021209 -0.002443 -0.006738 0.000000 0.007407 0.000000
# 2 -0.002443 0.012997 -0.004175 0.000000 0.000655 0.000000
# 3 -0.006738 -0.004175 0.013781 0.000000 -0.006477 0.000000
# 4 0.000000 0.000000 0.000000 0.028300 0.000000 -0.001076
# 5 0.007407 0.000655 -0.006477 0.000000 0.040397 0.000000
# 6 0.000000 0.000000 0.000000 -0.001076 0.000000 0.030668
#
#
# Mechanical properties :
#
#
# Convention : Reuss Voigt Hill
#
# Bulk Modulus (GPa) = 47.00133 51.29003 49.14568
# Shear Modulus (GPa) = 27.60041 30.12877 28.86459
#
# Velocity S-wave (km/s) = 3.73021 3.89732 3.81468
# Velocity P-wave (km/s) = 6.49983 6.79039 6.64670
#
# Compressibility (1/GPa) = 0.02127600
#
# Stress axis : x y z
#
# Youngs Moduli (GPa) = 47.14909 76.94085 72.56108
#
# Poissons Ratio (x) = 0.18794 0.48894
# Poissons Ratio (y) = 0.11517 0.30293
# Poissons Ratio (z) = 0.31771 0.32122
#
# Static dielectric constant tensor:
#      x y z
#    x 3.372570 0.000000 0.112410 
#    y 0.000000 2.484760 0.000000 
#    z 0.112410 0.000000 3.872890 
# 
# 
# High freq. dielectric constant tensor:
#      x y z
#    x 1.751370 0.000000 0.015450 
#    y 0.000000 1.790930 0.000000 
#    z 0.015450 0.000000 1.780810 
# 
# From -- ./inp_files/69260.got.cif
#   From: 2010.03.12/outbox.cif.g09.slc.cpg/sg14_35_cif.got.tgz:69260.got - 2010.03.31 13:35:05.
