data_PCOD8124070
_publ_section_title
;
Structure prediction by ZEFSAII (Michael W. Deem and Ramdas Pophale) SiO2 
 PCOD8124070
Probable space group: P 21/C
;
_chemical_formula_sum "Si O2"
_cell_formula_units_Z 32
_cell_length_a 22.021048
_cell_length_b 8.678406
_cell_length_c 13.880214
_cell_angle_alpha 90.000000
_cell_angle_beta 37.684382
_cell_angle_gamma 90.000000
_cell_volume 1621.573216
_symmetry_space_group_name_H-M "P 21/C"
_symmetry_group_IT_number 14
_symmetry_cell_setting 'monoclinic'
loop_
_space_group_symop_operation_xyz
x,y,z
-x,1/2+y,1/2-z
-x,-y,-z
x,1/2-y,1/2+z
loop_
_atom_site_type_symbol
_atom_site_label
_atom_site_fract_x
_atom_site_fract_y
_atom_site_fract_z
Si Si1 0.361346 0.146828 0.726122
Si Si2 0.959785 0.859435 0.609492
Si Si3 0.498067 0.852051 0.069596
Si Si4 0.695670 0.188972 0.190199
Si Si5 0.187943 0.576249 0.631819
Si Si6 0.848022 0.302264 0.653818
Si Si7 0.796983 0.844661 0.227333
Si Si8 0.654951 0.833383 0.032065
O O1 0.453738 0.215114 0.552717
O O2 0.254981 0.190846 0.810608
O O3 0.365634 0.206447 0.830584
O O4 0.369813 0.962898 0.708756
O O5 0.888540 0.769007 0.625627
O O6 0.049426 0.746613 0.530829
O O7 0.896339 0.940633 0.776003
O O8 0.000000 0.000000 0.500000
O O9 0.383444 0.818075 0.241375
O O10 0.553769 0.869279 0.101509
O O11 0.500000 0.000000 0.000000
O O12 0.752188 0.250223 0.213595
O O13 0.783488 0.154235 0.004429
O O14 0.151970 0.713693 0.745189
O O15 0.283791 0.491680 0.556007
O O16 0.841410 0.484251 0.679843
O O17 0.713742 0.813155 0.414146
#
# Coordination Sequence:
#
# PCOD8124070 Si02
#       8
#     4   4   4   4   4   4   4   4
#     4   9  20  37  55  76 108 149 183 222 274 327
#     4   9  18  35  57  77 105 142 175 219 276 325
#     4  11  22  34  54  84 112 145 189 230 270 321
#     4  10  21  37  55  78 110 145 182 223 270 327
#     4   9  19  37  55  77 106 142 179 220 273 328
#     4  10  19  34  56  80 107 139 179 228 274 321
#     4   9  18  34  55  81 108 138 183 227 271 324
#     4   9  19  36  55  77 110 148 182 223 274 325
#
# _framework density 19.733920999999999
#
# number of rings (size 3 to 8) (size 9 to 14) (size 15 to 20)
#    0.000    2.500    0.000    1.500    0.000    5.000 
#    0.000   12.500    0.000    0.000    0.000    0.000 
#    0.000    0.000    0.000    0.000    0.000    0.000 
#
# Total GULP energy -396547.247292 kJ/mol
# GULP energy per Si atom -12392.101478 kJ/mol
# Density = 1.968901 g / cm^3
# Si number density = 19.733921 Si / 1000 Ang^3
#
#
#
# Elastic Constant Matrix: (Units=GPa)
#
#
# Indices 1 2 3 4 5 6 
#
# 1 82.9762 30.8410 26.1723 0.0000 0.0456 0.0000
# 2 30.8410 73.7093 31.1571 0.0000 -5.3723 0.0000
# 3 26.1723 31.1571 73.5125 0.0000 -3.4376 0.0000
# 4 0.0000 0.0000 0.0000 31.8496 0.0000 -1.8165
# 5 0.0456 -5.3723 -3.4376 0.0000 31.3640 0.0000
# 6 0.0000 0.0000 0.0000 -1.8165 0.0000 26.3284
#
#
#
# Elastic Compliance Matrix: (Units=1/GPa)
#
#
# Indices 1 2 3 4 5 6 
#
# 1 0.014925 -0.004951 -0.003273 0.000000 -0.001228 0.000000
# 2 -0.004951 0.018306 -0.005879 0.000000 0.002498 0.000000
# 3 -0.003273 -0.005879 0.017302 0.000000 0.000894 0.000000
# 4 0.000000 0.000000 0.000000 0.031522 0.000000 0.002175
# 5 -0.001228 0.002498 0.000894 0.000000 0.032411 0.000000
# 6 0.000000 0.000000 0.000000 0.002175 0.000000 0.038132
#
#
# Mechanical properties :
#
#
# Convention : Reuss Voigt Hill
#
# Bulk Modulus (GPa) = 44.78901 45.17097 44.97999
# Shear Modulus (GPa) = 26.56120 27.37689 26.96904
#
# Velocity S-wave (km/s) = 3.67272 3.72869 3.70081
# Velocity P-wave (km/s) = 6.38208 6.44028 6.41124
#
# Compressibility (1/GPa) = 0.02232691
#
# Stress axis : x y z
#
# Youngs Moduli (GPa) = 67.00267 54.62835 57.79740
#
# Poissons Ratio (x) = 0.27046 0.18915
# Poissons Ratio (y) = 0.33172 0.33979
# Poissons Ratio (z) = 0.21928 0.32116
#
# Static dielectric constant tensor:
#      x y z
#    x 3.576770 0.000000 -0.203220 
#    y 0.000000 3.628700 0.000000 
#    z -0.203220 0.000000 3.807530 
# 
# 
# High freq. dielectric constant tensor:
#      x y z
#    x 1.759900 0.000000 -0.014720 
#    y 0.000000 1.769570 0.000000 
#    z -0.014720 0.000000 1.766970 
# 
# From -- ./inp_files/36484.got.cif
#   From: 2010.03.12/outbox.cif.g09.slc.cpg/sg14_19_cif.got.tgz:36484.got - 2010.03.31 13:35:05.
