data_PCOD8124055
_publ_section_title
;
Structure prediction by ZEFSAII (Michael W. Deem and Ramdas Pophale) SiO2 
 PCOD8124055
Probable space group: P 21/C
;
_chemical_formula_sum "Si O2"
_cell_formula_units_Z 32
_cell_length_a 10.351193
_cell_length_b 17.174575
_cell_length_c 14.149066
_cell_angle_alpha 90.000000
_cell_angle_beta 137.585439
_cell_angle_gamma 90.000000
_cell_volume 1696.600986
_symmetry_space_group_name_H-M "P 21/C"
_symmetry_group_IT_number 14
_symmetry_cell_setting 'monoclinic'
loop_
_space_group_symop_operation_xyz
x,y,z
-x,1/2+y,1/2-z
-x,-y,-z
x,1/2-y,1/2+z
loop_
_atom_site_type_symbol
_atom_site_label
_atom_site_fract_x
_atom_site_fract_y
_atom_site_fract_z
Si Si1 0.151988 0.217661 0.670126
Si Si2 0.142054 0.717704 0.635338
Si Si3 0.426730 0.966664 0.143629
Si Si4 0.575190 0.215909 0.869174
Si Si5 0.152582 0.535863 0.652493
Si Si6 0.854174 0.533219 0.845008
Si Si7 0.897804 0.215883 0.182411
Si Si8 0.915339 0.032184 0.174537
O O1 0.365708 0.251264 0.771531
O O2 0.140715 0.125971 0.646187
O O3 0.030603 0.263388 0.527519
O O4 0.081645 0.239462 0.737892
O O5 0.340336 0.738821 0.688285
O O6 0.127676 0.627613 0.653112
O O7 0.125731 0.768664 0.720031
O O8 0.436347 0.876043 0.127940
O O9 0.358704 0.982416 0.215386
O O10 0.639854 0.001463 0.246803
O O11 0.272355 0.000029 0.983957
O O12 0.711935 0.247780 0.026316
O O13 0.000000 0.500000 0.500000
O O14 0.114492 0.495365 0.732599
O O15 0.921436 0.505122 0.779960
O O16 0.000000 0.500000 0.000000
O O17 0.922471 0.124556 0.181156
#
# Coordination Sequence:
#
# PCOD8124055 Si02
#       8
#     4   4   4   4   4   4   4   4
#     4  10  20  36  53  76 106 136 167 210 259 306
#     4  10  19  34  55  79 103 133 171 214 257 304
#     4   8  17  34  55  74  98 132 175 214 249 297
#     4   8  18  34  52  73 103 134 168 211 256 302
#     4   9  17  34  58  79  98 131 177 220 253 296
#     4  11  21  34  51  77 109 138 164 205 260 311
#     4  10  20  35  52  76 104 134 171 213 252 300
#     4  10  19  35  55  76 100 134 175 213 249 300
#
# _framework density 18.861241
#
# number of rings (size 3 to 8) (size 9 to 14) (size 15 to 20)
#    0.000    2.500    0.000    4.125    0.000    1.000 
#    0.000   14.375    0.000    0.000    0.000    0.000 
#    0.000    0.000    0.000    0.000    0.000    0.000 
#
# Total GULP energy -396633.743443 kJ/mol
# GULP energy per Si atom -12394.804483 kJ/mol
# Density = 1.881831 g / cm^3
# Si number density = 18.861241 Si / 1000 Ang^3
#
#
#
# Elastic Constant Matrix: (Units=GPa)
#
#
# Indices 1 2 3 4 5 6 
#
# 1 142.4839 15.0060 55.1399 0.0000 -9.6062 0.0000
# 2 15.0060 41.8484 5.2954 0.0000 -4.8115 0.0000
# 3 55.1399 5.2954 69.2729 0.0000 -11.4087 0.0000
# 4 0.0000 0.0000 0.0000 21.0666 0.0000 -6.1684
# 5 -9.6062 -4.8115 -11.4087 0.0000 30.2310 0.0000
# 6 0.0000 0.0000 0.0000 -6.1684 0.0000 26.6468
#
#
#
# Elastic Compliance Matrix: (Units=1/GPa)
#
#
# Indices 1 2 3 4 5 6 
#
# 1 0.010441 -0.002736 -0.008133 0.000000 -0.000187 0.000000
# 2 -0.002736 0.025169 0.000822 0.000000 0.003446 0.000000
# 3 -0.008133 0.000822 0.021797 0.000000 0.005772 0.000000
# 4 0.000000 0.000000 0.000000 0.050920 0.000000 0.011787
# 5 -0.000187 0.003446 0.005772 0.000000 0.035746 0.000000
# 6 0.000000 0.000000 0.000000 0.011787 0.000000 0.040257
#
#
# Mechanical properties :
#
#
# Convention : Reuss Voigt Hill
#
# Bulk Modulus (GPa) = 26.80043 44.94307 35.87175
# Shear Modulus (GPa) = 23.05615 27.46648 25.26131
#
# Velocity S-wave (km/s) = 3.50009 3.82021 3.66365
# Velocity P-wave (km/s) = 5.52940 6.58321 6.07918
#
# Compressibility (1/GPa) = 0.03731283
#
# Stress axis : x y z
#
# Youngs Moduli (GPa) = 95.77493 39.73104 45.87816
#
# Poissons Ratio (x) = 0.10872 0.37311
# Poissons Ratio (y) = 0.26208 -0.03770
# Poissons Ratio (z) = 0.77889 -0.03265
#
# Static dielectric constant tensor:
#      x y z
#    x 4.050000 0.000000 0.095870 
#    y 0.000000 3.237890 0.000000 
#    z 0.095870 0.000000 3.419030 
# 
# 
# High freq. dielectric constant tensor:
#      x y z
#    x 1.753140 0.000000 -0.004720 
#    y 0.000000 1.720560 0.000000 
#    z -0.004720 0.000000 1.711710 
# 
# From -- ./inp_files/26831.got.cif
#   From: 2010.03.12/outbox.cif.g09.slc.cpg/sg14_14_cif.got.tgz:26831.got - 2010.03.31 13:35:05.
