data_PCOD8124775
_publ_section_title
;
Structure prediction by ZEFSAII (Michael W. Deem and Ramdas Pophale) SiO2 
 PCOD8124775
Probable space group: P 21/C
;
_chemical_formula_sum "Si O2"
_cell_formula_units_Z 32
_cell_length_a 10.016992
_cell_length_b 30.772683
_cell_length_c 5.405868
_cell_angle_alpha 90.000000
_cell_angle_beta 110.246433
_cell_angle_gamma 90.000000
_cell_volume 1563.397879
_symmetry_space_group_name_H-M "P 21/C"
_symmetry_group_IT_number 14
_symmetry_cell_setting 'monoclinic'
loop_
_space_group_symop_operation_xyz
x,y,z
-x,1/2+y,1/2-z
-x,-y,-z
x,1/2-y,1/2+z
loop_
_atom_site_type_symbol
_atom_site_label
_atom_site_fract_x
_atom_site_fract_y
_atom_site_fract_z
Si Si1 0.022944 0.227383 0.837311
Si Si2 0.720184 0.514754 0.181632
Si Si3 0.945830 0.918652 0.668378
Si Si4 0.684059 0.272984 0.121734
Si Si5 0.542039 0.449914 0.776073
Si Si6 0.021544 0.369937 0.285628
Si Si7 0.702244 0.129329 0.623064
Si Si8 0.758016 0.437613 0.533132
O O1 0.081838 0.250979 0.627919
O O2 0.080117 0.178284 0.869527
O O3 0.853299 0.229029 0.735202
O O4 0.836057 0.541937 0.107532
O O5 0.629059 0.546315 0.309727
O O6 0.799425 0.474519 0.362016
O O7 0.609194 0.494215 0.921705
O O8 0.896913 0.889252 0.403383
O O9 0.104454 0.936488 0.699531
O O10 0.950721 0.896296 0.942821
O O11 0.624728 0.249823 0.333319
O O12 0.631015 0.323093 0.089588
O O13 0.602692 0.450104 0.538032
O O14 0.595704 0.404638 0.927663
O O15 0.856377 0.367850 0.091194
O O16 0.737292 0.111173 0.917639
#
# Coordination Sequence:
#
# PCOD8124775 Si02
#       8
#     4   4   4   4   4   4   4   4
#     4   9  16  28  48  76 108 141 172 217 274 328
#     4  10  23  36  53  81 106 147 195 229 272 326
#     4  11  22  36  55  81 113 147 181 231 276 327
#     4   9  18  28  48  78 112 139 171 219 272 327
#     4  10  20  38  56  75 111 145 190 231 275 322
#     4  10  20  34  53  81 114 143 181 226 278 331
#     4   9  19  33  52  81 109 146 181 222 281 327
#     4  10  20  35  56  78 108 149 183 231 277 325
#
# _framework density 20.468239000000001
#
# number of rings (size 3 to 8) (size 9 to 14) (size 15 to 20)
#    0.000    2.250    1.250    1.500    3.500    3.500 
#    0.000    0.000    0.000    0.000    0.000    5.250 
#    0.000    0.000    0.000    0.000    0.000    0.000 
#
# Total GULP energy -396425.302195 kJ/mol
# GULP energy per Si atom -12388.290694 kJ/mol
# Density = 2.042165 g / cm^3
# Si number density = 20.468239 Si / 1000 Ang^3
#
#
#
# Elastic Constant Matrix: (Units=GPa)
#
#
# Indices 1 2 3 4 5 6 
#
# 1 33.2453 24.7139 12.4537 0.0000 -14.0630 0.0000
# 2 24.7139 141.5976 42.2444 0.0000 -13.2627 0.0000
# 3 12.4537 42.2444 102.7030 0.0000 -22.2787 0.0000
# 4 0.0000 0.0000 0.0000 22.6275 0.0000 -8.0236
# 5 -14.0630 -13.2627 -22.2787 0.0000 21.7060 0.0000
# 6 0.0000 0.0000 0.0000 -8.0236 0.0000 14.4257
#
#
#
# Elastic Compliance Matrix: (Units=1/GPa)
#
#
# Indices 1 2 3 4 5 6 
#
# 1 0.045901 -0.006270 0.003387 0.000000 0.029384 0.000000
# 2 -0.006270 0.008972 -0.003373 0.000000 -0.002042 0.000000
# 3 0.003387 -0.003373 0.013819 0.000000 0.014317 0.000000
# 4 0.000000 0.000000 0.000000 0.055052 0.000000 0.030620
# 5 0.029384 -0.002042 0.014317 0.000000 0.078555 0.000000
# 6 0.000000 0.000000 0.000000 0.030620 0.000000 0.086351
#
#
# Mechanical properties :
#
#
# Convention : Reuss Voigt Hill
#
# Bulk Modulus (GPa) = 17.79978 48.48556 33.14267
# Shear Modulus (GPa) = 15.63051 24.96077 20.29564
#
# Velocity S-wave (km/s) = 2.76641 3.49590 3.15233
# Velocity P-wave (km/s) = 4.34962 6.32730 5.42927
#
# Compressibility (1/GPa) = 0.05618047
#
# Stress axis : x y z
#
# Youngs Moduli (GPa) = 21.78607 111.46334 72.36283
#
# Poissons Ratio (x) = 0.69883 -0.24509
# Poissons Ratio (y) = 0.13659 0.24408
# Poissons Ratio (z) = -0.07379 0.37596
#
# Static dielectric constant tensor:
#      x y z
#    x 3.431950 0.000000 -0.246580 
#    y 0.000000 3.824930 0.000000 
#    z -0.246580 0.000000 3.694080 
# 
# 
# High freq. dielectric constant tensor:
#      x y z
#    x 1.747330 0.000000 -0.021080 
#    y 0.000000 1.807870 0.000000 
#    z -0.021080 0.000000 1.798470 
# 
# From -- ./inp_files/2241.got.cif
#   From: 2010.03.12/outbox.cif.g09.slc.cpg/sg14_2_cif.got.tgz:2241.got - 2010.03.31 13:35:05.
