data_PCOD8124598
_publ_section_title
;
Structure prediction by ZEFSAII (Michael W. Deem and Ramdas Pophale) SiO2 
 PCOD8124598
Probable space group: P 21/C
;
_chemical_formula_sum "Si O2"
_cell_formula_units_Z 32
_cell_length_a 13.761945
_cell_length_b 15.777799
_cell_length_c 14.199437
_cell_angle_alpha 90.000000
_cell_angle_beta 29.947614
_cell_angle_gamma 90.000000
_cell_volume 1539.142671
_symmetry_space_group_name_H-M "P 21/C"
_symmetry_group_IT_number 14
_symmetry_cell_setting 'monoclinic'
loop_
_space_group_symop_operation_xyz
x,y,z
-x,1/2+y,1/2-z
-x,-y,-z
x,1/2-y,1/2+z
loop_
_atom_site_type_symbol
_atom_site_label
_atom_site_fract_x
_atom_site_fract_y
_atom_site_fract_z
Si Si1 0.185207 0.272004 0.219998
Si Si2 0.169569 0.842317 0.237870
Si Si3 0.246241 0.695351 0.460751
Si Si4 0.078584 0.501028 0.105313
Si Si5 0.193559 0.243566 0.925041
Si Si6 0.615771 0.875029 0.595485
Si Si7 0.771929 0.885082 0.950210
Si Si8 0.341833 0.870409 0.284928
O O1 0.264378 0.260373 0.258396
O O2 0.174873 0.183608 0.174090
O O3 0.972256 0.315523 0.393293
O O4 0.338834 0.334043 0.043039
O O5 0.333726 0.849433 0.180290
O O6 0.041716 0.928009 0.345351
O O7 0.033726 0.765502 0.384301
O O8 0.258938 0.817078 0.062519
O O9 0.381113 0.620309 0.302784
O O10 0.335574 0.786334 0.355171
O O11 0.929369 0.540317 0.306881
O O12 0.272512 0.464482 0.993305
O O13 0.158557 0.570033 0.964174
O O14 0.315160 0.314262 0.877718
O O15 0.212508 0.152339 0.958196
O O16 0.549535 0.917207 0.123963
#
# Coordination Sequence:
#
# PCOD8124598 Si02
#       8
#     4   4   4   4   4   4   4   4
#     4  11  20  40  64  86 121 160 204 258 299 359
#     4  11  23  39  64  94 125 167 198 251 318 361
#     4  12  21  41  62  92 122 160 213 253 292 368
#     4  11  23  43  58  88 139 157 195 257 315 370
#     4  10  19  39  64  88 118 162 209 250 300 359
#     4  10  24  39  61  92 122 163 204 252 308 362
#     4  11  23  39  59  95 123 161 203 255 311 361
#     4  12  24  38  65  95 123 161 206 251 309 371
#
# _framework density 20.790794999999999
#
# number of rings (size 3 to 8) (size 9 to 14) (size 15 to 20)
#    0.000    1.000    8.750    0.375    3.500    1.500 
#    0.000    0.625    0.000    1.500    0.000    0.000 
#    0.000    0.000    0.000    0.000    0.000    0.000 
#
# Total GULP energy -396708.822350 kJ/mol
# GULP energy per Si atom -12397.150698 kJ/mol
# Density = 2.074347 g / cm^3
# Si number density = 20.790795 Si / 1000 Ang^3
#
#
#
# Elastic Constant Matrix: (Units=GPa)
#
#
# Indices 1 2 3 4 5 6 
#
# 1 74.8084 24.4849 37.5110 0.0000 20.1056 0.0000
# 2 24.4849 51.3117 20.3637 0.0000 0.4936 0.0000
# 3 37.5110 20.3637 111.3935 0.0000 1.3585 0.0000
# 4 0.0000 0.0000 0.0000 34.0685 0.0000 -6.6819
# 5 20.1056 0.4936 1.3585 0.0000 31.2521 0.0000
# 6 0.0000 0.0000 0.0000 -6.6819 0.0000 13.8635
#
#
#
# Elastic Compliance Matrix: (Units=1/GPa)
#
#
# Indices 1 2 3 4 5 6 
#
# 1 0.023041 -0.008460 -0.006036 0.000000 -0.014427 0.000000
# 2 -0.008460 0.024121 -0.001623 0.000000 0.005132 0.000000
# 3 -0.006036 -0.001623 0.011265 0.000000 0.003419 0.000000
# 4 0.000000 0.000000 0.000000 0.032417 0.000000 0.015624
# 5 -0.014427 0.005132 0.003419 0.000000 0.041049 0.000000
# 6 0.000000 0.000000 0.000000 0.015624 0.000000 0.079663
#
#
# Mechanical properties :
#
#
# Convention : Reuss Voigt Hill
#
# Bulk Modulus (GPa) = 38.18694 44.69254 41.43974
# Shear Modulus (GPa) = 19.80015 26.18042 22.99028
#
# Velocity S-wave (km/s) = 3.08937 3.55241 3.32895
# Velocity P-wave (km/s) = 5.57967 6.19429 5.89499
#
# Compressibility (1/GPa) = 0.02618696
#
# Stress axis : x y z
#
# Youngs Moduli (GPa) = 43.40164 41.45839 88.77166
#
# Poissons Ratio (x) = 0.35075 0.53584
# Poissons Ratio (y) = 0.36719 0.14409
# Poissons Ratio (z) = 0.26198 0.06729
#
# Static dielectric constant tensor:
#      x y z
#    x 3.675470 0.000000 -0.050480 
#    y 0.000000 3.682170 0.000000 
#    z -0.050480 0.000000 4.046500 
# 
# 
# High freq. dielectric constant tensor:
#      x y z
#    x 1.796210 0.000000 -0.003010 
#    y 0.000000 1.787950 0.000000 
#    z -0.003010 0.000000 1.835620 
# 
# From -- ./inp_files/47392.got.cif
#   From: 2010.03.12/outbox.cif.g09.slc.cpg/sg14_24_cif.got.tgz:47392.got - 2010.03.31 13:35:05.
