data_PCOD8124214
_publ_section_title
;
Structure prediction by ZEFSAII (Michael W. Deem and Ramdas Pophale) SiO2 
 PCOD8124214
Probable space group: P 21/C
;
_chemical_formula_sum "Si O2"
_cell_formula_units_Z 20
_cell_length_a 7.575041
_cell_length_b 7.528118
_cell_length_c 17.825099
_cell_angle_alpha 90.000000
_cell_angle_beta 70.588412
_cell_angle_gamma 90.000000
_cell_volume 958.708635
_symmetry_space_group_name_H-M "P 21/C"
_symmetry_group_IT_number 14
_symmetry_cell_setting 'monoclinic'
loop_
_space_group_symop_operation_xyz
x,y,z
-x,1/2+y,1/2-z
-x,-y,-z
x,1/2-y,1/2+z
loop_
_atom_site_type_symbol
_atom_site_label
_atom_site_fract_x
_atom_site_fract_y
_atom_site_fract_z
Si Si1 0.847631 0.649043 0.448985
Si Si2 0.805780 0.272680 0.511702
Si Si3 0.415980 0.314916 0.120825
Si Si4 0.158008 0.032443 0.207983
Si Si5 0.809399 0.149436 0.342972
O O1 0.773826 0.485310 0.509780
O O2 0.671895 0.773640 0.450186
O O3 0.940520 0.569444 0.359270
O O4 0.999774 0.764815 0.472486
O O5 0.639022 0.193198 0.585606
O O6 0.810448 0.179171 0.431254
O O7 0.335141 0.166970 0.190821
O O8 0.353859 0.510919 0.155718
O O9 0.009966 0.063272 0.294710
O O10 0.227481 0.828329 0.199373
#
# Coordination Sequence:
#
# PCOD8124214 Si02
#       5
#     4   4   4   4   4
#     4   8  19  35  58  82 114 142 180 231 277 328
#     4  10  19  35  60  86 111 143 189 232 273 334
#     4  10  20  35  60  78 113 146 186 226 280 332
#     4   9  19  35  58  78 115 149 187 226 289 329
#     4  11  19  34  60  83 107 155 186 231 280 334
#
# _framework density 20.861394000000001
#
# number of rings (size 3 to 8) (size 9 to 14) (size 15 to 20)
#    1.200    1.200    2.000    1.200    0.000    0.800 
#    0.000    0.000   13.200    0.000    0.000    0.000 
#    0.000    0.000    0.000    0.000    0.000    0.000 
#
# Total GULP energy -247874.802013 kJ/mol
# GULP energy per Si atom -12393.740101 kJ/mol
# Density = 2.081391 g / cm^3
# Si number density = 20.861394 Si / 1000 Ang^3
#
#
#
# Elastic Constant Matrix: (Units=GPa)
#
#
# Indices 1 2 3 4 5 6 
#
# 1 60.9919 22.6102 14.3152 0.0000 -18.7124 0.0000
# 2 22.6102 134.8691 29.1735 0.0000 -15.6735 0.0000
# 3 14.3152 29.1735 68.1055 0.0000 -37.5864 0.0000
# 4 0.0000 0.0000 0.0000 31.1249 0.0000 -9.8551
# 5 -18.7124 -15.6735 -37.5864 0.0000 24.7994 0.0000
# 6 0.0000 0.0000 0.0000 -9.8551 0.0000 18.4747
#
#
#
# Elastic Compliance Matrix: (Units=1/GPa)
#
#
# Indices 1 2 3 4 5 6 
#
# 1 0.037560 -0.005409 0.049994 0.000000 0.100694 0.000000
# 2 -0.005409 0.008954 -0.011176 0.000000 -0.015361 0.000000
# 3 0.049994 -0.011176 0.158255 0.000000 0.270514 0.000000
# 4 0.000000 0.000000 0.000000 0.038658 0.000000 0.020622
# 5 0.100694 -0.015361 0.270514 0.000000 0.516591 0.000000
# 6 0.000000 0.000000 0.000000 0.020622 0.000000 0.065128
#
#
# Mechanical properties :
#
#
# Convention : Reuss Voigt Hill
#
# Bulk Modulus (GPa) = 3.68207 44.01825 23.85016
# Shear Modulus (GPa) = 5.89027 28.07097 16.98062
#
# Velocity S-wave (km/s) = 1.68216 3.67221 2.85612
# Velocity P-wave (km/s) = 2.35409 6.25511 4.72589
#
# Compressibility (1/GPa) = 0.27158606
#
# Stress axis : x y z
#
# Youngs Moduli (GPa) = 26.62410 111.68537 6.31891
#
# Poissons Ratio (x) = 0.60411 -0.31591
# Poissons Ratio (y) = 0.14401 0.07062
# Poissons Ratio (z) = -1.33104 1.24822
#
# Static dielectric constant tensor:
#      x y z
#    x 3.243130 0.000000 -0.089810 
#    y 0.000000 3.921550 0.000000 
#    z -0.089810 0.000000 3.516870 
# 
# 
# High freq. dielectric constant tensor:
#      x y z
#    x 1.770850 0.000000 -0.017470 
#    y 0.000000 1.828550 0.000000 
#    z -0.017470 0.000000 1.799260 
# 
# From -- ./inp_files/54205.got.cif
#   From: 2010.03.12/outbox.cif.g09.slc.cpg/sg14_28_cif.got.tgz:54205.got - 2010.03.31 13:35:05.
