data_PCOD8124887
_publ_section_title
;
Structure prediction by ZEFSAII (Michael W. Deem and Ramdas Pophale) SiO2 
 PCOD8124887
Probable space group: P 21/C
;
_chemical_formula_sum "Si O2"
_cell_formula_units_Z 32
_cell_length_a 6.629200
_cell_length_b 26.956305
_cell_length_c 9.037828
_cell_angle_alpha 90.000000
_cell_angle_beta 98.815168
_cell_angle_gamma 90.000000
_cell_volume 1595.971250
_symmetry_space_group_name_H-M "P 21/C"
_symmetry_group_IT_number 14
_symmetry_cell_setting 'monoclinic'
loop_
_space_group_symop_operation_xyz
x,y,z
-x,1/2+y,1/2-z
-x,-y,-z
x,1/2-y,1/2+z
loop_
_atom_site_type_symbol
_atom_site_label
_atom_site_fract_x
_atom_site_fract_y
_atom_site_fract_z
Si Si1 0.642294 0.118483 0.883530
Si Si2 0.909625 0.188922 0.715639
Si Si3 0.328890 0.621000 0.273710
Si Si4 0.348632 0.202955 0.879542
Si Si5 0.008173 0.604691 0.997143
Si Si6 0.280433 0.959135 0.345581
Si Si7 0.372003 0.432783 0.888318
Si Si8 0.583142 0.230619 0.185763
O O1 0.805410 0.155167 0.828457
O O2 0.422404 0.146416 0.852738
O O3 0.639783 0.066723 0.795590
O O4 0.703474 0.106385 0.058866
O O5 0.963471 0.158452 0.573873
O O6 0.764363 0.233867 0.645027
O O7 0.112210 0.209742 0.816618
O O8 0.145795 0.597861 0.158487
O O9 0.547119 0.599969 0.239949
O O10 0.315711 0.679798 0.249084
O O11 0.478748 0.243141 0.809129
O O12 0.401063 0.216829 0.053173
O O13 0.776149 0.599136 0.023706
O O14 0.064751 0.562866 0.880023
O O15 0.437534 0.948113 0.492674
O O16 0.259018 0.017863 0.314005
#
# Coordination Sequence:
#
# PCOD8124887 Si02
#       8
#     4   4   4   4   4   4   4   4
#     4   9  20  38  54  79 115 143 181 229 276 336
#     4  10  21  37  58  79 107 151 186 225 278 325
#     4  10  22  36  52  79 114 144 176 231 279 321
#     4  10  21  36  57  81 107 147 187 223 277 333
#     4  10  20  36  58  82 108 141 185 228 272 329
#     4   9  19  37  58  80 109 142 181 230 276 328
#     4  10  20  35  58  83 106 142 186 227 277 331
#     4  10  22  37  52  80 114 141 185 231 268 327
#
# _framework density 20.050485999999999
#
# number of rings (size 3 to 8) (size 9 to 14) (size 15 to 20)
#    0.000    2.250    0.000    1.875    0.000   10.500 
#    0.000    0.625    0.000    0.000    0.000    0.000 
#    0.000    0.000    0.000    0.000    0.000    0.000 
#
# Total GULP energy -396739.415292 kJ/mol
# GULP energy per Si atom -12398.106728 kJ/mol
# Density = 2.000485 g / cm^3
# Si number density = 20.050486 Si / 1000 Ang^3
#
#
#
# Elastic Constant Matrix: (Units=GPa)
#
#
# Indices 1 2 3 4 5 6 
#
# 1 52.8220 10.5157 3.9785 0.0000 1.0204 0.0000
# 2 10.5157 98.4078 27.8603 0.0000 -15.0777 0.0000
# 3 3.9785 27.8603 86.1437 0.0000 -9.8672 0.0000
# 4 0.0000 0.0000 0.0000 24.9878 0.0000 -0.0959
# 5 1.0204 -15.0777 -9.8672 0.0000 29.0621 0.0000
# 6 0.0000 0.0000 0.0000 -0.0959 0.0000 17.8395
#
#
#
# Elastic Compliance Matrix: (Units=1/GPa)
#
#
# Indices 1 2 3 4 5 6 
#
# 1 0.019452 -0.002273 -0.000392 0.000000 -0.001996 0.000000
# 2 -0.002273 0.012123 -0.003211 0.000000 0.005279 0.000000
# 3 -0.000392 -0.003211 0.012981 0.000000 0.002755 0.000000
# 4 0.000000 0.000000 0.000000 0.040020 0.000000 0.000215
# 5 -0.001996 0.005279 0.002755 0.000000 0.038153 0.000000
# 6 0.000000 0.000000 0.000000 0.000215 0.000000 0.056056
#
#
# Mechanical properties :
#
#
# Convention : Reuss Voigt Hill
#
# Bulk Modulus (GPa) = 30.48487 35.78694 33.13590
# Shear Modulus (GPa) = 24.81730 27.37914 26.09822
#
# Velocity S-wave (km/s) = 3.52197 3.69929 3.61172
# Velocity P-wave (km/s) = 5.63703 6.01111 5.82707
#
# Compressibility (1/GPa) = 0.03280316
#
# Stress axis : x y z
#
# Youngs Moduli (GPa) = 51.40813 82.49030 77.03764
#
# Poissons Ratio (x) = 0.18754 0.03017
# Poissons Ratio (y) = 0.11688 0.24737
# Poissons Ratio (z) = 0.02014 0.26488
#
# Static dielectric constant tensor:
#      x y z
#    x 3.594430 0.000000 -0.143450 
#    y 0.000000 3.817100 0.000000 
#    z -0.143450 0.000000 3.555920 
# 
# 
# High freq. dielectric constant tensor:
#      x y z
#    x 1.774100 0.000000 -0.009270 
#    y 0.000000 1.781680 0.000000 
#    z -0.009270 0.000000 1.780400 
# 
# From -- ./inp_files/6801.got.cif
#   From: 2010.03.12/outbox.cif.g09.slc.cpg/sg14_4_cif.got.tgz:6801.got - 2010.03.31 13:35:05.
