data_PCOD8124504
_publ_section_title
;
Structure prediction by ZEFSAII (Michael W. Deem and Ramdas Pophale) SiO2 
 PCOD8124504
Probable space group: P 21/C
;
_chemical_formula_sum "Si O2"
_cell_formula_units_Z 28
_cell_length_a 7.609905
_cell_length_b 17.251677
_cell_length_c 19.112627
_cell_angle_alpha 90.000000
_cell_angle_beta 32.389129
_cell_angle_gamma 90.000000
_cell_volume 1344.081165
_symmetry_space_group_name_H-M "P 21/C"
_symmetry_group_IT_number 14
_symmetry_cell_setting 'monoclinic'
loop_
_space_group_symop_operation_xyz
x,y,z
-x,1/2+y,1/2-z
-x,-y,-z
x,1/2-y,1/2+z
loop_
_atom_site_type_symbol
_atom_site_label
_atom_site_fract_x
_atom_site_fract_y
_atom_site_fract_z
Si Si1 0.606086 0.601682 0.251750
Si Si2 0.817888 0.567389 0.824366
Si Si3 0.259942 0.923292 0.300990
Si Si4 0.723816 0.839145 0.560711
Si Si5 0.745210 0.673037 0.721530
Si Si6 0.814974 0.282224 0.543655
Si Si7 0.245255 0.604241 0.117653
O O1 0.609315 0.510578 0.237040
O O2 0.621985 0.646794 0.173957
O O3 0.268041 0.630684 0.401611
O O4 0.898277 0.631218 0.204154
O O5 0.865939 0.605289 0.732477
O O6 0.804777 0.474764 0.821402
O O7 0.127612 0.593332 0.767561
O O8 0.474782 0.593656 0.973038
O O9 0.550315 0.864676 0.221625
O O10 0.955299 0.910171 0.456743
O O11 0.403750 0.833522 0.618190
O O12 0.919929 0.757792 0.493471
O O13 0.521750 0.732503 0.840401
O O14 0.055998 0.714621 0.580060
#
# Coordination Sequence:
#
# PCOD8124504 Si02
#       7
#     4   4   4   4   4   4   4
#     4  11  20  38  61  93 120 160 205 259 297 367
#     4   9  18  35  63  92 119 149 204 257 299 359
#     4   9  20  36  64  91 118 156 206 253 306 355
#     4  10  19  38  60  89 123 164 199 253 298 367
#     4  11  22  43  58  87 123 171 196 258 302 364
#     4  11  24  39  61  86 130 161 210 239 314 367
#     4   9  18  35  64  96 114 153 208 250 301 363
#
# _framework density 20.832075
#
# number of rings (size 3 to 8) (size 9 to 14) (size 15 to 20)
#    0.000    2.000    1.429    3.857    0.000    0.571 
#    2.571    7.143    0.000    0.000    0.000    0.000 
#    0.000    0.000    0.000    0.000    0.000    0.000 
#
# Total GULP energy -347121.514219 kJ/mol
# GULP energy per Si atom -12397.196936 kJ/mol
# Density = 2.078466 g / cm^3
# Si number density = 20.832075 Si / 1000 Ang^3
#
#
#
# Elastic Constant Matrix: (Units=GPa)
#
#
# Indices 1 2 3 4 5 6 
#
# 1 97.0823 25.2809 40.1415 0.0000 5.2134 0.0000
# 2 25.2809 67.7154 39.7890 0.0000 2.5900 0.0000
# 3 40.1415 39.7890 104.6968 0.0000 10.7707 0.0000
# 4 0.0000 0.0000 0.0000 31.1301 0.0000 4.5441
# 5 5.2134 2.5900 10.7707 0.0000 17.9003 0.0000
# 6 0.0000 0.0000 0.0000 4.5441 0.0000 27.2411
#
#
#
# Elastic Compliance Matrix: (Units=1/GPa)
#
#
# Indices 1 2 3 4 5 6 
#
# 1 0.012552 -0.002422 -0.003786 0.000000 -0.001027 0.000000
# 2 -0.002422 0.019530 -0.006689 0.000000 0.001905 0.000000
# 3 -0.003786 -0.006689 0.014212 0.000000 -0.006481 0.000000
# 4 0.000000 0.000000 0.000000 0.032925 0.000000 -0.005492
# 5 -0.001027 0.001905 -0.006481 0.000000 0.059788 0.000000
# 6 0.000000 0.000000 0.000000 -0.005492 0.000000 0.037625
#
#
# Mechanical properties :
#
#
# Convention : Reuss Voigt Hill
#
# Bulk Modulus (GPa) = 48.78494 53.32414 51.05454
# Shear Modulus (GPa) = 23.89366 26.20652 25.05009
#
# Velocity S-wave (km/s) = 3.39036 3.55066 3.47144
# Velocity P-wave (km/s) = 6.22857 6.51631 6.37406
#
# Compressibility (1/GPa) = 0.02049813
#
# Stress axis : x y z
#
# Youngs Moduli (GPa) = 79.66862 51.20395 70.36262
#
# Poissons Ratio (x) = 0.12402 0.26642
# Poissons Ratio (y) = 0.19296 0.47069
# Poissons Ratio (z) = 0.30166 0.34253
#
# Static dielectric constant tensor:
#      x y z
#    x 3.764250 0.000000 -0.085760 
#    y 0.000000 3.746960 0.000000 
#    z -0.085760 0.000000 3.598410 
# 
# 
# High freq. dielectric constant tensor:
#      x y z
#    x 1.811590 0.000000 -0.001040 
#    y 0.000000 1.810900 0.000000 
#    z -0.001040 0.000000 1.791680 
# 
# From -- ./inp_files/65999.got.cif
#   From: 2010.03.12/outbox.cif.g09.slc.cpg/sg14_33_cif.got.tgz:65999.got - 2010.03.31 13:35:05.
