data_PCOD8124722
_publ_section_title
;
Structure prediction by ZEFSAII (Michael W. Deem and Ramdas Pophale) SiO2 
 PCOD8124722
Probable space group: P 21/C
;
_chemical_formula_sum "Si O2"
_cell_formula_units_Z 28
_cell_length_a 10.894374
_cell_length_b 6.870129
_cell_length_c 21.045921
_cell_angle_alpha 90.000000
_cell_angle_beta 71.512647
_cell_angle_gamma 90.000000
_cell_volume 1493.907664
_symmetry_space_group_name_H-M "P 21/C"
_symmetry_group_IT_number 14
_symmetry_cell_setting 'monoclinic'
loop_
_space_group_symop_operation_xyz
x,y,z
-x,1/2+y,1/2-z
-x,-y,-z
x,1/2-y,1/2+z
loop_
_atom_site_type_symbol
_atom_site_label
_atom_site_fract_x
_atom_site_fract_y
_atom_site_fract_z
Si Si1 0.688741 0.029728 0.434947
Si Si2 0.718114 0.125184 0.844973
Si Si3 0.644642 0.123739 0.172589
Si Si4 0.849359 0.726362 0.826556
Si Si5 0.471173 0.258959 0.811793
Si Si6 0.575844 0.083227 0.584651
Si Si7 0.129435 0.622082 0.270479
O O1 0.699053 0.259315 0.414977
O O2 0.673681 0.016284 0.513065
O O3 0.817317 0.915263 0.391283
O O4 0.569640 0.920251 0.418786
O O5 0.587258 0.154796 0.828730
O O6 0.838848 0.223272 0.789472
O O7 0.740473 0.894702 0.845504
O O8 0.518498 0.184441 0.234084
O O9 0.625865 0.210955 0.104734
O O10 0.780423 0.172912 0.183949
O O11 0.647419 0.890282 0.169654
O O12 0.848987 0.597105 0.761518
O O13 0.983820 0.837053 0.816284
O O14 0.414022 0.445187 0.856292
#
# Coordination Sequence:
#
# PCOD8124722 Si02
#       7
#     4   4   4   4   4   4   4
#     4   9  21  36  60  83 111 152 189 226 276 340
#     4   9  19  34  56  82 108 142 184 226 277 326
#     4  11  21  33  53  84 114 143 179 229 283 341
#     4  11  19  37  56  81 110 145 189 240 271 337
#     4  10  20  32  55  83 110 146 173 222 288 333
#     4  10  20  39  55  85 119 142 185 233 279 342
#     4  10  22  33  54  84 109 143 189 229 286 324
#
# _framework density 18.742791
#
# number of rings (size 3 to 8) (size 9 to 14) (size 15 to 20)
#    0.000    2.000    2.857    1.714    2.000    1.143 
#    0.000    5.000    0.000    1.714    0.000    0.000 
#    0.000    0.000    0.000    0.000    0.000    0.000 
#
# Total GULP energy -347015.855738 kJ/mol
# GULP energy per Si atom -12393.423419 kJ/mol
# Density = 1.870013 g / cm^3
# Si number density = 18.742791 Si / 1000 Ang^3
#
#
#
# Elastic Constant Matrix: (Units=GPa)
#
#
# Indices 1 2 3 4 5 6 
#
# 1 37.4193 13.8639 26.4630 0.0000 -4.5651 0.0000
# 2 13.8639 78.0538 14.3947 0.0000 -1.0599 0.0000
# 3 26.4630 14.3947 80.1322 0.0000 -3.1580 0.0000
# 4 0.0000 0.0000 0.0000 21.0228 0.0000 -2.8798
# 5 -4.5651 -1.0599 -3.1580 0.0000 21.5376 0.0000
# 6 0.0000 0.0000 0.0000 -2.8798 0.0000 27.7819
#
#
#
# Elastic Compliance Matrix: (Units=1/GPa)
#
#
# Indices 1 2 3 4 5 6 
#
# 1 0.037009 -0.004429 -0.011191 0.000000 0.005986 0.000000
# 2 -0.004429 0.013783 -0.001030 0.000000 -0.000411 0.000000
# 3 -0.011191 -0.001030 0.016359 0.000000 -0.000024 0.000000
# 4 0.000000 0.000000 0.000000 0.048252 0.000000 0.005002
# 5 0.005986 -0.000411 -0.000024 0.000000 0.047676 0.000000
# 6 0.000000 0.000000 0.000000 0.005002 0.000000 0.036513
#
#
# Mechanical properties :
#
#
# Convention : Reuss Voigt Hill
#
# Bulk Modulus (GPa) = 29.53912 33.89426 31.71669
# Shear Modulus (GPa) = 20.47724 23.46071 21.96898
#
# Velocity S-wave (km/s) = 3.30894 3.54180 3.42735
# Velocity P-wave (km/s) = 5.51301 5.90330 5.71149
#
# Compressibility (1/GPa) = 0.03385341
#
# Stress axis : x y z
#
# Youngs Moduli (GPa) = 27.02034 72.55548 61.12856
#
# Poissons Ratio (x) = 0.32131 0.68406
# Poissons Ratio (y) = 0.11966 0.06294
# Poissons Ratio (z) = 0.30237 0.07470
#
# Static dielectric constant tensor:
#      x y z
#    x 3.142700 0.000000 -0.098040 
#    y 0.000000 3.569730 0.000000 
#    z -0.098040 0.000000 3.322020 
# 
# 
# High freq. dielectric constant tensor:
#      x y z
#    x 1.702040 0.000000 -0.005400 
#    y 0.000000 1.738420 0.000000 
#    z -0.005400 0.000000 1.708730 
# 
# From -- ./inp_files/66267.got.cif
#   From: 2010.03.12/outbox.cif.g09.slc.cpg/sg14_34_cif.got.tgz:66267.got - 2010.03.31 13:35:05.
