data_PCOD8124669
_publ_section_title
;
Structure prediction by ZEFSAII (Michael W. Deem and Ramdas Pophale) SiO2 
 PCOD8124669
Probable space group: P 21/C
;
_chemical_formula_sum "Si O2"
_cell_formula_units_Z 32
_cell_length_a 5.225035
_cell_length_b 27.363708
_cell_length_c 11.160146
_cell_angle_alpha 90.000000
_cell_angle_beta 100.963878
_cell_angle_gamma 90.000000
_cell_volume 1566.512035
_symmetry_space_group_name_H-M "P 21/C"
_symmetry_group_IT_number 14
_symmetry_cell_setting 'monoclinic'
loop_
_space_group_symop_operation_xyz
x,y,z
-x,1/2+y,1/2-z
-x,-y,-z
x,1/2-y,1/2+z
loop_
_atom_site_type_symbol
_atom_site_label
_atom_site_fract_x
_atom_site_fract_y
_atom_site_fract_z
Si Si1 0.363296 0.859090 0.741405
Si Si2 0.091333 0.145756 0.459150
Si Si3 0.673190 0.819697 0.089879
Si Si4 0.408304 0.438781 0.877790
Si Si5 0.226867 0.395617 0.206891
Si Si6 0.242658 0.280043 0.781233
Si Si7 0.116034 0.819650 0.929498
Si Si8 0.296987 0.547462 0.862972
O O1 0.516865 0.909870 0.737768
O O2 0.542205 0.810531 0.776165
O O3 0.176094 0.865127 0.842283
O O4 0.212418 0.850939 0.601943
O O5 0.190277 0.092924 0.424652
O O6 0.145204 0.147415 0.605758
O O7 0.226805 0.191671 0.406862
O O8 0.684734 0.870303 0.162420
O O9 0.714735 0.776109 0.186838
O O10 0.387773 0.807018 0.015116
O O11 0.892506 0.827162 0.007880
O O12 0.287714 0.490362 0.828516
O O13 0.655358 0.446590 0.989721
O O14 0.471229 0.427239 0.188312
O O15 0.977162 0.430190 0.202546
O O16 0.982455 0.278962 0.675179
#
# Coordination Sequence:
#
# PCOD8124669 Si02
#       8
#     4   4   4   4   4   4   4   4
#     4  10  19  41  66  94 124 161 209 265 308 374
#     4   9  20  35  62  98 126 158 208 260 320 371
#     4  12  27  42  66  88 129 174 205 259 313 369
#     4   9  19  34  64  98 127 166 201 267 328 367
#     4  11  23  40  58  93 133 168 200 259 319 380
#     4  10  24  42  65  94 120 160 216 264 304 368
#     4  11  25  45  62  91 121 168 213 251 303 379
#     4  10  21  37  61  95 135 160 208 257 326 390
#
# _framework density 20.427547000000001
#
# number of rings (size 3 to 8) (size 9 to 14) (size 15 to 20)
#    0.000    1.750    2.500    0.750    7.000    1.500 
#    0.000    0.000    0.000    4.500    0.000    0.000 
#    0.000    0.000    0.000    0.000    0.000    0.000 
#
# Total GULP energy -396418.404897 kJ/mol
# GULP energy per Si atom -12388.075153 kJ/mol
# Density = 2.038105 g / cm^3
# Si number density = 20.427547 Si / 1000 Ang^3
#
#
#
# Elastic Constant Matrix: (Units=GPa)
#
#
# Indices 1 2 3 4 5 6 
#
# 1 198.4691 135.0511 48.7076 0.0000 103.2373 0.0000
# 2 135.0511 221.6593 41.2829 0.0000 117.8088 0.0000
# 3 48.7076 41.2829 91.4696 0.0000 12.6645 0.0000
# 4 0.0000 0.0000 0.0000 28.8423 0.0000 68.5452
# 5 103.2373 117.8088 12.6645 0.0000 155.6891 0.0000
# 6 0.0000 0.0000 0.0000 68.5452 0.0000 284.3336
#
#
#
# Elastic Compliance Matrix: (Units=1/GPa)
#
#
# Indices 1 2 3 4 5 6 
#
# 1 0.010314 -0.003636 -0.003322 0.000000 -0.003817 0.000000
# 2 -0.003636 0.009519 -0.001716 0.000000 -0.004652 0.000000
# 3 -0.003322 -0.001716 0.013139 0.000000 0.002433 0.000000
# 4 0.000000 0.000000 0.000000 0.081183 0.000000 -0.019571
# 5 -0.003817 -0.004652 0.002433 0.000000 0.012277 0.000000
# 6 0.000000 0.000000 0.000000 -0.019571 0.000000 0.008235
#
#
# Mechanical properties :
#
#
# Convention : Reuss Voigt Hill
#
# Bulk Modulus (GPa) = 64.00717 106.85346 85.43031
# Shear Modulus (GPa) = 31.80169 112.87675 72.33922
#
# Velocity S-wave (km/s) = 3.94992 7.44158 5.95730
# Velocity P-wave (km/s) = 7.22525 11.23647 9.44623
#
# Compressibility (1/GPa) = 0.01562325
#
# Stress axis : x y z
#
# Youngs Moduli (GPa) = 96.95486 105.05175 76.10715
#
# Poissons Ratio (x) = 0.38201 0.25286
# Poissons Ratio (y) = 0.35257 0.13058
# Poissons Ratio (z) = 0.32213 0.18024
#
# Static dielectric constant tensor:
#      x y z
#    x 4.086520 0.000000 0.336010 
#    y 0.000000 3.541360 0.000000 
#    z 0.336010 0.000000 4.277760 
# 
# 
# High freq. dielectric constant tensor:
#      x y z
#    x 1.811820 0.000000 0.004650 
#    y 0.000000 1.776390 0.000000 
#    z 0.004650 0.000000 1.786510 
# 
# From -- ./inp_files/22275.got.cif
#   From: 2010.03.12/outbox.cif.g09.slc.cpg/sg14_12_cif.got.tgz:22275.got - 2010.03.31 13:35:05.
