data_PCOD8124664
_publ_section_title
;
Structure prediction by ZEFSAII (Michael W. Deem and Ramdas Pophale) SiO2 
 PCOD8124664
Probable space group: P 21/C
;
_chemical_formula_sum "Si O2"
_cell_formula_units_Z 28
_cell_length_a 13.553309
_cell_length_b 9.142733
_cell_length_c 10.177364
_cell_angle_alpha 90.000000
_cell_angle_beta 66.835919
_cell_angle_gamma 90.000000
_cell_volume 1159.451907
_symmetry_space_group_name_H-M "P 21/C"
_symmetry_group_IT_number 14
_symmetry_cell_setting 'monoclinic'
loop_
_space_group_symop_operation_xyz
x,y,z
-x,1/2+y,1/2-z
-x,-y,-z
x,1/2-y,1/2+z
loop_
_atom_site_type_symbol
_atom_site_label
_atom_site_fract_x
_atom_site_fract_y
_atom_site_fract_z
Si Si1 0.099224 0.002486 0.808438
Si Si2 0.640974 0.502924 0.305865
Si Si3 0.240364 0.270848 0.367265
Si Si4 0.742151 0.221586 0.159028
Si Si5 0.593520 0.992368 0.126967
Si Si6 0.063193 0.848202 0.583254
Si Si7 0.954777 0.749419 0.392372
O O1 0.198899 0.892379 0.778027
O O2 0.077790 0.003663 0.657756
O O3 0.995227 0.915006 0.923679
O O4 0.141350 0.160259 0.833377
O O5 0.728112 0.614440 0.203957
O O6 0.696840 0.346349 0.277599
O O7 0.532960 0.497757 0.273242
O O8 0.609826 0.551640 0.467577
O O9 0.347017 0.367800 0.319167
O O10 0.176433 0.251732 0.540080
O O11 0.642835 0.149047 0.134539
O O12 0.819708 0.284485 0.006149
O O13 0.999140 0.865527 0.479562
O O14 0.004987 0.732303 0.717893
#
# Coordination Sequence:
#
# PCOD8124664 Si02
#       7
#     4   4   4   4   4   4   4
#     4   8  19  37  61  89 133 176 207 262 334 402
#     4  11  24  40  66  99 124 176 238 292 336 415
#     4  11  22  40  66  98 130 181 218 283 342 407
#     4  10  19  41  64  87 129 180 217 267 347 401
#     4  10  24  43  64  91 138 173 227 296 357 388
#     4   9  19  37  62  97 131 171 217 264 326 413
#     4   9  20  37  63  98 136 177 220 271 333 408
#
# _framework density 24.149342000000001
#
# number of rings (size 3 to 8) (size 9 to 14) (size 15 to 20)
#    0.857    1.429    0.000    2.143    2.000    1.143 
#    0.000    4.286    0.000    9.429    0.000    0.000 
#    0.000    0.000    0.000    0.000    0.000    0.000 
#
# Total GULP energy -346954.738501 kJ/mol
# GULP energy per Si atom -12391.240661 kJ/mol
# Density = 2.409438 g / cm^3
# Si number density = 24.149342 Si / 1000 Ang^3
#
#
#
# Elastic Constant Matrix: (Units=GPa)
#
#
# Indices 1 2 3 4 5 6 
#
# 1 102.5475 27.3433 25.7172 0.0000 -14.2432 0.0000
# 2 27.3433 59.8099 6.9786 0.0000 -13.6085 0.0000
# 3 25.7172 6.9786 82.2908 0.0000 -8.1818 0.0000
# 4 0.0000 0.0000 0.0000 26.1612 0.0000 -3.6862
# 5 -14.2432 -13.6085 -8.1818 0.0000 41.1476 0.0000
# 6 0.0000 0.0000 0.0000 -3.6862 0.0000 17.6020
#
#
#
# Elastic Compliance Matrix: (Units=1/GPa)
#
#
# Indices 1 2 3 4 5 6 
#
# 1 0.012078 -0.004697 -0.003178 0.000000 0.001996 0.000000
# 2 -0.004697 0.019981 0.000274 0.000000 0.005037 0.000000
# 3 -0.003178 0.000274 0.013284 0.000000 0.001632 0.000000
# 4 0.000000 0.000000 0.000000 0.039387 0.000000 0.008248
# 5 0.001996 0.005037 0.001632 0.000000 0.026984 0.000000
# 6 0.000000 0.000000 0.000000 0.008248 0.000000 0.058539
#
#
# Mechanical properties :
#
#
# Convention : Reuss Voigt Hill
#
# Bulk Modulus (GPa) = 33.17624 40.52516 36.85070
# Shear Modulus (GPa) = 25.57528 29.28946 27.43237
#
# Velocity S-wave (km/s) = 3.25783 3.48637 3.37404
# Velocity P-wave (km/s) = 5.28385 5.74664 5.52010
#
# Compressibility (1/GPa) = 0.03014206
#
# Stress axis : x y z
#
# Youngs Moduli (GPa) = 82.79459 50.04766 75.27748
#
# Poissons Ratio (x) = 0.23507 0.23922
# Poissons Ratio (y) = 0.38888 -0.02064
# Poissons Ratio (z) = 0.26311 -0.01372
#
# Static dielectric constant tensor:
#      x y z
#    x 4.511630 0.000000 -0.056460 
#    y 0.000000 4.466150 0.000000 
#    z -0.056460 0.000000 4.122380 
# 
# 
# High freq. dielectric constant tensor:
#      x y z
#    x 1.966670 0.000000 0.001350 
#    y 0.000000 1.972240 0.000000 
#    z 0.001350 0.000000 1.950050 
# 
# From -- ./inp_files/31729.got.cif
#   From: 2010.03.12/outbox.cif.g09.slc.cpg/sg14_16_cif.got.tgz:31729.got - 2010.03.31 13:35:05.
