data_PCOD8124377
_publ_section_title
;
Structure prediction by ZEFSAII (Michael W. Deem and Ramdas Pophale) SiO2 
 PCOD8124377
Probable space group: P 21/C
;
_chemical_formula_sum "Si O2"
_cell_formula_units_Z 32
_cell_length_a 16.525461
_cell_length_b 12.506771
_cell_length_c 13.794668
_cell_angle_alpha 90.000000
_cell_angle_beta 145.941158
_cell_angle_gamma 90.000000
_cell_volume 1596.732620
_symmetry_space_group_name_H-M "P 21/C"
_symmetry_group_IT_number 14
_symmetry_cell_setting 'monoclinic'
loop_
_space_group_symop_operation_xyz
x,y,z
-x,1/2+y,1/2-z
-x,-y,-z
x,1/2-y,1/2+z
loop_
_atom_site_type_symbol
_atom_site_label
_atom_site_fract_x
_atom_site_fract_y
_atom_site_fract_z
Si Si1 0.852189 0.639302 0.102724
Si Si2 0.062380 0.556172 0.705586
Si Si3 0.217682 0.029422 0.174834
Si Si4 0.152169 0.626193 0.167177
Si Si5 0.150029 0.777852 0.861784
Si Si6 0.323806 0.801698 0.220513
Si Si7 0.344499 0.288426 0.917847
Si Si8 0.819579 0.609867 0.851123
O O1 0.902183 0.516223 0.166010
O O2 0.729394 0.676144 0.055032
O O3 0.996503 0.709427 0.264057
O O4 0.794442 0.649988 0.936011
O O5 0.121411 0.493718 0.672173
O O6 0.146487 0.666208 0.801405
O O7 0.889129 0.570047 0.517554
O O8 0.306038 0.926312 0.228455
O O9 0.325738 0.124495 0.313001
O O10 0.175500 0.630871 0.306402
O O11 0.225452 0.727534 0.189879
O O12 0.219694 0.515548 0.195935
O O13 0.981938 0.631871 0.975891
O O14 0.280783 0.782218 0.066528
O O15 0.488465 0.769410 0.396093
O O16 0.283812 0.175158 0.822549
#
# Coordination Sequence:
#
# PCOD8124377 Si02
#       8
#     4   4   4   4   4   4   4   4
#     4  10  21  38  62  91 120 163 209 256 310 369
#     4  10  19  36  66  92 116 153 212 271 306 353
#     4  10  20  39  63  90 120 161 209 258 309 364
#     4  10  22  41  67  93 120 160 214 267 313 361
#     4  11  21  37  63  93 121 156 211 263 314 367
#     4  12  23  40  62  92 131 164 204 256 314 383
#     4  11  25  40  60  90 131 172 203 250 314 384
#     4  10  22  43  66  93 124 163 212 264 312 376
#
# _framework density 20.040925000000001
#
# number of rings (size 3 to 8) (size 9 to 14) (size 15 to 20)
#    0.000    1.500    2.500    3.375    1.750    3.500 
#    2.250    2.500    0.000    0.000    0.000    0.000 
#    0.000    0.000    0.000    0.000    0.000    0.000 
#
# Total GULP energy -396861.931289 kJ/mol
# GULP energy per Si atom -12401.935353 kJ/mol
# Density = 1.999531 g / cm^3
# Si number density = 20.040925 Si / 1000 Ang^3
#
#
#
# Elastic Constant Matrix: (Units=GPa)
#
#
# Indices 1 2 3 4 5 6 
#
# 1 53.1832 13.9382 32.5606 0.0000 -11.8925 0.0000
# 2 13.9382 86.1175 37.4202 0.0000 -11.3837 0.0000
# 3 32.5606 37.4202 125.5137 0.0000 -2.6827 0.0000
# 4 0.0000 0.0000 0.0000 22.4822 0.0000 -3.6331
# 5 -11.8925 -11.3837 -2.6827 0.0000 13.7637 0.0000
# 6 0.0000 0.0000 0.0000 -3.6331 0.0000 29.4225
#
#
#
# Elastic Compliance Matrix: (Units=1/GPa)
#
#
# Indices 1 2 3 4 5 6 
#
# 1 0.028330 0.001873 -0.007382 0.000000 0.024589 0.000000
# 2 0.001873 0.015096 -0.004705 0.000000 0.013187 0.000000
# 3 -0.007382 -0.004705 0.011112 0.000000 -0.008104 0.000000
# 4 0.000000 0.000000 0.000000 0.045385 0.000000 0.005604
# 5 0.024589 0.013187 -0.008104 0.000000 0.103228 0.000000
# 6 0.000000 0.000000 0.000000 0.005604 0.000000 0.034680
#
#
# Mechanical properties :
#
#
# Convention : Reuss Voigt Hill
#
# Bulk Modulus (GPa) = 29.31685 48.07249 38.69467
# Shear Modulus (GPa) = 18.54398 25.19339 21.86869
#
# Velocity S-wave (km/s) = 3.04518 3.54940 3.30692
# Velocity P-wave (km/s) = 5.19850 6.39038 5.82500
#
# Compressibility (1/GPa) = 0.03411008
#
# Stress axis : x y z
#
# Youngs Moduli (GPa) = 35.29813 66.24074 89.99456
#
# Poissons Ratio (x) = -0.12406 0.66435
# Poissons Ratio (y) = -0.06611 0.42341
# Poissons Ratio (z) = 0.26058 0.31165
#
# Static dielectric constant tensor:
#      x y z
#    x 3.473880 0.000000 -0.213290 
#    y 0.000000 3.708680 0.000000 
#    z -0.213290 0.000000 3.592410 
# 
# 
# High freq. dielectric constant tensor:
#      x y z
#    x 1.768660 0.000000 -0.018070 
#    y 0.000000 1.790980 0.000000 
#    z -0.018070 0.000000 1.774080 
# 
# From -- ./inp_files/49038.got.cif
#   From: 2010.03.12/outbox.cif.g09.slc.cpg/sg14_25_cif.got.tgz:49038.got - 2010.03.31 13:35:05.
