data_PCOD8124170
_publ_section_title
;
Structure prediction by ZEFSAII (Michael W. Deem and Ramdas Pophale) SiO2 
 PCOD8124170
Probable space group: P 21/C
;
_chemical_formula_sum "Si O2"
_cell_formula_units_Z 32
_cell_length_a 11.424843
_cell_length_b 9.213591
_cell_length_c 27.456392
_cell_angle_alpha 90.000000
_cell_angle_beta 141.659492
_cell_angle_gamma 90.000000
_cell_volume 1792.866782
_symmetry_space_group_name_H-M "P 21/C"
_symmetry_group_IT_number 14
_symmetry_cell_setting 'monoclinic'
loop_
_space_group_symop_operation_xyz
x,y,z
-x,1/2+y,1/2-z
-x,-y,-z
x,1/2-y,1/2+z
loop_
_atom_site_type_symbol
_atom_site_label
_atom_site_fract_x
_atom_site_fract_y
_atom_site_fract_z
Si Si1 0.931360 0.028593 0.367378
Si Si2 0.611661 0.664088 0.140414
Si Si3 0.795443 0.209822 0.883719
Si Si4 0.814736 0.296104 0.001008
Si Si5 0.636863 0.796829 0.250253
Si Si6 0.035473 0.136015 0.299519
Si Si7 0.925934 0.938555 0.874889
Si Si8 0.884975 0.441294 0.257896
O O1 0.731640 0.949882 0.294030
O O2 0.062069 0.935563 0.445735
O O3 0.896222 0.183832 0.379100
O O4 0.037118 0.049710 0.350608
O O5 0.641433 0.780064 0.193336
O O6 0.753452 0.701061 0.141912
O O7 0.670407 0.503293 0.180746
O O8 0.398254 0.668148 0.052069
O O9 0.574844 0.201937 0.798828
O O10 0.887057 0.051564 0.905849
O O11 0.831151 0.268341 0.949148
O O12 0.886132 0.153496 0.052521
O O13 0.747046 0.667496 0.312927
O O14 0.886111 0.268307 0.250596
O O15 0.982566 0.023699 0.238777
O O16 0.963064 0.023037 0.836842
#
# Coordination Sequence:
#
# PCOD8124170 Si02
#       8
#     4   4   4   4   4   4   4   4
#     4  11  21  34  59  85 111 146 188 226 280 328
#     4   8  19  35  58  78 112 144 184 220 277 328
#     4  11  20  36  55  80 116 142 193 234 267 327
#     4  10  22  37  54  77 116 158 178 219 283 336
#     4   9  19  35  56  83 109 146 185 233 282 321
#     4  10  19  35  60  82 109 137 183 236 271 326
#     4  10  19  35  57  82 108 150 187 224 280 327
#     4   9  19  35  59  82 107 137 186 232 272 319
#
# _framework density 17.848510999999998
#
# number of rings (size 3 to 8) (size 9 to 14) (size 15 to 20)
#    0.750    1.500    1.250    2.250    1.750    0.500 
#    0.000    0.625    8.250    0.000    0.000    0.000 
#    0.000    0.000    0.000    0.000    0.000    0.000 
#
# Total GULP energy -396670.247903 kJ/mol
# GULP energy per Si atom -12395.945247 kJ/mol
# Density = 1.780789 g / cm^3
# Si number density = 17.848511 Si / 1000 Ang^3
#
#
#
# Elastic Constant Matrix: (Units=GPa)
#
#
# Indices 1 2 3 4 5 6 
#
# 1 82.6609 25.2824 36.2491 0.0000 -2.5466 0.0000
# 2 25.2824 89.1925 34.7797 0.0000 3.4290 0.0000
# 3 36.2491 34.7797 94.0294 0.0000 12.0322 0.0000
# 4 0.0000 0.0000 0.0000 18.1216 0.0000 -6.3988
# 5 -2.5466 3.4290 12.0322 0.0000 26.1747 0.0000
# 6 0.0000 0.0000 0.0000 -6.3988 0.0000 30.1903
#
#
#
# Elastic Compliance Matrix: (Units=1/GPa)
#
#
# Indices 1 2 3 4 5 6 
#
# 1 0.015424 -0.002341 -0.005644 0.000000 0.004402 0.000000
# 2 -0.002341 0.013464 -0.004062 0.000000 -0.000124 0.000000
# 3 -0.005644 -0.004062 0.015210 0.000000 -0.007009 0.000000
# 4 0.000000 0.000000 0.000000 0.059647 0.000000 0.012642
# 5 0.004402 -0.000124 -0.007009 0.000000 0.041871 0.000000
# 6 0.000000 0.000000 0.000000 0.012642 0.000000 0.035803
#
#
# Mechanical properties :
#
#
# Convention : Reuss Voigt Hill
#
# Bulk Modulus (GPa) = 49.98568 50.94503 50.46535
# Shear Modulus (GPa) = 23.56505 26.20208 24.88356
#
# Velocity S-wave (km/s) = 3.63751 3.83564 3.73789
# Velocity P-wave (km/s) = 6.76079 6.94415 6.85308
#
# Compressibility (1/GPa) = 0.02000573
#
# Stress axis : x y z
#
# Youngs Moduli (GPa) = 64.83419 74.27318 65.74704
#
# Poissons Ratio (x) = 0.17385 0.37104
# Poissons Ratio (y) = 0.15175 0.26705
# Poissons Ratio (z) = 0.36589 0.30168
#
# Static dielectric constant tensor:
#      x y z
#    x 3.227790 0.000000 -0.057990 
#    y 0.000000 3.258340 0.000000 
#    z -0.057990 0.000000 3.239080 
# 
# 
# High freq. dielectric constant tensor:
#      x y z
#    x 1.688380 0.000000 -0.010390 
#    y 0.000000 1.692970 0.000000 
#    z -0.010390 0.000000 1.675040 
# 
# From -- ./inp_files/77050.got.cif
#   From: 2010.03.12/outbox.cif.g09.slc.cpg/sg14_39_cif.got.tgz:77050.got - 2010.03.31 13:35:05.
