data_PCOD8124143
_publ_section_title
;
Structure prediction by ZEFSAII (Michael W. Deem and Ramdas Pophale) SiO2 
 PCOD8124143
Probable space group: P 21/C
;
_chemical_formula_sum "Si O2"
_cell_formula_units_Z 28
_cell_length_a 8.501939
_cell_length_b 18.599648
_cell_length_c 8.747138
_cell_angle_alpha 90.000000
_cell_angle_beta 86.424922
_cell_angle_gamma 90.000000
_cell_volume 1380.520005
_symmetry_space_group_name_H-M "P 21/C"
_symmetry_group_IT_number 14
_symmetry_cell_setting 'monoclinic'
loop_
_space_group_symop_operation_xyz
x,y,z
-x,1/2+y,1/2-z
-x,-y,-z
x,1/2-y,1/2+z
loop_
_atom_site_type_symbol
_atom_site_label
_atom_site_fract_x
_atom_site_fract_y
_atom_site_fract_z
Si Si1 0.162034 0.427320 0.621777
Si Si2 0.210536 0.740945 0.456603
Si Si3 0.256986 0.513098 0.105570
Si Si4 0.030677 0.071018 0.812970
Si Si5 0.285448 0.849780 0.217688
Si Si6 0.585932 0.001855 0.727204
Si Si7 0.929049 0.155739 0.311022
O O1 0.137041 0.400131 0.449140
O O2 0.343403 0.447111 0.650015
O O3 0.058436 0.498611 0.639450
O O4 0.103992 0.369569 0.752354
O O5 0.315482 0.801354 0.365823
O O6 0.323725 0.697630 0.565613
O O7 0.143801 0.683483 0.343021
O O8 0.071544 0.780980 0.562979
O O9 0.146043 0.446915 0.164198
O O10 0.406355 0.518614 0.209635
O O11 0.170981 0.589294 0.116858
O O12 0.307507 0.495634 0.930877
O O13 0.901597 0.130085 0.773483
O O14 0.403211 0.916743 0.211795
#
# Coordination Sequence:
#
# PCOD8124143 Si02
#       7
#     4   4   4   4   4   4   4
#     4   9  18  32  53  79 105 128 169 222 264 306
#     4  10  20  32  56  78 106 140 178 218 260 324
#     4  10  21  35  54  79 109 142 178 223 269 314
#     4   9  18  32  53  79 105 128 169 222 264 306
#     4  10  19  35  55  82 102 138 179 222 266 319
#     4  10  21  35  54  79 109 142 178 223 269 314
#     4  10  19  35  55  82 102 138 179 222 266 319
#
# _framework density 20.282212000000001
#
# number of rings (size 3 to 8) (size 9 to 14) (size 15 to 20)
#    0.000    2.286    2.857    0.000    4.000    2.286 
#    0.000    0.000    0.000   10.286    0.000    0.000 
#    0.000    0.000    0.000    0.000    0.000    0.000 
#
# Total GULP energy -347045.755852 kJ/mol
# GULP energy per Si atom -12394.491280 kJ/mol
# Density = 2.023605 g / cm^3
# Si number density = 20.282212 Si / 1000 Ang^3
#
#
#
# Elastic Constant Matrix: (Units=GPa)
#
#
# Indices 1 2 3 4 5 6 
#
# 1 34.2740 -4.3640 -6.1134 0.0000 6.1980 0.0000
# 2 -4.3640 29.9923 -1.1081 0.0000 -5.7824 0.0000
# 3 -6.1134 -1.1081 61.6510 0.0000 4.4738 0.0000
# 4 0.0000 0.0000 0.0000 34.3612 0.0000 4.2809
# 5 6.1980 -5.7824 4.4738 0.0000 22.3987 0.0000
# 6 0.0000 0.0000 0.0000 4.2809 0.0000 11.2954
#
#
#
# Elastic Compliance Matrix: (Units=1/GPa)
#
#
# Indices 1 2 3 4 5 6 
#
# 1 0.031845 0.003082 0.003851 0.000000 -0.008785 0.000000
# 2 0.003082 0.035387 0.000346 0.000000 0.008214 0.000000
# 3 0.003851 0.000346 0.016925 0.000000 -0.004357 0.000000
# 4 0.000000 0.000000 0.000000 0.030545 0.000000 -0.011576
# 5 -0.008785 0.008214 -0.004357 0.000000 0.050067 0.000000
# 6 0.000000 0.000000 0.000000 -0.011576 0.000000 0.092919
#
#
# Mechanical properties :
#
#
# Convention : Reuss Voigt Hill
#
# Bulk Modulus (GPa) = 10.13046 11.41628 10.77337
# Shear Modulus (GPa) = 18.11373 22.77792 20.44582
#
# Velocity S-wave (km/s) = 2.99169 3.35483 3.17845
# Velocity P-wave (km/s) = 4.11573 4.54394 4.33513
#
# Compressibility (1/GPa) = 0.09871223
#
# Stress axis : x y z
#
# Youngs Moduli (GPa) = 31.40254 28.25923 59.08589
#
# Poissons Ratio (x) = -0.08710 -0.22752
# Poissons Ratio (y) = -0.09678 -0.02042
# Poissons Ratio (z) = -0.12092 -0.00977
#
# Static dielectric constant tensor:
#      x y z
#    x 3.365790 0.000000 0.103640 
#    y 0.000000 3.726260 0.000000 
#    z 0.103640 0.000000 3.965180 
# 
# 
# High freq. dielectric constant tensor:
#      x y z
#    x 1.741340 0.000000 0.006700 
#    y 0.000000 1.784220 0.000000 
#    z 0.006700 0.000000 1.813210 
# 
# From -- ./inp_files/9923.got.cif
#   From: 2010.03.12/outbox.cif.g09.slc.cpg/sg14_5_cif.got.tgz:9923.got - 2010.03.31 13:35:05.
