data_PCOD8124009
_publ_section_title
;
Structure prediction by ZEFSAII (Michael W. Deem and Ramdas Pophale) SiO2 
 PCOD8124009
Probable space group: P 21/C
;
_chemical_formula_sum "Si O2"
_cell_formula_units_Z 32
_cell_length_a 20.085728
_cell_length_b 8.785429
_cell_length_c 20.399162
_cell_angle_alpha 90.000000
_cell_angle_beta 151.617383
_cell_angle_gamma 90.000000
_cell_volume 1711.130192
_symmetry_space_group_name_H-M "P 21/C"
_symmetry_group_IT_number 14
_symmetry_cell_setting 'monoclinic'
loop_
_space_group_symop_operation_xyz
x,y,z
-x,1/2+y,1/2-z
-x,-y,-z
x,1/2-y,1/2+z
loop_
_atom_site_type_symbol
_atom_site_label
_atom_site_fract_x
_atom_site_fract_y
_atom_site_fract_z
Si Si1 0.065428 0.692542 0.257205
Si Si2 0.645101 0.840163 0.947518
Si Si3 0.349175 0.686797 0.561551
Si Si4 0.064438 0.796365 0.000435
Si Si5 0.338657 0.304541 0.173779
Si Si6 0.926164 0.844638 0.258139
Si Si7 0.332521 0.843923 0.683361
Si Si8 0.928619 0.650708 0.516419
O O1 0.234030 0.715400 0.405366
O O2 0.025255 0.518021 0.209478
O O3 0.004028 0.736786 0.274297
O O4 0.003143 0.798635 0.147491
O O5 0.681670 0.721495 0.921706
O O6 0.491097 0.806602 0.843879
O O7 0.646582 0.007971 0.916029
O O8 0.758505 0.826385 0.103607
O O9 0.501970 0.738102 0.667770
O O10 0.305157 0.781046 0.587054
O O11 0.965624 0.703311 0.865494
O O12 0.061063 0.970984 0.977331
O O13 0.223701 0.735491 0.138247
O O14 0.005370 0.770430 0.021861
O O15 0.301644 0.477614 0.157304
O O16 0.234127 0.199108 0.124731
#
# Coordination Sequence:
#
# PCOD8124009 Si02
#       8
#     4   4   4   4   4   4   4   4
#     4  11  21  35  58  86 114 144 184 231 278 331
#     4   9  19  34  54  83 115 142 177 228 281 331
#     4   9  19  34  54  83 115 142 177 228 281 331
#     4  11  24  40  56  78 113 153 190 232 280 330
#     4  10  19  33  56  83 110 145 184 226 279 333
#     4  11  21  35  58  86 114 144 184 231 278 331
#     4  10  19  33  56  83 110 145 184 226 279 333
#     4  11  24  40  56  78 113 153 190 232 280 330
#
# _framework density 18.701091000000002
#
# number of rings (size 3 to 8) (size 9 to 14) (size 15 to 20)
#    0.000    1.750    2.500    2.250    0.000    4.000 
#    0.000    1.250    0.000    7.500    0.000    0.000 
#    0.000    0.000    0.000    0.000    0.000    0.000 
#
# Total GULP energy -396858.821574 kJ/mol
# GULP energy per Si atom -12401.838174 kJ/mol
# Density = 1.865853 g / cm^3
# Si number density = 18.701091 Si / 1000 Ang^3
#
#
#
# Elastic Constant Matrix: (Units=GPa)
#
#
# Indices 1 2 3 4 5 6 
#
# 1 63.9157 1.1160 26.9191 0.0000 19.8595 0.0000
# 2 1.1160 35.6365 11.1219 0.0000 8.5954 0.0000
# 3 26.9191 11.1219 92.1548 0.0000 21.7994 0.0000
# 4 0.0000 0.0000 0.0000 25.6646 0.0000 3.0634
# 5 19.8595 8.5954 21.7994 0.0000 26.6681 0.0000
# 6 0.0000 0.0000 0.0000 3.0634 0.0000 27.9075
#
#
#
# Elastic Compliance Matrix: (Units=1/GPa)
#
#
# Indices 1 2 3 4 5 6 
#
# 1 0.021490 0.003867 -0.003302 0.000000 -0.014550 0.000000
# 2 0.003867 0.031333 -0.002282 0.000000 -0.011113 0.000000
# 3 -0.003302 -0.002282 0.014053 0.000000 -0.008293 0.000000
# 4 0.000000 0.000000 0.000000 0.039481 0.000000 -0.004334
# 5 -0.014550 -0.011113 -0.008293 0.000000 0.058694 0.000000
# 6 0.000000 0.000000 0.000000 -0.004334 0.000000 0.036308
#
#
# Mechanical properties :
#
#
# Convention : Reuss Voigt Hill
#
# Bulk Modulus (GPa) = 15.76267 30.00234 22.88251
# Shear Modulus (GPa) = 22.12967 26.21805 24.17386
#
# Velocity S-wave (km/s) = 3.44370 3.74833 3.59924
# Velocity P-wave (km/s) = 4.92535 5.90010 5.43463
#
# Compressibility (1/GPa) = 0.06344102
#
# Stress axis : x y z
#
# Youngs Moduli (GPa) = 46.53366 31.91552 71.15930
#
# Poissons Ratio (x) = -0.12342 0.23498
# Poissons Ratio (y) = -0.17995 0.16240
# Poissons Ratio (z) = 0.15366 0.07284
#
# Static dielectric constant tensor:
#      x y z
#    x 3.285220 0.000000 0.292210 
#    y 0.000000 3.514450 0.000000 
#    z 0.292210 0.000000 3.679100 
# 
# 
# High freq. dielectric constant tensor:
#      x y z
#    x 1.695140 0.000000 0.024710 
#    y 0.000000 1.737590 0.000000 
#    z 0.024710 0.000000 1.736460 
# 
# From -- ./inp_files/69805.got.cif
#   From: 2010.03.12/outbox.cif.g09.slc.cpg/sg14_35_cif.got.tgz:69805.got - 2010.03.31 13:35:05.
