data_PCOD8124367
_publ_section_title
;
Structure prediction by ZEFSAII (Michael W. Deem and Ramdas Pophale) SiO2 
 PCOD8124367
Probable space group: P 21/C
;
_chemical_formula_sum "Si O2"
_cell_formula_units_Z 32
_cell_length_a 21.266449
_cell_length_b 15.071481
_cell_length_c 14.651646
_cell_angle_alpha 90.000000
_cell_angle_beta 19.412871
_cell_angle_gamma 90.000000
_cell_volume 1560.856858
_symmetry_space_group_name_H-M "P 21/C"
_symmetry_group_IT_number 14
_symmetry_cell_setting 'monoclinic'
loop_
_space_group_symop_operation_xyz
x,y,z
-x,1/2+y,1/2-z
-x,-y,-z
x,1/2-y,1/2+z
loop_
_atom_site_type_symbol
_atom_site_label
_atom_site_fract_x
_atom_site_fract_y
_atom_site_fract_z
Si Si1 0.897747 0.825747 0.758911
Si Si2 0.305146 0.756747 0.183612
Si Si3 0.106912 0.635663 0.326735
Si Si4 0.080421 0.032001 0.757078
Si Si5 0.217185 0.256667 0.771670
Si Si6 0.255471 0.467964 0.407068
Si Si7 0.474000 0.635708 0.092294
Si Si8 0.711230 0.825714 0.631989
O O1 0.795204 0.815969 0.801912
O O2 0.123697 0.820353 0.438223
O O3 0.848173 0.922914 0.865547
O O4 0.832195 0.750028 0.917757
O O5 0.283658 0.688176 0.127909
O O6 0.321495 0.702083 0.256012
O O7 0.489600 0.816023 0.913237
O O8 0.181979 0.554312 0.162576
O O9 0.971133 0.602296 0.594292
O O10 0.976607 0.701964 0.445886
O O11 0.224105 0.077113 0.489676
O O12 0.889421 0.999867 0.971167
O O13 0.393194 0.188153 0.518517
O O14 0.252113 0.320252 0.810001
O O15 0.370951 0.554379 0.284473
O O16 0.398159 0.397665 0.167321
#
# Coordination Sequence:
#
# PCOD8124367 Si02
#       8
#     4   4   4   4   4   4   4   4
#     4  11  21  40  63  92 133 169 211 264 326 374
#     4  10  20  38  65  93 127 166 217 263 313 397
#     4  10  19  36  64  94 122 156 214 271 317 374
#     4  11  20  35  65  93 126 162 208 272 332 358
#     4  10  20  38  65  93 127 166 217 263 313 397
#     4  11  20  35  65  93 126 162 208 272 332 358
#     4  10  19  36  64  94 122 156 214 271 317 374
#     4  11  21  40  63  92 133 169 211 264 326 374
#
# _framework density 20.501559
#
# number of rings (size 3 to 8) (size 9 to 14) (size 15 to 20)
#    0.000    1.500    7.500    0.000    0.000    0.000 
#    0.000   11.250    0.000    0.000    0.000    0.000 
#    0.000    0.000    0.000    0.000    0.000    0.000 
#
# Total GULP energy -396834.940569 kJ/mol
# GULP energy per Si atom -12401.091893 kJ/mol
# Density = 2.045490 g / cm^3
# Si number density = 20.501559 Si / 1000 Ang^3
#
#
#
# Elastic Constant Matrix: (Units=GPa)
#
#
# Indices 1 2 3 4 5 6 
#
# 1 103.4102 42.0238 41.0716 0.0000 -15.0549 0.0000
# 2 42.0238 86.0563 43.3638 0.0000 2.0365 0.0000
# 3 41.0716 43.3638 85.5108 0.0000 -11.5509 0.0000
# 4 0.0000 0.0000 0.0000 37.7719 0.0000 16.2541
# 5 -15.0549 2.0365 -11.5509 0.0000 31.3187 0.0000
# 6 0.0000 0.0000 0.0000 16.2541 0.0000 26.9525
#
#
#
# Elastic Compliance Matrix: (Units=1/GPa)
#
#
# Indices 1 2 3 4 5 6 
#
# 1 0.013973 -0.005348 -0.003205 0.000000 0.005882 0.000000
# 2 -0.005348 0.018183 -0.007535 0.000000 -0.006532 0.000000
# 3 -0.003205 -0.007535 0.017800 0.000000 0.005514 0.000000
# 4 0.000000 0.000000 0.000000 0.035753 0.000000 -0.021561
# 5 0.005882 -0.006532 0.005514 0.000000 0.037216 0.000000
# 6 0.000000 0.000000 0.000000 -0.021561 0.000000 0.050105
#
#
# Mechanical properties :
#
#
# Convention : Reuss Voigt Hill
#
# Bulk Modulus (GPa) = 56.23952 58.65506 57.44729
# Shear Modulus (GPa) = 23.68207 29.10984 26.39595
#
# Velocity S-wave (km/s) = 3.40241 3.77222 3.59208
# Velocity P-wave (km/s) = 6.55184 6.90254 6.72947
#
# Compressibility (1/GPa) = 0.01778109
#
# Stress axis : x y z
#
# Youngs Moduli (GPa) = 71.56886 54.99644 56.18127
#
# Poissons Ratio (x) = 0.29410 0.18004
# Poissons Ratio (y) = 0.38272 0.42331
# Poissons Ratio (z) = 0.22936 0.41438
#
# Static dielectric constant tensor:
#      x y z
#    x 3.724560 0.000000 -0.166610 
#    y 0.000000 3.738530 0.000000 
#    z -0.166610 0.000000 3.609600 
# 
# 
# High freq. dielectric constant tensor:
#      x y z
#    x 1.799210 0.000000 -0.024870 
#    y 0.000000 1.790120 0.000000 
#    z -0.024870 0.000000 1.782370 
# 
# From -- ./inp_files/50674.got.cif
#   From: 2010.03.12/outbox.cif.g09.slc.cpg/sg14_26_cif.got.tgz:50674.got - 2010.03.31 13:35:05.
