data_PCOD8124679
_publ_section_title
;
Structure prediction by ZEFSAII (Michael W. Deem and Ramdas Pophale) SiO2 
 PCOD8124679
Probable space group: P 21/C
;
_chemical_formula_sum "Si O2"
_cell_formula_units_Z 24
_cell_length_a 15.190070
_cell_length_b 11.799450
_cell_length_c 14.069881
_cell_angle_alpha 90.000000
_cell_angle_beta 152.063330
_cell_angle_gamma 90.000000
_cell_volume 1181.455147
_symmetry_space_group_name_H-M "P 21/C"
_symmetry_group_IT_number 14
_symmetry_cell_setting 'monoclinic'
loop_
_space_group_symop_operation_xyz
x,y,z
-x,1/2+y,1/2-z
-x,-y,-z
x,1/2-y,1/2+z
loop_
_atom_site_type_symbol
_atom_site_label
_atom_site_fract_x
_atom_site_fract_y
_atom_site_fract_z
Si Si1 0.326178 0.155074 0.842298
Si Si2 0.499777 0.070050 0.693958
Si Si3 0.769673 0.240292 0.496643
Si Si4 0.558444 0.832280 0.695252
Si Si5 0.356363 0.960689 0.740946
Si Si6 0.808098 0.746603 0.102834
O O1 0.361874 0.273131 0.821967
O O2 0.183904 0.179610 0.792566
O O3 0.244031 0.059081 0.691870
O O4 0.524205 0.112776 0.071474
O O5 0.299782 0.128728 0.479686
O O6 0.537862 0.966869 0.657498
O O7 0.492232 0.023269 0.794871
O O8 0.670101 0.158610 0.843186
O O9 0.646180 0.218243 0.473197
O O10 0.782206 0.125283 0.445706
O O11 0.978700 0.277430 0.725980
O O12 0.698961 0.815136 0.917863
#
# Coordination Sequence:
#
# PCOD8124679 Si02
#       6
#     4   4   4   4   4   4
#     4  11  20  40  66  89 120 160 208 252 300 362
#     4  10  19  42  60  85 126 161 198 248 309 364
#     4  10  21  40  61  91 126 156 202 252 307 360
#     4  10  22  42  61  87 127 165 200 246 313 366
#     4  10  20  39  67  88 116 166 206 249 305 355
#     4  11  22  39  60  95 123 157 205 256 303 361
#
# _framework density 20.313932000000001
#
# number of rings (size 3 to 8) (size 9 to 14) (size 15 to 20)
#    0.000    1.667    8.333    0.000    0.000    4.000 
#    3.000    0.833    0.000    0.000    0.000    0.000 
#    0.000    0.000    0.000    0.000    0.000    0.000 
#
# Total GULP energy -297505.126597 kJ/mol
# GULP energy per Si atom -12396.046942 kJ/mol
# Density = 2.026770 g / cm^3
# Si number density = 20.313932 Si / 1000 Ang^3
#
#
#
# Elastic Constant Matrix: (Units=GPa)
#
#
# Indices 1 2 3 4 5 6 
#
# 1 69.3643 14.9215 32.5745 0.0000 -2.2417 0.0000
# 2 14.9215 114.2072 33.6711 0.0000 5.1965 0.0000
# 3 32.5745 33.6711 94.0908 0.0000 27.2056 0.0000
# 4 0.0000 0.0000 0.0000 14.6118 0.0000 -10.1257
# 5 -2.2417 5.1965 27.2056 0.0000 30.2646 0.0000
# 6 0.0000 0.0000 0.0000 -10.1257 0.0000 25.1702
#
#
#
# Elastic Compliance Matrix: (Units=1/GPa)
#
#
# Indices 1 2 3 4 5 6 
#
# 1 0.019228 -0.000171 -0.009480 0.000000 0.009975 0.000000
# 2 -0.000171 0.009879 -0.004029 0.000000 0.001913 0.000000
# 3 -0.009480 -0.004029 0.020747 0.000000 -0.018661 0.000000
# 4 0.000000 0.000000 0.000000 0.094892 0.000000 0.038174
# 5 0.009975 0.001913 -0.018661 0.000000 0.050227 0.000000
# 6 0.000000 0.000000 0.000000 0.038174 0.000000 0.055087
#
#
# Mechanical properties :
#
#
# Convention : Reuss Voigt Hill
#
# Bulk Modulus (GPa) = 44.45593 48.88852 46.67222
# Shear Modulus (GPa) = 17.54896 27.10900 22.32898
#
# Velocity S-wave (km/s) = 2.94239 3.65705 3.31901
# Velocity P-wave (km/s) = 5.78580 6.47694 6.14110
#
# Compressibility (1/GPa) = 0.02249419
#
# Stress axis : x y z
#
# Youngs Moduli (GPa) = 52.00868 101.22223 48.19900
#
# Poissons Ratio (x) = 0.01733 0.45690
# Poissons Ratio (y) = 0.00890 0.19420
# Poissons Ratio (z) = 0.49302 0.40785
#
# Static dielectric constant tensor:
#      x y z
#    x 3.581240 0.000000 -0.110070 
#    y 0.000000 4.105930 0.000000 
#    z -0.110070 0.000000 3.261520 
# 
# 
# High freq. dielectric constant tensor:
#      x y z
#    x 1.776780 0.000000 -0.009370 
#    y 0.000000 1.812870 0.000000 
#    z -0.009370 0.000000 1.756650 
# 
# From -- ./inp_files/47057.got.cif
#   From: 2010.03.12/outbox.cif.g09.slc.cpg/sg14_24_cif.got.tgz:47057.got - 2010.03.31 13:35:05.
