data_PCOD8124017
_publ_section_title
;
Structure prediction by ZEFSAII (Michael W. Deem and Ramdas Pophale) SiO2 
 PCOD8124017
Probable space group: P 21/C
;
_chemical_formula_sum "Si O2"
_cell_formula_units_Z 28
_cell_length_a 18.250601
_cell_length_b 9.291179
_cell_length_c 22.659185
_cell_angle_alpha 90.000000
_cell_angle_beta 22.892769
_cell_angle_gamma 90.000000
_cell_volume 1494.687727
_symmetry_space_group_name_H-M "P 21/C"
_symmetry_group_IT_number 14
_symmetry_cell_setting 'monoclinic'
loop_
_space_group_symop_operation_xyz
x,y,z
-x,1/2+y,1/2-z
-x,-y,-z
x,1/2-y,1/2+z
loop_
_atom_site_type_symbol
_atom_site_label
_atom_site_fract_x
_atom_site_fract_y
_atom_site_fract_z
Si Si1 0.149248 0.205907 0.510832
Si Si2 0.376515 0.382200 0.515053
Si Si3 0.135997 0.368691 0.149884
Si Si4 0.530469 0.257866 0.187791
Si Si5 0.340472 0.462007 0.410002
Si Si6 0.259685 0.631008 0.683447
Si Si7 0.774644 0.185844 0.400101
O O1 0.194815 0.119022 0.537390
O O2 0.318002 0.187490 0.337896
O O3 0.150693 0.375774 0.531402
O O4 0.948279 0.157143 0.634248
O O5 0.282552 0.225984 0.578756
O O6 0.369956 0.467262 0.458391
O O7 0.267304 0.475895 0.645410
O O8 0.593087 0.360355 0.372808
O O9 0.131788 0.529526 0.178679
O O10 0.929397 0.298831 0.309319
O O11 0.519767 0.378686 0.246745
O O12 0.667152 0.126815 0.106525
O O13 0.600436 0.326018 0.074680
O O14 0.304531 0.757655 0.603435
#
# Coordination Sequence:
#
# PCOD8124017 Si02
#       7
#     4   4   4   4   4   4   4
#     4   8  19  32  55  78 109 137 185 225 280 320
#     4  10  20  36  56  78 117 147 197 222 283 326
#     4  10  20  34  55  85 107 146 189 239 273 334
#     4  10  19  33  58  82 107 142 187 229 281 328
#     4   9  19  34  55  80 107 145 180 235 277 323
#     4  10  20  36  57  79 110 158 184 234 269 344
#     4  11  21  33  60  83 111 142 189 235 285 327
#
# _framework density 18.73301
#
# number of rings (size 3 to 8) (size 9 to 14) (size 15 to 20)
#    0.857    1.429    1.429    2.571    4.000    0.571 
#    0.000    0.714    3.143    1.714    0.000    0.000 
#    0.000    0.000    0.000    0.000    0.000    0.000 
#
# Total GULP energy -346893.395764 kJ/mol
# GULP energy per Si atom -12389.049849 kJ/mol
# Density = 1.869037 g / cm^3
# Si number density = 18.733010 Si / 1000 Ang^3
#
#
#
# Elastic Constant Matrix: (Units=GPa)
#
#
# Indices 1 2 3 4 5 6 
#
# 1 40.5466 12.8609 25.3649 0.0000 -15.5100 0.0000
# 2 12.8609 86.5827 12.8883 0.0000 -4.5570 0.0000
# 3 25.3649 12.8883 93.0218 0.0000 -3.9063 0.0000
# 4 0.0000 0.0000 0.0000 26.7073 0.0000 3.4449
# 5 -15.5100 -4.5570 -3.9063 0.0000 27.6419 0.0000
# 6 0.0000 0.0000 0.0000 3.4449 0.0000 21.3953
#
#
#
# Elastic Compliance Matrix: (Units=1/GPa)
#
#
# Indices 1 2 3 4 5 6 
#
# 1 0.039347 -0.003381 -0.009413 0.000000 0.020190 0.000000
# 2 -0.003381 0.012166 -0.000764 0.000000 0.000001 0.000000
# 3 -0.009413 -0.000764 0.013274 0.000000 -0.003532 0.000000
# 4 0.000000 0.000000 0.000000 0.038237 0.000000 -0.006157
# 5 0.020190 0.000001 -0.003532 0.000000 0.047007 0.000000
# 6 0.000000 0.000000 0.000000 -0.006157 0.000000 0.047731
#
#
# Mechanical properties :
#
#
# Convention : Reuss Voigt Hill
#
# Bulk Modulus (GPa) = 26.54460 35.81992 31.18226
# Shear Modulus (GPa) = 21.05857 26.41802 23.73830
#
# Velocity S-wave (km/s) = 3.35646 3.75939 3.56362
# Velocity P-wave (km/s) = 5.40572 6.16497 5.79779
#
# Compressibility (1/GPa) = 0.03767244
#
# Stress axis : x y z
#
# Youngs Moduli (GPa) = 25.41500 82.19936 75.33349
#
# Poissons Ratio (x) = 0.27789 0.70909
# Poissons Ratio (y) = 0.08592 0.05753
# Poissons Ratio (z) = 0.23922 0.06277
#
# Static dielectric constant tensor:
#      x y z
#    x 3.048330 0.000000 0.090820 
#    y 0.000000 3.493160 0.000000 
#    z 0.090820 0.000000 3.458650 
# 
# 
# High freq. dielectric constant tensor:
#      x y z
#    x 1.676640 0.000000 0.014140 
#    y 0.000000 1.735280 0.000000 
#    z 0.014140 0.000000 1.730550 
# 
# From -- ./inp_files/77914.got.cif
#   From: 2010.03.12/outbox.cif.g09.slc.cpg/sg14_39_cif.got.tgz:77914.got - 2010.03.31 13:35:05.
