data_PCOD8124393
_publ_section_title
;
Structure prediction by ZEFSAII (Michael W. Deem and Ramdas Pophale) SiO2 
 PCOD8124393
Probable space group: P 21/C
;
_chemical_formula_sum "Si O2"
_cell_formula_units_Z 28
_cell_length_a 27.792131
_cell_length_b 8.731773
_cell_length_c 9.749648
_cell_angle_alpha 90.000000
_cell_angle_beta 143.451842
_cell_angle_gamma 90.000000
_cell_volume 1408.943886
_symmetry_space_group_name_H-M "P 21/C"
_symmetry_group_IT_number 14
_symmetry_cell_setting 'monoclinic'
loop_
_space_group_symop_operation_xyz
x,y,z
-x,1/2+y,1/2-z
-x,-y,-z
x,1/2-y,1/2+z
loop_
_atom_site_type_symbol
_atom_site_label
_atom_site_fract_x
_atom_site_fract_y
_atom_site_fract_z
Si Si1 0.936257 0.405358 0.764863
Si Si2 0.264857 0.256126 0.937668
Si Si3 0.392758 0.459841 0.652992
Si Si4 0.840574 0.688440 0.556349
Si Si5 0.391220 0.457185 0.350986
Si Si6 0.528677 0.250953 0.063163
Si Si7 0.009879 0.648084 0.428904
O O1 0.853789 0.504225 0.579259
O O2 0.958298 0.380965 0.653597
O O3 0.928302 0.249087 0.835139
O O4 0.000000 0.500000 0.000000
O O5 0.187975 0.242263 0.859797
O O6 0.230831 0.264860 0.707848
O O7 0.324082 0.108907 0.096623
O O8 0.320130 0.407590 0.084737
O O9 0.354187 0.438209 0.415918
O O10 0.410614 0.638565 0.715681
O O11 0.475524 0.361451 0.845277
O O12 0.923580 0.772749 0.710151
O O13 0.415057 0.634391 0.390592
O O14 0.470481 0.349665 0.525600
O O15 0.000000 0.500000 0.500000
#
# Coordination Sequence:
#
# PCOD8124393 Si02
#       7
#     4   4   4   4   4   4   4
#     4  10  21  38  63  92 120 153 202 252 296 362
#     4  11  22  38  61  84 121 166 191 247 298 385
#     4  10  19  37  57  88 115 154 208 243 305 344
#     4  11  22  41  61  88 121 157 196 238 315 361
#     4  10  19  37  57  88 114 156 206 244 303 348
#     4   9  20  34  60  84 115 153 201 264 289 342
#     4  11  21  39  66  94 119 155 206 260 302 358
#
# _framework density 19.873042999999999
#
# number of rings (size 3 to 8) (size 9 to 14) (size 15 to 20)
#    0.000    1.714    1.429    5.143    0.000    0.000 
#    5.143    4.286    0.000    0.000    0.000    0.000 
#    0.000    0.000    0.000    0.000    0.000    0.000 
#
# Total GULP energy -346916.776622 kJ/mol
# GULP energy per Si atom -12389.884879 kJ/mol
# Density = 1.982781 g / cm^3
# Si number density = 19.873043 Si / 1000 Ang^3
#
#
#
# Elastic Constant Matrix: (Units=GPa)
#
#
# Indices 1 2 3 4 5 6 
#
# 1 79.5725 25.2987 22.1769 0.0000 -11.4007 0.0000
# 2 25.2987 129.5605 36.6639 0.0000 -0.2834 0.0000
# 3 22.1769 36.6639 84.8867 0.0000 -8.1883 0.0000
# 4 0.0000 0.0000 0.0000 25.8158 0.0000 -4.3563
# 5 -11.4007 -0.2834 -8.1883 0.0000 38.0883 0.0000
# 6 0.0000 0.0000 0.0000 -4.3563 0.0000 22.1709
#
#
#
# Elastic Compliance Matrix: (Units=1/GPa)
#
#
# Indices 1 2 3 4 5 6 
#
# 1 0.014478 -0.002109 -0.002507 0.000000 0.003779 0.000000
# 2 -0.002109 0.009122 -0.003516 0.000000 -0.001319 0.000000
# 3 -0.002507 -0.003516 0.014173 0.000000 0.002270 0.000000
# 4 0.000000 0.000000 0.000000 0.040064 0.000000 0.007872
# 5 0.003779 -0.001319 0.002270 0.000000 0.027864 0.000000
# 6 0.000000 0.000000 0.000000 0.007872 0.000000 0.046651
#
#
# Mechanical properties :
#
#
# Convention : Reuss Voigt Hill
#
# Bulk Modulus (GPa) = 46.49340 51.36651 48.92995
# Shear Modulus (GPa) = 28.44344 31.20700 29.82522
#
# Velocity S-wave (km/s) = 3.78730 3.96702 3.87820
# Velocity P-wave (km/s) = 6.52463 6.84737 6.68795
#
# Compressibility (1/GPa) = 0.02150843
#
# Stress axis : x y z
#
# Youngs Moduli (GPa) = 69.07095 109.61930 70.55620
#
# Poissons Ratio (x) = 0.23123 0.17687
# Poissons Ratio (y) = 0.14570 0.24810
# Poissons Ratio (z) = 0.17315 0.38546
#
# Static dielectric constant tensor:
#      x y z
#    x 3.486350 0.000000 -0.115920 
#    y 0.000000 4.014760 0.000000 
#    z -0.115920 0.000000 3.602590 
# 
# 
# High freq. dielectric constant tensor:
#      x y z
#    x 1.765590 0.000000 -0.012400 
#    y 0.000000 1.781250 0.000000 
#    z -0.012400 0.000000 1.771700 
# 
# From -- ./inp_files/19686.got.cif
#   From: 2010.03.12/outbox.cif.g09.slc.cpg/sg14_10_cif.got.tgz:19686.got - 2010.03.31 13:35:05.
