data_PCOD8124144
_publ_section_title
;
Structure prediction by ZEFSAII (Michael W. Deem and Ramdas Pophale) SiO2 
 PCOD8124144
Probable space group: P 21/C
;
_chemical_formula_sum "Si O2"
_cell_formula_units_Z 28
_cell_length_a 5.057811
_cell_length_b 26.037012
_cell_length_c 10.620911
_cell_angle_alpha 90.000000
_cell_angle_beta 87.142309
_cell_angle_gamma 90.000000
_cell_volume 1396.931479
_symmetry_space_group_name_H-M "P 21/C"
_symmetry_group_IT_number 14
_symmetry_cell_setting 'monoclinic'
loop_
_space_group_symop_operation_xyz
x,y,z
-x,1/2+y,1/2-z
-x,-y,-z
x,1/2-y,1/2+z
loop_
_atom_site_type_symbol
_atom_site_label
_atom_site_fract_x
_atom_site_fract_y
_atom_site_fract_z
Si Si1 0.251199 0.648956 0.915865
Si Si2 0.754806 0.714139 0.930162
Si Si3 0.779770 0.135392 0.301176
Si Si4 0.728611 0.701614 0.221457
Si Si5 0.711878 0.944669 0.064833
Si Si6 0.821058 0.433404 0.289846
Si Si7 0.022615 0.963185 0.831092
O O1 0.548682 0.669030 0.908057
O O2 0.243254 0.599512 0.829065
O O3 0.045400 0.694028 0.883240
O O4 0.170459 0.628327 0.053009
O O5 0.672319 0.759663 0.837727
O O6 0.742023 0.728737 0.081104
O O7 0.494370 0.157752 0.273075
O O8 0.997088 0.175275 0.246142
O O9 0.811691 0.078150 0.249112
O O10 0.415071 0.928272 0.102569
O O11 0.913551 0.912088 0.149151
O O12 0.796996 0.934023 0.918846
O O13 0.762572 0.006241 0.086427
O O14 0.871712 0.493436 0.249225
#
# Coordination Sequence:
#
# PCOD8124144 Si02
#       7
#     4   4   4   4   4   4   4
#     4  10  21  38  60  82 115 149 185 239 284 339
#     4  10  21  42  60  82 117 144 190 242 293 335
#     4  10  22  37  60  83 116 151 187 229 292 338
#     4  10  22  41  60  86 111 151 188 241 292 345
#     4   9  20  34  53  77 120 151 182 238 269 316
#     4  10  19  35  55  82 112 150 189 223 284 328
#     4   9  21  35  56  79 122 149 191 230 279 328
#
# _framework density 20.043932000000002
#
# number of rings (size 3 to 8) (size 9 to 14) (size 15 to 20)
#    0.857    1.429    0.000    2.143    2.000    0.571 
#    7.714    0.714    0.000    0.000    0.000    0.000 
#    0.000    0.000    0.000    0.000    0.000    0.000 
#
# Total GULP energy -346932.312342 kJ/mol
# GULP energy per Si atom -12390.439727 kJ/mol
# Density = 1.999831 g / cm^3
# Si number density = 20.043932 Si / 1000 Ang^3
#
#
#
# Elastic Constant Matrix: (Units=GPa)
#
#
# Indices 1 2 3 4 5 6 
#
# 1 67.9000 -4.0995 2.7828 0.0000 -9.5453 0.0000
# 2 -4.0995 42.0768 23.9888 0.0000 -2.9356 0.0000
# 3 2.7828 23.9888 43.3246 0.0000 -2.5973 0.0000
# 4 0.0000 0.0000 0.0000 40.7648 0.0000 3.6316
# 5 -9.5453 -2.9356 -2.5973 0.0000 25.2515 0.0000
# 6 0.0000 0.0000 0.0000 3.6316 0.0000 19.5684
#
#
#
# Elastic Compliance Matrix: (Units=1/GPa)
#
#
# Indices 1 2 3 4 5 6 
#
# 1 0.015904 0.003435 -0.002555 0.000000 0.006148 0.000000
# 2 0.003435 0.035579 -0.019717 0.000000 0.003407 0.000000
# 3 -0.002555 -0.019717 0.034178 0.000000 0.000258 0.000000
# 4 0.000000 0.000000 0.000000 0.024943 0.000000 -0.004629
# 5 0.006148 0.003407 0.000258 0.000000 0.042348 0.000000
# 6 0.000000 0.000000 0.000000 -0.004629 0.000000 0.051962
#
#
# Mechanical properties :
#
#
# Convention : Reuss Voigt Hill
#
# Bulk Modulus (GPa) = 20.83832 22.07173 21.45503
# Shear Modulus (GPa) = 19.33609 25.82558 22.58084
#
# Velocity S-wave (km/s) = 3.10931 3.59339 3.36008
# Velocity P-wave (km/s) = 4.82797 5.31528 5.07747
#
# Compressibility (1/GPa) = 0.04798850
#
# Stress axis : x y z
#
# Youngs Moduli (GPa) = 62.87730 28.10629 29.25845
#
# Poissons Ratio (x) = -0.09655 0.07475
# Poissons Ratio (y) = -0.21599 0.57688
# Poissons Ratio (z) = 0.16065 0.55416
#
# Static dielectric constant tensor:
#      x y z
#    x 3.800210 0.000000 -0.065990 
#    y 0.000000 3.265950 0.000000 
#    z -0.065990 0.000000 3.591720 
# 
# 
# High freq. dielectric constant tensor:
#      x y z
#    x 1.799730 0.000000 -0.005240 
#    y 0.000000 1.753300 0.000000 
#    z -0.005240 0.000000 1.772860 
# 
# From -- ./inp_files/21985.got.cif
#   From: 2010.03.12/outbox.cif.g09.slc.cpg/sg14_11_cif.got.tgz:21985.got - 2010.03.31 13:35:05.
