data_PCOD8124326
_publ_section_title
;
Structure prediction by ZEFSAII (Michael W. Deem and Ramdas Pophale) SiO2 
 PCOD8124326
Probable space group: P 21/C
;
_chemical_formula_sum "Si O2"
_cell_formula_units_Z 24
_cell_length_a 8.276675
_cell_length_b 11.511768
_cell_length_c 11.578772
_cell_angle_alpha 90.000000
_cell_angle_beta 78.023290
_cell_angle_gamma 90.000000
_cell_volume 1079.200935
_symmetry_space_group_name_H-M "P 21/C"
_symmetry_group_IT_number 14
_symmetry_cell_setting 'monoclinic'
loop_
_space_group_symop_operation_xyz
x,y,z
-x,1/2+y,1/2-z
-x,-y,-z
x,1/2-y,1/2+z
loop_
_atom_site_type_symbol
_atom_site_label
_atom_site_fract_x
_atom_site_fract_y
_atom_site_fract_z
Si Si1 0.805748 0.991208 0.005581
Si Si2 0.341132 0.539781 0.956163
Si Si3 0.064662 0.093110 0.619882
Si Si4 0.153193 0.741220 0.494896
Si Si5 0.769722 0.951104 0.744641
Si Si6 0.832266 0.801308 0.174759
O O1 0.749358 0.121355 0.052432
O O2 0.741806 0.964731 0.885591
O O3 0.740981 0.883621 0.093288
O O4 0.000000 0.000000 0.000000
O O5 0.358954 0.529563 0.813349
O O6 0.500000 0.500000 0.000000
O O7 0.178170 0.460116 0.002483
O O8 0.299139 0.669484 0.005211
O O9 0.187994 0.136740 0.699644
O O10 0.958350 0.203479 0.590929
O O11 0.955741 0.991461 0.691210
O O12 0.029002 0.715142 0.619774
O O13 0.740229 0.820657 0.702869
#
# Coordination Sequence:
#
# PCOD8124326 Si02
#       6
#     4   4   4   4   4   4
#     4  10  20  34  60 100 121 148 193 272 322 355
#     4  11  24  41  59  86 126 170 208 243 309 379
#     4  11  20  35  64  89 117 157 203 261 310 361
#     4  10  19  36  60  91 117 153 201 260 306 358
#     4  11  20  37  62  91 120 155 205 261 303 365
#     4  11  19  33  64  96 121 147 205 264 319 356
#
# _framework density 22.238672999999999
#
# number of rings (size 3 to 8) (size 9 to 14) (size 15 to 20)
#    0.000    1.333    6.667    3.000    0.000    0.000 
#    0.000    1.667    0.000    2.000    0.000    0.000 
#    0.000    0.000    0.000    0.000    0.000    0.000 
#
# Total GULP energy -297349.589691 kJ/mol
# GULP energy per Si atom -12389.566237 kJ/mol
# Density = 2.218806 g / cm^3
# Si number density = 22.238673 Si / 1000 Ang^3
#
#
#
# Elastic Constant Matrix: (Units=GPa)
#
#
# Indices 1 2 3 4 5 6 
#
# 1 48.2995 26.1401 5.4025 0.0000 20.7158 0.0000
# 2 26.1401 192.9617 58.7561 0.0000 10.6148 0.0000
# 3 5.4025 58.7561 104.7076 0.0000 25.1015 0.0000
# 4 0.0000 0.0000 0.0000 37.7087 0.0000 7.6621
# 5 20.7158 10.6148 25.1015 0.0000 22.4071 0.0000
# 6 0.0000 0.0000 0.0000 7.6621 0.0000 19.3389
#
#
#
# Elastic Compliance Matrix: (Units=1/GPa)
#
#
# Indices 1 2 3 4 5 6 
#
# 1 0.049126 -0.008397 0.016559 0.000000 -0.059990 0.000000
# 2 -0.008397 0.007714 -0.006673 0.000000 0.011584 0.000000
# 3 0.016559 -0.006673 0.020989 0.000000 -0.035661 0.000000
# 4 0.000000 0.000000 0.000000 0.028841 0.000000 -0.011427
# 5 -0.059990 0.011584 -0.035661 0.000000 0.134552 0.000000
# 6 0.000000 0.000000 0.000000 -0.011427 0.000000 0.056237
#
#
# Mechanical properties :
#
#
# Convention : Reuss Voigt Hill
#
# Bulk Modulus (GPa) = 12.37501 58.50737 35.44119
# Shear Modulus (GPa) = 15.55608 32.93561 24.24585
#
# Velocity S-wave (km/s) = 2.64769 3.85256 3.30548
# Velocity P-wave (km/s) = 3.86312 6.79379 5.52627
#
# Compressibility (1/GPa) = 0.08080799
#
# Stress axis : x y z
#
# Youngs Moduli (GPa) = 20.35565 129.62641 47.64336
#
# Poissons Ratio (x) = 1.08848 -0.78891
# Poissons Ratio (y) = 0.17093 0.31791
# Poissons Ratio (z) = -0.33706 0.86495
#
# Static dielectric constant tensor:
#      x y z
#    x 3.255200 0.000000 0.161350 
#    y 0.000000 4.759710 0.000000 
#    z 0.161350 0.000000 4.112730 
# 
# 
# High freq. dielectric constant tensor:
#      x y z
#    x 1.803960 0.000000 0.026320 
#    y 0.000000 1.900960 0.000000 
#    z 0.026320 0.000000 1.877450 
# 
# From -- ./inp_files/24175.got.cif
#   From: 2010.03.12/outbox.cif.g09.slc.cpg/sg14_13_cif.got.tgz:24175.got - 2010.03.31 13:35:05.
