data_PCOD8124577
_publ_section_title
;
Structure prediction by ZEFSAII (Michael W. Deem and Ramdas Pophale) SiO2 
 PCOD8124577
Probable space group: P 21/C
;
_chemical_formula_sum "Si O2"
_cell_formula_units_Z 28
_cell_length_a 7.573732
_cell_length_b 8.824993
_cell_length_c 20.409506
_cell_angle_alpha 90.000000
_cell_angle_beta 123.945223
_cell_angle_gamma 90.000000
_cell_volume 1131.646484
_symmetry_space_group_name_H-M "P 21/C"
_symmetry_group_IT_number 14
_symmetry_cell_setting 'monoclinic'
loop_
_space_group_symop_operation_xyz
x,y,z
-x,1/2+y,1/2-z
-x,-y,-z
x,1/2-y,1/2+z
loop_
_atom_site_type_symbol
_atom_site_label
_atom_site_fract_x
_atom_site_fract_y
_atom_site_fract_z
Si Si1 0.582666 0.089312 0.954698
Si Si2 0.301638 0.590874 0.797489
Si Si3 0.786566 0.609820 0.853286
Si Si4 0.556661 0.161909 0.538120
Si Si5 0.179682 0.772656 0.652120
Si Si6 0.347011 0.247000 0.298342
Si Si7 0.845920 0.684637 0.484910
O O1 0.385079 0.137103 0.866765
O O2 0.676071 0.246353 0.004317
O O3 0.500000 0.000000 0.000000
O O4 0.762875 0.989061 0.954561
O O5 0.541523 0.594289 0.821620
O O6 0.288923 0.664907 0.866905
O O7 0.149907 0.688728 0.716916
O O8 0.238552 0.414142 0.793418
O O9 0.904112 0.446539 0.871394
O O10 0.812688 0.676815 0.786043
O O11 0.893986 0.723862 0.927910
O O12 0.330550 0.234272 0.508079
O O13 0.500000 0.000000 0.500000
O O14 0.427470 0.778855 0.689040
O O15 0.061013 0.675847 0.572034
#
# Coordination Sequence:
#
# PCOD8124577 Si02
#       7
#     4   4   4   4   4   4   4
#     4  10  22  36  62  82 115 157 205 242 287 362
#     4   9  19  35  59  85 112 156 202 243 292 364
#     4   9  20  34  59  84 120 155 191 238 304 367
#     4  10  19  39  62  80 112 161 212 243 288 367
#     4  10  21  37  59  87 125 150 188 257 316 355
#     4  10  20  36  59  89 112 154 201 240 299 363
#     4  10  22  38  57  90 121 150 196 252 311 353
#
# _framework density 24.742709000000001
#
# number of rings (size 3 to 8) (size 9 to 14) (size 15 to 20)
#    0.000    2.286    1.429    0.429   12.000    0.571 
#    0.000    1.429    0.000    0.000    0.000    0.000 
#    0.000    0.000    0.000    0.000    0.000    0.000 
#
# Total GULP energy -346941.492976 kJ/mol
# GULP energy per Si atom -12390.767606 kJ/mol
# Density = 2.468639 g / cm^3
# Si number density = 24.742709 Si / 1000 Ang^3
#
#
#
# Elastic Constant Matrix: (Units=GPa)
#
#
# Indices 1 2 3 4 5 6 
#
# 1 9.2472 21.4042 18.9324 0.0000 -6.3743 0.0000
# 2 21.4042 196.0265 89.5357 0.0000 -17.9985 0.0000
# 3 18.9324 89.5357 201.3947 0.0000 -34.7495 0.0000
# 4 0.0000 0.0000 0.0000 49.1471 0.0000 -27.4710
# 5 -6.3743 -17.9985 -34.7495 0.0000 31.7733 0.0000
# 6 0.0000 0.0000 0.0000 -27.4710 0.0000 -4.0627
#
#
#
# Elastic Compliance Matrix: (Units=1/GPa)
#
#
# Indices 1 2 3 4 5 6 
#
# 1 0.164963 -0.013411 -0.006343 0.000000 0.018561 0.000000
# 2 -0.013411 0.007502 -0.002225 0.000000 -0.000875 0.000000
# 3 -0.006343 -0.002225 0.007536 0.000000 0.005709 0.000000
# 4 0.000000 0.000000 0.000000 0.004257 0.000000 -0.028786
# 5 0.018561 -0.000875 0.005709 0.000000 0.040945 0.000000
# 6 0.000000 0.000000 0.000000 -0.028786 0.000000 -0.051499
#
#
# Mechanical properties :
#
#
# Convention : Reuss Voigt Hill
#
# Bulk Modulus (GPa) = 7.35066 74.04589 40.69828
# Shear Modulus (GPa) = 19.01077 33.82461 26.41769
#
# Velocity S-wave (km/s) = 2.77490 3.70138 3.27111
# Velocity P-wave (km/s) = 3.63924 6.94682 5.54537
#
# Compressibility (1/GPa) = 0.13604212
#
# Stress axis : x y z
#
# Youngs Moduli (GPa) = 6.06198 133.30093 132.69612
#
# Poissons Ratio (x) = 1.78770 0.84167
# Poissons Ratio (y) = 0.08130 0.29530
# Poissons Ratio (z) = 0.03845 0.29664
#
# Static dielectric constant tensor:
#      x y z
#    x 3.289510 0.000000 0.082470 
#    y 0.000000 4.560540 0.000000 
#    z 0.082470 0.000000 4.283370 
# 
# 
# High freq. dielectric constant tensor:
#      x y z
#    x 1.950790 0.000000 -0.020020 
#    y 0.000000 2.004830 0.000000 
#    z -0.020020 0.000000 1.986100 
# 
# From -- ./inp_files/73008.got.cif
#   From: 2010.03.12/outbox.cif.g09.slc.cpg/sg14_37_cif.got.tgz:73008.got - 2010.03.31 13:35:05.
