data_PCOD8124315
_publ_section_title
;
Structure prediction by ZEFSAII (Michael W. Deem and Ramdas Pophale) SiO2 
 PCOD8124315
Probable space group: P 21/C
;
_chemical_formula_sum "Si O2"
_cell_formula_units_Z 32
_cell_length_a 8.907951
_cell_length_b 22.535795
_cell_length_c 16.030894
_cell_angle_alpha 90.000000
_cell_angle_beta 31.113622
_cell_angle_gamma 90.000000
_cell_volume 1662.945104
_symmetry_space_group_name_H-M "P 21/C"
_symmetry_group_IT_number 14
_symmetry_cell_setting 'monoclinic'
loop_
_space_group_symop_operation_xyz
x,y,z
-x,1/2+y,1/2-z
-x,-y,-z
x,1/2-y,1/2+z
loop_
_atom_site_type_symbol
_atom_site_label
_atom_site_fract_x
_atom_site_fract_y
_atom_site_fract_z
Si Si1 0.909119 0.540075 0.964784
Si Si2 0.385394 0.756668 0.252537
Si Si3 0.175813 0.431266 0.480329
Si Si4 0.938718 0.681697 0.558246
Si Si5 0.849004 0.670914 0.950927
Si Si6 0.087537 0.125454 0.758001
Si Si7 0.364952 0.554053 0.611930
Si Si8 0.680129 0.517417 0.757416
O O1 0.592170 0.520884 0.084664
O O2 0.896358 0.611832 0.985963
O O3 0.000000 0.500000 0.000000
O O4 0.118972 0.526244 0.788183
O O5 0.612963 0.799812 0.188605
O O6 0.191354 0.727710 0.417485
O O7 0.152397 0.792142 0.306519
O O8 0.569147 0.708115 0.113559
O O9 0.991136 0.377873 0.527790
O O10 0.400879 0.409911 0.443849
O O11 0.363250 0.461661 0.317585
O O12 0.968002 0.477780 0.624964
O O13 0.948813 0.674041 0.652684
O O14 0.776181 0.653589 0.890164
O O15 0.294115 0.072800 0.692420
O O16 0.766276 0.100633 0.890881
O O17 0.500000 0.500000 0.500000
#
# Coordination Sequence:
#
# PCOD8124315 Si02
#       8
#     4   4   4   4   4   4   4   4
#     4  11  22  37  62  90 125 158 197 244 304 367
#     4  10  22  42  63  82 113 159 213 241 303 352
#     4  10  19  36  60  84 119 162 196 231 297 363
#     4  10  21  38  62  83 110 157 203 251 284 360
#     4  10  23  40  62  89 118 157 198 258 298 351
#     4  10  22  37  61  88 124 149 197 248 303 345
#     4  11  21  36  53  86 124 159 187 234 296 357
#     4  10  20  35  59  88 121 160 193 233 292 373
#
# _framework density 19.242968999999999
#
# number of rings (size 3 to 8) (size 9 to 14) (size 15 to 20)
#    0.000    1.750    2.500    2.250    1.750    4.000 
#    2.250    0.000    0.000    0.000    0.000    0.000 
#    0.000    0.000    0.000    0.000    0.000    0.000 
#
# Total GULP energy -396705.732927 kJ/mol
# GULP energy per Si atom -12397.054154 kJ/mol
# Density = 1.919917 g / cm^3
# Si number density = 19.242969 Si / 1000 Ang^3
#
#
#
# Elastic Constant Matrix: (Units=GPa)
#
#
# Indices 1 2 3 4 5 6 
#
# 1 107.8866 37.7299 48.6579 0.0000 4.0252 0.0000
# 2 37.7299 98.1775 50.3816 0.0000 3.5225 0.0000
# 3 48.6579 50.3816 95.6435 0.0000 0.7245 0.0000
# 4 0.0000 0.0000 0.0000 37.8582 0.0000 1.2106
# 5 4.0252 3.5225 0.7245 0.0000 23.2192 0.0000
# 6 0.0000 0.0000 0.0000 1.2106 0.0000 31.9575
#
#
#
# Elastic Compliance Matrix: (Units=1/GPa)
#
#
# Indices 1 2 3 4 5 6 
#
# 1 0.012397 -0.002020 -0.005230 0.000000 -0.001679 0.000000
# 2 -0.002020 0.014371 -0.006530 0.000000 -0.001626 0.000000
# 3 -0.005230 -0.006530 0.016546 0.000000 0.001381 0.000000
# 4 0.000000 0.000000 0.000000 0.026446 0.000000 -0.001002
# 5 -0.001679 -0.001626 0.001381 0.000000 0.043563 0.000000
# 6 0.000000 0.000000 0.000000 -0.001002 0.000000 0.031329
#
#
# Mechanical properties :
#
#
# Convention : Reuss Voigt Hill
#
# Bulk Modulus (GPa) = 63.47903 63.91625 63.69764
# Shear Modulus (GPa) = 28.17464 29.60286 28.88875
#
# Velocity S-wave (km/s) = 3.83058 3.92646 3.87882
# Velocity P-wave (km/s) = 7.25425 7.33782 7.29616
#
# Compressibility (1/GPa) = 0.01575323
#
# Stress axis : x y z
#
# Youngs Moduli (GPa) = 80.66556 69.58224 60.43853
#
# Poissons Ratio (x) = 0.14056 0.31609
# Poissons Ratio (y) = 0.16295 0.39469
# Poissons Ratio (z) = 0.42188 0.45440
#
# Static dielectric constant tensor:
#      x y z
#    x 3.574830 0.000000 -0.064410 
#    y 0.000000 3.672800 0.000000 
#    z -0.064410 0.000000 3.468950 
# 
# 
# High freq. dielectric constant tensor:
#      x y z
#    x 1.750980 0.000000 -0.007500 
#    y 0.000000 1.748470 0.000000 
#    z -0.007500 0.000000 1.746450 
# 
# From -- ./inp_files/42196.got.cif
#   From: 2010.03.12/outbox.cif.g09.slc.cpg/sg14_22_cif.got.tgz:42196.got - 2010.03.31 13:35:05.
