data_PCOD8124857
_publ_section_title
;
Structure prediction by ZEFSAII (Michael W. Deem and Ramdas Pophale) SiO2 
 PCOD8124857
Probable space group: P 21/C
;
_chemical_formula_sum "Si O2"
_cell_formula_units_Z 32
_cell_length_a 9.289019
_cell_length_b 9.194644
_cell_length_c 19.226429
_cell_angle_alpha 90.000000
_cell_angle_beta 97.476560
_cell_angle_gamma 90.000000
_cell_volume 1628.153393
_symmetry_space_group_name_H-M "P 21/C"
_symmetry_group_IT_number 14
_symmetry_cell_setting 'monoclinic'
loop_
_space_group_symop_operation_xyz
x,y,z
-x,1/2+y,1/2-z
-x,-y,-z
x,1/2-y,1/2+z
loop_
_atom_site_type_symbol
_atom_site_label
_atom_site_fract_x
_atom_site_fract_y
_atom_site_fract_z
Si Si1 0.450573 0.891707 0.792674
Si Si2 0.655130 0.361712 0.300840
Si Si3 0.839552 0.954444 0.268161
Si Si4 0.967915 0.254237 0.311335
Si Si5 0.812734 0.601473 0.925703
Si Si6 0.066437 0.794066 0.534108
Si Si7 0.334446 0.874782 0.040118
Si Si8 0.559588 0.689729 0.445121
O O1 0.446809 0.751687 0.744589
O O2 0.457907 0.839872 0.872443
O O3 0.598167 0.976585 0.781186
O O4 0.313156 0.996383 0.773441
O O5 0.821903 0.347421 0.288534
O O6 0.634537 0.323154 0.379927
O O7 0.818562 0.883514 0.342807
O O8 0.902474 0.832634 0.220761
O O9 0.947676 0.091983 0.280027
O O10 0.004668 0.246046 0.395816
O O11 0.829018 0.434986 0.950633
O O12 0.660618 0.668827 0.942226
O O13 0.944138 0.690106 0.968400
O O14 0.169295 0.667108 0.510918
O O15 0.343125 0.048325 0.031669
O O16 0.449208 0.785039 0.001343
#
# Coordination Sequence:
#
# PCOD8124857 Si02
#       8
#     4   4   4   4   4   4   4   4
#     4  10  20  35  56  79 108 141 178 223 269 318
#     4   9  19  36  54  78 109 141 179 222 267 319
#     4  10  21  36  55  80 110 140 177 224 268 318
#     4   9  20  36  54  78 108 141 179 222 267 320
#     4  10  21  38  57  81 110 142 182 223 265 319
#     4   9  20  38  57  79 109 144 181 221 267 318
#     4   9  20  37  54  79 112 142 179 224 268 319
#     4  10  21  36  55  82 110 140 181 223 267 321
#
# _framework density 19.654167000000001
#
# number of rings (size 3 to 8) (size 9 to 14) (size 15 to 20)
#    0.000    2.500    0.000    1.500    0.000   10.000 
#    0.000    2.500    0.000    0.000    0.000    0.000 
#    0.000    0.000    0.000    0.000    0.000    0.000 
#
# Total GULP energy -396791.824275 kJ/mol
# GULP energy per Si atom -12399.744509 kJ/mol
# Density = 1.960943 g / cm^3
# Si number density = 19.654167 Si / 1000 Ang^3
#
#
#
# Elastic Constant Matrix: (Units=GPa)
#
#
# Indices 1 2 3 4 5 6 
#
# 1 52.9975 11.9642 37.8478 0.0000 -4.2153 0.0000
# 2 11.9642 23.3763 14.6749 0.0000 -6.6562 0.0000
# 3 37.8478 14.6749 76.1988 0.0000 5.3593 0.0000
# 4 0.0000 0.0000 0.0000 26.7351 0.0000 -4.9148
# 5 -4.2153 -6.6562 5.3593 0.0000 34.8264 0.0000
# 6 0.0000 0.0000 0.0000 -4.9148 0.0000 33.7184
#
#
#
# Elastic Compliance Matrix: (Units=1/GPa)
#
#
# Indices 1 2 3 4 5 6 
#
# 1 0.030958 -0.005162 -0.014736 0.000000 0.005028 0.000000
# 2 -0.005162 0.053956 -0.008602 0.000000 0.011011 0.000000
# 3 -0.014736 -0.008602 0.022585 0.000000 -0.006903 0.000000
# 4 0.000000 0.000000 0.000000 0.038434 0.000000 0.005602
# 5 0.005028 0.011011 -0.006903 0.000000 0.032489 0.000000
# 6 0.000000 0.000000 0.000000 0.005602 0.000000 0.030474
#
#
# Mechanical properties :
#
#
# Convention : Reuss Voigt Hill
#
# Bulk Modulus (GPa) = 19.80242 31.28292 25.54267
# Shear Modulus (GPa) = 17.68485 24.92838 21.30661
#
# Velocity S-wave (km/s) = 3.00292 3.56525 3.29610
# Velocity P-wave (km/s) = 4.70327 5.73579 5.24500
#
# Compressibility (1/GPa) = 0.05049887
#
# Stress axis : x y z
#
# Youngs Moduli (GPa) = 32.30208 18.53378 44.27701
#
# Poissons Ratio (x) = 0.09567 0.65247
# Poissons Ratio (y) = 0.16674 0.38086
# Poissons Ratio (z) = 0.47601 0.15942
#
# Static dielectric constant tensor:
#      x y z
#    x 3.465890 0.000000 0.099190 
#    y 0.000000 3.600210 0.000000 
#    z 0.099190 0.000000 3.638550 
# 
# 
# High freq. dielectric constant tensor:
#      x y z
#    x 1.755590 0.000000 0.006370 
#    y 0.000000 1.764900 0.000000 
#    z 0.006370 0.000000 1.770810 
# 
# From -- ./inp_files/64853.got.cif
#   From: 2010.03.12/outbox.cif.g09.slc.cpg/sg14_33_cif.got.tgz:64853.got - 2010.03.31 13:35:05.
