data_PCOD8124280
_publ_section_title
;
Structure prediction by ZEFSAII (Michael W. Deem and Ramdas Pophale) SiO2 
 PCOD8124280
Probable space group: P 21/C
;
_chemical_formula_sum "Si O2"
_cell_formula_units_Z 32
_cell_length_a 11.268793
_cell_length_b 9.070053
_cell_length_c 27.101299
_cell_angle_alpha 90.000000
_cell_angle_beta 38.059088
_cell_angle_gamma 90.000000
_cell_volume 1707.622872
_symmetry_space_group_name_H-M "P 21/C"
_symmetry_group_IT_number 14
_symmetry_cell_setting 'monoclinic'
loop_
_space_group_symop_operation_xyz
x,y,z
-x,1/2+y,1/2-z
-x,-y,-z
x,1/2-y,1/2+z
loop_
_atom_site_type_symbol
_atom_site_label
_atom_site_fract_x
_atom_site_fract_y
_atom_site_fract_z
Si Si1 0.600720 0.971406 0.611116
Si Si2 0.488399 0.140377 0.038770
Si Si3 0.301528 0.751860 0.240628
Si Si4 0.556214 0.013239 0.122599
Si Si5 0.660254 0.067796 0.481644
Si Si6 0.866794 0.705191 0.889920
Si Si7 0.864578 0.788388 0.001060
Si Si8 0.694304 0.254742 0.144601
O O1 0.392204 0.896452 0.688010
O O2 0.765962 0.848245 0.561274
O O3 0.603791 0.049616 0.557301
O O4 0.639395 0.086139 0.641873
O O5 0.666136 0.255425 0.969364
O O6 0.288962 0.229686 0.097026
O O7 0.499103 0.093234 0.091311
O O8 0.500000 0.000000 0.000000
O O9 0.393700 0.893400 0.185298
O O10 0.338793 0.756797 0.286559
O O11 0.076399 0.754900 0.300986
O O12 0.767743 0.939662 0.050946
O O13 0.555582 0.131964 0.166635
O O14 0.500000 0.000000 0.500000
O O15 0.851252 0.973786 0.404406
O O16 0.826409 0.782739 0.955237
O O17 0.087937 0.785616 0.941321
#
# Coordination Sequence:
#
# PCOD8124280 Si02
#       8
#     4   4   4   4   4   4   4   4
#     4  10  19  36  57  86 111 151 190 227 288 341
#     4  11  20  37  62  87 111 140 193 247 281 330
#     4  10  23  38  55  79 122 158 180 227 294 342
#     4  11  21  37  57  85 114 151 188 235 291 333
#     4   9  19  36  62  82 108 147 192 236 279 333
#     4   9  19  39  57  82 115 149 188 232 284 343
#     4   9  19  34  59  83 111 147 186 240 287 325
#     4  11  20  36  57  82 114 146 198 233 271 343
#
# _framework density 18.739501000000001
#
# number of rings (size 3 to 8) (size 9 to 14) (size 15 to 20)
#    0.000    2.000    2.500    1.500    1.750    0.000 
#    4.500    1.250    0.000    0.000    0.000    0.000 
#    0.000    0.000    0.000    0.000    0.000    0.000 
#
# Total GULP energy -396715.397678 kJ/mol
# GULP energy per Si atom -12397.356177 kJ/mol
# Density = 1.869685 g / cm^3
# Si number density = 18.739501 Si / 1000 Ang^3
#
#
#
# Elastic Constant Matrix: (Units=GPa)
#
#
# Indices 1 2 3 4 5 6 
#
# 1 63.8161 40.1374 9.0595 0.0000 -4.2189 0.0000
# 2 40.1374 123.3865 34.7091 0.0000 -0.9274 0.0000
# 3 9.0595 34.7091 53.0350 0.0000 -18.5352 0.0000
# 4 0.0000 0.0000 0.0000 23.0360 0.0000 7.1410
# 5 -4.2189 -0.9274 -18.5352 0.0000 24.5137 0.0000
# 6 0.0000 0.0000 0.0000 7.1410 0.0000 32.1097
#
#
#
# Elastic Compliance Matrix: (Units=1/GPa)
#
#
# Indices 1 2 3 4 5 6 
#
# 1 0.020310 -0.007555 0.003530 0.000000 0.005878 0.000000
# 2 -0.007555 0.013482 -0.010613 0.000000 -0.008815 0.000000
# 3 0.003530 -0.010613 0.034347 0.000000 0.026176 0.000000
# 4 0.000000 0.000000 0.000000 0.046625 0.000000 -0.010369
# 5 0.005878 -0.008815 0.026176 0.000000 0.061264 0.000000
# 6 0.000000 0.000000 0.000000 -0.010369 0.000000 0.033449
#
#
# Mechanical properties :
#
#
# Convention : Reuss Voigt Hill
#
# Bulk Modulus (GPa) = 25.73337 45.33887 35.53612
# Shear Modulus (GPa) = 19.86439 26.35400 23.10919
#
# Velocity S-wave (km/s) = 3.25934 3.75418 3.51548
# Velocity P-wave (km/s) = 5.28454 6.56038 5.95672
#
# Compressibility (1/GPa) = 0.03886005
#
# Stress axis : x y z
#
# Youngs Moduli (GPa) = 49.23790 74.17459 29.11490
#
# Poissons Ratio (x) = 0.56042 -0.10277
# Poissons Ratio (y) = 0.37201 0.30901
# Poissons Ratio (z) = -0.17380 0.78724
#
# Static dielectric constant tensor:
#      x y z
#    x 3.373930 0.000000 -0.027010 
#    y 0.000000 3.895570 0.000000 
#    z -0.027010 0.000000 3.369200 
# 
# 
# High freq. dielectric constant tensor:
#      x y z
#    x 1.729420 0.000000 0.010110 
#    y 0.000000 1.741480 0.000000 
#    z 0.010110 0.000000 1.709350 
# 
# From -- ./inp_files/73101.got.cif
#   From: 2010.03.12/outbox.cif.g09.slc.cpg/sg14_37_cif.got.tgz:73101.got - 2010.03.31 13:35:05.
