data_PCOD8124037
_publ_section_title
;
Structure prediction by ZEFSAII (Michael W. Deem and Ramdas Pophale) SiO2 
 PCOD8124037
Probable space group: P 21/C
;
_chemical_formula_sum "Si O2"
_cell_formula_units_Z 32
_cell_length_a 23.278909
_cell_length_b 13.773684
_cell_length_c 8.713235
_cell_angle_alpha 90.000000
_cell_angle_beta 151.184012
_cell_angle_gamma 90.000000
_cell_volume 1346.596762
_symmetry_space_group_name_H-M "P 21/C"
_symmetry_group_IT_number 14
_symmetry_cell_setting 'monoclinic'
loop_
_space_group_symop_operation_xyz
x,y,z
-x,1/2+y,1/2-z
-x,-y,-z
x,1/2-y,1/2+z
loop_
_atom_site_type_symbol
_atom_site_label
_atom_site_fract_x
_atom_site_fract_y
_atom_site_fract_z
Si Si1 0.837647 0.373641 0.620072
Si Si2 0.569562 0.863411 0.210654
Si Si3 0.662475 0.076939 0.919744
Si Si4 0.160345 0.573042 0.711843
Si Si5 0.833071 0.651209 0.248213
Si Si6 0.968048 0.759724 0.816409
Si Si7 0.341539 0.699260 0.309575
Si Si8 0.501644 0.541315 0.248152
O O1 0.799746 0.440462 0.679709
O O2 0.821946 0.433785 0.429274
O O3 0.734534 0.293535 0.394386
O O4 0.965897 0.324282 0.930036
O O5 0.705783 0.827046 0.528155
O O6 0.562604 0.955716 0.307158
O O7 0.476113 0.785166 0.059604
O O8 0.538024 0.879231 0.957935
O O9 0.621180 0.992496 0.938281
O O10 0.583761 0.084543 0.580922
O O11 0.655515 0.177080 0.001088
O O12 0.136173 0.462362 0.704267
O O13 0.053305 0.646956 0.496339
O O14 0.281709 0.607791 0.078625
O O15 0.935702 0.705180 0.585079
O O16 0.847681 0.703644 0.117672
#
# Coordination Sequence:
#
# PCOD8124037 Si02
#       8
#     4   4   4   4   4   4   4   4
#     4  11  22  42  69  97 135 171 235 293 329 406
#     4  10  20  41  67  93 143 180 212 270 354 426
#     4  10  19  33  62 100 131 164 209 289 331 391
#     4  11  23  45  77  97 134 188 231 293 353 410
#     4  12  25  48  69  95 139 189 226 288 357 413
#     4  11  26  48  65 103 136 173 246 289 335 418
#     4  10  21  38  68 107 136 175 222 281 346 408
#     4   9  19  38  61 105 138 159 229 273 332 434
#
# _framework density 23.76361
#
# number of rings (size 3 to 8) (size 9 to 14) (size 15 to 20)
#    0.000    1.500    1.250    5.625    1.750    0.500 
#   11.250    2.500    0.000    0.000    0.000    0.000 
#    0.000    0.000    0.000    0.000    0.000    0.000 
#
# Total GULP energy -396531.387860 kJ/mol
# GULP energy per Si atom -12391.605871 kJ/mol
# Density = 2.370952 g / cm^3
# Si number density = 23.763610 Si / 1000 Ang^3
#
#
#
# Elastic Constant Matrix: (Units=GPa)
#
#
# Indices 1 2 3 4 5 6 
#
# 1 132.4198 4.7344 23.3871 0.0000 1.1502 0.0000
# 2 4.7344 47.6153 9.9693 0.0000 2.9009 0.0000
# 3 23.3871 9.9693 68.4382 0.0000 7.4784 0.0000
# 4 0.0000 0.0000 0.0000 25.7724 0.0000 1.7602
# 5 1.1502 2.9009 7.4784 0.0000 43.9531 0.0000
# 6 0.0000 0.0000 0.0000 1.7602 0.0000 33.5410
#
#
#
# Elastic Compliance Matrix: (Units=1/GPa)
#
#
# Indices 1 2 3 4 5 6 
#
# 1 0.008042 -0.000242 -0.002743 0.000000 0.000272 0.000000
# 2 -0.000242 0.021705 -0.002979 0.000000 -0.000919 0.000000
# 3 -0.002743 -0.002979 0.016256 0.000000 -0.002497 0.000000
# 4 0.000000 0.000000 0.000000 0.038941 0.000000 -0.002044
# 5 0.000272 -0.000919 -0.002497 0.000000 0.023230 0.000000
# 6 0.000000 0.000000 0.000000 -0.002044 0.000000 0.029921
#
#
# Mechanical properties :
#
#
# Convention : Reuss Voigt Hill
#
# Bulk Modulus (GPa) = 29.34550 36.07277 32.70914
# Shear Modulus (GPa) = 30.98246 34.67882 32.83064
#
# Velocity S-wave (km/s) = 3.61470 3.82425 3.72095
# Velocity P-wave (km/s) = 5.45868 5.89175 5.67934
#
# Compressibility (1/GPa) = 0.03407678
#
# Stress axis : x y z
#
# Youngs Moduli (GPa) = 124.34034 46.07158 61.51645
#
# Poissons Ratio (x) = 0.01115 0.16873
# Poissons Ratio (y) = 0.03009 0.18323
# Poissons Ratio (z) = 0.34104 0.13723
#
# Static dielectric constant tensor:
#      x y z
#    x 4.649610 0.000000 -0.066450 
#    y 0.000000 4.046630 0.000000 
#    z -0.066450 0.000000 4.230720 
# 
# 
# High freq. dielectric constant tensor:
#      x y z
#    x 1.968140 0.000000 -0.005690 
#    y 0.000000 1.920080 0.000000 
#    z -0.005690 0.000000 1.931420 
# 
# From -- ./inp_files/19552.got.cif
#   From: 2010.03.12/outbox.cif.g09.slc.cpg/sg14_10_cif.got.tgz:19552.got - 2010.03.31 13:35:05.
