data_PCOD8124677
_publ_section_title
;
Structure prediction by ZEFSAII (Michael W. Deem and Ramdas Pophale) SiO2 
 PCOD8124677
Probable space group: P 21/C
;
_chemical_formula_sum "Si O2"
_cell_formula_units_Z 20
_cell_length_a 7.849147
_cell_length_b 16.069211
_cell_length_c 9.131707
_cell_angle_alpha 90.000000
_cell_angle_beta 52.592817
_cell_angle_gamma 90.000000
_cell_volume 914.902006
_symmetry_space_group_name_H-M "P 21/C"
_symmetry_group_IT_number 14
_symmetry_cell_setting 'monoclinic'
loop_
_space_group_symop_operation_xyz
x,y,z
-x,1/2+y,1/2-z
-x,-y,-z
x,1/2-y,1/2+z
loop_
_atom_site_type_symbol
_atom_site_label
_atom_site_fract_x
_atom_site_fract_y
_atom_site_fract_z
Si Si1 0.904019 0.014373 0.789905
Si Si2 0.318267 0.635468 0.376661
Si Si3 0.912663 0.837812 0.925126
Si Si4 0.268820 0.056862 0.403859
Si Si5 0.724368 0.777225 0.737388
O O1 0.154228 0.025748 0.612305
O O2 0.767571 0.007577 0.711485
O O3 0.824162 0.092623 0.923771
O O4 0.872532 0.933758 0.908100
O O5 0.162813 0.676020 0.336084
O O6 0.474067 0.568641 0.212252
O O7 0.466419 0.706154 0.377450
O O8 0.836222 0.775908 0.837243
O O9 0.769865 0.811889 0.140204
O O10 0.166179 0.146474 0.410603
#
# Coordination Sequence:
#
# PCOD8124677 Si02
#       5
#     4   4   4   4   4
#     4  10  19  41  70  95 131 164 214 277 316 386
#     4  10  22  41  68  93 127 173 211 267 330 375
#     4  11  23  41  65  98 126 174 219 269 318 387
#     4   8  20  40  65  96 126 163 214 263 325 384
#     4   9  24  43  60  93 136 167 219 263 327 390
#
# _framework density 21.860264999999998
#
# number of rings (size 3 to 8) (size 9 to 14) (size 15 to 20)
#    1.200    1.200    0.000    1.200    2.800    2.400 
#    0.000    2.000    0.000    0.000    0.000    0.000 
#    0.000    0.000    0.000    0.000    0.000    0.000 
#
# Total GULP energy -247782.184549 kJ/mol
# GULP energy per Si atom -12389.109227 kJ/mol
# Density = 2.181051 g / cm^3
# Si number density = 21.860265 Si / 1000 Ang^3
#
#
#
# Elastic Constant Matrix: (Units=GPa)
#
#
# Indices 1 2 3 4 5 6 
#
# 1 166.6957 36.0894 69.9473 0.0000 6.6530 0.0000
# 2 36.0894 38.1377 47.2764 0.0000 2.4336 0.0000
# 3 69.9473 47.2764 120.7255 0.0000 -6.8466 0.0000
# 4 0.0000 0.0000 0.0000 47.6018 0.0000 -0.2198
# 5 6.6530 2.4336 -6.8466 0.0000 22.3926 0.0000
# 6 0.0000 0.0000 0.0000 -0.2198 0.0000 16.3464
#
#
#
# Elastic Compliance Matrix: (Units=1/GPa)
#
#
# Indices 1 2 3 4 5 6 
#
# 1 0.008408 -0.002841 -0.003951 0.000000 -0.003397 0.000000
# 2 -0.002841 0.055204 -0.020622 0.000000 -0.011461 0.000000
# 3 -0.003951 -0.020622 0.019174 0.000000 0.009278 0.000000
# 4 0.000000 0.000000 0.000000 0.021009 0.000000 0.000283
# 5 -0.003397 -0.011461 0.009278 0.000000 0.049749 0.000000
# 6 0.000000 0.000000 0.000000 0.000283 0.000000 0.061179
#
#
# Mechanical properties :
#
#
# Convention : Reuss Voigt Hill
#
# Bulk Modulus (GPa) = 35.76888 70.24280 53.00584
# Shear Modulus (GPa) = 17.92942 28.75120 23.34031
#
# Velocity S-wave (km/s) = 2.86699 3.63054 3.27112
# Velocity P-wave (km/s) = 5.23044 7.05527 6.21025
#
# Compressibility (1/GPa) = 0.02795726
#
# Stress axis : x y z
#
# Youngs Moduli (GPa) = 118.93849 18.11471 52.15275
#
# Poissons Ratio (x) = 0.05146 0.20608
# Poissons Ratio (y) = 0.33790 1.07549
# Poissons Ratio (z) = 0.46998 0.37356
#
# Static dielectric constant tensor:
#      x y z
#    x 3.933990 0.000000 0.071190 
#    y 0.000000 3.606920 0.000000 
#    z 0.071190 0.000000 3.744520 
# 
# 
# High freq. dielectric constant tensor:
#      x y z
#    x 1.854300 0.000000 0.004480 
#    y 0.000000 1.836020 0.000000 
#    z 0.004480 0.000000 1.846300 
# 
# From -- ./inp_files/8756.got.cif
#   From: 2010.03.12/outbox.cif.g09.slc.cpg/sg14_5_cif.got.tgz:8756.got - 2010.03.31 13:35:05.
