data_PCOD8124114
_publ_section_title
;
Structure prediction by ZEFSAII (Michael W. Deem and Ramdas Pophale) SiO2 
 PCOD8124114
Probable space group: P 21/C
;
_chemical_formula_sum "Si O2"
_cell_formula_units_Z 28
_cell_length_a 16.275497
_cell_length_b 12.410668
_cell_length_c 10.853396
_cell_angle_alpha 90.000000
_cell_angle_beta 39.829731
_cell_angle_gamma 90.000000
_cell_volume 1404.170400
_symmetry_space_group_name_H-M "P 21/C"
_symmetry_group_IT_number 14
_symmetry_cell_setting 'monoclinic'
loop_
_space_group_symop_operation_xyz
x,y,z
-x,1/2+y,1/2-z
-x,-y,-z
x,1/2-y,1/2+z
loop_
_atom_site_type_symbol
_atom_site_label
_atom_site_fract_x
_atom_site_fract_y
_atom_site_fract_z
Si Si1 0.997743 0.141044 0.896391
Si Si2 0.791192 0.493735 0.781331
Si Si3 0.897197 0.138649 0.530684
Si Si4 0.362435 0.738284 0.228792
Si Si5 0.570697 0.351492 0.108401
Si Si6 0.670664 0.508765 0.676814
Si Si7 0.086531 0.527754 0.732030
O O1 0.940901 0.128408 0.825112
O O2 0.142369 0.094482 0.728172
O O3 0.904002 0.080833 0.098700
O O4 0.001211 0.266140 0.928942
O O5 0.699787 0.546585 0.782335
O O6 0.703013 0.419003 0.969410
O O7 0.765411 0.189152 0.633460
O O8 0.876326 0.075084 0.680074
O O9 0.962753 0.051260 0.364855
O O10 0.449992 0.791092 0.236441
O O11 0.335955 0.620564 0.312016
O O12 0.424681 0.727561 0.018733
O O13 0.456253 0.435896 0.226359
O O14 0.789840 0.541085 0.453184
#
# Coordination Sequence:
#
# PCOD8124114 Si02
#       7
#     4   4   4   4   4   4   4
#     4  10  19  34  61  85 121 155 202 256 301 368
#     4   9  18  34  59  93 111 158 212 249 296 363
#     4  11  21  37  63  87 127 159 199 257 314 374
#     4  11  21  39  68  89 113 172 209 247 317 368
#     4  11  22  40  65  89 123 162 217 255 298 373
#     4  10  21  41  60  85 127 158 210 258 291 376
#     4  10  22  37  56  95 123 154 202 256 314 357
#
# _framework density 19.9406
#
# number of rings (size 3 to 8) (size 9 to 14) (size 15 to 20)
#    0.000    1.714    4.286    3.429    0.000    3.429 
#    5.143    2.857    3.143    0.000    0.000    0.000 
#    0.000    0.000    0.000    0.000    0.000    0.000 
#
# Total GULP energy -346905.851285 kJ/mol
# GULP energy per Si atom -12389.494689 kJ/mol
# Density = 1.989521 g / cm^3
# Si number density = 19.940600 Si / 1000 Ang^3
#
#
#
# Elastic Constant Matrix: (Units=GPa)
#
#
# Indices 1 2 3 4 5 6 
#
# 1 86.5173 43.3217 27.8070 0.0000 -7.4519 0.0000
# 2 43.3217 70.3204 26.9623 0.0000 -1.0222 0.0000
# 3 27.8070 26.9623 64.4428 0.0000 0.9115 0.0000
# 4 0.0000 0.0000 0.0000 13.0066 0.0000 -8.4433
# 5 -7.4519 -1.0222 0.9115 0.0000 25.2301 0.0000
# 6 0.0000 0.0000 0.0000 -8.4433 0.0000 35.1466
#
#
#
# Elastic Compliance Matrix: (Units=1/GPa)
#
#
# Indices 1 2 3 4 5 6 
#
# 1 0.018013 -0.009547 -0.003850 0.000000 0.005073 0.000000
# 2 -0.009547 0.022021 -0.005069 0.000000 -0.001745 0.000000
# 3 -0.003850 -0.005069 0.019328 0.000000 -0.002041 0.000000
# 4 0.000000 0.000000 0.000000 0.091089 0.000000 0.021883
# 5 0.005073 -0.001745 -0.002041 0.000000 0.041136 0.000000
# 6 0.000000 0.000000 0.000000 0.021883 0.000000 0.033709
#
#
# Mechanical properties :
#
#
# Convention : Reuss Voigt Hill
#
# Bulk Modulus (GPa) = 44.58310 46.38472 45.48391
# Shear Modulus (GPa) = 18.53868 22.88930 20.71399
#
# Velocity S-wave (km/s) = 3.05240 3.39170 3.22651
# Velocity P-wave (km/s) = 5.90164 6.21693 6.06133
#
# Compressibility (1/GPa) = 0.02243002
#
# Stress axis : x y z
#
# Youngs Moduli (GPa) = 55.51434 45.41203 51.73708
#
# Poissons Ratio (x) = 0.43357 0.19918
# Poissons Ratio (y) = 0.53002 0.26225
# Poissons Ratio (z) = 0.21372 0.23019
#
# Static dielectric constant tensor:
#      x y z
#    x 3.765750 0.000000 0.016190 
#    y 0.000000 3.608790 0.000000 
#    z 0.016190 0.000000 3.670410 
# 
# 
# High freq. dielectric constant tensor:
#      x y z
#    x 1.777510 0.000000 0.003520 
#    y 0.000000 1.762010 0.000000 
#    z 0.003520 0.000000 1.769310 
# 
# From -- ./inp_files/33798.got.cif
#   From: 2010.03.12/outbox.cif.g09.slc.cpg/sg14_17_cif.got.tgz:33798.got - 2010.03.31 13:35:05.
