data_PCOD8124237
_publ_section_title
;
Structure prediction by ZEFSAII (Michael W. Deem and Ramdas Pophale) SiO2 
 PCOD8124237
Probable space group: P 21/C
;
_chemical_formula_sum "Si O2"
_cell_formula_units_Z 24
_cell_length_a 8.761852
_cell_length_b 8.369043
_cell_length_c 19.193364
_cell_angle_alpha 90.000000
_cell_angle_beta 121.813436
_cell_angle_gamma 90.000000
_cell_volume 1195.979527
_symmetry_space_group_name_H-M "P 21/C"
_symmetry_group_IT_number 14
_symmetry_cell_setting 'monoclinic'
loop_
_space_group_symop_operation_xyz
x,y,z
-x,1/2+y,1/2-z
-x,-y,-z
x,1/2-y,1/2+z
loop_
_atom_site_type_symbol
_atom_site_label
_atom_site_fract_x
_atom_site_fract_y
_atom_site_fract_z
Si Si1 0.790643 0.334575 0.997778
Si Si2 0.413819 0.156558 0.560529
Si Si3 0.103423 0.229710 0.833519
Si Si4 0.187785 0.600338 0.840205
Si Si5 0.528349 0.848862 0.055187
Si Si6 0.921404 0.663775 0.511297
O O1 0.837520 0.318197 0.090749
O O2 0.706680 0.502322 0.956602
O O3 0.649947 0.190635 0.943536
O O4 0.968205 0.309704 0.995541
O O5 0.610596 0.134633 0.641932
O O6 0.442843 0.187246 0.484933
O O7 0.291288 0.306714 0.559241
O O8 0.138976 0.416384 0.834741
O O9 0.288316 0.135552 0.855807
O O10 0.052992 0.174995 0.899485
O O11 0.944502 0.184997 0.744649
O O12 0.500000 0.000000 0.000000
O O13 0.000000 0.500000 0.500000
#
# Coordination Sequence:
#
# PCOD8124237 Si02
#       6
#     4   4   4   4   4   4
#     4  11  19  40  67  85 119 169 211 250 307 379
#     4  10  20  40  62  88 122 166 213 251 305 383
#     4  11  24  41  60  95 130 155 211 262 316 371
#     4  11  23  40  63  95 122 164 210 263 313 368
#     4  10  19  35  62  91 120 160 213 257 296 370
#     4  11  24  40  64  95 126 162 210 260 311 376
#
# _framework density 20.067233999999999
#
# number of rings (size 3 to 8) (size 9 to 14) (size 15 to 20)
#    0.000    1.333    5.000    3.500    7.000    0.000 
#    0.000    3.333    0.000    0.000    0.000    0.000 
#    0.000    0.000    0.000    0.000    0.000    0.000 
#
# Total GULP energy -297377.531072 kJ/mol
# GULP energy per Si atom -12390.730461 kJ/mol
# Density = 2.002156 g / cm^3
# Si number density = 20.067234 Si / 1000 Ang^3
#
#
#
# Elastic Constant Matrix: (Units=GPa)
#
#
# Indices 1 2 3 4 5 6 
#
# 1 102.8379 22.7542 64.3177 0.0000 21.5320 0.0000
# 2 22.7542 79.1969 39.2561 0.0000 10.8873 0.0000
# 3 64.3177 39.2561 139.7303 0.0000 33.8228 0.0000
# 4 0.0000 0.0000 0.0000 26.4655 0.0000 6.7364
# 5 21.5320 10.8873 33.8228 0.0000 30.4991 0.0000
# 6 0.0000 0.0000 0.0000 6.7364 0.0000 39.8268
#
#
#
# Elastic Compliance Matrix: (Units=1/GPa)
#
#
# Indices 1 2 3 4 5 6 
#
# 1 0.014012 -0.000888 -0.005307 0.000000 -0.003690 0.000000
# 2 -0.000888 0.014744 -0.003569 0.000000 -0.000678 0.000000
# 3 -0.005307 -0.003569 0.012831 0.000000 -0.009209 0.000000
# 4 0.000000 0.000000 0.000000 0.039485 0.000000 -0.006679
# 5 -0.003690 -0.000678 -0.009209 0.000000 0.045847 0.000000
# 6 0.000000 0.000000 0.000000 -0.006679 0.000000 0.026238
#
#
# Mechanical properties :
#
#
# Convention : Reuss Voigt Hill
#
# Bulk Modulus (GPa) = 45.33335 63.82459 54.57897
# Shear Modulus (GPa) = 27.77143 32.38741 30.07942
#
# Velocity S-wave (km/s) = 3.72414 4.02175 3.87580
# Velocity P-wave (km/s) = 6.41343 7.31029 6.87650
#
# Compressibility (1/GPa) = 0.02205881
#
# Stress axis : x y z
#
# Youngs Moduli (GPa) = 71.36529 67.82233 77.93374
#
# Poissons Ratio (x) = 0.06023 0.41361
# Poissons Ratio (y) = 0.06337 0.27818
# Poissons Ratio (z) = 0.37875 0.24209
#
# Static dielectric constant tensor:
#      x y z
#    x 4.096300 0.000000 0.553590 
#    y 0.000000 3.797620 0.000000 
#    z 0.553590 0.000000 3.766550 
# 
# 
# High freq. dielectric constant tensor:
#      x y z
#    x 1.790460 0.000000 0.040500 
#    y 0.000000 1.801550 0.000000 
#    z 0.040500 0.000000 1.745790 
# 
# From -- ./inp_files/54519.got.cif
#   From: 2010.03.12/outbox.cif.g09.slc.cpg/sg14_28_cif.got.tgz:54519.got - 2010.03.31 13:35:05.
