data_PCOD8124822
_publ_section_title
;
Structure prediction by ZEFSAII (Michael W. Deem and Ramdas Pophale) SiO2 
 PCOD8124822
Probable space group: P 21/C
;
_chemical_formula_sum "Si O2"
_cell_formula_units_Z 28
_cell_length_a 8.579329
_cell_length_b 7.815338
_cell_length_c 21.970892
_cell_angle_alpha 90.000000
_cell_angle_beta 59.666323
_cell_angle_gamma 90.000000
_cell_volume 1271.479365
_symmetry_space_group_name_H-M "P 21/C"
_symmetry_group_IT_number 14
_symmetry_cell_setting 'monoclinic'
loop_
_space_group_symop_operation_xyz
x,y,z
-x,1/2+y,1/2-z
-x,-y,-z
x,1/2-y,1/2+z
loop_
_atom_site_type_symbol
_atom_site_label
_atom_site_fract_x
_atom_site_fract_y
_atom_site_fract_z
Si Si1 0.645313 0.035936 0.245193
Si Si2 0.225402 0.862206 0.660832
Si Si3 0.269796 0.912454 0.983770
Si Si4 0.536726 0.770791 0.029128
Si Si5 0.476908 0.761692 0.842607
Si Si6 0.013535 0.931103 0.134396
Si Si7 0.217798 0.231976 0.626853
O O1 0.502932 0.931214 0.314694
O O2 0.797545 0.917552 0.182716
O O3 0.748037 0.164592 0.271688
O O4 0.529912 0.126019 0.216417
O O5 0.428084 0.863121 0.592126
O O6 0.094863 0.715830 0.661626
O O7 0.137358 0.051587 0.667069
O O8 0.381194 0.868453 0.022638
O O9 0.296415 0.785082 0.920749
O O10 0.065500 0.909197 0.051770
O O11 0.347059 0.099969 0.950639
O O12 0.675503 0.679912 0.955829
O O13 0.645870 0.817203 0.850946
O O14 0.069643 0.122962 0.144198
#
# Coordination Sequence:
#
# PCOD8124822 Si02
#       7
#     4   4   4   4   4   4   4
#     4  11  26  38  59  92 122 168 195 248 311 368
#     4  10  20  34  59  90 119 154 193 253 298 356
#     4   8  16  34  63  83 116 158 200 252 288 360
#     4   8  14  30  59  91 111 150 197 247 300 341
#     4  10  22  40  57  87 121 161 202 234 301 373
#     4  10  22  41  62  92 118 155 206 254 311 335
#     4   9  19  37  63  90 117 152 202 251 293 360
#
# _framework density 22.021591999999998
#
# number of rings (size 3 to 8) (size 9 to 14) (size 15 to 20)
#    0.000    2.571    0.000    3.000    8.000    1.714 
#    2.571    0.000    0.000    0.857    0.000    0.000 
#    0.000    0.000    0.000    0.000    0.000    0.000 
#
# Total GULP energy -346867.975029 kJ/mol
# GULP energy per Si atom -12388.141965 kJ/mol
# Density = 2.197147 g / cm^3
# Si number density = 22.021592 Si / 1000 Ang^3
#
#
#
# Elastic Constant Matrix: (Units=GPa)
#
#
# Indices 1 2 3 4 5 6 
#
# 1 22.3236 23.9568 19.5205 0.0000 -1.8141 0.0000
# 2 23.9568 91.4644 38.8868 0.0000 -0.9928 0.0000
# 3 19.5205 38.8868 91.6503 0.0000 6.3960 0.0000
# 4 0.0000 0.0000 0.0000 37.0414 0.0000 3.5179
# 5 -1.8141 -0.9928 6.3960 0.0000 19.6217 0.0000
# 6 0.0000 0.0000 0.0000 3.5179 0.0000 17.7873
#
#
#
# Elastic Compliance Matrix: (Units=1/GPa)
#
#
# Indices 1 2 3 4 5 6 
#
# 1 0.068564 -0.013907 -0.009308 0.000000 0.008669 0.000000
# 2 -0.013907 0.016289 -0.004008 0.000000 0.000845 0.000000
# 3 -0.009308 -0.004008 0.015010 0.000000 -0.005956 0.000000
# 4 0.000000 0.000000 0.000000 0.027514 0.000000 -0.005442
# 5 0.008669 0.000845 -0.005956 0.000000 0.053750 0.000000
# 6 0.000000 0.000000 0.000000 -0.005442 0.000000 0.057296
#
#
# Mechanical properties :
#
#
# Convention : Reuss Voigt Hill
#
# Bulk Modulus (GPa) = 22.01839 41.12960 31.57399
# Shear Modulus (GPa) = 16.23338 23.09503 19.66421
#
# Velocity S-wave (km/s) = 2.71801 3.24195 2.99147
# Velocity P-wave (km/s) = 4.45762 5.72111 5.12842
#
# Compressibility (1/GPa) = 0.04541658
#
# Stress axis : x y z
#
# Youngs Moduli (GPa) = 14.58495 61.39036 66.62308
#
# Poissons Ratio (x) = 0.85377 0.62010
# Poissons Ratio (y) = 0.20284 0.26705
# Poissons Ratio (z) = 0.13575 0.24607
#
# Static dielectric constant tensor:
#      x y z
#    x 3.530980 0.000000 -0.145310 
#    y 0.000000 3.768950 0.000000 
#    z -0.145310 0.000000 4.403830 
# 
# 
# High freq. dielectric constant tensor:
#      x y z
#    x 1.819870 0.000000 -0.004590 
#    y 0.000000 1.845720 0.000000 
#    z -0.004590 0.000000 1.888120 
# 
# From -- ./inp_files/64522.got.cif
#   From: 2010.03.12/outbox.cif.g09.slc.cpg/sg14_33_cif.got.tgz:64522.got - 2010.03.31 13:35:05.
