data_PCOD8124101
_publ_section_title
;
Structure prediction by ZEFSAII (Michael W. Deem and Ramdas Pophale) SiO2 
 PCOD8124101
Probable space group: P 21/C
;
_chemical_formula_sum "Si O2"
_cell_formula_units_Z 32
_cell_length_a 9.027409
_cell_length_b 14.993877
_cell_length_c 12.566283
_cell_angle_alpha 90.000000
_cell_angle_beta 84.004317
_cell_angle_gamma 90.000000
_cell_volume 1691.615618
_symmetry_space_group_name_H-M "P 21/C"
_symmetry_group_IT_number 14
_symmetry_cell_setting 'monoclinic'
loop_
_space_group_symop_operation_xyz
x,y,z
-x,1/2+y,1/2-z
-x,-y,-z
x,1/2-y,1/2+z
loop_
_atom_site_type_symbol
_atom_site_label
_atom_site_fract_x
_atom_site_fract_y
_atom_site_fract_z
Si Si1 0.693041 0.422631 0.691444
Si Si2 0.902238 0.792468 0.716952
Si Si3 0.897067 0.045416 0.365905
Si Si4 0.793832 0.995422 0.962287
Si Si5 0.820879 0.058892 0.606049
Si Si6 0.017459 0.145013 0.942602
Si Si7 0.651381 0.569370 0.266454
Si Si8 0.130899 0.743741 0.370989
O O1 0.788273 0.474756 0.774360
O O2 0.717047 0.469015 0.575470
O O3 0.522259 0.415811 0.736198
O O4 0.747940 0.321461 0.688657
O O5 0.886880 0.701328 0.649413
O O6 0.740587 0.837071 0.748596
O O7 0.009941 0.863368 0.651674
O O8 0.973893 0.761359 0.821750
O O9 0.801005 0.048354 0.480815
O O10 0.013244 0.964503 0.366197
O O11 0.913812 0.065235 0.903012
O O12 0.674516 0.975961 0.879971
O O13 0.874590 0.901575 0.979771
O O14 0.792540 0.160564 0.640482
O O15 0.698098 0.997847 0.670217
O O16 0.905899 0.215115 0.006105
#
# Coordination Sequence:
#
# PCOD8124101 Si02
#       8
#     4   4   4   4   4   4   4   4
#     4  10  23  39  56  81 122 155 188 233 287 348
#     4  10  19  34  59  84 116 142 189 244 284 332
#     4   9  20  37  57  86 110 147 192 240 283 337
#     4  10  21  37  60  86 115 152 196 236 287 340
#     4  10  20  36  62  84 111 148 196 237 291 339
#     4  10  19  34  60  88 106 144 196 246 282 321
#     4  11  22  39  56  86 121 155 188 233 289 353
#     4  10  19  36  58  83 109 145 192 242 282 335
#
# _framework density 18.916826
#
# number of rings (size 3 to 8) (size 9 to 14) (size 15 to 20)
#    0.000    2.000    2.500    1.125    7.000    0.500 
#    2.250    1.250    0.000    0.000    0.000    0.000 
#    0.000    0.000    0.000    0.000    0.000    0.000 
#
# Total GULP energy -396724.991606 kJ/mol
# GULP energy per Si atom -12397.655988 kJ/mol
# Density = 1.887377 g / cm^3
# Si number density = 18.916826 Si / 1000 Ang^3
#
#
#
# Elastic Constant Matrix: (Units=GPa)
#
#
# Indices 1 2 3 4 5 6 
#
# 1 92.5990 17.9211 34.1708 0.0000 -9.5941 0.0000
# 2 17.9211 87.0921 29.5267 0.0000 -6.5969 0.0000
# 3 34.1708 29.5267 97.0802 0.0000 -1.6680 0.0000
# 4 0.0000 0.0000 0.0000 26.9712 0.0000 -3.5786
# 5 -9.5941 -6.5969 -1.6680 0.0000 22.6355 0.0000
# 6 0.0000 0.0000 0.0000 -3.5786 0.0000 13.0027
#
#
#
# Elastic Compliance Matrix: (Units=1/GPa)
#
#
# Indices 1 2 3 4 5 6 
#
# 1 0.013048 -0.000870 -0.004243 0.000000 0.004964 0.000000
# 2 -0.000870 0.013135 -0.003634 0.000000 0.003191 0.000000
# 3 -0.004243 -0.003634 0.012866 0.000000 -0.001909 0.000000
# 4 0.000000 0.000000 0.000000 0.038482 0.000000 0.010591
# 5 0.004964 0.003191 -0.001909 0.000000 0.047072 0.000000
# 6 0.000000 0.000000 0.000000 0.010591 0.000000 0.079822
#
#
# Mechanical properties :
#
#
# Convention : Reuss Voigt Hill
#
# Bulk Modulus (GPa) = 46.39190 48.88984 47.64087
# Shear Modulus (GPa) = 21.82426 25.53206 23.67816
#
# Velocity S-wave (km/s) = 3.40029 3.67781 3.54177
# Velocity P-wave (km/s) = 6.32403 6.62841 6.47801
#
# Compressibility (1/GPa) = 0.02155549
#
# Stress axis : x y z
#
# Youngs Moduli (GPa) = 76.64239 76.13317 77.72149
#
# Poissons Ratio (x) = 0.06627 0.32974
# Poissons Ratio (y) = 0.06672 0.28242
# Poissons Ratio (z) = 0.32516 0.27665
#
# Static dielectric constant tensor:
#      x y z
#    x 3.121760 0.000000 0.025320 
#    y 0.000000 3.505080 0.000000 
#    z 0.025320 0.000000 3.519270 
# 
# 
# High freq. dielectric constant tensor:
#      x y z
#    x 1.699560 0.000000 -0.000240 
#    y 0.000000 1.739360 0.000000 
#    z -0.000240 0.000000 1.744420 
# 
# From -- ./inp_files/25511.got.cif
#   From: 2010.03.12/outbox.cif.g09.slc.cpg/sg14_13_cif.got.tgz:25511.got - 2010.03.31 13:35:05.
