data_PCOD8124073
_publ_section_title
;
Structure prediction by ZEFSAII (Michael W. Deem and Ramdas Pophale) SiO2 
 PCOD8124073
Probable space group: P 21/C
;
_chemical_formula_sum "Si O2"
_cell_formula_units_Z 28
_cell_length_a 13.897722
_cell_length_b 8.815781
_cell_length_c 11.816500
_cell_angle_alpha 90.000000
_cell_angle_beta 53.235725
_cell_angle_gamma 90.000000
_cell_volume 1159.798551
_symmetry_space_group_name_H-M "P 21/C"
_symmetry_group_IT_number 14
_symmetry_cell_setting 'monoclinic'
loop_
_space_group_symop_operation_xyz
x,y,z
-x,1/2+y,1/2-z
-x,-y,-z
x,1/2-y,1/2+z
loop_
_atom_site_type_symbol
_atom_site_label
_atom_site_fract_x
_atom_site_fract_y
_atom_site_fract_z
Si Si1 0.542533 0.948948 0.131783
Si Si2 0.737425 0.764893 0.862347
Si Si3 0.154060 0.940894 0.266356
Si Si4 0.628178 0.500364 0.808286
Si Si5 0.125967 0.659868 0.402054
Si Si6 0.391971 0.794919 0.065982
Si Si7 0.041315 0.057567 0.782045
O O1 0.426182 0.860380 0.167343
O O2 0.534484 0.971288 0.272219
O O3 0.662829 0.852203 0.013047
O O4 0.532510 0.117781 0.082810
O O5 0.650187 0.663396 0.847950
O O6 0.844896 0.660720 0.835320
O O7 0.791124 0.895304 0.742325
O O8 0.124236 0.844335 0.399524
O O9 0.252916 0.830148 0.136375
O O10 0.038644 0.971512 0.270514
O O11 0.745511 0.421408 0.667634
O O12 0.580870 0.386566 0.942073
O O13 0.081873 0.601578 0.309037
O O14 0.035430 0.634951 0.566280
#
# Coordination Sequence:
#
# PCOD8124073 Si02
#       7
#     4   4   4   4   4   4   4
#     4  10  21  41  63  86 123 157 192 254 299 338
#     4  10  22  36  57  90 117 152 204 242 295 369
#     4  10  19  35  54  80 116 148 193 248 290 349
#     4  10  21  40  61  85 120 156 194 244 298 354
#     4   9  19  34  54  79 110 155 199 238 297 359
#     4   9  21  38  61  88 113 156 206 235 291 366
#     4  10  19  34  56  80 113 156 198 247 302 350
#
# _framework density 24.142123000000002
#
# number of rings (size 3 to 8) (size 9 to 14) (size 15 to 20)
#    0.000    2.286    0.000    2.571    0.000    6.857 
#    0.000    8.571    0.000    0.000    0.000    0.000 
#    0.000    0.000    0.000    0.000    0.000    0.000 
#
# Total GULP energy -346936.078972 kJ/mol
# GULP energy per Si atom -12390.574249 kJ/mol
# Density = 2.408717 g / cm^3
# Si number density = 24.142123 Si / 1000 Ang^3
#
#
#
# Elastic Constant Matrix: (Units=GPa)
#
#
# Indices 1 2 3 4 5 6 
#
# 1 60.1990 17.9712 0.4943 0.0000 9.4136 0.0000
# 2 17.9712 149.9099 26.5514 0.0000 14.8936 0.0000
# 3 0.4943 26.5514 46.3524 0.0000 4.6545 0.0000
# 4 0.0000 0.0000 0.0000 13.9920 0.0000 -8.9851
# 5 9.4136 14.8936 4.6545 0.0000 31.4929 0.0000
# 6 0.0000 0.0000 0.0000 -8.9851 0.0000 31.4354
#
#
#
# Elastic Compliance Matrix: (Units=1/GPa)
#
#
# Indices 1 2 3 4 5 6 
#
# 1 0.017902 -0.001929 0.001380 0.000000 -0.004643 0.000000
# 2 -0.001929 0.007907 -0.004254 0.000000 -0.002534 0.000000
# 3 0.001380 -0.004254 0.024195 0.000000 -0.001976 0.000000
# 4 0.000000 0.000000 0.000000 0.087536 0.000000 0.025020
# 5 -0.004643 -0.002534 -0.001976 0.000000 0.034631 0.000000
# 6 0.000000 0.000000 0.000000 0.025020 0.000000 0.038963
#
#
# Mechanical properties :
#
#
# Convention : Reuss Voigt Hill
#
# Bulk Modulus (GPa) = 24.75400 38.49947 31.62674
# Shear Modulus (GPa) = 21.34862 29.48035 25.41449
#
# Velocity S-wave (km/s) = 2.97693 3.49824 3.24806
# Velocity P-wave (km/s) = 4.70019 5.68318 5.21490
#
# Compressibility (1/GPa) = 0.04039751
#
# Stress axis : x y z
#
# Youngs Moduli (GPa) = 55.85900 126.46639 41.33157
#
# Poissons Ratio (x) = 0.24400 -0.05706
# Poissons Ratio (y) = 0.10777 0.17584
# Poissons Ratio (z) = -0.07711 0.53804
#
# Static dielectric constant tensor:
#      x y z
#    x 4.544250 0.000000 -0.228580 
#    y 0.000000 4.716160 0.000000 
#    z -0.228580 0.000000 3.763650 
# 
# 
# High freq. dielectric constant tensor:
#      x y z
#    x 1.966630 0.000000 -0.019280 
#    y 0.000000 1.978750 0.000000 
#    z -0.019280 0.000000 1.912220 
# 
# From -- ./inp_files/31530.got.cif
#   From: 2010.03.12/outbox.cif.g09.slc.cpg/sg14_16_cif.got.tgz:31530.got - 2010.03.31 13:35:05.
