data_PCOD8124586
_publ_section_title
;
Structure prediction by ZEFSAII (Michael W. Deem and Ramdas Pophale) SiO2 
 PCOD8124586
Probable space group: P 21/C
;
_chemical_formula_sum "Si O2"
_cell_formula_units_Z 24
_cell_length_a 9.304682
_cell_length_b 13.538106
_cell_length_c 14.622839
_cell_angle_alpha 90.000000
_cell_angle_beta 140.705298
_cell_angle_gamma 90.000000
_cell_volume 1166.559835
_symmetry_space_group_name_H-M "P 21/C"
_symmetry_group_IT_number 14
_symmetry_cell_setting 'monoclinic'
loop_
_space_group_symop_operation_xyz
x,y,z
-x,1/2+y,1/2-z
-x,-y,-z
x,1/2-y,1/2+z
loop_
_atom_site_type_symbol
_atom_site_label
_atom_site_fract_x
_atom_site_fract_y
_atom_site_fract_z
Si Si1 0.201693 0.196457 0.294808
Si Si2 0.088447 0.144294 0.885548
Si Si3 0.232746 0.990220 0.379911
Si Si4 0.257236 0.506392 0.590276
Si Si5 0.401389 0.887017 0.619429
Si Si6 0.875183 0.214020 0.964162
O O1 0.455494 0.178953 0.382482
O O2 0.207643 0.283987 0.371831
O O3 0.113172 0.095509 0.300792
O O4 0.038700 0.226098 0.131569
O O5 0.863330 0.093481 0.734788
O O6 0.022722 0.202869 0.945225
O O7 0.268305 0.057403 0.001837
O O8 0.206716 0.951594 0.471508
O O9 0.500000 0.000000 0.500000
O O10 0.431980 0.461834 0.748054
O O11 0.299995 0.623303 0.601096
O O12 0.000000 0.500000 0.500000
O O13 0.274332 0.812150 0.624557
#
# Coordination Sequence:
#
# PCOD8124586 Si02
#       6
#     4   4   4   4   4   4
#     4  11  21  40  60  90 122 153 199 251 290 346
#     4  11  21  37  65  85 117 161 198 238 301 347
#     4  10  20  36  62  89 112 161 205 234 282 366
#     4  10  19  39  63  85 117 163 199 237 290 360
#     4  11  22  38  64  92 118 153 205 244 290 354
#     4  11  21  40  61  88 122 155 196 250 296 346
#
# _framework density 20.573312000000001
#
# number of rings (size 3 to 8) (size 9 to 14) (size 15 to 20)
#    0.000    1.333    6.667    3.000    0.000    4.000 
#    0.000    3.333    0.000    0.000    0.000    0.000 
#    0.000    0.000    0.000    0.000    0.000    0.000 
#
# Total GULP energy -297411.216065 kJ/mol
# GULP energy per Si atom -12392.134003 kJ/mol
# Density = 2.052649 g / cm^3
# Si number density = 20.573312 Si / 1000 Ang^3
#
#
#
# Elastic Constant Matrix: (Units=GPa)
#
#
# Indices 1 2 3 4 5 6 
#
# 1 24.6892 -8.6473 12.2694 0.0000 -14.8936 0.0000
# 2 -8.6473 27.6561 8.1074 0.0000 -7.2854 0.0000
# 3 12.2694 8.1074 92.4726 0.0000 -26.0880 0.0000
# 4 0.0000 0.0000 0.0000 43.9730 0.0000 -9.9712
# 5 -14.8936 -7.2854 -26.0880 0.0000 26.2611 0.0000
# 6 0.0000 0.0000 0.0000 -9.9712 0.0000 29.8582
#
#
#
# Elastic Compliance Matrix: (Units=1/GPa)
#
#
# Indices 1 2 3 4 5 6 
#
# 1 0.101976 0.050727 0.003207 0.000000 0.075093 0.000000
# 2 0.050727 0.064260 0.001085 0.000000 0.047674 0.000000
# 3 0.003207 0.001085 0.015132 0.000000 0.017153 0.000000
# 4 0.000000 0.000000 0.000000 0.024604 0.000000 0.008217
# 5 0.075093 0.047674 0.017153 0.000000 0.110933 0.000000
# 6 0.000000 0.000000 0.000000 0.008217 0.000000 0.036236
#
#
# Mechanical properties :
#
#
# Convention : Reuss Voigt Hill
#
# Bulk Modulus (GPa) = 3.43163 18.69741 11.06452
# Shear Modulus (GPa) = 14.69561 28.89101 21.79331
#
# Velocity S-wave (km/s) = 2.67555 3.75146 3.25822
# Velocity P-wave (km/s) = 3.34908 5.27944 4.42091
#
# Compressibility (1/GPa) = 0.29140654
#
# Stress axis : x y z
#
# Youngs Moduli (GPa) = 9.80626 15.56177 66.08360
#
# Poissons Ratio (x) = -0.78940 -0.21195
# Poissons Ratio (y) = -0.49744 -0.07172
# Poissons Ratio (z) = -0.03145 -0.01689
#
# Static dielectric constant tensor:
#      x y z
#    x 3.413630 0.000000 -0.403210 
#    y 0.000000 5.343650 0.000000 
#    z -0.403210 0.000000 3.913350 
# 
# 
# High freq. dielectric constant tensor:
#      x y z
#    x 1.752290 0.000000 -0.028570 
#    y 0.000000 1.818550 0.000000 
#    z -0.028570 0.000000 1.816360 
# 
# From -- ./inp_files/40795.got.cif
#   From: 2010.03.12/outbox.cif.g09.slc.cpg/sg14_21_cif.got.tgz:40795.got - 2010.03.31 13:35:05.
