data_PCOD8124457
_publ_section_title
;
Structure prediction by ZEFSAII (Michael W. Deem and Ramdas Pophale) SiO2 
 PCOD8124457
Probable space group: P 21/C
;
_chemical_formula_sum "Si O2"
_cell_formula_units_Z 28
_cell_length_a 26.384520
_cell_length_b 6.310702
_cell_length_c 17.186158
_cell_angle_alpha 90.000000
_cell_angle_beta 150.998885
_cell_angle_gamma 90.000000
_cell_volume 1387.369511
_symmetry_space_group_name_H-M "P 21/C"
_symmetry_group_IT_number 14
_symmetry_cell_setting 'monoclinic'
loop_
_space_group_symop_operation_xyz
x,y,z
-x,1/2+y,1/2-z
-x,-y,-z
x,1/2-y,1/2+z
loop_
_atom_site_type_symbol
_atom_site_label
_atom_site_fract_x
_atom_site_fract_y
_atom_site_fract_z
Si Si1 0.223990 0.113668 0.943160
Si Si2 0.029847 0.876753 0.618765
Si Si3 0.190811 0.304429 0.169997
Si Si4 0.334615 0.046346 0.248529
Si Si5 0.315307 0.620368 0.429505
Si Si6 0.462065 0.801417 0.997746
Si Si7 0.183730 0.995840 0.301492
O O1 0.212743 0.369234 0.918827
O O2 0.110474 0.013320 0.776761
O O3 0.312577 0.032113 0.001065
O O4 0.256571 0.032222 0.071540
O O5 0.081383 0.647380 0.673673
O O6 0.921698 0.843533 0.522676
O O7 0.000000 0.000000 0.500000
O O8 0.278914 0.193854 0.236966
O O9 0.233380 0.530993 0.255813
O O10 0.160931 0.163984 0.204116
O O11 0.442096 0.144319 0.362210
O O12 0.363423 0.816798 0.323546
O O13 0.428138 0.625796 0.539092
O O14 0.283959 0.855729 0.413334
O O15 0.500000 0.000000 0.000000
#
# Coordination Sequence:
#
# PCOD8124457 Si02
#       7
#     4   4   4   4   4   4   4
#     4  10  24  41  59  96 132 156 218 271 313 377
#     4  11  20  36  63  94 124 167 219 251 308 388
#     4  11  20  37  63  88 123 166 213 252 314 385
#     4  11  25  43  61  95 129 161 213 272 326 381
#     4  10  20  40  64  92 117 166 214 258 314 387
#     4  11  23  43  70  88 120 170 213 261 329 395
#     4  10  19  37  65  86 120 168 208 260 304 369
#
# _framework density 20.182077
#
# number of rings (size 3 to 8) (size 9 to 14) (size 15 to 20)
#    0.000    1.429    7.143    0.429    0.000    2.286 
#    7.714    0.000    0.000    0.000    0.000    0.000 
#    0.000    0.000    0.000    0.000    0.000    0.000 
#
# Total GULP energy -347054.084506 kJ/mol
# GULP energy per Si atom -12394.788732 kJ/mol
# Density = 2.013614 g / cm^3
# Si number density = 20.182077 Si / 1000 Ang^3
#
#
#
# Elastic Constant Matrix: (Units=GPa)
#
#
# Indices 1 2 3 4 5 6 
#
# 1 51.5407 15.1976 17.8527 0.0000 11.8276 0.0000
# 2 15.1976 108.7969 26.7018 0.0000 0.5108 0.0000
# 3 17.8527 26.7018 83.2370 0.0000 -7.2662 0.0000
# 4 0.0000 0.0000 0.0000 28.4204 0.0000 8.7833
# 5 11.8276 0.5108 -7.2662 0.0000 36.2564 0.0000
# 6 0.0000 0.0000 0.0000 8.7833 0.0000 25.9014
#
#
#
# Elastic Compliance Matrix: (Units=1/GPa)
#
#
# Indices 1 2 3 4 5 6 
#
# 1 0.023824 -0.002002 -0.005235 0.000000 -0.008793 0.000000
# 2 -0.002002 0.010168 -0.002838 0.000000 -0.000059 0.000000
# 3 -0.005235 -0.002838 0.014452 0.000000 0.004644 0.000000
# 4 0.000000 0.000000 0.000000 0.039305 0.000000 -0.013329
# 5 -0.008793 -0.000059 0.004644 0.000000 0.031381 0.000000
# 6 0.000000 0.000000 0.000000 -0.013329 0.000000 0.043128
#
#
# Mechanical properties :
#
#
# Convention : Reuss Voigt Hill
#
# Bulk Modulus (GPa) = 35.34208 40.34209 37.84209
# Shear Modulus (GPa) = 26.06363 30.37047 28.21705
#
# Velocity S-wave (km/s) = 3.59754 3.88341 3.74321
# Velocity P-wave (km/s) = 5.89966 6.33564 6.12153
#
# Compressibility (1/GPa) = 0.02829488
#
# Stress axis : x y z
#
# Youngs Moduli (GPa) = 41.97535 98.35017 69.19267
#
# Poissons Ratio (x) = 0.19687 0.36223
# Poissons Ratio (y) = 0.08402 0.19634
# Poissons Ratio (z) = 0.21975 0.27907
#
# Static dielectric constant tensor:
#      x y z
#    x 3.689780 0.000000 0.278800 
#    y 0.000000 3.919100 0.000000 
#    z 0.278800 0.000000 3.612190 
# 
# 
# High freq. dielectric constant tensor:
#      x y z
#    x 1.777230 0.000000 0.023020 
#    y 0.000000 1.802060 0.000000 
#    z 0.023020 0.000000 1.769430 
# 
# From -- ./inp_files/62158.got.cif
#   From: 2010.03.12/outbox.cif.g09.slc.cpg/sg14_32_cif.got.tgz:62158.got - 2010.03.31 13:35:05.
