data_PCOD8124432
_publ_section_title
;
Structure prediction by ZEFSAII (Michael W. Deem and Ramdas Pophale) SiO2 
 PCOD8124432
Probable space group: P 21/C
;
_chemical_formula_sum "Si O2"
_cell_formula_units_Z 32
_cell_length_a 14.286317
_cell_length_b 6.945529
_cell_length_c 20.754674
_cell_angle_alpha 90.000000
_cell_angle_beta 39.688752
_cell_angle_gamma 90.000000
_cell_volume 1315.169838
_symmetry_space_group_name_H-M "P 21/C"
_symmetry_group_IT_number 14
_symmetry_cell_setting 'monoclinic'
loop_
_space_group_symop_operation_xyz
x,y,z
-x,1/2+y,1/2-z
-x,-y,-z
x,1/2-y,1/2+z
loop_
_atom_site_type_symbol
_atom_site_label
_atom_site_fract_x
_atom_site_fract_y
_atom_site_fract_z
Si Si1 0.312018 0.411201 0.602760
Si Si2 0.471352 0.813914 0.108741
Si Si3 0.070010 0.118404 0.322201
Si Si4 0.253466 0.659391 0.311280
Si Si5 0.243996 0.399041 0.854461
Si Si6 0.952499 0.770808 0.929453
Si Si7 0.432442 0.557592 0.330426
Si Si8 0.794425 0.124823 0.954717
O O1 0.404724 0.254369 0.510126
O O2 0.402028 0.488767 0.616808
O O3 0.163533 0.321141 0.709501
O O4 0.275305 0.600130 0.578962
O O5 0.345122 0.659281 0.194207
O O6 0.542524 0.863681 0.140852
O O7 0.160075 0.190391 0.337115
O O8 0.916009 0.216258 0.394117
O O9 0.038366 0.889456 0.341698
O O10 0.332987 0.512625 0.319130
O O11 0.083968 0.598868 0.391002
O O12 0.250466 0.870444 0.345357
O O13 0.415563 0.333458 0.767771
O O14 0.150985 0.338685 0.965408
O O15 0.854578 0.910892 0.939014
O O16 0.331486 0.694439 0.428969
#
# Coordination Sequence:
#
# PCOD8124432 Si02
#       8
#     4   4   4   4   4   4   4   4
#     4  10  20  39  64  89 126 170 221 253 314 389
#     4   9  19  38  62  93 119 177 211 257 325 376
#     4  11  22  44  64  92 127 172 213 263 320 380
#     4  10  19  37  61  92 130 163 213 260 324 386
#     4  10  21  36  63  88 131 167 206 262 328 376
#     4  11  23  41  64  96 130 168 204 273 328 374
#     4  10  20  36  58  93 124 162 212 257 311 387
#     4  11  26  39  66  98 127 167 222 259 317 388
#
# _framework density 24.331458999999999
#
# number of rings (size 3 to 8) (size 9 to 14) (size 15 to 20)
#    0.000    1.750    3.750    3.000    7.000    2.000 
#    0.000    0.000    0.000    0.750    0.000    0.000 
#    0.000    0.000    0.000    0.000    0.000    0.000 
#
# Total GULP energy -396453.220178 kJ/mol
# GULP energy per Si atom -12389.163131 kJ/mol
# Density = 2.427608 g / cm^3
# Si number density = 24.331459 Si / 1000 Ang^3
#
#
#
# Elastic Constant Matrix: (Units=GPa)
#
#
# Indices 1 2 3 4 5 6 
#
# 1 86.1042 0.2354 18.1022 0.0000 -16.4190 0.0000
# 2 0.2354 18.5171 6.2213 0.0000 -2.5205 0.0000
# 3 18.1022 6.2213 171.2763 0.0000 -14.4842 0.0000
# 4 0.0000 0.0000 0.0000 19.8432 0.0000 -1.5400
# 5 -16.4190 -2.5205 -14.4842 0.0000 46.8456 0.0000
# 6 0.0000 0.0000 0.0000 -1.5400 0.0000 24.3699
#
#
#
# Elastic Compliance Matrix: (Units=1/GPa)
#
#
# Indices 1 2 3 4 5 6 
#
# 1 0.012615 0.000744 -0.001009 0.000000 0.004149 0.000000
# 2 0.000744 0.054977 -0.001852 0.000000 0.002646 0.000000
# 3 -0.001009 -0.001852 0.006135 0.000000 0.001443 0.000000
# 4 0.000000 0.000000 0.000000 0.050644 0.000000 0.003200
# 5 0.004149 0.002646 0.001443 0.000000 0.023390 0.000000
# 6 0.000000 0.000000 0.000000 0.003200 0.000000 0.041237
#
#
# Mechanical properties :
#
#
# Convention : Reuss Voigt Hill
#
# Bulk Modulus (GPa) = 14.39024 36.11284 25.25154
# Shear Modulus (GPa) = 23.10584 34.96764 29.03674
#
# Velocity S-wave (km/s) = 3.08495 3.79507 3.45828
# Velocity P-wave (km/s) = 4.31466 5.83761 5.13293
#
# Compressibility (1/GPa) = 0.06949154
#
# Stress axis : x y z
#
# Youngs Moduli (GPa) = 79.26903 18.18945 163.01188
#
# Poissons Ratio (x) = -0.01353 0.16455
# Poissons Ratio (y) = -0.05894 0.30186
# Poissons Ratio (z) = 0.08002 0.03368
#
# Static dielectric constant tensor:
#      x y z
#    x 4.632480 0.000000 -0.318750 
#    y 0.000000 3.651100 0.000000 
#    z -0.318750 0.000000 5.099880 
# 
# 
# High freq. dielectric constant tensor:
#      x y z
#    x 1.977400 0.000000 -0.018910 
#    y 0.000000 1.902150 0.000000 
#    z -0.018910 0.000000 1.996930 
# 
# From -- ./inp_files/68198.got.cif
#   From: 2010.03.12/outbox.cif.g09.slc.cpg/sg14_35_cif.got.tgz:68198.got - 2010.03.31 13:35:05.
