data_PCOD8124924
_publ_section_title
;
Structure prediction by ZEFSAII (Michael W. Deem and Ramdas Pophale) SiO2 
 PCOD8124924
Probable space group: P 21/C
;
_chemical_formula_sum "Si O2"
_cell_formula_units_Z 32
_cell_length_a 13.394992
_cell_length_b 21.524382
_cell_length_c 11.437626
_cell_angle_alpha 90.000000
_cell_angle_beta 29.618055
_cell_angle_gamma 90.000000
_cell_volume 1629.767671
_symmetry_space_group_name_H-M "P 21/C"
_symmetry_group_IT_number 14
_symmetry_cell_setting 'monoclinic'
loop_
_space_group_symop_operation_xyz
x,y,z
-x,1/2+y,1/2-z
-x,-y,-z
x,1/2-y,1/2+z
loop_
_atom_site_type_symbol
_atom_site_label
_atom_site_fract_x
_atom_site_fract_y
_atom_site_fract_z
Si Si1 0.115716 0.162788 0.717888
Si Si2 0.870712 0.716582 0.164719
Si Si3 0.831213 0.229516 0.834478
Si Si4 0.476899 0.851096 0.987448
Si Si5 0.811131 0.152401 0.506658
Si Si6 0.543910 0.572843 0.209692
Si Si7 0.835266 0.059702 0.069759
Si Si8 0.827812 0.468503 0.837459
O O1 0.207823 0.224673 0.682158
O O2 0.310697 0.129817 0.468384
O O3 0.950097 0.179025 0.789346
O O4 0.993820 0.116257 0.927705
O O5 0.696007 0.677643 0.283178
O O6 0.987609 0.667083 0.125959
O O7 0.017466 0.749638 0.922143
O O8 0.635993 0.198901 0.977138
O O9 0.752797 0.288169 0.987912
O O10 0.371181 0.863414 0.219410
O O11 0.486051 0.916063 0.905277
O O12 0.857432 0.095066 0.376003
O O13 0.349563 0.576988 0.325067
O O14 0.657451 0.507665 0.078923
O O15 0.750003 0.042320 0.284292
O O16 0.955703 0.002713 0.886883
#
# Coordination Sequence:
#
# PCOD8124924 Si02
#       8
#     4   4   4   4   4   4   4   4
#     4  10  20  35  61  88 114 155 198 246 303 352
#     4  10  22  37  59  90 123 157 198 246 303 369
#     4  10  20  39  60  85 121 158 196 247 302 360
#     4  11  23  38  61  92 123 159 199 245 306 366
#     4  10  24  39  59  90 126 158 199 251 302 361
#     4  11  22  38  65  88 121 159 204 247 300 363
#     4  10  21  41  65  86 118 158 205 256 298 352
#     4  10  23  41  60  90 119 160 208 250 298 352
#
# _framework density 19.634699999999999
#
# number of rings (size 3 to 8) (size 9 to 14) (size 15 to 20)
#    0.000    1.750    2.500    1.125    1.750    3.500 
#    0.000    1.250    0.000    0.000    0.000    0.000 
#    0.000    0.000    0.000    0.000    0.000    0.000 
#
# Total GULP energy -396790.883076 kJ/mol
# GULP energy per Si atom -12399.715096 kJ/mol
# Density = 1.959001 g / cm^3
# Si number density = 19.634700 Si / 1000 Ang^3
#
#
#
# Elastic Constant Matrix: (Units=GPa)
#
#
# Indices 1 2 3 4 5 6 
#
# 1 91.4627 42.0541 44.0343 0.0000 5.5298 0.0000
# 2 42.0541 85.8292 52.2937 0.0000 2.4027 0.0000
# 3 44.0343 52.2937 89.5502 0.0000 11.8008 0.0000
# 4 0.0000 0.0000 0.0000 31.2126 0.0000 9.8697
# 5 5.5298 2.4027 11.8008 0.0000 24.4672 0.0000
# 6 0.0000 0.0000 0.0000 9.8697 0.0000 35.0598
#
#
#
# Elastic Compliance Matrix: (Units=1/GPa)
#
#
# Indices 1 2 3 4 5 6 
#
# 1 0.015401 -0.004610 -0.004786 0.000000 -0.000720 0.000000
# 2 -0.004610 0.019758 -0.009774 0.000000 0.003816 0.000000
# 3 -0.004786 -0.009774 0.020246 0.000000 -0.007723 0.000000
# 4 0.000000 0.000000 0.000000 0.035169 0.000000 -0.009900
# 5 -0.000720 0.003816 -0.007723 0.000000 0.044384 0.000000
# 6 0.000000 0.000000 0.000000 -0.009900 0.000000 0.031310
#
#
# Mechanical properties :
#
#
# Convention : Reuss Voigt Hill
#
# Bulk Modulus (GPa) = 58.60060 60.40069 59.50065
# Shear Modulus (GPa) = 23.77613 26.71192 25.24402
#
# Velocity S-wave (km/s) = 3.48361 3.69242 3.58953
# Velocity P-wave (km/s) = 6.78903 7.00055 6.89560
#
# Compressibility (1/GPa) = 0.01706467
#
# Stress axis : x y z
#
# Youngs Moduli (GPa) = 64.93182 50.61283 49.39298
#
# Poissons Ratio (x) = 0.23331 0.23641
# Poissons Ratio (y) = 0.29931 0.48276
# Poissons Ratio (z) = 0.31078 0.49468
#
# Static dielectric constant tensor:
#      x y z
#    x 3.544580 0.000000 0.138720 
#    y 0.000000 3.506550 0.000000 
#    z 0.138720 0.000000 3.654540 
# 
# 
# High freq. dielectric constant tensor:
#      x y z
#    x 1.767060 0.000000 0.004580 
#    y 0.000000 1.761920 0.000000 
#    z 0.004580 0.000000 1.771870 
# 
# From -- ./inp_files/33120.got.cif
#   From: 2010.03.12/outbox.cif.g09.slc.cpg/sg14_17_cif.got.tgz:33120.got - 2010.03.31 13:35:05.
