data_PCOD8124261
_publ_section_title
;
Structure prediction by ZEFSAII (Michael W. Deem and Ramdas Pophale) SiO2 
 PCOD8124261
Probable space group: P 21/C
;
_chemical_formula_sum "Si O2"
_cell_formula_units_Z 28
_cell_length_a 12.362735
_cell_length_b 10.274158
_cell_length_c 20.202251
_cell_angle_alpha 90.000000
_cell_angle_beta 146.251001
_cell_angle_gamma 90.000000
_cell_volume 1425.568780
_symmetry_space_group_name_H-M "P 21/C"
_symmetry_group_IT_number 14
_symmetry_cell_setting 'monoclinic'
loop_
_space_group_symop_operation_xyz
x,y,z
-x,1/2+y,1/2-z
-x,-y,-z
x,1/2-y,1/2+z
loop_
_atom_site_type_symbol
_atom_site_label
_atom_site_fract_x
_atom_site_fract_y
_atom_site_fract_z
Si Si1 0.460022 0.279886 0.804675
Si Si2 0.799450 0.604165 0.030530
Si Si3 0.824030 0.696372 0.735952
Si Si4 0.215796 0.918048 0.733772
Si Si5 0.246472 0.834701 0.434902
Si Si6 0.610639 0.988348 0.305428
Si Si7 0.476890 0.227399 0.029471
O O1 0.273268 0.290687 0.758711
O O2 0.450163 0.413031 0.756194
O O3 0.473726 0.144385 0.770159
O O4 0.651507 0.276661 0.947959
O O5 0.765452 0.553862 0.939142
O O6 0.630539 0.704656 0.963738
O O7 0.784530 0.489037 0.076542
O O8 0.017958 0.667927 0.142845
O O9 0.857266 0.562299 0.789979
O O10 0.687516 0.673153 0.603034
O O11 0.039477 0.742880 0.822880
O O12 0.285860 0.915528 0.693911
O O13 0.392775 0.885926 0.872775
O O14 0.374845 0.819844 0.434338
#
# Coordination Sequence:
#
# PCOD8124261 Si02
#       7
#     4   4   4   4   4   4   4
#     4   9  19  34  56  78 107 143 182 222 264 315
#     4  10  20  33  52  76 104 141 179 216 264 323
#     4   9  19  35  53  76 108 142 173 214 273 326
#     4  10  20  33  52  76 104 141 179 216 264 323
#     4   9  19  35  53  76 108 142 173 214 273 326
#     4  10  19  36  55  78 108 144 181 220 261 314
#     4  11  19  32  54  80 103 131 178 230 264 305
#
# _framework density 19.641283999999999
#
# number of rings (size 3 to 8) (size 9 to 14) (size 15 to 20)
#    0.000    2.286    0.000    3.000    0.000    1.143 
#    0.000    0.714    0.000   13.714    0.000    0.000 
#    0.000    0.000    0.000    0.000    0.000    0.000 
#
# Total GULP energy -346931.267793 kJ/mol
# GULP energy per Si atom -12390.402421 kJ/mol
# Density = 1.959658 g / cm^3
# Si number density = 19.641284 Si / 1000 Ang^3
#
#
#
# Elastic Constant Matrix: (Units=GPa)
#
#
# Indices 1 2 3 4 5 6 
#
# 1 88.0116 11.3749 44.7610 0.0000 0.6399 0.0000
# 2 11.3749 43.7976 12.3051 0.0000 3.9137 0.0000
# 3 44.7610 12.3051 102.9251 0.0000 17.7821 0.0000
# 4 0.0000 0.0000 0.0000 27.6571 0.0000 -3.7422
# 5 0.6399 3.9137 17.7821 0.0000 32.8122 0.0000
# 6 0.0000 0.0000 0.0000 -3.7422 0.0000 28.5973
#
#
#
# Elastic Compliance Matrix: (Units=1/GPa)
#
#
# Indices 1 2 3 4 5 6 
#
# 1 0.015182 -0.002319 -0.006975 0.000000 0.003760 0.000000
# 2 -0.002319 0.024040 -0.001520 0.000000 -0.001998 0.000000
# 3 -0.006975 -0.001520 0.014206 0.000000 -0.007381 0.000000
# 4 0.000000 0.000000 0.000000 0.036809 0.000000 0.004817
# 5 0.003760 -0.001998 -0.007381 0.000000 0.034642 0.000000
# 6 0.000000 0.000000 0.000000 0.004817 0.000000 0.035599
#
#
# Mechanical properties :
#
#
# Convention : Reuss Voigt Hill
#
# Bulk Modulus (GPa) = 31.44704 41.29071 36.36887
# Shear Modulus (GPa) = 25.94623 28.89953 27.42288
#
# Velocity S-wave (km/s) = 3.63851 3.84000 3.74061
# Velocity P-wave (km/s) = 5.80492 6.38192 6.10024
#
# Compressibility (1/GPa) = 0.03179950
#
# Stress axis : x y z
#
# Youngs Moduli (GPa) = 65.86821 41.59668 70.39228
#
# Poissons Ratio (x) = 0.09648 0.49097
# Poissons Ratio (y) = 0.15277 0.10701
# Poissons Ratio (z) = 0.45942 0.06324
#
# Static dielectric constant tensor:
#      x y z
#    x 3.870210 0.000000 0.186670 
#    y 0.000000 3.343280 0.000000 
#    z 0.186670 0.000000 3.672400 
# 
# 
# High freq. dielectric constant tensor:
#      x y z
#    x 1.781650 0.000000 0.000860 
#    y 0.000000 1.733280 0.000000 
#    z 0.000860 0.000000 1.766740 
# 
# From -- ./inp_files/35138.got.cif
#   From: 2010.03.12/outbox.cif.g09.slc.cpg/sg14_18_cif.got.tgz:35138.got - 2010.03.31 13:35:05.
