data_PCOD8124976
_publ_section_title
;
Structure prediction by ZEFSAII (Michael W. Deem and Ramdas Pophale) SiO2 
 PCOD8124976
Probable space group: P 21/C
;
_chemical_formula_sum "Si O2"
_cell_formula_units_Z 28
_cell_length_a 8.103402
_cell_length_b 12.373314
_cell_length_c 17.412940
_cell_angle_alpha 90.000000
_cell_angle_beta 54.184424
_cell_angle_gamma 90.000000
_cell_volume 1415.778704
_symmetry_space_group_name_H-M "P 21/C"
_symmetry_group_IT_number 14
_symmetry_cell_setting 'monoclinic'
loop_
_space_group_symop_operation_xyz
x,y,z
-x,1/2+y,1/2-z
-x,-y,-z
x,1/2-y,1/2+z
loop_
_atom_site_type_symbol
_atom_site_label
_atom_site_fract_x
_atom_site_fract_y
_atom_site_fract_z
Si Si1 0.298393 0.595338 0.634274
Si Si2 0.000095 0.837213 0.870016
Si Si3 0.103264 0.504003 0.212674
Si Si4 0.893006 0.205062 0.381964
Si Si5 0.739534 0.721755 0.813224
Si Si6 0.727128 0.285427 0.581312
Si Si7 0.284787 0.015907 0.974780
O O1 0.262746 0.721377 0.625290
O O2 0.516683 0.576976 0.613859
O O3 0.306032 0.524919 0.555676
O O4 0.119454 0.550050 0.737116
O O5 0.116721 0.923125 0.785103
O O6 0.170674 0.758306 0.863221
O O7 0.831755 0.772987 0.866063
O O8 0.892897 0.895149 0.972447
O O9 0.146692 0.579567 0.127262
O O10 0.267498 0.408060 0.175169
O O11 0.852284 0.220011 0.482885
O O12 0.122111 0.242196 0.297014
O O13 0.511532 0.760490 0.859380
O O14 0.761831 0.414248 0.565772
#
# Coordination Sequence:
#
# PCOD8124976 Si02
#       7
#     4   4   4   4   4   4   4
#     4   8  14  27  52  77  98 135 178 216 266 315
#     4  10  20  36  57  83 109 139 186 234 273 319
#     4   9  18  35  54  75 112 152 180 217 273 333
#     4   9  18  34  55  80 109 143 186 228 270 326
#     4  10  21  38  56  78 114 149 179 225 277 326
#     4  11  21  35  57  85 112 141 183 231 275 321
#     4   9  15  28  51  78 103 130 172 227 272 305
#
# _framework density 19.777101999999999
#
# number of rings (size 3 to 8) (size 9 to 14) (size 15 to 20)
#    0.000    2.571    0.000    5.571    0.000    0.571 
#    0.000   15.000    0.000    0.000    0.000    0.000 
#    0.000    0.000    0.000    0.000    0.000    0.000 
#
# Total GULP energy -346968.619634 kJ/mol
# GULP energy per Si atom -12391.736415 kJ/mol
# Density = 1.973209 g / cm^3
# Si number density = 19.777102 Si / 1000 Ang^3
#
#
#
# Elastic Constant Matrix: (Units=GPa)
#
#
# Indices 1 2 3 4 5 6 
#
# 1 123.9033 34.5841 42.8191 0.0000 -14.6622 0.0000
# 2 34.5841 95.5553 20.1019 0.0000 -0.9909 0.0000
# 3 42.8191 20.1019 74.3521 0.0000 -13.5135 0.0000
# 4 0.0000 0.0000 0.0000 29.7940 0.0000 -5.8640
# 5 -14.6622 -0.9909 -13.5135 0.0000 18.7029 0.0000
# 6 0.0000 0.0000 0.0000 -5.8640 0.0000 12.4300
#
#
#
# Elastic Compliance Matrix: (Units=1/GPa)
#
#
# Indices 1 2 3 4 5 6 
#
# 1 0.011131 -0.002996 -0.004655 0.000000 0.005205 0.000000
# 2 -0.002996 0.011956 -0.002094 0.000000 -0.003228 0.000000
# 3 -0.004655 -0.002094 0.018434 0.000000 0.009559 0.000000
# 4 0.000000 0.000000 0.000000 0.036999 0.000000 0.017455
# 5 0.005205 -0.003228 0.009559 0.000000 0.064283 0.000000
# 6 0.000000 0.000000 0.000000 0.017455 0.000000 0.088685
#
#
# Mechanical properties :
#
#
# Convention : Reuss Voigt Hill
#
# Bulk Modulus (GPa) = 45.38716 54.31345 49.85031
# Shear Modulus (GPa) = 19.35568 25.27242 22.31405
#
# Velocity S-wave (km/s) = 3.13180 3.57860 3.36263
# Velocity P-wave (km/s) = 6.00639 6.67814 6.35115
#
# Compressibility (1/GPa) = 0.02203266
#
# Stress axis : x y z
#
# Youngs Moduli (GPa) = 89.83561 83.63726 54.24868
#
# Poissons Ratio (x) = 0.25054 0.25251
# Poissons Ratio (y) = 0.26911 0.11360
# Poissons Ratio (z) = 0.41816 0.17514
#
# Static dielectric constant tensor:
#      x y z
#    x 3.355800 0.000000 -0.265880 
#    y 0.000000 3.730290 0.000000 
#    z -0.265880 0.000000 3.655740 
# 
# 
# High freq. dielectric constant tensor:
#      x y z
#    x 1.747880 0.000000 -0.017070 
#    y 0.000000 1.765880 0.000000 
#    z -0.017070 0.000000 1.758280 
# 
# From -- ./inp_files/65377.got.cif
#   From: 2010.03.12/outbox.cif.g09.slc.cpg/sg14_33_cif.got.tgz:65377.got - 2010.03.31 13:35:05.
