data_PCOD8124652
_publ_section_title
;
Structure prediction by ZEFSAII (Michael W. Deem and Ramdas Pophale) SiO2 
 PCOD8124652
Probable space group: P 21/C
;
_chemical_formula_sum "Si O2"
_cell_formula_units_Z 32
_cell_length_a 9.106503
_cell_length_b 26.838943
_cell_length_c 9.263193
_cell_angle_alpha 90.000000
_cell_angle_beta 45.455140
_cell_angle_gamma 90.000000
_cell_volume 1613.561037
_symmetry_space_group_name_H-M "P 21/C"
_symmetry_group_IT_number 14
_symmetry_cell_setting 'monoclinic'
loop_
_space_group_symop_operation_xyz
x,y,z
-x,1/2+y,1/2-z
-x,-y,-z
x,1/2-y,1/2+z
loop_
_atom_site_type_symbol
_atom_site_label
_atom_site_fract_x
_atom_site_fract_y
_atom_site_fract_z
Si Si1 0.905082 0.131300 0.382854
Si Si2 0.948660 0.867429 0.399376
Si Si3 0.444615 0.302874 0.858251
Si Si4 0.818594 0.135248 0.029333
Si Si5 0.264766 0.947295 0.708738
Si Si6 0.266387 0.443647 0.157261
Si Si7 0.548522 0.292219 0.110184
Si Si8 0.800987 0.638830 0.567509
O O1 0.772626 0.086401 0.407879
O O2 0.776799 0.183376 0.457350
O O3 0.962809 0.119354 0.506665
O O4 0.123102 0.132453 0.148780
O O5 0.787662 0.820957 0.517712
O O6 0.852084 0.915499 0.389278
O O7 0.151067 0.855612 0.162046
O O8 0.594117 0.349844 0.737664
O O9 0.541368 0.261871 0.686364
O O10 0.458237 0.285087 0.012837
O O11 0.839854 0.078141 0.076296
O O12 0.008501 0.164546 0.975938
O O13 0.507484 0.951812 0.562496
O O14 0.166762 0.002088 0.755774
O O15 0.266561 0.412020 0.305480
O O16 0.395313 0.326073 0.308272
#
# Coordination Sequence:
#
# PCOD8124652 Si02
#       8
#     4   4   4   4   4   4   4   4
#     4  11  24  40  61  94 130 163 201 259 311 368
#     4  11  24  40  61  94 130 163 201 259 311 368
#     4  12  25  43  62  91 123 165 212 260 307 367
#     4  10  20  41  65  87 124 161 209 252 304 373
#     4  10  19  40  71  92 120 167 210 251 310 377
#     4  10  19  40  71  92 120 167 210 251 310 377
#     4  12  25  43  62  91 123 165 212 260 307 367
#     4  10  20  41  65  87 124 161 209 252 304 373
#
# _framework density 19.831911999999999
#
# number of rings (size 3 to 8) (size 9 to 14) (size 15 to 20)
#    0.000    1.250    7.500    0.000    3.500    7.000 
#    0.000    0.000    0.000    3.000    0.000    0.000 
#    0.000    0.000    0.000    0.000    0.000    0.000 
#
# Total GULP energy -396581.840972 kJ/mol
# GULP energy per Si atom -12393.182530 kJ/mol
# Density = 1.978677 g / cm^3
# Si number density = 19.831912 Si / 1000 Ang^3
#
#
#
# Elastic Constant Matrix: (Units=GPa)
#
#
# Indices 1 2 3 4 5 6 
#
# 1 60.5730 17.7943 25.8638 0.0000 19.7364 0.0000
# 2 17.7943 92.0399 13.0454 0.0000 5.7488 0.0000
# 3 25.8638 13.0454 96.1318 0.0000 15.8130 0.0000
# 4 0.0000 0.0000 0.0000 31.9377 0.0000 0.2171
# 5 19.7364 5.7488 15.8130 0.0000 37.8171 0.0000
# 6 0.0000 0.0000 0.0000 0.2171 0.0000 19.2008
#
#
#
# Elastic Compliance Matrix: (Units=1/GPa)
#
#
# Indices 1 2 3 4 5 6 
#
# 1 0.022215 -0.003138 -0.003997 0.000000 -0.009445 0.000000
# 2 -0.003138 0.011567 -0.000758 0.000000 0.000196 0.000000
# 3 -0.003997 -0.000758 0.012047 0.000000 -0.002836 0.000000
# 4 0.000000 0.000000 0.000000 0.031313 0.000000 -0.000354
# 5 -0.009445 0.000196 -0.002836 0.000000 0.032529 0.000000
# 6 0.000000 0.000000 0.000000 -0.000354 0.000000 0.052085
#
#
# Mechanical properties :
#
#
# Convention : Reuss Voigt Hill
#
# Bulk Modulus (GPa) = 33.28605 40.23907 36.76256
# Shear Modulus (GPa) = 26.65852 30.59386 28.62619
#
# Velocity S-wave (km/s) = 3.67034 3.93193 3.80339
# Velocity P-wave (km/s) = 5.89766 6.39903 6.15345
#
# Compressibility (1/GPa) = 0.03004262
#
# Stress axis : x y z
#
# Youngs Moduli (GPa) = 45.01389 86.45493 83.00695
#
# Poissons Ratio (x) = 0.27133 0.33181
# Poissons Ratio (y) = 0.14127 0.06288
# Poissons Ratio (z) = 0.17994 0.06550
#
# Static dielectric constant tensor:
#      x y z
#    x 3.398460 0.000000 -0.125310 
#    y 0.000000 3.622390 0.000000 
#    z -0.125310 0.000000 3.914360 
# 
# 
# High freq. dielectric constant tensor:
#      x y z
#    x 1.753050 0.000000 -0.011000 
#    y 0.000000 1.759840 0.000000 
#    z -0.011000 0.000000 1.797160 
# 
# From -- ./inp_files/11041.got.cif
#   From: 2010.03.12/outbox.cif.g09.slc.cpg/sg14_6_cif.got.tgz:11041.got - 2010.03.31 13:35:05.
