data_PCOD8124328
_publ_section_title
;
Structure prediction by ZEFSAII (Michael W. Deem and Ramdas Pophale) SiO2 
 PCOD8124328
Probable space group: P 21/C
;
_chemical_formula_sum "Si O2"
_cell_formula_units_Z 24
_cell_length_a 9.132595
_cell_length_b 19.871823
_cell_length_c 13.352199
_cell_angle_alpha 90.000000
_cell_angle_beta 30.304071
_cell_angle_gamma 90.000000
_cell_volume 1222.707165
_symmetry_space_group_name_H-M "P 21/C"
_symmetry_group_IT_number 14
_symmetry_cell_setting 'monoclinic'
loop_
_space_group_symop_operation_xyz
x,y,z
-x,1/2+y,1/2-z
-x,-y,-z
x,1/2-y,1/2+z
loop_
_atom_site_type_symbol
_atom_site_label
_atom_site_fract_x
_atom_site_fract_y
_atom_site_fract_z
Si Si1 0.136294 0.291661 0.763812
Si Si2 0.482322 0.419818 0.619414
Si Si3 0.889253 0.316279 0.116810
Si Si4 0.132632 0.546010 0.787893
Si Si5 0.421053 0.385304 0.870865
Si Si6 0.636853 0.206519 0.399765
O O1 0.349048 0.355121 0.644356
O O2 0.338388 0.224439 0.635818
O O3 0.921915 0.299683 0.797513
O O4 0.922522 0.288421 0.984999
O O5 0.227874 0.475691 0.780441
O O6 0.742783 0.447523 0.398653
O O7 0.596243 0.401713 0.664371
O O8 0.759620 0.392671 0.202873
O O9 0.674882 0.267024 0.299622
O O10 0.212195 0.320189 0.974558
O O11 0.782333 0.550074 0.982389
O O12 0.618545 0.363988 0.848512
#
# Coordination Sequence:
#
# PCOD8124328 Si02
#       6
#     4   4   4   4   4   4
#     4  11  23  34  57  81 110 150 181 227 280 325
#     4  10  19  36  61  81 105 149 190 225 270 327
#     4   9  21  34  57  80 107 146 182 224 274 328
#     4   9  18  36  61  80 108 141 197 221 266 332
#     4   9  20  34  55  80 108 147 175 228 270 326
#     4  12  22  38  52  85 119 140 184 228 280 333
#
# _framework density 19.628575999999999
#
# number of rings (size 3 to 8) (size 9 to 14) (size 15 to 20)
#    1.000    1.000    3.333    0.500    4.667    0.000 
#    0.000    0.833    0.000    2.000    0.000    0.000 
#    0.000    0.000    0.000    0.000    0.000    0.000 
#
# Total GULP energy -297323.370541 kJ/mol
# GULP energy per Si atom -12388.473773 kJ/mol
# Density = 1.958390 g / cm^3
# Si number density = 19.628576 Si / 1000 Ang^3
#
#
#
# Elastic Constant Matrix: (Units=GPa)
#
#
# Indices 1 2 3 4 5 6 
#
# 1 59.4717 -4.3488 9.6116 0.0000 2.1333 0.0000
# 2 -4.3488 29.0366 0.4745 0.0000 11.9877 0.0000
# 3 9.6116 0.4745 64.0570 0.0000 17.9858 0.0000
# 4 0.0000 0.0000 0.0000 28.6431 0.0000 3.9167
# 5 2.1333 11.9877 17.9858 0.0000 19.8990 0.0000
# 6 0.0000 0.0000 0.0000 3.9167 0.0000 21.5801
#
#
#
# Elastic Compliance Matrix: (Units=1/GPa)
#
#
# Indices 1 2 3 4 5 6 
#
# 1 0.017482 0.003545 -0.002042 0.000000 -0.002165 0.000000
# 2 0.003545 0.051820 0.010662 0.000000 -0.041234 0.000000
# 3 -0.002042 0.010662 0.023559 0.000000 -0.027498 0.000000
# 4 0.000000 0.000000 0.000000 0.035801 0.000000 -0.006498
# 5 -0.002165 -0.041234 -0.027498 0.000000 0.100181 0.000000
# 6 0.000000 0.000000 0.000000 -0.006498 0.000000 0.047518
#
#
# Mechanical properties :
#
#
# Convention : Reuss Voigt Hill
#
# Bulk Modulus (GPa) = 8.53302 18.22664 13.37983
# Shear Modulus (GPa) = 17.17660 23.81296 20.49478
#
# Velocity S-wave (km/s) = 2.96139 3.48685 3.23481
# Velocity P-wave (km/s) = 4.00622 5.05141 4.55887
#
# Compressibility (1/GPa) = 0.11719176
#
# Stress axis : x y z
#
# Youngs Moduli (GPa) = 57.20317 19.29772 42.44590
#
# Poissons Ratio (x) = -0.06841 0.08665
# Poissons Ratio (y) = -0.20280 -0.45255
# Poissons Ratio (z) = 0.11678 -0.20575
#
# Static dielectric constant tensor:
#      x y z
#    x 3.221490 0.000000 0.257210 
#    y 0.000000 3.414660 0.000000 
#    z 0.257210 0.000000 3.655000 
# 
# 
# High freq. dielectric constant tensor:
#      x y z
#    x 1.725990 0.000000 0.022160 
#    y 0.000000 1.746210 0.000000 
#    z 0.022160 0.000000 1.778740 
# 
# From -- ./inp_files/26387.got.cif
#   From: 2010.03.12/outbox.cif.g09.slc.cpg/sg14_14_cif.got.tgz:26387.got - 2010.03.31 13:35:05.
