data_PCOD8124572
_publ_section_title
;
Structure prediction by ZEFSAII (Michael W. Deem and Ramdas Pophale) SiO2 
 PCOD8124572
Probable space group: P 21/C
;
_chemical_formula_sum "Si O2"
_cell_formula_units_Z 32
_cell_length_a 12.538682
_cell_length_b 11.963594
_cell_length_c 13.537313
_cell_angle_alpha 90.000000
_cell_angle_beta 121.073384
_cell_angle_gamma 90.000000
_cell_volume 1739.309671
_symmetry_space_group_name_H-M "P 21/C"
_symmetry_group_IT_number 14
_symmetry_cell_setting 'monoclinic'
loop_
_space_group_symop_operation_xyz
x,y,z
-x,1/2+y,1/2-z
-x,-y,-z
x,1/2-y,1/2+z
loop_
_atom_site_type_symbol
_atom_site_label
_atom_site_fract_x
_atom_site_fract_y
_atom_site_fract_z
Si Si1 0.727636 0.546745 0.394250
Si Si2 0.584971 0.767385 0.349949
Si Si3 0.077193 0.376465 0.374200
Si Si4 0.411782 0.319408 0.363388
Si Si5 0.627573 0.247485 0.102763
Si Si6 0.797735 0.052730 0.723229
Si Si7 0.283497 0.518463 0.402547
Si Si8 0.770988 0.823137 0.609314
O O1 0.626785 0.644506 0.336571
O O2 0.862917 0.600154 0.488396
O O3 0.735175 0.478455 0.297202
O O4 0.683484 0.467261 0.464372
O O5 0.576651 0.842201 0.247666
O O6 0.448952 0.758996 0.332743
O O7 0.679952 0.825019 0.471422
O O8 0.146870 0.459966 0.329171
O O9 0.105412 0.248248 0.356790
O O10 0.931478 0.394399 0.307353
O O11 0.537724 0.264782 0.465758
O O12 0.387670 0.437061 0.405675
O O13 0.298986 0.233642 0.331580
O O14 0.712556 0.356240 0.128102
O O15 0.715655 0.137690 0.151148
O O16 0.811166 0.947589 0.657129
#
# Coordination Sequence:
#
# PCOD8124572 Si02
#       8
#     4   4   4   4   4   4   4   4
#     4   9  19  37  60  85 107 162 201 230 288 354
#     4  10  20  37  59  87 115 156 194 237 296 360
#     4   8  20  37  62  79 113 160 198 232 289 355
#     4  10  19  39  61  78 119 155 190 238 291 359
#     4  11  24  34  54  93 115 148 200 242 295 345
#     4  12  22  35  60  94 123 144 195 263 285 339
#     4   9  20  40  58  81 113 160 206 223 291 360
#     4   9  20  39  58  86 115 154 196 234 304 346
#
# _framework density 18.398104
#
# number of rings (size 3 to 8) (size 9 to 14) (size 15 to 20)
#    0.750    1.500    3.750    0.750    3.500    2.000 
#    2.250    0.000    0.000    3.000    0.000    0.000 
#    0.000    0.000    0.000    0.000    0.000    0.000 
#
# Total GULP energy -396613.123952 kJ/mol
# GULP energy per Si atom -12394.160123 kJ/mol
# Density = 1.835623 g / cm^3
# Si number density = 18.398104 Si / 1000 Ang^3
#
#
#
# Elastic Constant Matrix: (Units=GPa)
#
#
# Indices 1 2 3 4 5 6 
#
# 1 47.1705 26.4854 23.6751 0.0000 -7.4620 0.0000
# 2 26.4854 114.0520 24.2845 0.0000 2.0526 0.0000
# 3 23.6751 24.2845 55.9345 0.0000 -19.6236 0.0000
# 4 0.0000 0.0000 0.0000 18.9967 0.0000 1.3198
# 5 -7.4620 2.0526 -19.6236 0.0000 32.3829 0.0000
# 6 0.0000 0.0000 0.0000 1.3198 0.0000 25.1374
#
#
#
# Elastic Compliance Matrix: (Units=1/GPa)
#
#
# Indices 1 2 3 4 5 6 
#
# 1 0.028914 -0.004625 -0.009893 0.000000 0.000961 0.000000
# 2 -0.004625 0.010828 -0.004265 0.000000 -0.004337 0.000000
# 3 -0.009893 -0.004265 0.029479 0.000000 0.015855 0.000000
# 4 0.000000 0.000000 0.000000 0.052834 0.000000 -0.002774
# 5 0.000961 -0.004337 0.015855 0.000000 0.040984 0.000000
# 6 0.000000 0.000000 0.000000 -0.002774 0.000000 0.039927
#
#
# Mechanical properties :
#
#
# Convention : Reuss Voigt Hill
#
# Bulk Modulus (GPa) = 31.59043 40.67190 36.13116
# Shear Modulus (GPa) = 19.91356 24.81752 22.36554
#
# Velocity S-wave (km/s) = 3.29351 3.67675 3.49039
# Velocity P-wave (km/s) = 5.62767 6.33870 5.99374
#
# Compressibility (1/GPa) = 0.03165515
#
# Stress axis : x y z
#
# Youngs Moduli (GPa) = 34.58510 92.35179 33.92192
#
# Poissons Ratio (x) = 0.42716 0.33560
# Poissons Ratio (y) = 0.15997 0.14467
# Poissons Ratio (z) = 0.34216 0.39386
#
# Static dielectric constant tensor:
#      x y z
#    x 3.290780 0.000000 -0.094000 
#    y 0.000000 3.253960 0.000000 
#    z -0.094000 0.000000 3.117190 
# 
# 
# High freq. dielectric constant tensor:
#      x y z
#    x 1.709450 0.000000 -0.004070 
#    y 0.000000 1.706000 0.000000 
#    z -0.004070 0.000000 1.692170 
# 
# From -- ./inp_files/44424.got.cif
#   From: 2010.03.12/outbox.cif.g09.slc.cpg/sg14_23_cif.got.tgz:44424.got - 2010.03.31 13:35:05.
