data_PCOD8124171
_publ_section_title
;
Structure prediction by ZEFSAII (Michael W. Deem and Ramdas Pophale) SiO2 
 PCOD8124171
Probable space group: P 21/C
;
_chemical_formula_sum "Si O2"
_cell_formula_units_Z 28
_cell_length_a 19.579876
_cell_length_b 12.701811
_cell_length_c 17.157832
_cell_angle_alpha 90.000000
_cell_angle_beta 159.335579
_cell_angle_gamma 90.000000
_cell_volume 1505.851467
_symmetry_space_group_name_H-M "P 21/C"
_symmetry_group_IT_number 14
_symmetry_cell_setting 'monoclinic'
loop_
_space_group_symop_operation_xyz
x,y,z
-x,1/2+y,1/2-z
-x,-y,-z
x,1/2-y,1/2+z
loop_
_atom_site_type_symbol
_atom_site_label
_atom_site_fract_x
_atom_site_fract_y
_atom_site_fract_z
Si Si1 0.755591 0.108314 0.533732
Si Si2 0.334619 0.703231 0.457359
Si Si3 0.150007 0.073407 0.881219
Si Si4 0.985837 0.557749 0.066866
Si Si5 0.557752 0.704556 0.400640
Si Si6 0.582763 0.883250 0.095544
Si Si7 0.511438 0.420997 0.235172
O O1 0.693779 0.178700 0.542043
O O2 0.647354 0.151902 0.341120
O O3 0.988168 0.111678 0.770314
O O4 0.682883 0.990351 0.471980
O O5 0.443380 0.699030 0.490703
O O6 0.459213 0.632312 0.649561
O O7 0.125123 0.656449 0.220026
O O8 0.277645 0.171563 0.986582
O O9 0.030353 0.023635 0.682759
O O10 0.296347 0.990019 0.078479
O O11 0.775445 0.607710 0.852347
O O12 0.000000 0.500000 0.000000
O O13 0.625720 0.663411 0.556548
O O14 0.526089 0.830354 0.368852
O O15 0.500000 0.000000 0.000000
#
# Coordination Sequence:
#
# PCOD8124171 Si02
#       7
#     4   4   4   4   4   4   4
#     4  10  21  37  56  77 111 149 187 226 270 335
#     4  10  22  35  54  85 110 144 182 224 284 328
#     4  10  19  35  57  82 111 144 183 230 276 326
#     4  11  19  32  54  87 112 135 177 227 288 333
#     4  10  21  34  56  85 107 143 184 229 280 329
#     4  12  20  34  57  82 114 140 172 233 286 329
#     4   9  20  38  54  78 110 145 189 223 271 333
#
# _framework density 18.594131000000001
#
# number of rings (size 3 to 8) (size 9 to 14) (size 15 to 20)
#    0.000    1.714    2.857    3.429    0.000    6.857 
#    0.000    0.714    0.000    1.714    0.000    0.000 
#    0.000    0.000    0.000    0.000    0.000    0.000 
#
# Total GULP energy -347167.981787 kJ/mol
# GULP energy per Si atom -12398.856492 kJ/mol
# Density = 1.855181 g / cm^3
# Si number density = 18.594131 Si / 1000 Ang^3
#
#
#
# Elastic Constant Matrix: (Units=GPa)
#
#
# Indices 1 2 3 4 5 6 
#
# 1 74.7242 45.6226 32.6449 0.0000 19.1499 0.0000
# 2 45.6226 115.9005 44.1418 0.0000 9.1528 0.0000
# 3 32.6449 44.1418 93.7517 0.0000 17.4170 0.0000
# 4 0.0000 0.0000 0.0000 26.3058 0.0000 -1.1620
# 5 19.1499 9.1528 17.4170 0.0000 33.4584 0.0000
# 6 0.0000 0.0000 0.0000 -1.1620 0.0000 22.6761
#
#
#
# Elastic Compliance Matrix: (Units=1/GPa)
#
#
# Indices 1 2 3 4 5 6 
#
# 1 0.020692 -0.006494 -0.002521 0.000000 -0.008754 0.000000
# 2 -0.006494 0.012554 -0.004099 0.000000 0.002416 0.000000
# 3 -0.002521 -0.004099 0.014389 0.000000 -0.004926 0.000000
# 4 0.000000 0.000000 0.000000 0.038101 0.000000 0.001952
# 5 -0.008754 0.002416 -0.004926 0.000000 0.036802 0.000000
# 6 0.000000 0.000000 0.000000 0.001952 0.000000 0.044199
#
#
# Mechanical properties :
#
#
# Convention : Reuss Voigt Hill
#
# Bulk Modulus (GPa) = 46.71023 58.79944 52.75483
# Shear Modulus (GPa) = 24.98729 27.28586 26.13657
#
# Velocity S-wave (km/s) = 3.66980 3.83488 3.75325
# Velocity P-wave (km/s) = 6.56750 7.16238 6.87138
#
# Compressibility (1/GPa) = 0.02140859
#
# Stress axis : x y z
#
# Youngs Moduli (GPa) = 48.32747 79.65285 69.49517
#
# Poissons Ratio (x) = 0.51723 0.17522
# Poissons Ratio (y) = 0.31382 0.28485
# Poissons Ratio (z) = 0.12185 0.32648
#
# Static dielectric constant tensor:
#      x y z
#    x 3.194340 0.000000 0.175940 
#    y 0.000000 3.411070 0.000000 
#    z 0.175940 0.000000 3.441690 
# 
# 
# High freq. dielectric constant tensor:
#      x y z
#    x 1.697650 0.000000 0.013870 
#    y 0.000000 1.712640 0.000000 
#    z 0.013870 0.000000 1.730700 
# 
# From -- ./inp_files/61246.got.cif
#   From: 2010.03.12/outbox.cif.g09.slc.cpg/sg14_31_cif.got.tgz:61246.got - 2010.03.31 13:35:05.
