data_PCOD8124597
_publ_section_title
;
Structure prediction by ZEFSAII (Michael W. Deem and Ramdas Pophale) SiO2 
 PCOD8124597
Probable space group: P 21/C
;
_chemical_formula_sum "Si O2"
_cell_formula_units_Z 28
_cell_length_a 5.088411
_cell_length_b 10.592583
_cell_length_c 28.225507
_cell_angle_alpha 90.000000
_cell_angle_beta 68.550390
_cell_angle_gamma 90.000000
_cell_volume 1415.969739
_symmetry_space_group_name_H-M "P 21/C"
_symmetry_group_IT_number 14
_symmetry_cell_setting 'monoclinic'
loop_
_space_group_symop_operation_xyz
x,y,z
-x,1/2+y,1/2-z
-x,-y,-z
x,1/2-y,1/2+z
loop_
_atom_site_type_symbol
_atom_site_label
_atom_site_fract_x
_atom_site_fract_y
_atom_site_fract_z
Si Si1 0.956089 0.314483 0.660219
Si Si2 0.260648 0.912034 0.494808
Si Si3 0.459323 0.697911 0.883653
Si Si4 0.392356 0.572827 0.147499
Si Si5 0.759090 0.277314 0.272021
Si Si6 0.011108 0.186586 0.399916
Si Si7 0.838849 0.606417 0.679599
O O1 0.290953 0.300025 0.632413
O O2 0.810445 0.259709 0.623104
O O3 0.841571 0.236192 0.712292
O O4 0.889008 0.460010 0.670651
O O5 0.374805 0.837642 0.442260
O O6 0.165620 0.807457 0.539818
O O7 0.500000 0.000000 0.500000
O O8 0.000000 0.000000 0.500000
O O9 0.565047 0.575690 0.847371
O O10 0.311883 0.638268 0.202541
O O11 0.679382 0.633473 0.108343
O O12 0.141722 0.590954 0.126295
O O13 0.493685 0.369603 0.294721
O O14 0.018231 0.340017 0.282532
O O15 0.029502 0.324898 0.375338
#
# Coordination Sequence:
#
# PCOD8124597 Si02
#       7
#     4   4   4   4   4   4   4
#     4  12  26  40  58  88 128 162 196 254 299 368
#     4  12  21  38  64  94 124 155 201 258 314 355
#     4  12  24  39  60  96 129 154 201 257 311 354
#     4  10  20  37  61  91 117 149 203 251 306 346
#     4  10  23  39  65  83 116 164 207 249 299 360
#     4  10  19  39  64  88 117 157 197 257 297 364
#     4  10  23  44  60  88 121 163 209 244 304 373
#
# _framework density 19.774433999999999
#
# number of rings (size 3 to 8) (size 9 to 14) (size 15 to 20)
#    0.000    1.143    2.857    3.429    4.000    0.000 
#    0.000    1.429    0.000    0.000    0.000    0.000 
#    0.000    0.000    0.000    0.000    0.000    0.000 
#
# Total GULP energy -347332.365129 kJ/mol
# GULP energy per Si atom -12404.727326 kJ/mol
# Density = 1.972943 g / cm^3
# Si number density = 19.774434 Si / 1000 Ang^3
#
#
#
# Elastic Constant Matrix: (Units=GPa)
#
#
# Indices 1 2 3 4 5 6 
#
# 1 86.2801 8.6107 23.6597 0.0000 4.6153 0.0000
# 2 8.6107 87.0831 21.3031 0.0000 7.1179 0.0000
# 3 23.6597 21.3031 125.4285 0.0000 4.4134 0.0000
# 4 0.0000 0.0000 0.0000 23.5565 0.0000 -3.4931
# 5 4.6153 7.1179 4.4134 0.0000 25.6156 0.0000
# 6 0.0000 0.0000 0.0000 -3.4931 0.0000 29.2908
#
#
#
# Elastic Compliance Matrix: (Units=1/GPa)
#
#
# Indices 1 2 3 4 5 6 
#
# 1 0.012332 -0.000549 -0.002173 0.000000 -0.001695 0.000000
# 2 -0.000549 0.012239 -0.001870 0.000000 -0.002980 0.000000
# 3 -0.002173 -0.001870 0.008721 0.000000 -0.000591 0.000000
# 4 0.000000 0.000000 0.000000 0.043215 0.000000 0.005154
# 5 -0.001695 -0.002980 -0.000591 0.000000 0.040274 0.000000
# 6 0.000000 0.000000 0.000000 0.005154 0.000000 0.034755
#
#
# Mechanical properties :
#
#
# Convention : Reuss Voigt Hill
#
# Bulk Modulus (GPa) = 41.48330 45.10429 43.29379
# Shear Modulus (GPa) = 29.62856 32.04047 30.83451
#
# Velocity S-wave (km/s) = 3.87502 4.02966 3.95310
# Velocity P-wave (km/s) = 6.40663 6.67156 6.54044
#
# Compressibility (1/GPa) = 0.02410609
#
# Stress axis : x y z
#
# Youngs Moduli (GPa) = 81.09273 81.70845 114.66512
#
# Poissons Ratio (x) = 0.04487 0.24919
# Poissons Ratio (y) = 0.04453 0.21445
# Poissons Ratio (z) = 0.17623 0.15281
#
# Static dielectric constant tensor:
#      x y z
#    x 3.887900 0.000000 -0.047950 
#    y 0.000000 3.520350 0.000000 
#    z -0.047950 0.000000 3.795990 
# 
# 
# High freq. dielectric constant tensor:
#      x y z
#    x 1.795620 0.000000 -0.001280 
#    y 0.000000 1.755860 0.000000 
#    z -0.001280 0.000000 1.770600 
# 
# From -- ./inp_files/78768.got.cif
#   From: 2010.03.12/outbox.cif.g09.slc.cpg/sg14_40_cif.got.tgz:78768.got - 2010.03.31 13:35:05.
