data_PCOD8124007
_publ_section_title
;
Structure prediction by ZEFSAII (Michael W. Deem and Ramdas Pophale) SiO2 
 PCOD8124007
Probable space group: P 21/C
;
_chemical_formula_sum "Si O2"
_cell_formula_units_Z 20
_cell_length_a 9.665851
_cell_length_b 9.732661
_cell_length_c 13.262987
_cell_angle_alpha 90.000000
_cell_angle_beta 139.445729
_cell_angle_gamma 90.000000
_cell_volume 811.219983
_symmetry_space_group_name_H-M "P 21/C"
_symmetry_group_IT_number 14
_symmetry_cell_setting 'monoclinic'
loop_
_space_group_symop_operation_xyz
x,y,z
-x,1/2+y,1/2-z
-x,-y,-z
x,1/2-y,1/2+z
loop_
_atom_site_type_symbol
_atom_site_label
_atom_site_fract_x
_atom_site_fract_y
_atom_site_fract_z
Si Si1 0.619669 0.585830 0.907467
Si Si2 0.587463 0.303853 0.577472
Si Si3 0.991043 0.255821 0.429081
Si Si4 0.644226 0.940934 0.894583
Si Si5 0.339953 0.782650 0.593840
O O1 0.550678 0.668049 0.969138
O O2 0.833301 0.637541 0.973094
O O3 0.422049 0.573839 0.711293
O O4 0.674245 0.430292 0.970147
O O5 0.460412 0.437799 0.551493
O O6 0.606964 0.325090 0.466946
O O7 0.825142 0.283980 0.750450
O O8 0.104509 0.405148 0.469394
O O9 0.885108 0.258241 0.480857
O O10 0.526316 0.800900 0.782305
#
# Coordination Sequence:
#
# PCOD8124007 Si02
#       5
#     4   4   4   4   4
#     4   9  19  37  55  76 110 142 173 210 280 304
#     4  10  19  33  56  81 103 136 186 215 255 315
#     4  10  19  35  57  79 105 139 181 218 256 315
#     4   8  20  34  54  75 110 142 164 226 257 315
#     4   9  19  34  54  79 103 141 173 215 265 314
#
# _framework density 24.654225
#
# number of rings (size 3 to 8) (size 9 to 14) (size 15 to 20)
#    1.200    1.600    0.000    1.200    0.000    4.000 
#    0.000    0.000    0.000   12.000    0.000    0.000 
#    0.000    0.000    0.000    0.000    0.000    0.000 
#
# Total GULP energy -247885.212354 kJ/mol
# GULP energy per Si atom -12394.260618 kJ/mol
# Density = 2.459811 g / cm^3
# Si number density = 24.654225 Si / 1000 Ang^3
#
#
#
# Elastic Constant Matrix: (Units=GPa)
#
#
# Indices 1 2 3 4 5 6 
#
# 1 161.1741 -1.6385 32.9277 0.0000 -6.3040 0.0000
# 2 -1.6385 36.5111 -10.6190 0.0000 14.7983 0.0000
# 3 32.9277 -10.6190 33.5547 0.0000 -1.7923 0.0000
# 4 0.0000 0.0000 0.0000 19.6757 0.0000 2.2390
# 5 -6.3040 14.7983 -1.7923 0.0000 51.4737 0.0000
# 6 0.0000 0.0000 0.0000 2.2390 0.0000 19.7656
#
#
#
# Elastic Compliance Matrix: (Units=1/GPa)
#
#
# Indices 1 2 3 4 5 6 
#
# 1 0.008000 -0.002750 -0.008642 0.000000 0.001469 0.000000
# 2 -0.002750 0.035182 0.013299 0.000000 -0.009988 0.000000
# 3 -0.008642 0.013299 0.042309 0.000000 -0.003409 0.000000
# 4 0.000000 0.000000 0.000000 0.051488 0.000000 -0.005832
# 5 0.001469 -0.009988 -0.003409 0.000000 0.022360 0.000000
# 6 0.000000 0.000000 0.000000 -0.005832 0.000000 0.051254
#
#
# Mechanical properties :
#
#
# Convention : Reuss Voigt Hill
#
# Bulk Modulus (GPa) = 11.19760 30.28671 20.74216
# Shear Modulus (GPa) = 21.13755 32.22099 26.67927
#
# Velocity S-wave (km/s) = 2.93125 3.61905 3.29315
# Velocity P-wave (km/s) = 4.00100 5.45661 4.78449
#
# Compressibility (1/GPa) = 0.08930485
#
# Stress axis : x y z
#
# Youngs Moduli (GPa) = 125.00765 28.42379 23.63555
#
# Poissons Ratio (x) = 0.07817 0.20425
# Poissons Ratio (y) = 0.34377 -0.31433
# Poissons Ratio (z) = 1.08030 -0.37801
#
# Static dielectric constant tensor:
#      x y z
#    x 4.315380 0.000000 0.101470 
#    y 0.000000 4.726470 0.000000 
#    z 0.101470 0.000000 4.020970 
# 
# 
# High freq. dielectric constant tensor:
#      x y z
#    x 1.988530 0.000000 -0.001490 
#    y 0.000000 2.028190 0.000000 
#    z -0.001490 0.000000 1.949230 
# 
# From -- ./inp_files/24332.got.cif
#   From: 2010.03.12/outbox.cif.g09.slc.cpg/sg14_13_cif.got.tgz:24332.got - 2010.03.31 13:35:05.
