data_PCOD8124630
_publ_section_title
;
Structure prediction by ZEFSAII (Michael W. Deem and Ramdas Pophale) SiO2 
 PCOD8124630
Probable space group: P 21/C
;
_chemical_formula_sum "Si O2"
_cell_formula_units_Z 28
_cell_length_a 9.865653
_cell_length_b 13.164711
_cell_length_c 18.440202
_cell_angle_alpha 90.000000
_cell_angle_beta 141.800075
_cell_angle_gamma 90.000000
_cell_volume 1481.076511
_symmetry_space_group_name_H-M "P 21/C"
_symmetry_group_IT_number 14
_symmetry_cell_setting 'monoclinic'
loop_
_space_group_symop_operation_xyz
x,y,z
-x,1/2+y,1/2-z
-x,-y,-z
x,1/2-y,1/2+z
loop_
_atom_site_type_symbol
_atom_site_label
_atom_site_fract_x
_atom_site_fract_y
_atom_site_fract_z
Si Si1 0.915402 0.203833 0.053142
Si Si2 0.682264 0.758002 0.870665
Si Si3 0.327875 0.578060 0.222744
Si Si4 0.542153 0.863692 0.172760
Si Si5 0.246086 0.312766 0.814283
Si Si6 0.321654 0.584741 0.050998
Si Si7 0.852191 0.623902 0.067229
O O1 0.082544 0.199825 0.055991
O O2 0.032088 0.166555 0.175556
O O3 0.715791 0.127396 0.953355
O O4 0.831981 0.318840 0.028061
O O5 0.531103 0.851857 0.830035
O O6 0.562737 0.700051 0.755167
O O7 0.704265 0.684350 0.947966
O O8 0.350651 0.473468 0.276141
O O9 0.319174 0.553501 0.134014
O O10 0.106020 0.633226 0.153190
O O11 0.666719 0.802036 0.161732
O O12 0.431130 0.394006 0.869910
O O13 0.180987 0.324140 0.869682
O O14 0.224480 0.492819 0.963228
#
# Coordination Sequence:
#
# PCOD8124630 Si02
#       7
#     4   4   4   4   4   4   4
#     4  10  19  40  62  86 125 163 193 249 309 351
#     4  11  20  37  61  92 120 152 209 253 292 356
#     4  12  22  38  65  96 115 155 216 244 297 364
#     4  10  21  39  64  87 122 163 197 251 302 359
#     4  10  23  40  58  89 127 159 199 245 314 354
#     4  11  20  39  66  90 116 159 210 247 292 368
#     4  12  23  38  62  92 121 159 201 258 292 360
#
# _framework density 18.905168
#
# number of rings (size 3 to 8) (size 9 to 14) (size 15 to 20)
#    0.000    1.143    7.143    2.571    0.000    2.857 
#    0.000    5.714    0.000    0.000    0.000    0.000 
#    0.000    0.000    0.000    0.000    0.000    0.000 
#
# Total GULP energy -347325.340339 kJ/mol
# GULP energy per Si atom -12404.476441 kJ/mol
# Density = 1.886214 g / cm^3
# Si number density = 18.905168 Si / 1000 Ang^3
#
#
#
# Elastic Constant Matrix: (Units=GPa)
#
#
# Indices 1 2 3 4 5 6 
#
# 1 91.3660 22.6962 36.6991 0.0000 -4.0364 0.0000
# 2 22.6962 76.4470 15.6945 0.0000 -2.3345 0.0000
# 3 36.6991 15.6945 89.4161 0.0000 13.7350 0.0000
# 4 0.0000 0.0000 0.0000 36.2038 0.0000 -1.2240
# 5 -4.0364 -2.3345 13.7350 0.0000 28.5196 0.0000
# 6 0.0000 0.0000 0.0000 -1.2240 0.0000 19.2744
#
#
#
# Elastic Compliance Matrix: (Units=1/GPa)
#
#
# Indices 1 2 3 4 5 6 
#
# 1 0.014313 -0.002852 -0.006100 0.000000 0.004730 0.000000
# 2 -0.002852 0.014297 -0.001573 0.000000 0.001524 0.000000
# 3 -0.006100 -0.001573 0.015244 0.000000 -0.008333 0.000000
# 4 0.000000 0.000000 0.000000 0.027681 0.000000 0.001758
# 5 0.004730 0.001524 -0.008333 0.000000 0.039871 0.000000
# 6 0.000000 0.000000 0.000000 0.001758 0.000000 0.051994
#
#
# Mechanical properties :
#
#
# Convention : Reuss Voigt Hill
#
# Bulk Modulus (GPa) = 43.85511 45.26764 44.56138
# Shear Modulus (GPa) = 26.03463 28.94217 27.48840
#
# Velocity S-wave (km/s) = 3.71498 3.91693 3.81729
# Velocity P-wave (km/s) = 6.45362 6.66731 6.56134
#
# Compressibility (1/GPa) = 0.02280236
#
# Stress axis : x y z
#
# Youngs Moduli (GPa) = 69.86717 69.94336 65.60139
#
# Poissons Ratio (x) = 0.19951 0.40019
# Poissons Ratio (y) = 0.19930 0.10318
# Poissons Ratio (z) = 0.42621 0.11001
#
# Static dielectric constant tensor:
#      x y z
#    x 3.421080 0.000000 0.145090 
#    y 0.000000 3.407720 0.000000 
#    z 0.145090 0.000000 3.614400 
# 
# 
# High freq. dielectric constant tensor:
#      x y z
#    x 1.725360 0.000000 0.013750 
#    y 0.000000 1.725580 0.000000 
#    z 0.013750 0.000000 1.746400 
# 
# From -- ./inp_files/29753.got.cif
#   From: 2010.03.12/outbox.cif.g09.slc.cpg/sg14_15_cif.got.tgz:29753.got - 2010.03.31 13:35:05.
