data_PCOD8124208
_publ_section_title
;
Structure prediction by ZEFSAII (Michael W. Deem and Ramdas Pophale) SiO2 
 PCOD8124208
Probable space group: P 21/C
;
_chemical_formula_sum "Si O2"
_cell_formula_units_Z 28
_cell_length_a 9.242688
_cell_length_b 15.447217
_cell_length_c 10.235307
_cell_angle_alpha 90.000000
_cell_angle_beta 112.513922
_cell_angle_gamma 90.000000
_cell_volume 1349.960416
_symmetry_space_group_name_H-M "P 21/C"
_symmetry_group_IT_number 14
_symmetry_cell_setting 'monoclinic'
loop_
_space_group_symop_operation_xyz
x,y,z
-x,1/2+y,1/2-z
-x,-y,-z
x,1/2-y,1/2+z
loop_
_atom_site_type_symbol
_atom_site_label
_atom_site_fract_x
_atom_site_fract_y
_atom_site_fract_z
Si Si1 0.347718 0.720425 0.680108
Si Si2 0.125361 0.169508 0.668855
Si Si3 0.256415 0.236310 0.972520
Si Si4 0.541296 0.606749 0.029599
Si Si5 0.552948 0.612143 0.312011
Si Si6 0.416999 0.438796 0.230579
Si Si7 0.778284 0.181461 0.591316
O O1 0.443085 0.806630 0.745964
O O2 0.465310 0.639998 0.696163
O O3 0.227626 0.705177 0.757258
O O4 0.249824 0.734613 0.512353
O O5 0.163112 0.230174 0.805772
O O6 0.143607 0.226003 0.544589
O O7 0.240262 0.086738 0.707590
O O8 0.946359 0.138550 0.617822
O O9 0.406066 0.299157 0.008099
O O10 0.318400 0.140642 0.037042
O O11 0.630618 0.587287 0.197074
O O12 0.576802 0.538285 0.924912
O O13 0.354088 0.610698 0.986360
O O14 0.462662 0.525157 0.327644
#
# Coordination Sequence:
#
# PCOD8124208 Si02
#       7
#     4   4   4   4   4   4   4
#     4  10  20  39  58  83 112 154 192 224 285 349
#     4  11  21  35  56  89 111 147 191 239 280 335
#     4  11  19  36  59  83 113 144 194 233 279 334
#     4   9  18  37  57  82 113 153 189 228 280 353
#     4  11  19  35  64  86 111 150 194 239 284 327
#     4  10  21  35  61  89 114 145 198 239 278 334
#     4  10  19  35  60  76 116 155 180 231 290 335
#
# _framework density 20.741347999999999
#
# number of rings (size 3 to 8) (size 9 to 14) (size 15 to 20)
#    0.000    1.714    5.714    2.143    0.000    0.571 
#    0.000    2.857    6.286    4.286    0.000    0.000 
#    0.000    0.000    0.000    0.000    0.000    0.000 
#
# Total GULP energy -347008.126183 kJ/mol
# GULP energy per Si atom -12393.147364 kJ/mol
# Density = 2.069414 g / cm^3
# Si number density = 20.741348 Si / 1000 Ang^3
#
#
#
# Elastic Constant Matrix: (Units=GPa)
#
#
# Indices 1 2 3 4 5 6 
#
# 1 114.6898 23.3893 32.4408 0.0000 9.2571 0.0000
# 2 23.3893 92.1097 2.0066 0.0000 7.5640 0.0000
# 3 32.4408 2.0066 57.3026 0.0000 -9.5840 0.0000
# 4 0.0000 0.0000 0.0000 12.7574 0.0000 2.7647
# 5 9.2571 7.5640 -9.5840 0.0000 28.5655 0.0000
# 6 0.0000 0.0000 0.0000 2.7647 0.0000 4.6067
#
#
#
# Elastic Compliance Matrix: (Units=1/GPa)
#
#
# Indices 1 2 3 4 5 6 
#
# 1 0.011801 -0.002361 -0.007558 0.000000 -0.005735 0.000000
# 2 -0.002361 0.011618 0.000576 0.000000 -0.002118 0.000000
# 3 -0.007558 0.000576 0.023407 0.000000 0.010150 0.000000
# 4 0.000000 0.000000 0.000000 0.090106 0.000000 -0.054077
# 5 -0.005735 -0.002118 0.010150 0.000000 0.040832 0.000000
# 6 0.000000 0.000000 0.000000 -0.054077 0.000000 0.249528
#
#
# Mechanical properties :
#
#
# Convention : Reuss Voigt Hill
#
# Bulk Modulus (GPa) = 35.53656 42.19727 38.86691
# Shear Modulus (GPa) = 10.98038 22.93696 16.95867
#
# Velocity S-wave (km/s) = 2.30336 3.32905 2.86252
# Velocity P-wave (km/s) = 4.92385 5.93005 5.45022
#
# Compressibility (1/GPa) = 0.02814004
#
# Stress axis : x y z
#
# Youngs Moduli (GPa) = 84.73668 86.07663 42.72184
#
# Poissons Ratio (x) = 0.20324 0.32287
# Poissons Ratio (y) = 0.20007 -0.02459
# Poissons Ratio (z) = 0.64040 -0.04955
#
# Static dielectric constant tensor:
#      x y z
#    x 3.692150 0.000000 -0.407590 
#    y 0.000000 3.603480 0.000000 
#    z -0.407590 0.000000 4.124040 
# 
# 
# High freq. dielectric constant tensor:
#      x y z
#    x 1.794410 0.000000 -0.028390 
#    y 0.000000 1.796320 0.000000 
#    z -0.028390 0.000000 1.816850 
# 
# From -- ./inp_files/25580.got.cif
#   From: 2010.03.12/outbox.cif.g09.slc.cpg/sg14_13_cif.got.tgz:25580.got - 2010.03.31 13:35:05.
