data_PCOD8124903
_publ_section_title
;
Structure prediction by ZEFSAII (Michael W. Deem and Ramdas Pophale) SiO2 
 PCOD8124903
Probable space group: P 21/C
;
_chemical_formula_sum "Si O2"
_cell_formula_units_Z 24
_cell_length_a 23.952866
_cell_length_b 8.303594
_cell_length_c 16.942948
_cell_angle_alpha 90.000000
_cell_angle_beta 162.441259
_cell_angle_gamma 90.000000
_cell_volume 1016.632535
_symmetry_space_group_name_H-M "P 21/C"
_symmetry_group_IT_number 14
_symmetry_cell_setting 'monoclinic'
loop_
_space_group_symop_operation_xyz
x,y,z
-x,1/2+y,1/2-z
-x,-y,-z
x,1/2-y,1/2+z
loop_
_atom_site_type_symbol
_atom_site_label
_atom_site_fract_x
_atom_site_fract_y
_atom_site_fract_z
Si Si1 0.783387 0.908100 0.990004
Si Si2 0.269131 0.520840 0.901413
Si Si3 0.050696 0.084154 0.247216
Si Si4 0.396467 0.620531 0.917554
Si Si5 0.387569 0.684935 0.652859
Si Si6 0.644805 0.104064 0.244469
O O1 0.937342 0.776189 0.221613
O O2 0.583289 0.818474 0.715626
O O3 0.850809 0.003449 0.999762
O O4 0.766559 0.051392 0.031549
O O5 0.253071 0.532493 0.784555
O O6 0.436693 0.401824 0.149104
O O7 0.299147 0.704586 0.967481
O O8 0.093066 0.452826 0.712042
O O9 0.190720 0.001237 0.498306
O O10 0.500000 0.500000 0.000000
O O11 0.283498 0.763827 0.723037
O O12 0.450399 0.794259 0.812811
O O13 0.500000 0.000000 0.000000
#
# Coordination Sequence:
#
# PCOD8124903 Si02
#       6
#     4   4   4   4   4   4
#     4  11  22  40  63  87 121 160 196 244 305 357
#     4  10  20  35  59  89 117 157 198 245 287 357
#     4  11  23  38  63  87 121 156 203 244 298 361
#     4  11  21  40  64  87 120 157 200 246 297 349
#     4  10  21  36  61  87 120 154 201 242 292 357
#     4  11  21  37  61  92 115 159 200 244 293 356
#
# _framework density 23.607351000000001
#
# number of rings (size 3 to 8) (size 9 to 14) (size 15 to 20)
#    0.000    1.333    5.000    4.000    2.333    0.000 
#    0.000    0.833    0.000    2.000    0.000    0.000 
#    0.000    0.000    0.000    0.000    0.000    0.000 
#
# Total GULP energy -297322.528880 kJ/mol
# GULP energy per Si atom -12388.438703 kJ/mol
# Density = 2.355362 g / cm^3
# Si number density = 23.607351 Si / 1000 Ang^3
#
#
#
# Elastic Constant Matrix: (Units=GPa)
#
#
# Indices 1 2 3 4 5 6 
#
# 1 138.6928 40.0996 21.8478 0.0000 20.5729 0.0000
# 2 40.0996 129.3665 29.3063 0.0000 8.8338 0.0000
# 3 21.8478 29.3063 81.2365 0.0000 16.7994 0.0000
# 4 0.0000 0.0000 0.0000 34.0378 0.0000 0.1443
# 5 20.5729 8.8338 16.7994 0.0000 36.7806 0.0000
# 6 0.0000 0.0000 0.0000 0.1443 0.0000 44.1011
#
#
#
# Elastic Compliance Matrix: (Units=1/GPa)
#
#
# Indices 1 2 3 4 5 6 
#
# 1 0.008544 -0.002226 -0.000682 0.000000 -0.003933 0.000000
# 2 -0.002226 0.009014 -0.002720 0.000000 0.000322 0.000000
# 3 -0.000682 -0.002720 0.014643 0.000000 -0.005654 0.000000
# 4 0.000000 0.000000 0.000000 0.029379 0.000000 -0.000096
# 5 -0.003933 0.000322 -0.005654 0.000000 0.031893 0.000000
# 6 0.000000 0.000000 0.000000 -0.000096 0.000000 0.022675
#
#
# Mechanical properties :
#
#
# Convention : Reuss Voigt Hill
#
# Bulk Modulus (GPa) = 47.73791 59.08924 53.41357
# Shear Modulus (GPa) = 37.20598 40.18670 38.69634
#
# Velocity S-wave (km/s) = 3.97424 4.13037 4.05305
# Velocity P-wave (km/s) = 6.42845 6.91599 6.67667
#
# Compressibility (1/GPa) = 0.02094771
#
# Stress axis : x y z
#
# Youngs Moduli (GPa) = 117.03470 110.93881 68.28979
#
# Poissons Ratio (x) = 0.24689 0.04655
# Poissons Ratio (y) = 0.26046 0.18574
# Poissons Ratio (z) = 0.07978 0.30174
#
# Static dielectric constant tensor:
#      x y z
#    x 4.413110 0.000000 -0.046060 
#    y 0.000000 2.961550 0.000000 
#    z -0.046060 0.000000 6.113090 
# 
# 
# High freq. dielectric constant tensor:
#      x y z
#    x 1.940110 0.000000 0.008520 
#    y 0.000000 1.948140 0.000000 
#    z 0.008520 0.000000 1.923450 
# 
# From -- ./inp_files/61669.got.cif
#   From: 2010.03.12/outbox.cif.g09.slc.cpg/sg14_31_cif.got.tgz:61669.got - 2010.03.31 13:35:05.
