data_PCOD8124353
_publ_section_title
;
Structure prediction by ZEFSAII (Michael W. Deem and Ramdas Pophale) SiO2 
 PCOD8124353
Probable space group: P 21/C
;
_chemical_formula_sum "Si O2"
_cell_formula_units_Z 28
_cell_length_a 9.638685
_cell_length_b 19.990031
_cell_length_c 8.176938
_cell_angle_alpha 90.000000
_cell_angle_beta 61.492033
_cell_angle_gamma 90.000000
_cell_volume 1384.483139
_symmetry_space_group_name_H-M "P 21/C"
_symmetry_group_IT_number 14
_symmetry_cell_setting 'monoclinic'
loop_
_space_group_symop_operation_xyz
x,y,z
-x,1/2+y,1/2-z
-x,-y,-z
x,1/2-y,1/2+z
loop_
_atom_site_type_symbol
_atom_site_label
_atom_site_fract_x
_atom_site_fract_y
_atom_site_fract_z
Si Si1 0.051266 0.321427 0.577477
Si Si2 0.632878 0.620244 0.643616
Si Si3 0.235066 0.425763 0.095411
Si Si4 0.289192 0.464972 0.720373
Si Si5 0.290913 0.612583 0.774918
Si Si6 0.028681 0.817097 0.230591
Si Si7 0.946236 0.056252 0.339521
O O1 0.240593 0.319410 0.435798
O O2 0.947136 0.317528 0.475145
O O3 0.008573 0.259985 0.714490
O O4 0.013645 0.394625 0.665140
O O5 0.655126 0.583486 0.806379
O O6 0.655390 0.574291 0.469588
O O7 0.454070 0.648562 0.738318
O O8 0.134720 0.491906 0.195558
O O9 0.115568 0.363955 0.130427
O O10 0.342755 0.434964 0.868972
O O11 0.343600 0.541661 0.664809
O O12 0.098931 0.467298 0.857213
O O13 0.197480 0.660806 0.705621
O O14 0.179330 0.599606 0.990916
#
# Coordination Sequence:
#
# PCOD8124353 Si02
#       7
#     4   4   4   4   4   4   4
#     4  10  24  39  62  87 115 166 201 254 300 374
#     4  10  24  37  58  93 128 150 201 255 307 359
#     4  10  20  38  64  89 119 168 201 250 305 363
#     4  10  19  36  62  92 123 167 192 248 300 368
#     4  11  20  38  61  90 124 153 199 257 302 352
#     4  11  21  39  64  84 118 161 212 245 299 368
#     4  10  19  37  64  91 122 158 214 246 297 371
#
# _framework density 20.224153999999999
#
# number of rings (size 3 to 8) (size 9 to 14) (size 15 to 20)
#    0.000    1.714    2.857    2.143    4.000    4.000 
#    2.571    5.714    0.000    0.000    0.000    0.000 
#    0.000    0.000    0.000    0.000    0.000    0.000 
#
# Total GULP energy -347012.067728 kJ/mol
# GULP energy per Si atom -12393.288133 kJ/mol
# Density = 2.017812 g / cm^3
# Si number density = 20.224154 Si / 1000 Ang^3
#
#
#
# Elastic Constant Matrix: (Units=GPa)
#
#
# Indices 1 2 3 4 5 6 
#
# 1 134.4545 17.6902 41.1919 0.0000 -0.5897 0.0000
# 2 17.6902 66.8841 -1.0420 0.0000 10.4026 0.0000
# 3 41.1919 -1.0420 60.6173 0.0000 19.1435 0.0000
# 4 0.0000 0.0000 0.0000 6.1094 0.0000 1.9593
# 5 -0.5897 10.4026 19.1435 0.0000 30.2373 0.0000
# 6 0.0000 0.0000 0.0000 1.9593 0.0000 18.7464
#
#
#
# Elastic Compliance Matrix: (Units=1/GPa)
#
#
# Indices 1 2 3 4 5 6 
#
# 1 0.011210 -0.004410 -0.010301 0.000000 0.008257 0.000000
# 2 -0.004410 0.017836 0.006585 0.000000 -0.010391 0.000000
# 3 -0.010301 0.006585 0.030484 0.000000 -0.021766 0.000000
# 4 0.000000 0.000000 0.000000 0.169360 0.000000 -0.017701
# 5 0.008257 -0.010391 -0.021766 0.000000 0.050588 0.000000
# 6 0.000000 0.000000 0.000000 -0.017701 0.000000 0.055194
#
#
# Mechanical properties :
#
#
# Convention : Reuss Voigt Hill
#
# Bulk Modulus (GPa) = 23.10633 41.95955 32.53294
# Shear Modulus (GPa) = 13.68553 24.62632 19.15593
#
# Velocity S-wave (km/s) = 2.60415 3.49330 3.08097
# Velocity P-wave (km/s) = 4.52682 6.08795 5.36448
#
# Compressibility (1/GPa) = 0.04327818
#
# Stress axis : x y z
#
# Youngs Moduli (GPa) = 89.20857 56.06559 32.80415
#
# Poissons Ratio (x) = 0.24723 0.33791
# Poissons Ratio (y) = 0.39337 -0.21601
# Poissons Ratio (z) = 0.91893 -0.36918
#
# Static dielectric constant tensor:
#      x y z
#    x 3.823500 0.000000 0.049360 
#    y 0.000000 3.886910 0.000000 
#    z 0.049360 0.000000 3.602330 
# 
# 
# High freq. dielectric constant tensor:
#      x y z
#    x 1.788240 0.000000 0.009650 
#    y 0.000000 1.773640 0.000000 
#    z 0.009650 0.000000 1.792840 
# 
# From -- ./inp_files/9876.got.cif
#   From: 2010.03.12/outbox.cif.g09.slc.cpg/sg14_5_cif.got.tgz:9876.got - 2010.03.31 13:35:05.
