data_PCOD8124699
_publ_section_title
;
Structure prediction by ZEFSAII (Michael W. Deem and Ramdas Pophale) SiO2 
 PCOD8124699
Probable space group: P 21/C
;
_chemical_formula_sum "Si O2"
_cell_formula_units_Z 20
_cell_length_a 6.623680
_cell_length_b 7.543982
_cell_length_c 21.577153
_cell_angle_alpha 90.000000
_cell_angle_beta 63.641746
_cell_angle_gamma 90.000000
_cell_volume 966.093893
_symmetry_space_group_name_H-M "P 21/C"
_symmetry_group_IT_number 14
_symmetry_cell_setting 'monoclinic'
loop_
_space_group_symop_operation_xyz
x,y,z
-x,1/2+y,1/2-z
-x,-y,-z
x,1/2-y,1/2+z
loop_
_atom_site_type_symbol
_atom_site_label
_atom_site_fract_x
_atom_site_fract_y
_atom_site_fract_z
Si Si1 0.724041 0.249435 0.114664
Si Si2 0.721670 0.618614 0.793903
Si Si3 0.461957 0.043155 0.433638
Si Si4 0.506432 0.447957 0.428566
Si Si5 0.971977 0.900324 0.829389
O O1 0.519273 0.292259 0.191196
O O2 0.744017 0.419627 0.065071
O O3 0.955020 0.211686 0.119567
O O4 0.662468 0.074627 0.084731
O O5 0.684448 0.506453 0.862819
O O6 0.810090 0.508126 0.723552
O O7 0.906454 0.767402 0.783518
O O8 0.413031 0.250200 0.430865
O O9 0.500000 0.000000 0.500000
O O10 0.500000 0.500000 0.500000
O O11 0.764866 0.469482 0.371704
#
# Coordination Sequence:
#
# PCOD8124699 Si02
#       5
#     4   4   4   4   4
#     4   9  23  39  62  92 121 165 214 256 308 394
#     4   9  22  37  60  88 126 158 208 266 315 374
#     4  10  19  43  62  87 130 163 204 268 314 365
#     4  11  21  41  64  90 130 166 210 269 317 373
#     4  11  21  42  62  92 128 168 217 256 329 382
#
# _framework density 20.701923000000001
#
# number of rings (size 3 to 8) (size 9 to 14) (size 15 to 20)
#    1.200    0.800    2.000    1.200    0.000    5.600 
#    7.200    2.000    0.000    0.000    0.000    0.000 
#    0.000    0.000    0.000    0.000    0.000    0.000 
#
# Total GULP energy -247803.314757 kJ/mol
# GULP energy per Si atom -12390.165738 kJ/mol
# Density = 2.065480 g / cm^3
# Si number density = 20.701923 Si / 1000 Ang^3
#
#
#
# Elastic Constant Matrix: (Units=GPa)
#
#
# Indices 1 2 3 4 5 6 
#
# 1 54.9662 22.2027 -1.4343 0.0000 16.1570 0.0000
# 2 22.2027 153.1990 19.0116 0.0000 5.4999 0.0000
# 3 -1.4343 19.0116 76.0360 0.0000 -1.4539 0.0000
# 4 0.0000 0.0000 0.0000 40.1962 0.0000 3.5935
# 5 16.1570 5.4999 -1.4539 0.0000 19.1711 0.0000
# 6 0.0000 0.0000 0.0000 3.5935 0.0000 11.9489
#
#
#
# Elastic Compliance Matrix: (Units=1/GPa)
#
#
# Indices 1 2 3 4 5 6 
#
# 1 0.025490 -0.003063 0.000854 0.000000 -0.020539 0.000000
# 2 -0.003063 0.007187 -0.001848 0.000000 0.000379 0.000000
# 3 0.000854 -0.001848 0.013646 0.000000 0.000845 0.000000
# 4 0.000000 0.000000 0.000000 0.025565 0.000000 -0.007689
# 5 -0.020539 0.000379 0.000845 0.000000 0.069427 0.000000
# 6 0.000000 0.000000 0.000000 -0.007689 0.000000 0.086002
#
#
# Mechanical properties :
#
#
# Convention : Reuss Voigt Hill
#
# Bulk Modulus (GPa) = 26.17130 40.41791 33.29461
# Shear Modulus (GPa) = 20.14777 30.55798 25.35288
#
# Velocity S-wave (km/s) = 3.12305 3.84616 3.50331
# Velocity P-wave (km/s) = 5.06695 6.26818 5.69930
#
# Compressibility (1/GPa) = 0.03820979
#
# Stress axis : x y z
#
# Youngs Moduli (GPa) = 39.23154 139.14026 73.28220
#
# Poissons Ratio (x) = 0.42615 -0.06258
# Poissons Ratio (y) = 0.12016 0.13539
# Poissons Ratio (z) = -0.03350 0.25706
#
# Static dielectric constant tensor:
#      x y z
#    x 3.179400 0.000000 -0.176930 
#    y 0.000000 4.091200 0.000000 
#    z -0.176930 0.000000 3.533730 
# 
# 
# High freq. dielectric constant tensor:
#      x y z
#    x 1.783230 0.000000 -0.000310 
#    y 0.000000 1.820860 0.000000 
#    z -0.000310 0.000000 1.804930 
# 
# From -- ./inp_files/63058.got.cif
#   From: 2010.03.12/outbox.cif.g09.slc.cpg/sg14_32_cif.got.tgz:63058.got - 2010.03.31 13:35:05.
