data_PCOD8124932
_publ_section_title
;
Structure prediction by ZEFSAII (Michael W. Deem and Ramdas Pophale) SiO2 
 PCOD8124932
Probable space group: P 21/C
;
_chemical_formula_sum "Si O2"
_cell_formula_units_Z 32
_cell_length_a 20.169671
_cell_length_b 8.347933
_cell_length_c 9.064037
_cell_angle_alpha 90.000000
_cell_angle_beta 76.523199
_cell_angle_gamma 90.000000
_cell_volume 1484.134065
_symmetry_space_group_name_H-M "P 21/C"
_symmetry_group_IT_number 14
_symmetry_cell_setting 'monoclinic'
loop_
_space_group_symop_operation_xyz
x,y,z
-x,1/2+y,1/2-z
-x,-y,-z
x,1/2-y,1/2+z
loop_
_atom_site_type_symbol
_atom_site_label
_atom_site_fract_x
_atom_site_fract_y
_atom_site_fract_z
Si Si1 0.163569 0.319749 0.652553
Si Si2 0.907202 0.235549 0.549606
Si Si3 0.253473 0.220303 0.354596
Si Si4 0.531216 0.866108 0.088419
Si Si5 0.553629 0.068126 0.360981
Si Si6 0.119611 0.539797 0.197339
Si Si7 0.654207 0.867008 0.440434
Si Si8 0.964070 0.041523 0.782464
O O1 0.210852 0.339977 0.483705
O O2 0.201407 0.387057 0.780952
O O3 0.091830 0.402786 0.664253
O O4 0.154500 0.130491 0.686187
O O5 0.859522 0.128637 0.466175
O O6 0.858541 0.351259 0.673428
O O7 0.952907 0.124781 0.631021
O O8 0.959224 0.336678 0.421244
O O9 0.295867 0.322801 0.217068
O O10 0.304483 0.113459 0.427764
O O11 0.467605 0.749799 0.166574
O O12 0.559220 0.955807 0.215929
O O13 0.593871 0.766931 0.984560
O O14 0.500000 0.000000 0.000000
O O15 0.500000 0.000000 0.500000
O O16 0.624935 0.043025 0.412145
O O17 0.037543 0.537070 0.245325
#
# Coordination Sequence:
#
# PCOD8124932 Si02
#       8
#     4   4   4   4   4   4   4   4
#     4  11  22  39  66  92 113 162 227 255 305 409
#     4  10  22  35  54  82 119 156 172 243 332 377
#     4  10  22  38  62  90 120 169 224 257 298 370
#     4  11  22  37  64 103 134 168 209 261 318 358
#     4  10  20  35  61  97 134 170 207 260 312 357
#     4  11  22  38  59  90 123 152 199 262 331 389
#     4  10  20  40  62  90 129 171 210 262 313 358
#     4  11  22  38  59  90 121 154 198 264 331 386
#
# _framework density 21.561395999999998
#
# number of rings (size 3 to 8) (size 9 to 14) (size 15 to 20)
#    0.000    1.500    1.250    5.250    1.750    2.000 
#    0.000    0.000    0.000   30.000    0.000    0.000 
#    0.000    0.000    0.000    0.000    0.000    0.000 
#
# Total GULP energy -396560.903356 kJ/mol
# GULP energy per Si atom -12392.528230 kJ/mol
# Density = 2.151232 g / cm^3
# Si number density = 21.561396 Si / 1000 Ang^3
#
#
#
# Elastic Constant Matrix: (Units=GPa)
#
#
# Indices 1 2 3 4 5 6 
#
# 1 92.3012 21.0533 29.8922 0.0000 0.3392 0.0000
# 2 21.0533 89.9439 27.9844 0.0000 -3.3171 0.0000
# 3 29.8922 27.9844 134.8338 0.0000 8.0298 0.0000
# 4 0.0000 0.0000 0.0000 29.1198 0.0000 3.2459
# 5 0.3392 -3.3171 8.0298 0.0000 28.4512 0.0000
# 6 0.0000 0.0000 0.0000 3.2459 0.0000 23.4965
#
#
#
# Elastic Compliance Matrix: (Units=1/GPa)
#
#
# Indices 1 2 3 4 5 6 
#
# 1 0.012042 -0.002111 -0.002246 0.000000 0.000244 0.000000
# 2 -0.002111 0.012382 -0.002227 0.000000 0.002097 0.000000
# 3 -0.002246 -0.002227 0.008534 0.000000 -0.002641 0.000000
# 4 0.000000 0.000000 0.000000 0.034878 0.000000 -0.004818
# 5 0.000244 0.002097 -0.002641 0.000000 0.036135 0.000000
# 6 0.000000 0.000000 0.000000 -0.004818 0.000000 0.043225
#
#
# Mechanical properties :
#
#
# Convention : Reuss Voigt Hill
#
# Bulk Modulus (GPa) = 50.52875 52.77096 51.64985
# Shear Modulus (GPa) = 29.94710 32.09010 31.01860
#
# Velocity S-wave (km/s) = 3.73087 3.86205 3.79703
# Velocity P-wave (km/s) = 6.48420 6.66447 6.57495
#
# Compressibility (1/GPa) = 0.01979071
#
# Stress axis : x y z
#
# Youngs Moduli (GPa) = 83.04204 80.76023 117.17862
#
# Poissons Ratio (x) = 0.17047 0.26320
# Poissons Ratio (y) = 0.17529 0.26094
# Poissons Ratio (z) = 0.18652 0.17984
#
# Static dielectric constant tensor:
#      x y z
#    x 4.200500 0.000000 0.114780 
#    y 0.000000 4.128690 0.000000 
#    z 0.114780 0.000000 4.341510 
# 
# 
# High freq. dielectric constant tensor:
#      x y z
#    x 1.830670 0.000000 0.012950 
#    y 0.000000 1.825880 0.000000 
#    z 0.012950 0.000000 1.875460 
# 
# From -- ./inp_files/18610.got.cif
#   From: 2010.03.12/outbox.cif.g09.slc.cpg/sg14_10_cif.got.tgz:18610.got - 2010.03.31 13:35:05.
