data_PCOD8124554
_publ_section_title
;
Structure prediction by ZEFSAII (Michael W. Deem and Ramdas Pophale) SiO2 
 PCOD8124554
Probable space group: P 21/C
;
_chemical_formula_sum "Si O2"
_cell_formula_units_Z 28
_cell_length_a 14.710027
_cell_length_b 9.668046
_cell_length_c 21.262072
_cell_angle_alpha 90.000000
_cell_angle_beta 154.208605
_cell_angle_gamma 90.000000
_cell_volume 1315.657158
_symmetry_space_group_name_H-M "P 21/C"
_symmetry_group_IT_number 14
_symmetry_cell_setting 'monoclinic'
loop_
_space_group_symop_operation_xyz
x,y,z
-x,1/2+y,1/2-z
-x,-y,-z
x,1/2-y,1/2+z
loop_
_atom_site_type_symbol
_atom_site_label
_atom_site_fract_x
_atom_site_fract_y
_atom_site_fract_z
Si Si1 0.418546 0.347089 0.955418
Si Si2 0.800432 0.282781 0.755942
Si Si3 0.319754 0.274334 0.756808
Si Si4 0.440507 0.973855 0.813999
Si Si5 0.243555 0.271686 0.972772
Si Si6 0.503978 0.981354 0.287579
Si Si7 0.898418 0.355043 0.443937
O O1 0.302551 0.305348 0.819662
O O2 0.500000 0.500000 0.000000
O O3 0.612766 0.248091 0.091563
O O4 0.252713 0.334168 0.908623
O O5 0.752278 0.429264 0.760561
O O6 0.807553 0.178380 0.818605
O O7 0.003023 0.265585 0.840319
O O8 0.462877 0.138077 0.837636
O O9 0.433810 0.397518 0.790900
O O10 0.078166 0.251519 0.582263
O O11 0.389386 0.951116 0.707912
O O12 0.646493 0.880227 0.956888
O O13 0.336145 0.378746 0.080092
O O14 0.307747 0.884165 0.142101
O O15 0.000000 0.500000 0.500000
#
# Coordination Sequence:
#
# PCOD8124554 Si02
#       7
#     4   4   4   4   4   4   4
#     4  11  22  48  68  93 134 182 221 268 328 412
#     4  11  24  44  67  97 134 179 216 277 342 392
#     4  11  24  40  69 102 133 169 230 280 323 396
#     4  11  24  42  66 103 138 166 221 291 331 383
#     4  11  23  44  69  91 138 181 215 273 345 397
#     4  11  20  42  68  98 134 180 221 267 336 403
#     4  10  19  38  66  95 126 172 220 263 320 394
#
# _framework density 21.282139999999998
#
# number of rings (size 3 to 8) (size 9 to 14) (size 15 to 20)
#    0.000    1.143    4.286    4.286    0.000    4.571 
#    7.714    0.000    0.000    0.000    0.000    0.000 
#    0.000    0.000    0.000    0.000    0.000    0.000 
#
# Total GULP energy -346888.815634 kJ/mol
# GULP energy per Si atom -12388.886273 kJ/mol
# Density = 2.123370 g / cm^3
# Si number density = 21.282140 Si / 1000 Ang^3
#
#
#
# Elastic Constant Matrix: (Units=GPa)
#
#
# Indices 1 2 3 4 5 6 
#
# 1 108.6236 43.0196 25.0547 0.0000 -6.1014 0.0000
# 2 43.0196 81.2702 13.7710 0.0000 5.7345 0.0000
# 3 25.0547 13.7710 63.1689 0.0000 -3.6665 0.0000
# 4 0.0000 0.0000 0.0000 17.0399 0.0000 -8.6045
# 5 -6.1014 5.7345 -3.6665 0.0000 41.9624 0.0000
# 6 0.0000 0.0000 0.0000 -8.6045 0.0000 34.0794
#
#
#
# Elastic Compliance Matrix: (Units=1/GPa)
#
#
# Indices 1 2 3 4 5 6 
#
# 1 0.012627 -0.006258 -0.003506 0.000000 0.002385 0.000000
# 2 -0.006258 0.016048 -0.001202 0.000000 -0.003208 0.000000
# 3 -0.003506 -0.001202 0.017552 0.000000 0.001188 0.000000
# 4 0.000000 0.000000 0.000000 0.067261 0.000000 0.016982
# 5 0.002385 -0.003208 0.001188 0.000000 0.024720 0.000000
# 6 0.000000 0.000000 0.000000 0.016982 0.000000 0.033631
#
#
# Mechanical properties :
#
#
# Convention : Reuss Voigt Hill
#
# Bulk Modulus (GPa) = 41.16202 46.30594 43.73398
# Shear Modulus (GPa) = 24.76843 30.03081 27.39962
#
# Velocity S-wave (km/s) = 3.41517 3.76051 3.59199
# Velocity P-wave (km/s) = 5.91052 6.37657 6.14796
#
# Compressibility (1/GPa) = 0.02429424
#
# Stress axis : x y z
#
# Youngs Moduli (GPa) = 79.19380 62.31476 56.97334
#
# Poissons Ratio (x) = 0.38999 0.19972
# Poissons Ratio (y) = 0.49563 0.06850
# Poissons Ratio (z) = 0.27762 0.07492
#
# Static dielectric constant tensor:
#      x y z
#    x 4.513710 0.000000 0.151190 
#    y 0.000000 3.802480 0.000000 
#    z 0.151190 0.000000 4.670060 
# 
# 
# High freq. dielectric constant tensor:
#      x y z
#    x 1.844630 0.000000 -0.000880 
#    y 0.000000 1.839240 0.000000 
#    z -0.000880 0.000000 1.819850 
# 
# From -- ./inp_files/68380.got.cif
#   From: 2010.03.12/outbox.cif.g09.slc.cpg/sg14_35_cif.got.tgz:68380.got - 2010.03.31 13:35:05.
