data_PCOD8124115
_publ_section_title
;
Structure prediction by ZEFSAII (Michael W. Deem and Ramdas Pophale) SiO2 
 PCOD8124115
Probable space group: P 21/C
;
_chemical_formula_sum "Si O2"
_cell_formula_units_Z 28
_cell_length_a 7.440836
_cell_length_b 31.446393
_cell_length_c 5.549896
_cell_angle_alpha 90.000000
_cell_angle_beta 58.565733
_cell_angle_gamma 90.000000
_cell_volume 1108.021367
_symmetry_space_group_name_H-M "P 21/C"
_symmetry_group_IT_number 14
_symmetry_cell_setting 'monoclinic'
loop_
_space_group_symop_operation_xyz
x,y,z
-x,1/2+y,1/2-z
-x,-y,-z
x,1/2-y,1/2+z
loop_
_atom_site_type_symbol
_atom_site_label
_atom_site_fract_x
_atom_site_fract_y
_atom_site_fract_z
Si Si1 0.252459 0.417127 0.051839
Si Si2 0.159109 0.266406 0.339955
Si Si3 0.125952 0.355372 0.519275
Si Si4 0.511556 0.358888 0.565324
Si Si5 0.159786 0.903857 0.487121
Si Si6 0.873478 0.494359 0.839292
Si Si7 0.635524 0.265602 0.508918
O O1 0.198722 0.399743 0.352718
O O2 0.301712 0.467684 0.036558
O O3 0.455219 0.390007 0.826107
O O4 0.049537 0.410749 0.024090
O O5 0.052807 0.252271 0.670767
O O6 0.117006 0.316805 0.336270
O O7 0.404830 0.255415 0.166080
O O8 0.295530 0.341494 0.600984
O O9 0.895696 0.365570 0.789024
O O10 0.637782 0.316506 0.548516
O O11 0.640961 0.389014 0.299513
O O12 0.226601 0.947167 0.581132
O O13 0.000000 0.500000 0.500000
O O14 0.000000 0.500000 0.000000
O O15 0.748678 0.253140 0.172461
#
# Coordination Sequence:
#
# PCOD8124115 Si02
#       7
#     4   4   4   4   4   4   4
#     4  10  22  40  68  90 127 175 211 260 330 387
#     4  10  19  34  61  86 117 166 211 254 315 383
#     4  11  21  39  65  89 123 167 212 264 320 380
#     4  11  23  39  64  96 126 166 218 270 320 384
#     4  10  24  41  62  97 129 165 215 271 319 386
#     4  10  20  43  67  91 133 175 210 261 331 388
#     4  10  19  37  60  86 124 169 207 261 321 378
#
# _framework density 25.270268000000002
#
# number of rings (size 3 to 8) (size 9 to 14) (size 15 to 20)
#    0.000    1.714    4.286    1.714    2.000    1.714 
#    0.000    2.143    0.000    0.000    0.000    0.000 
#    0.000    0.000    0.000    0.000    0.000    0.000 
#
# Total GULP energy -347001.089134 kJ/mol
# GULP energy per Si atom -12392.896040 kJ/mol
# Density = 2.521275 g / cm^3
# Si number density = 25.270268 Si / 1000 Ang^3
#
#
#
# Elastic Constant Matrix: (Units=GPa)
#
#
# Indices 1 2 3 4 5 6 
#
# 1 47.0167 6.6225 14.2135 0.0000 14.7241 0.0000
# 2 6.6225 133.0983 20.5427 0.0000 -4.3796 0.0000
# 3 14.2135 20.5427 153.7803 0.0000 16.6629 0.0000
# 4 0.0000 0.0000 0.0000 51.3554 0.0000 7.6460
# 5 14.7241 -4.3796 16.6629 0.0000 25.3574 0.0000
# 6 0.0000 0.0000 0.0000 7.6460 0.0000 4.8312
#
#
#
# Elastic Compliance Matrix: (Units=1/GPa)
#
#
# Indices 1 2 3 4 5 6 
#
# 1 0.026475 -0.001735 -0.000557 0.000000 -0.015307 0.000000
# 2 -0.001735 0.007896 -0.001240 0.000000 0.003186 0.000000
# 3 -0.000557 -0.001240 0.007222 0.000000 -0.004637 0.000000
# 4 0.000000 0.000000 0.000000 0.025475 0.000000 -0.040317
# 5 -0.015307 0.003186 -0.004637 0.000000 0.051922 0.000000
# 6 0.000000 0.000000 0.000000 -0.040317 0.000000 0.270796
#
#
# Mechanical properties :
#
#
# Convention : Reuss Voigt Hill
#
# Bulk Modulus (GPa) = 28.95971 46.29475 37.62723
# Shear Modulus (GPa) = 12.24414 35.80992 24.02703
#
# Velocity S-wave (km/s) = 2.20359 3.76849 3.08685
# Velocity P-wave (km/s) = 4.23784 6.10696 5.25615
#
# Compressibility (1/GPa) = 0.03453073
#
# Stress axis : x y z
#
# Youngs Moduli (GPa) = 37.77089 126.65086 138.46121
#
# Poissons Ratio (x) = 0.21975 0.07708
# Poissons Ratio (y) = 0.06554 0.17163
# Poissons Ratio (z) = 0.02103 0.15699
#
# Static dielectric constant tensor:
#      x y z
#    x 4.285370 0.000000 0.409980 
#    y 0.000000 4.984990 0.000000 
#    z 0.409980 0.000000 5.141360 
# 
# 
# High freq. dielectric constant tensor:
#      x y z
#    x 1.990610 0.000000 0.010760 
#    y 0.000000 2.022260 0.000000 
#    z 0.010760 0.000000 2.022510 
# 
# From -- ./inp_files/2063.got.cif
#   From: 2010.03.12/outbox.cif.g09.slc.cpg/sg14_2_cif.got.tgz:2063.got - 2010.03.31 13:35:05.
