data_PCOD8124950
_publ_section_title
;
Structure prediction by ZEFSAII (Michael W. Deem and Ramdas Pophale) SiO2 
 PCOD8124950
Probable space group: P 21/C
;
_chemical_formula_sum "Si O2"
_cell_formula_units_Z 20
_cell_length_a 25.078449
_cell_length_b 5.112365
_cell_length_c 16.777638
_cell_angle_alpha 90.000000
_cell_angle_beta 154.290404
_cell_angle_gamma 90.000000
_cell_volume 933.153088
_symmetry_space_group_name_H-M "P 21/C"
_symmetry_group_IT_number 14
_symmetry_cell_setting 'monoclinic'
loop_
_space_group_symop_operation_xyz
x,y,z
-x,1/2+y,1/2-z
-x,-y,-z
x,1/2-y,1/2+z
loop_
_atom_site_type_symbol
_atom_site_label
_atom_site_fract_x
_atom_site_fract_y
_atom_site_fract_z
Si Si1 0.559744 0.975801 0.234724
Si Si2 0.935976 0.747677 0.449893
Si Si3 0.318169 0.188495 0.969172
Si Si4 0.939411 0.869617 0.136468
Si Si5 0.310712 0.513466 0.624121
O O1 0.630804 0.203662 0.283021
O O2 0.612742 0.939797 0.397176
O O3 0.585392 0.709498 0.219645
O O4 0.415307 0.032008 0.045326
O O5 0.792073 0.728813 0.235971
O O6 0.951373 0.747329 0.564965
O O7 0.000000 0.500000 0.500000
O O8 0.000000 0.000000 0.500000
O O9 0.266597 0.007606 0.972091
O O10 0.971673 0.622782 0.236655
O O11 0.803187 0.972728 0.970869
#
# Coordination Sequence:
#
# PCOD8124950 Si02
#       5
#     4   4   4   4   4
#     4  10  20  35  66  94 122 175 208 268 316 396
#     4  12  28  43  67 101 130 175 224 283 321 393
#     4  10  21  39  65  95 131 162 230 254 329 384
#     4  12  25  45  64  93 135 182 217 267 340 395
#     4  10  20  36  62  92 123 169 216 252 332 378
#
# _framework density 21.432711999999999
#
# number of rings (size 3 to 8) (size 9 to 14) (size 15 to 20)
#    1.200    0.000    2.000    4.800    5.600    0.000 
#    0.000    2.000    0.000    0.000    0.000    0.000 
#    0.000    0.000    0.000    0.000    0.000    0.000 
#
# Total GULP energy -247926.826435 kJ/mol
# GULP energy per Si atom -12396.341322 kJ/mol
# Density = 2.138393 g / cm^3
# Si number density = 21.432712 Si / 1000 Ang^3
#
#
#
# Elastic Constant Matrix: (Units=GPa)
#
#
# Indices 1 2 3 4 5 6 
#
# 1 89.4806 14.6830 19.4737 0.0000 19.0325 0.0000
# 2 14.6830 126.6974 27.6226 0.0000 10.5420 0.0000
# 3 19.4737 27.6226 110.8660 0.0000 18.0489 0.0000
# 4 0.0000 0.0000 0.0000 22.0905 0.0000 9.5164
# 5 19.0325 10.5420 18.0489 0.0000 30.7052 0.0000
# 6 0.0000 0.0000 0.0000 9.5164 0.0000 33.7114
#
#
#
# Elastic Compliance Matrix: (Units=1/GPa)
#
#
# Indices 1 2 3 4 5 6 
#
# 1 0.013045 -0.000702 -0.000928 0.000000 -0.007300 0.000000
# 2 -0.000702 0.008477 -0.001754 0.000000 -0.001444 0.000000
# 3 -0.000928 -0.001754 0.010426 0.000000 -0.004951 0.000000
# 4 0.000000 0.000000 0.000000 0.051536 0.000000 -0.014548
# 5 -0.007300 -0.001444 -0.004951 0.000000 0.040499 0.000000
# 6 0.000000 0.000000 0.000000 -0.014548 0.000000 0.033770
#
#
# Mechanical properties :
#
#
# Convention : Reuss Voigt Hill
#
# Bulk Modulus (GPa) = 39.71346 50.06696 44.89021
# Shear Modulus (GPa) = 28.91619 34.98572 31.95095
#
# Velocity S-wave (km/s) = 3.67708 4.04462 3.86522
# Velocity P-wave (km/s) = 6.04958 6.72478 6.39610
#
# Compressibility (1/GPa) = 0.02518038
#
# Stress axis : x y z
#
# Youngs Moduli (GPa) = 76.65527 117.97086 95.91532
#
# Poissons Ratio (x) = 0.08283 0.08902
# Poissons Ratio (y) = 0.05382 0.16819
# Poissons Ratio (z) = 0.07115 0.20686
#
# Static dielectric constant tensor:
#      x y z
#    x 3.624850 0.000000 0.132480 
#    y 0.000000 3.913710 0.000000 
#    z 0.132480 0.000000 3.628700 
# 
# 
# High freq. dielectric constant tensor:
#      x y z
#    x 1.828250 0.000000 0.029600 
#    y 0.000000 1.853720 0.000000 
#    z 0.029600 0.000000 1.821020 
# 
# From -- ./inp_files/62176.got.cif
#   From: 2010.03.12/outbox.cif.g09.slc.cpg/sg14_32_cif.got.tgz:62176.got - 2010.03.31 13:35:05.
