data_PCOD8124847
_publ_section_title
;
Structure prediction by ZEFSAII (Michael W. Deem and Ramdas Pophale) SiO2 
 PCOD8124847
Probable space group: P 21/C
;
_chemical_formula_sum "Si O2"
_cell_formula_units_Z 32
_cell_length_a 6.669444
_cell_length_b 8.456099
_cell_length_c 28.892938
_cell_angle_alpha 90.000000
_cell_angle_beta 87.643511
_cell_angle_gamma 90.000000
_cell_volume 1628.110868
_symmetry_space_group_name_H-M "P 21/C"
_symmetry_group_IT_number 14
_symmetry_cell_setting 'monoclinic'
loop_
_space_group_symop_operation_xyz
x,y,z
-x,1/2+y,1/2-z
-x,-y,-z
x,1/2-y,1/2+z
loop_
_atom_site_type_symbol
_atom_site_label
_atom_site_fract_x
_atom_site_fract_y
_atom_site_fract_z
Si Si1 0.073213 0.614095 0.929203
Si Si2 0.034341 0.722331 0.830685
Si Si3 0.959345 0.820465 0.013580
Si Si4 0.192266 0.668580 0.087604
Si Si5 0.112428 0.884330 0.691126
Si Si6 0.629477 0.291380 0.243013
Si Si7 0.597031 0.608369 0.038988
Si Si8 0.769845 0.632304 0.264405
O O1 0.266674 0.500034 0.928627
O O2 0.071986 0.731942 0.885201
O O3 0.077669 0.714637 0.975517
O O4 0.874996 0.506212 0.928381
O O5 0.905082 0.569967 0.817160
O O6 0.900728 0.864433 0.810772
O O7 0.253840 0.722296 0.806351
O O8 0.728465 0.756724 0.017484
O O9 0.064921 0.800362 0.061955
O O10 0.000000 0.000000 0.000000
O O11 0.144839 0.701492 0.141708
O O12 0.427306 0.684273 0.073427
O O13 0.302093 0.844048 0.721505
O O14 0.910510 0.826328 0.719005
O O15 0.667738 0.461885 0.264966
O O16 0.396733 0.268826 0.234415
O O17 0.500000 0.500000 0.000000
#
# Coordination Sequence:
#
# PCOD8124847 Si02
#       8
#     4   4   4   4   4   4   4   4
#     4  10  20  37  59  82 113 151 195 237 284 347
#     4   9  20  36  56  82 109 148 193 234 281 336
#     4  11  23  37  55  87 123 152 183 240 299 345
#     4  10  20  38  61  83 110 153 200 237 282 352
#     4   9  20  36  58  81 110 147 190 237 282 333
#     4  10  20  35  55  82 112 148 191 232 285 340
#     4  11  19  38  64  84 110 152 202 240 285 345
#     4  10  20  36  56  81 116 149 185 236 285 339
#
# _framework density 19.654682999999999
#
# number of rings (size 3 to 8) (size 9 to 14) (size 15 to 20)
#    0.000    2.000    2.500    1.500    0.000    8.500 
#    0.000    1.250    0.000    0.000    0.000    0.000 
#    0.000    0.000    0.000    0.000    0.000    0.000 
#
# Total GULP energy -396688.723516 kJ/mol
# GULP energy per Si atom -12396.522610 kJ/mol
# Density = 1.960995 g / cm^3
# Si number density = 19.654683 Si / 1000 Ang^3
#
#
#
# Elastic Constant Matrix: (Units=GPa)
#
#
# Indices 1 2 3 4 5 6 
#
# 1 105.5124 19.6122 19.9010 0.0000 -6.0594 0.0000
# 2 19.6122 41.4468 0.6545 0.0000 -6.6739 0.0000
# 3 19.9010 0.6545 82.5373 0.0000 -2.0954 0.0000
# 4 0.0000 0.0000 0.0000 28.3634 0.0000 0.7771
# 5 -6.0594 -6.6739 -2.0954 0.0000 20.8101 0.0000
# 6 0.0000 0.0000 0.0000 0.7771 0.0000 27.3800
#
#
#
# Elastic Compliance Matrix: (Units=1/GPa)
#
#
# Indices 1 2 3 4 5 6 
#
# 1 0.010955 -0.004926 -0.002568 0.000000 0.001352 0.000000
# 2 -0.004926 0.027656 0.001160 0.000000 0.007552 0.000000
# 3 -0.002568 0.001160 0.012749 0.000000 0.000908 0.000000
# 4 0.000000 0.000000 0.000000 0.035284 0.000000 -0.001001
# 5 0.001352 0.007552 0.000908 0.000000 0.050960 0.000000
# 6 0.000000 0.000000 0.000000 -0.001001 0.000000 0.036551
#
#
# Mechanical properties :
#
#
# Convention : Reuss Voigt Hill
#
# Bulk Modulus (GPa) = 25.84489 34.42579 30.13534
# Shear Modulus (GPa) = 25.03498 27.93261 26.48379
#
# Velocity S-wave (km/s) = 3.57282 3.77393 3.67475
# Velocity P-wave (km/s) = 5.49528 6.04511 5.77674
#
# Compressibility (1/GPa) = 0.03869237
#
# Stress axis : x y z
#
# Youngs Moduli (GPa) = 91.28160 36.15878 78.43878
#
# Poissons Ratio (x) = 0.17811 0.20144
# Poissons Ratio (y) = 0.44962 -0.09099
# Poissons Ratio (z) = 0.23442 -0.04195
#
# Static dielectric constant tensor:
#      x y z
#    x 3.614650 0.000000 -0.023980 
#    y 0.000000 3.394760 0.000000 
#    z -0.023980 0.000000 3.718470 
# 
# 
# High freq. dielectric constant tensor:
#      x y z
#    x 1.769970 0.000000 0.000510 
#    y 0.000000 1.744290 0.000000 
#    z 0.000510 0.000000 1.767390 
# 
# From -- ./inp_files/78700.got.cif
#   From: 2010.03.12/outbox.cif.g09.slc.cpg/sg14_40_cif.got.tgz:78700.got - 2010.03.31 13:35:05.
