data_PCOD8124531
_publ_section_title
;
Structure prediction by ZEFSAII (Michael W. Deem and Ramdas Pophale) SiO2 
 PCOD8124531
Probable space group: P 21/C
;
_chemical_formula_sum "Si O2"
_cell_formula_units_Z 28
_cell_length_a 9.624533
_cell_length_b 5.595191
_cell_length_c 31.087029
_cell_angle_alpha 90.000000
_cell_angle_beta 123.616263
_cell_angle_gamma 90.000000
_cell_volume 1394.106049
_symmetry_space_group_name_H-M "P 21/C"
_symmetry_group_IT_number 14
_symmetry_cell_setting 'monoclinic'
loop_
_space_group_symop_operation_xyz
x,y,z
-x,1/2+y,1/2-z
-x,-y,-z
x,1/2-y,1/2+z
loop_
_atom_site_type_symbol
_atom_site_label
_atom_site_fract_x
_atom_site_fract_y
_atom_site_fract_z
Si Si1 0.047718 0.949902 0.940889
Si Si2 0.822118 0.605748 0.851693
Si Si3 0.223574 0.983583 0.325042
Si Si4 0.907340 0.838973 0.780110
Si Si5 0.754600 0.372075 0.443646
Si Si6 0.594627 0.873437 0.387015
Si Si7 0.056034 0.278716 0.361067
O O1 0.947899 0.718878 0.908094
O O2 0.131830 0.062269 0.912435
O O3 0.195769 0.870407 0.997681
O O4 0.922169 0.135054 0.943338
O O5 0.805215 0.747280 0.804141
O O6 0.643665 0.601048 0.844949
O O7 0.893656 0.347037 0.853395
O O8 0.396266 0.842971 0.356367
O O9 0.061578 0.821483 0.292201
O O10 0.221971 0.147266 0.281759
O O11 0.204864 0.115915 0.367961
O O12 0.987540 0.089283 0.807240
O O13 0.660477 0.624507 0.418638
O O14 0.652220 0.125156 0.418977
#
# Coordination Sequence:
#
# PCOD8124531 Si02
#       7
#     4   4   4   4   4   4   4
#     4   9  19  36  66  89 121 165 212 248 300 380
#     4   9  20  38  61  92 120 156 206 258 304 363
#     4  11  23  39  64  85 124 162 208 256 312 372
#     4  10  21  40  61  87 110 170 209 247 301 387
#     4  10  22  38  64  94 127 164 207 253 317 366
#     4  11  24  41  61  97 131 158 198 269 316 354
#     4  10  19  38  63  85 121 159 213 251 298 376
#
# _framework density 20.084554000000001
#
# number of rings (size 3 to 8) (size 9 to 14) (size 15 to 20)
#    0.000    2.000    2.857    0.000    4.000    1.714 
#    2.571    1.429    0.000    0.000    0.000    0.000 
#    0.000    0.000    0.000    0.000    0.000    0.000 
#
# Total GULP energy -346916.923243 kJ/mol
# GULP energy per Si atom -12389.890116 kJ/mol
# Density = 2.003884 g / cm^3
# Si number density = 20.084554 Si / 1000 Ang^3
#
#
#
# Elastic Constant Matrix: (Units=GPa)
#
#
# Indices 1 2 3 4 5 6 
#
# 1 85.9015 12.2121 34.5574 0.0000 -7.4214 0.0000
# 2 12.2121 85.5708 21.5533 0.0000 -4.1020 0.0000
# 3 34.5574 21.5533 92.6656 0.0000 -15.1725 0.0000
# 4 0.0000 0.0000 0.0000 22.7762 0.0000 -0.4795
# 5 -7.4214 -4.1020 -15.1725 0.0000 24.0869 0.0000
# 6 0.0000 0.0000 0.0000 -0.4795 0.0000 17.6855
#
#
#
# Elastic Compliance Matrix: (Units=1/GPa)
#
#
# Indices 1 2 3 4 5 6 
#
# 1 0.013763 -0.000705 -0.004788 0.000000 0.001105 0.000000
# 2 -0.000705 0.012452 -0.002589 0.000000 0.000273 0.000000
# 3 -0.004788 -0.002589 0.014345 0.000000 0.007120 0.000000
# 4 0.000000 0.000000 0.000000 0.043930 0.000000 0.001191
# 5 0.001105 0.000273 0.007120 0.000000 0.046388 0.000000
# 6 0.000000 0.000000 0.000000 0.001191 0.000000 0.056576
#
#
# Mechanical properties :
#
#
# Convention : Reuss Voigt Hill
#
# Bulk Modulus (GPa) = 40.98920 44.53150 42.76035
# Shear Modulus (GPa) = 23.61286 25.96408 24.78847
#
# Velocity S-wave (km/s) = 3.43253 3.59937 3.51694
# Velocity P-wave (km/s) = 6.01351 6.28443 6.15046
#
# Compressibility (1/GPa) = 0.02439667
#
# Stress axis : x y z
#
# Youngs Moduli (GPa) = 72.65876 80.30870 69.71177
#
# Poissons Ratio (x) = 0.05664 0.33376
# Poissons Ratio (y) = 0.05125 0.18045
# Poissons Ratio (z) = 0.34787 0.20788
#
# Static dielectric constant tensor:
#      x y z
#    x 3.695450 0.000000 -0.457450 
#    y 0.000000 3.763840 0.000000 
#    z -0.457450 0.000000 3.622610 
# 
# 
# High freq. dielectric constant tensor:
#      x y z
#    x 1.770140 0.000000 -0.033360 
#    y 0.000000 1.789570 0.000000 
#    z -0.033360 0.000000 1.774220 
# 
# From -- ./inp_files/76070.got.cif
#   From: 2010.03.12/outbox.cif.g09.slc.cpg/sg14_39_cif.got.tgz:76070.got - 2010.03.31 13:35:05.
