data_PCOD8124817
_publ_section_title
;
Structure prediction by ZEFSAII (Michael W. Deem and Ramdas Pophale) SiO2 
 PCOD8124817
Probable space group: P 21/C
;
_chemical_formula_sum "Si O2"
_cell_formula_units_Z 28
_cell_length_a 19.770384
_cell_length_b 8.577410
_cell_length_c 21.956057
_cell_angle_alpha 90.000000
_cell_angle_beta 159.022836
_cell_angle_gamma 90.000000
_cell_volume 1332.918489
_symmetry_space_group_name_H-M "P 21/C"
_symmetry_group_IT_number 14
_symmetry_cell_setting 'monoclinic'
loop_
_space_group_symop_operation_xyz
x,y,z
-x,1/2+y,1/2-z
-x,-y,-z
x,1/2-y,1/2+z
loop_
_atom_site_type_symbol
_atom_site_label
_atom_site_fract_x
_atom_site_fract_y
_atom_site_fract_z
Si Si1 0.832706 0.379552 0.856620
Si Si2 0.054840 0.219268 0.949484
Si Si3 0.764448 0.362480 0.517945
Si Si4 0.582756 0.869788 0.190225
Si Si5 0.766770 0.098283 0.880023
Si Si6 0.467817 0.547606 0.042214
Si Si7 0.090367 0.594651 0.787058
O O1 0.636496 0.476415 0.695548
O O2 0.858670 0.258634 0.934117
O O3 0.861316 0.284259 0.817686
O O4 0.000000 0.500000 0.000000
O O5 0.024535 0.218745 0.851451
O O6 0.238488 0.322864 0.117797
O O7 0.083483 0.042534 0.998189
O O8 0.588241 0.419230 0.409884
O O9 0.704227 0.377572 0.397305
O O10 0.815450 0.182853 0.576511
O O11 0.947225 0.463669 0.689811
O O12 0.525601 0.728749 0.097966
O O13 0.585872 0.062523 0.686503
O O14 0.500000 0.500000 0.000000
O O15 0.250726 0.519274 0.878494
#
# Coordination Sequence:
#
# PCOD8124817 Si02
#       7
#     4   4   4   4   4   4   4
#     4  10  20  34  58  88 113 144 192 246 293 339
#     4   9  19  38  60  83 115 155 194 237 296 359
#     4  10  23  40  57  86 119 157 201 237 300 362
#     4   9  21  38  59  87 120 152 191 250 299 354
#     4  10  21  37  61  84 117 161 195 236 296 374
#     4  10  21  40  62  85 116 157 203 247 299 359
#     4  10  22  39  60  85 117 154 196 249 287 351
#
# _framework density 21.006535
#
# number of rings (size 3 to 8) (size 9 to 14) (size 15 to 20)
#    0.000    2.286    0.000    1.286    0.000   14.857 
#    0.000    6.429    0.000    0.000    0.000    0.000 
#    0.000    0.000    0.000    0.000    0.000    0.000 
#
# Total GULP energy -347136.207413 kJ/mol
# GULP energy per Si atom -12397.721693 kJ/mol
# Density = 2.095872 g / cm^3
# Si number density = 21.006535 Si / 1000 Ang^3
#
#
#
# Elastic Constant Matrix: (Units=GPa)
#
#
# Indices 1 2 3 4 5 6 
#
# 1 133.1608 63.4061 55.2850 0.0000 14.6052 0.0000
# 2 63.4061 109.8318 36.1246 0.0000 19.4663 0.0000
# 3 55.2850 36.1246 97.6536 0.0000 12.2391 0.0000
# 4 0.0000 0.0000 0.0000 27.7601 0.0000 8.0378
# 5 14.6052 19.4663 12.2391 0.0000 42.6196 0.0000
# 6 0.0000 0.0000 0.0000 8.0378 0.0000 39.8338
#
#
#
# Elastic Compliance Matrix: (Units=1/GPa)
#
#
# Indices 1 2 3 4 5 6 
#
# 1 0.012091 -0.005334 -0.004832 0.000000 -0.000319 0.000000
# 2 -0.005334 0.013338 -0.001431 0.000000 -0.003853 0.000000
# 3 -0.004832 -0.001431 0.013709 0.000000 -0.001627 0.000000
# 4 0.000000 0.000000 0.000000 0.038258 0.000000 -0.007720
# 5 -0.000319 -0.003853 -0.001627 0.000000 0.025800 0.000000
# 6 0.000000 0.000000 0.000000 -0.007720 0.000000 0.026662
#
#
# Mechanical properties :
#
#
# Convention : Reuss Voigt Hill
#
# Bulk Modulus (GPa) = 62.72166 72.25308 67.48737
# Shear Modulus (GPa) = 31.57229 34.43139 33.00184
#
# Velocity S-wave (km/s) = 3.88103 4.05295 3.96792
# Velocity P-wave (km/s) = 7.07150 7.50813 7.29309
#
# Compressibility (1/GPa) = 0.01594346
#
# Stress axis : x y z
#
# Youngs Moduli (GPa) = 82.70847 74.97414 72.94446
#
# Poissons Ratio (x) = 0.39993 0.35244
# Poissons Ratio (y) = 0.44118 0.10440
# Poissons Ratio (z) = 0.39962 0.10731
#
# Static dielectric constant tensor:
#      x y z
#    x 3.874980 0.000000 0.148200 
#    y 0.000000 4.046050 0.000000 
#    z 0.148200 0.000000 3.821940 
# 
# 
# High freq. dielectric constant tensor:
#      x y z
#    x 1.821980 0.000000 0.008790 
#    y 0.000000 1.822890 0.000000 
#    z 0.008790 0.000000 1.818630 
# 
# From -- ./inp_files/70164.got.cif
#   From: 2010.03.12/outbox.cif.g09.slc.cpg/sg14_36_cif.got.tgz:70164.got - 2010.03.31 13:35:05.
