data_PCOD8124298
_publ_section_title
;
Structure prediction by ZEFSAII (Michael W. Deem and Ramdas Pophale) SiO2 
 PCOD8124298
Probable space group: P 21/C
;
_chemical_formula_sum "Si O2"
_cell_formula_units_Z 28
_cell_length_a 30.206440
_cell_length_b 12.474846
_cell_length_c 23.614638
_cell_angle_alpha 90.000000
_cell_angle_beta 9.392540
_cell_angle_gamma 90.000000
_cell_volume 1452.210430
_symmetry_space_group_name_H-M "P 21/C"
_symmetry_group_IT_number 14
_symmetry_cell_setting 'monoclinic'
loop_
_space_group_symop_operation_xyz
x,y,z
-x,1/2+y,1/2-z
-x,-y,-z
x,1/2-y,1/2+z
loop_
_atom_site_type_symbol
_atom_site_label
_atom_site_fract_x
_atom_site_fract_y
_atom_site_fract_z
Si Si1 0.702686 0.227181 0.796125
Si Si2 0.582599 0.705938 0.735700
Si Si3 0.449024 0.521474 0.831771
Si Si4 0.268709 0.078751 0.310707
Si Si5 0.940558 0.521620 0.138945
Si Si6 0.162830 0.505840 0.562088
Si Si7 0.018763 0.381998 0.317978
O O1 0.918775 0.131306 0.518381
O O2 0.809245 0.323038 0.623322
O O3 0.655626 0.259656 0.920671
O O4 0.402893 0.194222 0.151930
O O5 0.422079 0.644563 0.887493
O O6 0.796588 0.623026 0.495589
O O7 0.750682 0.806282 0.499759
O O8 0.623302 0.526912 0.553608
O O9 0.602127 0.454533 0.689678
O O10 0.162239 0.470827 0.176863
O O11 0.132008 0.032703 0.540256
O O12 0.053038 0.081005 0.531881
O O13 0.500000 0.000000 0.000000
O O14 0.000000 0.500000 0.000000
O O15 0.169637 0.563242 0.492470
#
# Coordination Sequence:
#
# PCOD8124298 Si02
#       7
#     4   4   4   4   4   4   4
#     4  11  21  36  65  87 120 167 200 249 314 361
#     4  10  21  42  58  92 127 155 208 251 302 375
#     4   9  22  41  58  91 127 157 208 252 302 370
#     4   9  17  34  58  86 116 153 206 252 296 349
#     4  10  19  36  58  92 120 154 211 261 299 353
#     4   9  21  41  60  86 125 163 199 253 304 363
#     4  12  21  42  66  86 128 166 197 262 309 357
#
# _framework density 19.280953
#
# number of rings (size 3 to 8) (size 9 to 14) (size 15 to 20)
#    0.857    1.143    2.857    1.714    2.000    1.143 
#    5.143    1.429    0.000    0.000    0.000    0.000 
#    0.000    0.000    0.000    0.000    0.000    0.000 
#
# Total GULP energy -346887.510036 kJ/mol
# GULP energy per Si atom -12388.839644 kJ/mol
# Density = 1.923707 g / cm^3
# Si number density = 19.280953 Si / 1000 Ang^3
#
#
#
# Elastic Constant Matrix: (Units=GPa)
#
#
# Indices 1 2 3 4 5 6 
#
# 1 93.7720 18.6279 11.6088 0.0000 -1.4014 0.0000
# 2 18.6279 60.7049 8.5227 0.0000 -8.7326 0.0000
# 3 11.6088 8.5227 48.4288 0.0000 6.3103 0.0000
# 4 0.0000 0.0000 0.0000 33.3501 0.0000 5.0908
# 5 -1.4014 -8.7326 6.3103 0.0000 27.1723 0.0000
# 6 0.0000 0.0000 0.0000 5.0908 0.0000 36.6583
#
#
#
# Elastic Compliance Matrix: (Units=1/GPa)
#
#
# Indices 1 2 3 4 5 6 
#
# 1 0.011582 -0.003232 -0.002217 0.000000 0.000073 0.000000
# 2 -0.003232 0.018911 -0.003427 0.000000 0.006707 0.000000
# 3 -0.002217 -0.003427 0.022627 0.000000 -0.006470 0.000000
# 4 0.000000 0.000000 0.000000 0.030634 0.000000 -0.004254
# 5 0.000073 0.006707 -0.006470 0.000000 0.040464 0.000000
# 6 0.000000 0.000000 0.000000 -0.004254 0.000000 0.027870
#
#
# Mechanical properties :
#
#
# Convention : Reuss Voigt Hill
#
# Bulk Modulus (GPa) = 28.27527 31.15828 29.71678
# Shear Modulus (GPa) = 27.52869 30.37924 28.95396
#
# Velocity S-wave (km/s) = 3.78268 3.97370 3.87937
# Velocity P-wave (km/s) = 5.81162 6.10319 5.95919
#
# Compressibility (1/GPa) = 0.03536659
#
# Stress axis : x y z
#
# Youngs Moduli (GPa) = 86.34244 52.87965 44.19589
#
# Poissons Ratio (x) = 0.17091 0.09798
# Poissons Ratio (y) = 0.27907 0.15146
# Poissons Ratio (z) = 0.19142 0.18123
#
# Static dielectric constant tensor:
#      x y z
#    x 2.951680 0.000000 0.735750 
#    y 0.000000 3.634390 0.000000 
#    z 0.735750 0.000000 2.685750 
# 
# 
# High freq. dielectric constant tensor:
#      x y z
#    x 1.753770 0.000000 0.015080 
#    y 0.000000 1.733480 0.000000 
#    z 0.015080 0.000000 1.737160 
# 
# From -- ./inp_files/75309.got.cif
#   From: 2010.03.12/outbox.cif.g09.slc.cpg/sg14_38_cif.got.tgz:75309.got - 2010.03.31 13:35:05.
