data_PCOD8124503
_publ_section_title
;
Structure prediction by ZEFSAII (Michael W. Deem and Ramdas Pophale) SiO2 
 PCOD8124503
Probable space group: P 21/C
;
_chemical_formula_sum "Si O2"
_cell_formula_units_Z 24
_cell_length_a 8.600002
_cell_length_b 21.352426
_cell_length_c 9.152709
_cell_angle_alpha 90.000000
_cell_angle_beta 45.367830
_cell_angle_gamma 90.000000
_cell_volume 1196.053798
_symmetry_space_group_name_H-M "P 21/C"
_symmetry_group_IT_number 14
_symmetry_cell_setting 'monoclinic'
loop_
_space_group_symop_operation_xyz
x,y,z
-x,1/2+y,1/2-z
-x,-y,-z
x,1/2-y,1/2+z
loop_
_atom_site_type_symbol
_atom_site_label
_atom_site_fract_x
_atom_site_fract_y
_atom_site_fract_z
Si Si1 0.059257 0.728578 0.859001
Si Si2 0.484505 0.432037 0.666162
Si Si3 0.167432 0.150670 0.993991
Si Si4 0.198981 0.670780 0.463257
Si Si5 0.974194 0.610395 0.103750
Si Si6 0.559418 0.430631 0.281384
O O1 0.850430 0.774066 0.960253
O O2 0.167786 0.696875 0.647192
O O3 0.241991 0.771974 0.820876
O O4 0.980724 0.678374 0.027568
O O5 0.600902 0.377696 0.683067
O O6 0.222724 0.426446 0.844344
O O7 0.578004 0.423143 0.442408
O O8 0.542431 0.501110 0.689961
O O9 0.068953 0.113639 0.195967
O O10 0.024746 0.135858 0.942224
O O11 0.413726 0.125427 0.807525
O O12 0.198046 0.573103 0.940657
#
# Coordination Sequence:
#
# PCOD8124503 Si02
#       6
#     4   4   4   4   4   4
#     4  10  19  38  60  89 119 152 196 248 306 350
#     4  10  22  38  62  92 120 161 206 242 298 359
#     4   9  21  39  59  90 119 155 199 247 300 352
#     4  10  20  41  60  91 119 154 202 252 301 357
#     4  11  20  39  61  89 122 158 201 243 297 361
#     4  10  21  39  63  87 124 165 196 248 297 355
#
# _framework density 20.065984
#
# number of rings (size 3 to 8) (size 9 to 14) (size 15 to 20)
#    1.000    1.000    3.333    0.500    0.000    2.000 
#    3.000    0.833    0.000    0.000    0.000    0.000 
#    0.000    0.000    0.000    0.000    0.000    0.000 
#
# Total GULP energy -297371.484840 kJ/mol
# GULP energy per Si atom -12390.478535 kJ/mol
# Density = 2.002031 g / cm^3
# Si number density = 20.065984 Si / 1000 Ang^3
#
#
#
# Elastic Constant Matrix: (Units=GPa)
#
#
# Indices 1 2 3 4 5 6 
#
# 1 75.7385 39.8137 40.9304 0.0000 -3.6826 0.0000
# 2 39.8137 113.3601 19.0108 0.0000 -4.2187 0.0000
# 3 40.9304 19.0108 58.4585 0.0000 -11.9252 0.0000
# 4 0.0000 0.0000 0.0000 6.9651 0.0000 -9.9603
# 5 -3.6826 -4.2187 -11.9252 0.0000 23.5586 0.0000
# 6 0.0000 0.0000 0.0000 -9.9603 0.0000 41.5050
#
#
#
# Elastic Compliance Matrix: (Units=1/GPa)
#
#
# Indices 1 2 3 4 5 6 
#
# 1 0.025343 -0.006285 -0.016863 0.000000 -0.005700 0.000000
# 2 -0.006285 0.010889 0.001178 0.000000 0.001564 0.000000
# 3 -0.016863 0.001178 0.031264 0.000000 0.013400 0.000000
# 4 0.000000 0.000000 0.000000 0.218587 0.000000 0.052456
# 5 -0.005700 0.001564 0.013400 0.000000 0.048620 0.000000
# 6 0.000000 0.000000 0.000000 0.052456 0.000000 0.036682
#
#
# Mechanical properties :
#
#
# Convention : Reuss Voigt Hill
#
# Bulk Modulus (GPa) = 42.45136 49.67410 46.06273
# Shear Modulus (GPa) = 11.81541 24.25921 18.03731
#
# Velocity S-wave (km/s) = 2.42921 3.48080 3.00142
# Velocity P-wave (km/s) = 5.39165 6.40029 5.91750
#
# Compressibility (1/GPa) = 0.02355637
#
# Stress axis : x y z
#
# Youngs Moduli (GPa) = 39.45822 91.83208 31.98609
#
# Poissons Ratio (x) = 0.57717 0.53939
# Poissons Ratio (y) = 0.24800 -0.03769
# Poissons Ratio (z) = 0.66539 -0.10821
#
# Static dielectric constant tensor:
#      x y z
#    x 3.539080 0.000000 0.025640 
#    y 0.000000 3.738310 0.000000 
#    z 0.025640 0.000000 3.326970 
# 
# 
# High freq. dielectric constant tensor:
#      x y z
#    x 1.768600 0.000000 0.001390 
#    y 0.000000 1.791110 0.000000 
#    z 0.001390 0.000000 1.761630 
# 
# From -- ./inp_files/10301.got.cif
#   From: 2010.03.12/outbox.cif.g09.slc.cpg/sg14_6_cif.got.tgz:10301.got - 2010.03.31 13:35:05.
