data_PCOD8124202
_publ_section_title
;
Structure prediction by ZEFSAII (Michael W. Deem and Ramdas Pophale) SiO2 
 PCOD8124202
Probable space group: P 21/C
;
_chemical_formula_sum "Si O2"
_cell_formula_units_Z 32
_cell_length_a 8.704511
_cell_length_b 18.047323
_cell_length_c 11.851508
_cell_angle_alpha 90.000000
_cell_angle_beta 117.790106
_cell_angle_gamma 90.000000
_cell_volume 1647.054275
_symmetry_space_group_name_H-M "P 21/C"
_symmetry_group_IT_number 14
_symmetry_cell_setting 'monoclinic'
loop_
_space_group_symop_operation_xyz
x,y,z
-x,1/2+y,1/2-z
-x,-y,-z
x,1/2-y,1/2+z
loop_
_atom_site_type_symbol
_atom_site_label
_atom_site_fract_x
_atom_site_fract_y
_atom_site_fract_z
Si Si1 0.186315 0.073858 0.628473
Si Si2 0.151861 0.082952 0.869050
Si Si3 0.774454 0.108166 0.723192
Si Si4 0.206077 0.578629 0.028222
Si Si5 0.687742 0.998363 0.888080
Si Si6 0.477839 0.627751 0.533815
Si Si7 0.457611 0.641174 0.285248
Si Si8 0.483860 0.303154 0.233476
O O1 0.165865 0.045114 0.750298
O O2 0.317026 0.143395 0.660461
O O3 0.996300 0.096775 0.518889
O O4 0.258328 0.004953 0.581733
O O5 0.975858 0.132214 0.811452
O O6 0.154621 0.022605 0.972017
O O7 0.322427 0.133669 0.941440
O O8 0.738752 0.085711 0.582616
O O9 0.642992 0.173921 0.707038
O O10 0.751295 0.037879 0.797153
O O11 0.307831 0.637491 0.140180
O O12 0.590131 0.925659 0.811570
O O13 0.555649 0.049742 0.914506
O O14 0.369271 0.637758 0.380985
O O15 0.445244 0.692400 0.613195
O O16 0.562757 0.718458 0.307950
#
# Coordination Sequence:
#
# PCOD8124202 Si02
#       8
#     4   4   4   4   4   4   4   4
#     4   9  19  38  60  81 109 151 187 231 275 334
#     4   9  16  33  59  80 109 138 185 226 271 315
#     4  10  21  34  55  85 117 139 177 238 283 311
#     4  10  20  36  61  83 109 148 191 227 275 343
#     4  10  19  35  59  85 106 146 191 231 268 327
#     4   9  19  37  59  77 106 151 189 226 263 334
#     4  11  21  34  57  83 109 146 191 223 278 343
#     4  10  22  37  54  78 114 149 181 227 287 326
#
# _framework density 19.428623999999999
#
# number of rings (size 3 to 8) (size 9 to 14) (size 15 to 20)
#    0.000    2.250    0.000    4.875    1.750    2.000 
#    4.500    0.000    0.000    3.000    0.000    0.000 
#    0.000    0.000    0.000    0.000    0.000    0.000 
#
# Total GULP energy -396525.444058 kJ/mol
# GULP energy per Si atom -12391.420127 kJ/mol
# Density = 1.938440 g / cm^3
# Si number density = 19.428624 Si / 1000 Ang^3
#
#
#
# Elastic Constant Matrix: (Units=GPa)
#
#
# Indices 1 2 3 4 5 6 
#
# 1 87.8771 37.0658 47.1076 0.0000 -5.3509 0.0000
# 2 37.0658 103.6517 43.0365 0.0000 -0.8371 0.0000
# 3 47.1076 43.0365 132.9819 0.0000 -10.0263 0.0000
# 4 0.0000 0.0000 0.0000 18.4988 0.0000 0.3669
# 5 -5.3509 -0.8371 -10.0263 0.0000 34.1493 0.0000
# 6 0.0000 0.0000 0.0000 0.3669 0.0000 16.4222
#
#
#
# Elastic Compliance Matrix: (Units=1/GPa)
#
#
# Indices 1 2 3 4 5 6 
#
# 1 0.015218 -0.003730 -0.004102 0.000000 0.001089 0.000000
# 2 -0.003730 0.012081 -0.002669 0.000000 -0.001072 0.000000
# 3 -0.004102 -0.002669 0.010005 0.000000 0.002229 0.000000
# 4 0.000000 0.000000 0.000000 0.054082 0.000000 -0.001208
# 5 0.001089 -0.001072 0.002229 0.000000 0.030082 0.000000
# 6 0.000000 0.000000 0.000000 -0.001208 0.000000 0.060920
#
#
# Mechanical properties :
#
#
# Convention : Reuss Voigt Hill
#
# Bulk Modulus (GPa) = 61.34257 64.32563 62.83410
# Shear Modulus (GPa) = 23.94371 26.96746 25.45558
#
# Velocity S-wave (km/s) = 3.51435 3.72967 3.62361
# Velocity P-wave (km/s) = 6.93610 7.19220 7.06531
#
# Compressibility (1/GPa) = 0.01630189
#
# Stress axis : x y z
#
# Youngs Moduli (GPa) = 65.71241 82.77311 99.95335
#
# Poissons Ratio (x) = 0.30876 0.40996
# Poissons Ratio (y) = 0.24512 0.26680
# Poissons Ratio (z) = 0.26952 0.22094
#
# Static dielectric constant tensor:
#      x y z
#    x 3.519880 0.000000 -0.046260 
#    y 0.000000 3.206640 0.000000 
#    z -0.046260 0.000000 4.007500 
# 
# 
# High freq. dielectric constant tensor:
#      x y z
#    x 1.746570 0.000000 -0.006510 
#    y 0.000000 1.722250 0.000000 
#    z -0.006510 0.000000 1.778950 
# 
# From -- ./inp_files/26278.got.cif
#   From: 2010.03.12/outbox.cif.g09.slc.cpg/sg14_14_cif.got.tgz:26278.got - 2010.03.31 13:35:05.
