data_PCOD8124556
_publ_section_title
;
Structure prediction by ZEFSAII (Michael W. Deem and Ramdas Pophale) SiO2 
 PCOD8124556
Probable space group: P 21/C
;
_chemical_formula_sum "Si O2"
_cell_formula_units_Z 28
_cell_length_a 10.346613
_cell_length_b 16.366903
_cell_length_c 14.979025
_cell_angle_alpha 90.000000
_cell_angle_beta 151.002753
_cell_angle_gamma 90.000000
_cell_volume 1229.650924
_symmetry_space_group_name_H-M "P 21/C"
_symmetry_group_IT_number 14
_symmetry_cell_setting 'monoclinic'
loop_
_space_group_symop_operation_xyz
x,y,z
-x,1/2+y,1/2-z
-x,-y,-z
x,1/2-y,1/2+z
loop_
_atom_site_type_symbol
_atom_site_label
_atom_site_fract_x
_atom_site_fract_y
_atom_site_fract_z
Si Si1 0.765417 0.203257 0.729633
Si Si2 0.039903 0.037323 0.429891
Si Si3 0.487623 0.849738 0.245922
Si Si4 0.517767 0.126408 0.101295
Si Si5 0.988052 0.940194 0.910006
Si Si6 0.057428 0.937007 0.275767
Si Si7 0.692615 0.682989 0.349060
O O1 0.635031 0.154317 0.730654
O O2 0.595983 0.284817 0.607466
O O3 0.768636 0.142839 0.645459
O O4 0.068519 0.218967 0.944696
O O5 0.758708 0.067167 0.220279
O O6 0.227742 0.112422 0.564422
O O7 0.161992 0.971945 0.433309
O O8 0.000000 0.000000 0.500000
O O9 0.522161 0.762422 0.216680
O O10 0.281332 0.904037 0.063282
O O11 0.485673 0.128698 0.190410
O O12 0.248926 0.090930 0.896259
O O13 0.785547 0.867011 0.817235
O O14 0.895425 0.990554 0.767935
O O15 0.000000 0.000000 0.000000
#
# Coordination Sequence:
#
# PCOD8124556 Si02
#       7
#     4   4   4   4   4   4   4
#     4   9  18  37  66  92 124 167 211 254 321 384
#     4  12  26  39  62  92 129 162 215 270 319 370
#     4  10  20  37  63  91 128 168 205 257 319 382
#     4  10  19  38  67  89 127 170 202 257 323 386
#     4  11  19  39  68  95 122 165 214 259 316 380
#     4  11  23  41  66  96 128 170 217 266 320 377
#     4   9  18  35  66  91 125 170 208 249 322 387
#
# _framework density 22.770689999999998
#
# number of rings (size 3 to 8) (size 9 to 14) (size 15 to 20)
#    0.000    1.714    5.714    1.286    0.000    0.571 
#    0.000    1.429   12.571    0.000    0.000    0.000 
#    0.000    0.000    0.000    0.000    0.000    0.000 
#
# Total GULP energy -347037.210544 kJ/mol
# GULP energy per Si atom -12394.186091 kJ/mol
# Density = 2.271886 g / cm^3
# Si number density = 22.770690 Si / 1000 Ang^3
#
#
#
# Elastic Constant Matrix: (Units=GPa)
#
#
# Indices 1 2 3 4 5 6 
#
# 1 100.6933 51.7738 25.6448 0.0000 -5.0692 0.0000
# 2 51.7738 114.0513 25.1197 0.0000 -2.4054 0.0000
# 3 25.6448 25.1197 21.2821 0.0000 5.6961 0.0000
# 4 0.0000 0.0000 0.0000 24.1751 0.0000 19.6017
# 5 -5.0692 -2.4054 5.6961 0.0000 37.3119 0.0000
# 6 0.0000 0.0000 0.0000 19.6017 0.0000 38.1062
#
#
#
# Elastic Compliance Matrix: (Units=1/GPa)
#
#
# Indices 1 2 3 4 5 6 
#
# 1 0.016218 -0.003648 -0.016435 0.000000 0.004477 0.000000
# 2 -0.003648 0.013005 -0.011516 0.000000 0.002101 0.000000
# 3 -0.016435 -0.011516 0.084639 0.000000 -0.015896 0.000000
# 4 0.000000 0.000000 0.000000 0.070962 0.000000 -0.036503
# 5 0.004477 0.002101 -0.015896 0.000000 0.029972 0.000000
# 6 0.000000 0.000000 0.000000 -0.036503 0.000000 0.045019
#
#
# Mechanical properties :
#
#
# Convention : Reuss Voigt Hill
#
# Bulk Modulus (GPa) = 19.73807 49.01149 34.37478
# Shear Modulus (GPa) = 14.71015 28.81787 21.76401
#
# Velocity S-wave (km/s) = 2.54443 3.56134 3.09494
# Velocity P-wave (km/s) = 4.16164 6.20335 5.28208
#
# Compressibility (1/GPa) = 0.05066351
#
# Stress axis : x y z
#
# Youngs Moduli (GPa) = 61.66022 76.89504 11.81482
#
# Poissons Ratio (x) = 0.28051 0.19418
# Poissons Ratio (y) = 0.22493 0.13606
# Poissons Ratio (z) = 1.01339 0.88555
#
# Static dielectric constant tensor:
#      x y z
#    x 3.606110 0.000000 0.554610 
#    y 0.000000 4.339300 0.000000 
#    z 0.554610 0.000000 3.775970 
# 
# 
# High freq. dielectric constant tensor:
#      x y z
#    x 1.894330 0.000000 0.033650 
#    y 0.000000 1.912030 0.000000 
#    z 0.033650 0.000000 1.865000 
# 
# From -- ./inp_files/41810.got.cif
#   From: 2010.03.12/outbox.cif.g09.slc.cpg/sg14_21_cif.got.tgz:41810.got - 2010.03.31 13:35:05.
