data_PCOD8124880
_publ_section_title
;
Structure prediction by ZEFSAII (Michael W. Deem and Ramdas Pophale) SiO2 
 PCOD8124880
Probable space group: P 21/C
;
_chemical_formula_sum "Si O2"
_cell_formula_units_Z 28
_cell_length_a 12.753560
_cell_length_b 8.733886
_cell_length_c 15.437781
_cell_angle_alpha 90.000000
_cell_angle_beta 56.985110
_cell_angle_gamma 90.000000
_cell_volume 1441.922474
_symmetry_space_group_name_H-M "P 21/C"
_symmetry_group_IT_number 14
_symmetry_cell_setting 'monoclinic'
loop_
_space_group_symop_operation_xyz
x,y,z
-x,1/2+y,1/2-z
-x,-y,-z
x,1/2-y,1/2+z
loop_
_atom_site_type_symbol
_atom_site_label
_atom_site_fract_x
_atom_site_fract_y
_atom_site_fract_z
Si Si1 0.726116 0.194316 0.662382
Si Si2 0.167597 0.136629 0.769477
Si Si3 0.348444 0.945564 0.472750
Si Si4 0.908341 0.950321 0.620737
Si Si5 0.891814 0.869854 0.392269
Si Si6 0.383390 0.921709 0.653150
Si Si7 0.038372 0.619693 0.413947
O O1 0.642095 0.279059 0.771939
O O2 0.853705 0.284234 0.588134
O O3 0.652317 0.181624 0.603712
O O4 0.770949 0.028217 0.677884
O O5 0.121046 0.268048 0.857498
O O6 0.144334 0.199174 0.684113
O O7 0.312117 0.079278 0.714864
O O8 0.090648 0.977738 0.809773
O O9 0.225875 0.047655 0.510622
O O10 0.469505 0.050996 0.408569
O O11 0.343625 0.874941 0.572272
O O12 0.000000 0.000000 0.500000
O O13 0.987322 0.015897 0.667387
O O14 0.923213 0.724603 0.437926
O O15 0.000000 0.500000 0.500000
#
# Coordination Sequence:
#
# PCOD8124880 Si02
#       7
#     4   4   4   4   4   4   4
#     4  10  21  38  59  86 112 155 192 238 292 344
#     4  10  20  36  57  81 115 149 192 240 283 345
#     4  10  20  40  65  80 119 155 198 237 295 341
#     4  11  20  35  59  84 117 148 189 238 295 352
#     4  10  20  35  57  83 110 156 187 230 297 340
#     4   9  22  41  61  86 113 156 200 242 279 346
#     4  10  21  35  52  85 119 141 188 238 285 351
#
# _framework density 19.418520000000001
#
# number of rings (size 3 to 8) (size 9 to 14) (size 15 to 20)
#    0.000    2.000    1.429    2.571    0.000    2.286 
#    5.143    0.000    0.000    3.429    0.000    0.000 
#    0.000    0.000    0.000    0.000    0.000    0.000 
#
# Total GULP energy -346915.879716 kJ/mol
# GULP energy per Si atom -12389.852847 kJ/mol
# Density = 1.937432 g / cm^3
# Si number density = 19.418520 Si / 1000 Ang^3
#
#
#
# Elastic Constant Matrix: (Units=GPa)
#
#
# Indices 1 2 3 4 5 6 
#
# 1 96.8799 41.5368 46.2300 0.0000 7.5762 0.0000
# 2 41.5368 104.9634 41.7950 0.0000 12.6114 0.0000
# 3 46.2300 41.7950 98.9433 0.0000 11.9705 0.0000
# 4 0.0000 0.0000 0.0000 38.8729 0.0000 3.9063
# 5 7.5762 12.6114 11.9705 0.0000 25.8340 0.0000
# 6 0.0000 0.0000 0.0000 3.9063 0.0000 18.7315
#
#
#
# Elastic Compliance Matrix: (Units=1/GPa)
#
#
# Indices 1 2 3 4 5 6 
#
# 1 0.014341 -0.003611 -0.005170 0.000000 -0.000048 0.000000
# 2 -0.003611 0.012678 -0.003229 0.000000 -0.003634 0.000000
# 3 -0.005170 -0.003229 0.014314 0.000000 -0.003541 0.000000
# 4 0.000000 0.000000 0.000000 0.026275 0.000000 -0.005480
# 5 -0.000048 -0.003634 -0.003541 0.000000 0.042137 0.000000
# 6 0.000000 0.000000 0.000000 -0.005480 0.000000 0.054529
#
#
# Mechanical properties :
#
#
# Convention : Reuss Voigt Hill
#
# Bulk Modulus (GPa) = 57.75231 62.21226 59.98229
# Shear Modulus (GPa) = 25.76459 28.10268 26.93364
#
# Velocity S-wave (km/s) = 3.64649 3.80835 3.72830
# Velocity P-wave (km/s) = 6.89453 7.17253 7.03490
#
# Compressibility (1/GPa) = 0.01731532
#
# Stress axis : x y z
#
# Youngs Moduli (GPa) = 69.73135 78.87488 69.85986
#
# Poissons Ratio (x) = 0.28481 0.36114
# Poissons Ratio (y) = 0.25179 0.22555
# Poissons Ratio (z) = 0.36048 0.25466
#
# Static dielectric constant tensor:
#      x y z
#    x 3.694440 0.000000 -0.038470 
#    y 0.000000 2.553650 0.000000 
#    z -0.038470 0.000000 3.401910 
# 
# 
# High freq. dielectric constant tensor:
#      x y z
#    x 1.755710 0.000000 0.007540 
#    y 0.000000 1.743250 0.000000 
#    z 0.007540 0.000000 1.757020 
# 
# From -- ./inp_files/43302.got.cif
#   From: 2010.03.12/outbox.cif.g09.slc.cpg/sg14_22_cif.got.tgz:43302.got - 2010.03.31 13:35:05.
