data_PCOD8124133
_publ_section_title
;
Structure prediction by ZEFSAII (Michael W. Deem and Ramdas Pophale) SiO2 
 PCOD8124133
Probable space group: P 21/C
;
_chemical_formula_sum "Si O2"
_cell_formula_units_Z 28
_cell_length_a 9.823825
_cell_length_b 16.461766
_cell_length_c 14.629064
_cell_angle_alpha 90.000000
_cell_angle_beta 139.321529
_cell_angle_gamma 90.000000
_cell_volume 1542.044561
_symmetry_space_group_name_H-M "P 21/C"
_symmetry_group_IT_number 14
_symmetry_cell_setting 'monoclinic'
loop_
_space_group_symop_operation_xyz
x,y,z
-x,1/2+y,1/2-z
-x,-y,-z
x,1/2-y,1/2+z
loop_
_atom_site_type_symbol
_atom_site_label
_atom_site_fract_x
_atom_site_fract_y
_atom_site_fract_z
Si Si1 0.635615 0.454307 0.185667
Si Si2 0.226633 0.956396 0.444160
Si Si3 0.762254 0.584483 0.393031
Si Si4 0.656931 0.053404 0.974439
Si Si5 0.227269 0.523878 0.264038
Si Si6 0.200544 0.832267 0.097588
Si Si7 0.320587 0.648689 0.158644
O O1 0.752974 0.433917 0.151503
O O2 0.747189 0.530395 0.293157
O O3 0.647121 0.373733 0.251623
O O4 0.389681 0.471023 0.047285
O O5 0.277670 0.879579 0.533383
O O6 0.993032 0.980738 0.347478
O O7 0.772288 0.523187 0.484761
O O8 0.568750 0.646366 0.303075
O O9 0.963831 0.640756 0.495264
O O10 0.725509 0.138359 0.964574
O O11 0.407963 0.041703 0.833825
O O12 0.720487 0.063314 0.111743
O O13 0.211152 0.591425 0.177448
O O14 0.222669 0.736850 0.119626
#
# Coordination Sequence:
#
# PCOD8124133 Si02
#       7
#     4   4   4   4   4   4   4
#     4   9  19  34  56  77  94 132 180 205 237 301
#     4  10  19  35  54  74 102 133 169 210 247 290
#     4   9  18  36  54  73  99 131 174 210 238 292
#     4   9  19  34  56  77  94 132 180 205 237 301
#     4  10  19  35  54  74 102 133 169 210 247 290
#     4  11  20  34  54  74 104 135 162 206 258 296
#     4  10  23  32  47  81 107 128 164 206 254 306
#
# _framework density 18.157710999999999
#
# number of rings (size 3 to 8) (size 9 to 14) (size 15 to 20)
#    0.000    2.286    0.000    4.714    0.000    3.429 
#    0.000    0.000    0.000   10.286    0.000    0.000 
#    0.000    0.000    0.000    0.000    0.000    0.000 
#
# Total GULP energy -347187.480151 kJ/mol
# GULP energy per Si atom -12399.552863 kJ/mol
# Density = 1.811638 g / cm^3
# Si number density = 18.157711 Si / 1000 Ang^3
#
#
#
# Elastic Constant Matrix: (Units=GPa)
#
#
# Indices 1 2 3 4 5 6 
#
# 1 82.2922 14.4334 16.5216 0.0000 1.3392 0.0000
# 2 14.4334 58.6959 9.4744 0.0000 7.2612 0.0000
# 3 16.5216 9.4744 45.5752 0.0000 8.2797 0.0000
# 4 0.0000 0.0000 0.0000 18.2272 0.0000 4.7904
# 5 1.3392 7.2612 8.2797 0.0000 39.2779 0.0000
# 6 0.0000 0.0000 0.0000 4.7904 0.0000 16.5286
#
#
#
# Elastic Compliance Matrix: (Units=1/GPa)
#
#
# Indices 1 2 3 4 5 6 
#
# 1 0.013519 -0.002718 -0.004516 0.000000 0.000994 0.000000
# 2 -0.002718 0.018431 -0.002333 0.000000 -0.002823 0.000000
# 3 -0.004516 -0.002333 0.024912 0.000000 -0.004666 0.000000
# 4 0.000000 0.000000 0.000000 0.059386 0.000000 -0.017212
# 5 0.000994 -0.002823 -0.004666 0.000000 0.026931 0.000000
# 6 0.000000 0.000000 0.000000 -0.017212 0.000000 0.065489
#
#
# Mechanical properties :
#
#
# Convention : Reuss Voigt Hill
#
# Bulk Modulus (GPa) = 26.50672 29.71356 28.11014
# Shear Modulus (GPa) = 20.80037 24.54901 22.67469
#
# Velocity S-wave (km/s) = 3.38825 3.68093 3.53762
# Velocity P-wave (km/s) = 5.47145 5.87072 5.67460
#
# Compressibility (1/GPa) = 0.03772628
#
# Stress axis : x y z
#
# Youngs Moduli (GPa) = 73.96918 54.25567 40.14175
#
# Poissons Ratio (x) = 0.14748 0.18129
# Poissons Ratio (y) = 0.20107 0.09366
# Poissons Ratio (z) = 0.33406 0.12660
#
# Static dielectric constant tensor:
#      x y z
#    x 3.601890 0.000000 -0.087410 
#    y 0.000000 2.966330 0.000000 
#    z -0.087410 0.000000 3.514710 
# 
# 
# High freq. dielectric constant tensor:
#      x y z
#    x 1.721920 0.000000 -0.000230 
#    y 0.000000 1.664240 0.000000 
#    z -0.000230 0.000000 1.716340 
# 
# From -- ./inp_files/41826.got.cif
#   From: 2010.03.12/outbox.cif.g09.slc.cpg/sg14_21_cif.got.tgz:41826.got - 2010.03.31 13:35:05.
