data_PCOD8124525
_publ_section_title
;
Structure prediction by ZEFSAII (Michael W. Deem and Ramdas Pophale) SiO2 
 PCOD8124525
Probable space group: P 21/C
;
_chemical_formula_sum "Si O2"
_cell_formula_units_Z 20
_cell_length_a 7.110970
_cell_length_b 16.302824
_cell_length_c 9.425765
_cell_angle_alpha 90.000000
_cell_angle_beta 120.844369
_cell_angle_gamma 90.000000
_cell_volume 938.167803
_symmetry_space_group_name_H-M "P 21/C"
_symmetry_group_IT_number 14
_symmetry_cell_setting 'monoclinic'
loop_
_space_group_symop_operation_xyz
x,y,z
-x,1/2+y,1/2-z
-x,-y,-z
x,1/2-y,1/2+z
loop_
_atom_site_type_symbol
_atom_site_label
_atom_site_fract_x
_atom_site_fract_y
_atom_site_fract_z
Si Si1 0.284901 0.868525 0.555391
Si Si2 0.102707 0.019612 0.387333
Si Si3 0.571050 0.717845 0.588576
Si Si4 0.344867 0.932340 0.874935
Si Si5 0.814538 0.683333 0.969033
O O1 0.452193 0.803798 0.560647
O O2 0.395467 0.918825 0.727931
O O3 0.072627 0.819893 0.534078
O O4 0.235480 0.934975 0.408299
O O5 0.249093 0.101725 0.463089
O O6 0.907222 0.037663 0.199244
O O7 0.000000 0.000000 0.500000
O O8 0.388115 0.653372 0.469861
O O9 0.755685 0.735743 0.539059
O O10 0.681537 0.683507 0.771956
O O11 0.500000 0.000000 0.000000
#
# Coordination Sequence:
#
# PCOD8124525 Si02
#       5
#     4   4   4   4   4
#     4  10  22  40  63  91 123 163 203 256 308 358
#     4   8  18  39  58  85 120 165 190 254 305 357
#     4  12  22  38  63  95 118 163 208 253 302 368
#     4  10  19  38  62  88 123 166 204 238 315 371
#     4  10  23  37  62  87 126 156 203 253 303 361
#
# _framework density 21.318148999999998
#
# number of rings (size 3 to 8) (size 9 to 14) (size 15 to 20)
#    0.000    2.400    2.000    3.600    5.600    0.800 
#    0.000    0.000    0.000    7.200    0.000    0.000 
#    0.000    0.000    0.000    0.000    0.000    0.000 
#
# Total GULP energy -247788.757358 kJ/mol
# GULP energy per Si atom -12389.437868 kJ/mol
# Density = 2.126963 g / cm^3
# Si number density = 21.318149 Si / 1000 Ang^3
#
#
#
# Elastic Constant Matrix: (Units=GPa)
#
#
# Indices 1 2 3 4 5 6 
#
# 1 38.9413 24.4687 26.9102 0.0000 7.5487 0.0000
# 2 24.4687 106.5454 72.7125 0.0000 9.2135 0.0000
# 3 26.9102 72.7125 164.4541 0.0000 9.1698 0.0000
# 4 0.0000 0.0000 0.0000 48.1218 0.0000 6.6663
# 5 7.5487 9.2135 9.1698 0.0000 16.9685 0.0000
# 6 0.0000 0.0000 0.0000 6.6663 0.0000 25.9800
#
#
#
# Elastic Compliance Matrix: (Units=1/GPa)
#
#
# Indices 1 2 3 4 5 6 
#
# 1 0.032521 -0.004770 -0.002629 0.000000 -0.010456 0.000000
# 2 -0.004770 0.014440 -0.005449 0.000000 -0.002774 0.000000
# 3 -0.002629 -0.005449 0.008960 0.000000 -0.000713 0.000000
# 4 0.000000 0.000000 0.000000 0.021546 0.000000 -0.005529
# 5 -0.010456 -0.002774 -0.000713 0.000000 0.065476 0.000000
# 6 0.000000 0.000000 0.000000 -0.005529 0.000000 0.039910
#
#
# Mechanical properties :
#
#
# Convention : Reuss Voigt Hill
#
# Bulk Modulus (GPa) = 33.08681 62.01374 47.55027
# Shear Modulus (GPa) = 22.87017 30.60400 26.73709
#
# Velocity S-wave (km/s) = 3.27892 3.79302 3.54530
# Velocity P-wave (km/s) = 5.46711 6.95237 6.25399
#
# Compressibility (1/GPa) = 0.03022352
#
# Stress axis : x y z
#
# Youngs Moduli (GPa) = 30.74952 69.25253 111.60483
#
# Poissons Ratio (x) = 0.33032 0.29346
# Poissons Ratio (y) = 0.14667 0.60817
# Poissons Ratio (z) = 0.08086 0.37738
#
# Static dielectric constant tensor:
#      x y z
#    x 3.462130 0.000000 0.231650 
#    y 0.000000 4.942330 0.000000 
#    z 0.231650 0.000000 4.275610 
# 
# 
# High freq. dielectric constant tensor:
#      x y z
#    x 1.790600 0.000000 0.014980 
#    y 0.000000 1.855260 0.000000 
#    z 0.014980 0.000000 1.842440 
# 
# From -- ./inp_files/24426.got.cif
#   From: 2010.03.12/outbox.cif.g09.slc.cpg/sg14_13_cif.got.tgz:24426.got - 2010.03.31 13:35:05.
