data_PCOD8124118
_publ_section_title
;
Structure prediction by ZEFSAII (Michael W. Deem and Ramdas Pophale) SiO2 
 PCOD8124118
Probable space group: P 21/C
;
_chemical_formula_sum "Si O2"
_cell_formula_units_Z 28
_cell_length_a 17.145781
_cell_length_b 8.068002
_cell_length_c 18.018201
_cell_angle_alpha 90.000000
_cell_angle_beta 34.173925
_cell_angle_gamma 90.000000
_cell_volume 1400.052982
_symmetry_space_group_name_H-M "P 21/C"
_symmetry_group_IT_number 14
_symmetry_cell_setting 'monoclinic'
loop_
_space_group_symop_operation_xyz
x,y,z
-x,1/2+y,1/2-z
-x,-y,-z
x,1/2-y,1/2+z
loop_
_atom_site_type_symbol
_atom_site_label
_atom_site_fract_x
_atom_site_fract_y
_atom_site_fract_z
Si Si1 0.683284 0.460480 0.309639
Si Si2 0.680762 0.003328 0.649167
Si Si3 0.174122 0.505165 0.646341
Si Si4 0.128958 0.623169 0.130190
Si Si5 0.353673 0.046832 0.527998
Si Si6 0.606273 0.804966 0.121570
Si Si7 0.494237 0.235842 0.534714
O O1 0.752451 0.462180 0.173629
O O2 0.776003 0.515197 0.307056
O O3 0.613495 0.282364 0.380219
O O4 0.560021 0.592942 0.389985
O O5 0.789479 0.093649 0.510124
O O6 0.531531 0.090691 0.753595
O O7 0.665014 0.803634 0.645593
O O8 0.152507 0.695210 0.643962
O O9 0.278667 0.426900 0.504258
O O10 0.032876 0.403702 0.752365
O O11 0.191331 0.487473 0.139429
O O12 0.429249 0.165425 0.410695
O O13 0.371088 0.125637 0.595767
O O14 0.434079 0.871084 0.457343
#
# Coordination Sequence:
#
# PCOD8124118 Si02
#       7
#     4   4   4   4   4   4   4
#     4  11  21  38  64  92 127 171 206 268 310 377
#     4  11  24  38  62 101 132 162 203 270 329 354
#     4  12  24  46  67  87 125 176 223 248 313 394
#     4  11  25  41  66  89 127 170 215 262 312 385
#     4  10  19  35  60  95 122 162 209 259 304 371
#     4  11  22  39  64  93 132 165 211 259 316 380
#     4  10  19  34  61  95 128 158 213 260 311 374
#
# _framework density 19.999244999999998
#
# number of rings (size 3 to 8) (size 9 to 14) (size 15 to 20)
#    0.000    1.143    4.286    3.429    4.000    0.571 
#    0.000    0.000    0.000    1.714    0.000    0.000 
#    0.000    0.000    0.000    0.000    0.000    0.000 
#
# Total GULP energy -346879.267894 kJ/mol
# GULP energy per Si atom -12388.545282 kJ/mol
# Density = 1.995373 g / cm^3
# Si number density = 19.999245 Si / 1000 Ang^3
#
#
#
# Elastic Constant Matrix: (Units=GPa)
#
#
# Indices 1 2 3 4 5 6 
#
# 1 80.1689 18.8863 20.8987 0.0000 -6.6733 0.0000
# 2 18.8863 80.5628 20.3441 0.0000 -8.6290 0.0000
# 3 20.8987 20.3441 85.1714 0.0000 -9.1382 0.0000
# 4 0.0000 0.0000 0.0000 29.2334 0.0000 0.4565
# 5 -6.6733 -8.6290 -9.1382 0.0000 23.5262 0.0000
# 6 0.0000 0.0000 0.0000 0.4565 0.0000 38.4949
#
#
#
# Elastic Compliance Matrix: (Units=1/GPa)
#
#
# Indices 1 2 3 4 5 6 
#
# 1 0.013887 -0.002374 -0.002620 0.000000 0.002050 0.000000
# 2 -0.002374 0.013945 -0.002371 0.000000 0.003521 0.000000
# 3 -0.002620 -0.002371 0.013333 0.000000 0.003566 0.000000
# 4 0.000000 0.000000 0.000000 0.034214 0.000000 -0.000406
# 5 0.002050 0.003521 0.003566 0.000000 0.045764 0.000000
# 6 0.000000 0.000000 0.000000 -0.000406 0.000000 0.025982
#
#
# Mechanical properties :
#
#
# Convention : Reuss Voigt Hill
#
# Bulk Modulus (GPa) = 37.82960 40.68459 39.25709
# Shear Modulus (GPa) = 29.29698 30.63583 29.96641
#
# Velocity S-wave (km/s) = 3.83156 3.91813 3.87509
# Velocity P-wave (km/s) = 6.20734 6.39189 6.30029
#
# Compressibility (1/GPa) = 0.02643433
#
# Stress axis : x y z
#
# Youngs Moduli (GPa) = 72.01118 71.71046 75.00272
#
# Poissons Ratio (x) = 0.17025 0.19653
# Poissons Ratio (y) = 0.17097 0.17780
# Poissons Ratio (z) = 0.18869 0.17000
#
# Static dielectric constant tensor:
#      x y z
#    x 3.903870 0.000000 0.066880 
#    y 0.000000 3.973900 0.000000 
#    z 0.066880 0.000000 3.446610 
# 
# 
# High freq. dielectric constant tensor:
#      x y z
#    x 1.785800 0.000000 0.005270 
#    y 0.000000 1.802630 0.000000 
#    z 0.005270 0.000000 1.745860 
# 
# From -- ./inp_files/60315.got.cif
#   From: 2010.03.12/outbox.cif.g09.slc.cpg/sg14_31_cif.got.tgz:60315.got - 2010.03.31 13:35:05.
