data_PCOD8124238
_publ_section_title
;
Structure prediction by ZEFSAII (Michael W. Deem and Ramdas Pophale) SiO2 
 PCOD8124238
Probable space group: P 21/C
;
_chemical_formula_sum "Si O2"
_cell_formula_units_Z 32
_cell_length_a 13.521480
_cell_length_b 14.228774
_cell_length_c 8.924145
_cell_angle_alpha 90.000000
_cell_angle_beta 118.743717
_cell_angle_gamma 90.000000
_cell_volume 1505.388917
_symmetry_space_group_name_H-M "P 21/C"
_symmetry_group_IT_number 14
_symmetry_cell_setting 'monoclinic'
loop_
_space_group_symop_operation_xyz
x,y,z
-x,1/2+y,1/2-z
-x,-y,-z
x,1/2-y,1/2+z
loop_
_atom_site_type_symbol
_atom_site_label
_atom_site_fract_x
_atom_site_fract_y
_atom_site_fract_z
Si Si1 0.620300 0.975524 0.788755
Si Si2 0.896053 0.196889 0.110637
Si Si3 0.144959 0.174049 0.337697
Si Si4 0.352516 0.659654 0.517427
Si Si5 0.833540 0.865017 0.987702
Si Si6 0.918580 0.125427 0.802015
Si Si7 0.592853 0.143707 0.285366
Si Si8 0.272183 0.500153 0.936388
O O1 0.527332 0.897706 0.756456
O O2 0.592570 0.076083 0.843756
O O3 0.628611 0.984979 0.613659
O O4 0.736681 0.940408 0.948570
O O5 0.894465 0.308262 0.142154
O O6 0.010996 0.154320 0.267944
O O7 0.783161 0.148588 0.092636
O O8 0.896718 0.188436 0.932409
O O9 0.182573 0.275642 0.418726
O O10 0.224165 0.095640 0.475966
O O11 0.174707 0.172930 0.185576
O O12 0.404035 0.657075 0.389888
O O13 0.386391 0.757582 0.618651
O O14 0.954106 0.914783 0.107306
O O15 0.833522 0.038866 0.737528
O O16 0.688216 0.069095 0.404311
#
# Coordination Sequence:
#
# PCOD8124238 Si02
#       8
#     4   4   4   4   4   4   4   4
#     4  11  25  43  66  90 121 167 209 254 303 365
#     4  10  19  36  61  89 124 158 202 247 308 360
#     4   9  21  36  62  90 126 162 197 256 310 370
#     4  12  24  43  65  91 123 164 208 259 301 364
#     4   9  21  38  61  91 123 162 206 250 311 362
#     4  10  19  35  62  91 123 158 202 252 307 367
#     4  12  27  43  63  94 124 164 209 255 306 358
#     4  11  22  40  63  94 124 161 204 251 311 366
#
# _framework density 21.256965999999998
#
# number of rings (size 3 to 8) (size 9 to 14) (size 15 to 20)
#    0.000    1.500    2.500    2.250    1.750    5.500 
#    0.000    0.625    0.000    0.000    0.000    0.000 
#    0.000    0.000    0.000    0.000    0.000    0.000 
#
# Total GULP energy -396803.858257 kJ/mol
# GULP energy per Si atom -12400.120571 kJ/mol
# Density = 2.120858 g / cm^3
# Si number density = 21.256966 Si / 1000 Ang^3
#
#
#
# Elastic Constant Matrix: (Units=GPa)
#
#
# Indices 1 2 3 4 5 6 
#
# 1 101.0217 38.5063 17.2628 0.0000 3.6165 0.0000
# 2 38.5063 75.9579 15.3075 0.0000 -2.5732 0.0000
# 3 17.2628 15.3075 30.1418 0.0000 -2.4808 0.0000
# 4 0.0000 0.0000 0.0000 25.4053 0.0000 1.4276
# 5 3.6165 -2.5732 -2.4808 0.0000 25.4771 0.0000
# 6 0.0000 0.0000 0.0000 1.4276 0.0000 38.8173
#
#
#
# Elastic Compliance Matrix: (Units=1/GPa)
#
#
# Indices 1 2 3 4 5 6 
#
# 1 0.013001 -0.005726 -0.004776 0.000000 -0.002889 0.000000
# 2 -0.005726 0.017203 -0.005290 0.000000 0.002035 0.000000
# 3 -0.004776 -0.005290 0.038922 0.000000 0.003934 0.000000
# 4 0.000000 0.000000 0.000000 0.039443 0.000000 -0.001451
# 5 -0.002889 0.002035 0.003934 0.000000 0.040250 0.000000
# 6 0.000000 0.000000 0.000000 -0.001451 0.000000 0.025815
#
#
# Mechanical properties :
#
#
# Convention : Reuss Voigt Hill
#
# Bulk Modulus (GPa) = 26.63617 38.80829 32.72223
# Shear Modulus (GPa) = 22.85916 27.00959 24.93437
#
# Velocity S-wave (km/s) = 3.28284 3.56845 3.42862
# Velocity P-wave (km/s) = 5.18914 5.93926 5.57683
#
# Compressibility (1/GPa) = 0.03754293
#
# Stress axis : x y z
#
# Youngs Moduli (GPa) = 76.91703 58.12942 25.69263
#
# Poissons Ratio (x) = 0.33286 0.12270
# Poissons Ratio (y) = 0.44044 0.13590
# Poissons Ratio (z) = 0.36733 0.30748
#
# Static dielectric constant tensor:
#      x y z
#    x 4.003110 0.000000 0.138950 
#    y 0.000000 3.879130 0.000000 
#    z 0.138950 0.000000 3.732850 
# 
# 
# High freq. dielectric constant tensor:
#      x y z
#    x 1.837860 0.000000 0.007850 
#    y 0.000000 1.836840 0.000000 
#    z 0.007850 0.000000 1.822560 
# 
# From -- ./inp_files/13388.got.cif
#   From: 2010.03.12/outbox.cif.g09.slc.cpg/sg14_7_cif.got.tgz:13388.got - 2010.03.31 13:35:05.
