data_PCOD8124749
_publ_section_title
;
Structure prediction by ZEFSAII (Michael W. Deem and Ramdas Pophale) SiO2 
 PCOD8124749
Probable space group: P 21/C
;
_chemical_formula_sum "Si O2"
_cell_formula_units_Z 32
_cell_length_a 20.083719
_cell_length_b 13.646725
_cell_length_c 8.358285
_cell_angle_alpha 90.000000
_cell_angle_beta 45.702998
_cell_angle_gamma 90.000000
_cell_volume 1639.602359
_symmetry_space_group_name_H-M "P 21/C"
_symmetry_group_IT_number 14
_symmetry_cell_setting 'monoclinic'
loop_
_space_group_symop_operation_xyz
x,y,z
-x,1/2+y,1/2-z
-x,-y,-z
x,1/2-y,1/2+z
loop_
_atom_site_type_symbol
_atom_site_label
_atom_site_fract_x
_atom_site_fract_y
_atom_site_fract_z
Si Si1 0.847450 0.493259 0.776153
Si Si2 0.091483 0.289306 0.751322
Si Si3 0.656672 0.012762 0.403458
Si Si4 0.190855 0.359522 0.880968
Si Si5 0.465769 0.810415 0.473513
Si Si6 0.482255 0.888949 0.790178
Si Si7 0.003894 0.126283 0.107868
Si Si8 0.636144 0.932579 0.088543
O O1 0.751280 0.481598 0.844504
O O2 0.925884 0.534593 0.525222
O O3 0.894172 0.392787 0.760489
O O4 0.836945 0.555225 0.954059
O O5 0.129260 0.362668 0.822810
O O6 0.176212 0.244893 0.497977
O O7 0.014802 0.341480 0.772195
O O8 0.035097 0.203514 0.926103
O O9 0.617506 0.124062 0.462922
O O10 0.584686 0.939066 0.614168
O O11 0.676362 0.970981 0.191566
O O12 0.294626 0.377192 0.646585
O O13 0.463403 0.826582 0.664754
O O14 0.463606 0.692126 0.458245
O O15 0.561114 0.849268 0.241949
O O16 0.406866 0.975237 0.934800
#
# Coordination Sequence:
#
# PCOD8124749 Si02
#       8
#     4   4   4   4   4   4   4   4
#     4  10  20  34  54  78 105 137 172 213 265 316
#     4   9  19  36  55  78 105 132 172 218 259 313
#     4   9  19  37  54  75 108 142 178 218 260 313
#     4  10  20  33  54  81 105 133 171 216 262 312
#     4   9  19  34  54  76 105 143 177 217 264 307
#     4   9  19  35  53  75 106 142 180 218 260 312
#     4   9  19  36  55  76 103 136 172 215 264 310
#     4   9  19  35  53  77 107 140 177 217 262 309
#
# _framework density 19.516928
#
# number of rings (size 3 to 8) (size 9 to 14) (size 15 to 20)
#    0.000    2.750    0.000    2.250    0.000    7.500 
#    0.000    8.750    0.000    0.000    0.000    0.000 
#    0.000    0.000    0.000    0.000    0.000    0.000 
#
# Total GULP energy -396455.566395 kJ/mol
# GULP energy per Si atom -12389.236450 kJ/mol
# Density = 1.947251 g / cm^3
# Si number density = 19.516928 Si / 1000 Ang^3
#
#
#
# Elastic Constant Matrix: (Units=GPa)
#
#
# Indices 1 2 3 4 5 6 
#
# 1 132.1215 27.3015 47.9337 0.0000 -22.4407 0.0000
# 2 27.3015 37.0500 5.3028 0.0000 -13.6858 0.0000
# 3 47.9337 5.3028 48.9670 0.0000 -6.5220 0.0000
# 4 0.0000 0.0000 0.0000 19.5767 0.0000 -0.7534
# 5 -22.4407 -13.6858 -6.5220 0.0000 25.4670 0.0000
# 6 0.0000 0.0000 0.0000 -0.7534 0.0000 26.2873
#
#
#
# Elastic Compliance Matrix: (Units=1/GPa)
#
#
# Indices 1 2 3 4 5 6 
#
# 1 0.014611 -0.006726 -0.012777 0.000000 0.005988 0.000000
# 2 -0.006726 0.036849 0.004599 0.000000 0.015053 0.000000
# 3 -0.012777 0.004599 0.032365 0.000000 -0.000499 0.000000
# 4 0.000000 0.000000 0.000000 0.051137 0.000000 0.001466
# 5 0.005988 0.015053 -0.000499 0.000000 0.052505 0.000000
# 6 0.000000 0.000000 0.000000 0.001466 0.000000 0.038083
#
#
# Mechanical properties :
#
#
# Convention : Reuss Voigt Hill
#
# Bulk Modulus (GPa) = 18.51291 42.13495 30.32393
# Shear Modulus (GPa) = 18.29054 23.43956 20.86505
#
# Velocity S-wave (km/s) = 3.06463 3.46928 3.27322
# Velocity P-wave (km/s) = 4.69348 6.13871 5.46409
#
# Compressibility (1/GPa) = 0.05401636
#
# Stress axis : x y z
#
# Youngs Moduli (GPa) = 68.44039 27.13762 30.89777
#
# Poissons Ratio (x) = 0.18253 0.39478
# Poissons Ratio (y) = 0.46033 -0.14208
# Poissons Ratio (z) = 0.87446 -0.12479
#
# Static dielectric constant tensor:
#      x y z
#    x 3.562790 0.000000 0.099610 
#    y 0.000000 3.755700 0.000000 
#    z 0.099610 0.000000 3.520590 
# 
# 
# High freq. dielectric constant tensor:
#      x y z
#    x 1.760090 0.000000 0.011420 
#    y 0.000000 1.753040 0.000000 
#    z 0.011420 0.000000 1.750090 
# 
# From -- ./inp_files/19056.got.cif
#   From: 2010.03.12/outbox.cif.g09.slc.cpg/sg14_10_cif.got.tgz:19056.got - 2010.03.31 13:35:05.
