data_PCOD8124465
_publ_section_title
;
Structure prediction by ZEFSAII (Michael W. Deem and Ramdas Pophale) SiO2 
 PCOD8124465
Probable space group: P 21/C
;
_chemical_formula_sum "Si O2"
_cell_formula_units_Z 32
_cell_length_a 14.577315
_cell_length_b 13.281196
_cell_length_c 14.453413
_cell_angle_alpha 90.000000
_cell_angle_beta 149.180305
_cell_angle_gamma 90.000000
_cell_volume 1433.645536
_symmetry_space_group_name_H-M "P 21/C"
_symmetry_group_IT_number 14
_symmetry_cell_setting 'monoclinic'
loop_
_space_group_symop_operation_xyz
x,y,z
-x,1/2+y,1/2-z
-x,-y,-z
x,1/2-y,1/2+z
loop_
_atom_site_type_symbol
_atom_site_label
_atom_site_fract_x
_atom_site_fract_y
_atom_site_fract_z
Si Si1 0.442836 0.895090 0.489982
Si Si2 0.498995 0.585669 0.629386
Si Si3 0.658620 0.734144 0.564118
Si Si4 0.367684 0.042211 0.179715
Si Si5 0.968993 0.701763 0.960932
Si Si6 0.255030 0.240107 0.563553
Si Si7 0.868881 0.409123 0.401493
Si Si8 0.333157 0.597960 0.300175
O O1 0.584386 0.815147 0.572769
O O2 0.462726 0.909806 0.617772
O O3 0.237998 0.872548 0.283674
O O4 0.500000 0.000000 0.500000
O O5 0.423221 0.501351 0.630873
O O6 0.569257 0.685989 0.740622
O O7 0.350466 0.619411 0.425712
O O8 0.652741 0.521734 0.708111
O O9 0.744412 0.785659 0.545989
O O10 0.493705 0.662047 0.389963
O O11 0.807493 0.671149 0.751413
O O12 0.239616 0.138732 0.056885
O O13 0.275734 0.946922 0.149719
O O14 0.020224 0.813388 0.968895
O O15 0.138980 0.629838 0.094969
O O16 0.911447 0.698949 0.019892
O O17 0.000000 0.500000 0.500000
#
# Coordination Sequence:
#
# PCOD8124465 Si02
#       8
#     4   4   4   4   4   4   4   4
#     4  10  19  37  65  95 133 181 220 283 355 407
#     4  11  25  46  73 101 139 194 242 280 359 431
#     4  12  23  47  70  99 144 189 230 295 358 415
#     4  11  22  41  70 100 134 182 234 286 352 424
#     4  12  25  45  71 106 142 184 240 292 354 421
#     4  12  24  44  70 101 145 182 237 299 345 421
#     4  11  21  37  65 103 143 177 223 294 358 410
#     4  11  25  48  72  97 144 196 231 293 353 427
#
# _framework density 22.320722
#
# number of rings (size 3 to 8) (size 9 to 14) (size 15 to 20)
#    0.000    0.750    6.250    2.250    0.000    1.500 
#    2.250    1.250    0.000    0.000    0.000    0.000 
#    0.000    0.000    0.000    0.000    0.000    0.000 
#
# Total GULP energy -396502.506971 kJ/mol
# GULP energy per Si atom -12390.703343 kJ/mol
# Density = 2.226992 g / cm^3
# Si number density = 22.320722 Si / 1000 Ang^3
#
#
#
# Elastic Constant Matrix: (Units=GPa)
#
#
# Indices 1 2 3 4 5 6 
#
# 1 97.3524 8.7523 38.2130 0.0000 -14.7531 0.0000
# 2 8.7523 63.8637 9.0532 0.0000 0.6974 0.0000
# 3 38.2130 9.0532 114.5764 0.0000 8.2247 0.0000
# 4 0.0000 0.0000 0.0000 32.8616 0.0000 -2.6051
# 5 -14.7531 0.6974 8.2247 0.0000 29.8989 0.0000
# 6 0.0000 0.0000 0.0000 -2.6051 0.0000 35.6543
#
#
#
# Elastic Compliance Matrix: (Units=1/GPa)
#
#
# Indices 1 2 3 4 5 6 
#
# 1 0.013580 -0.001239 -0.005013 0.000000 0.008109 0.000000
# 2 -0.001239 0.015949 -0.000792 0.000000 -0.000766 0.000000
# 3 -0.005013 -0.000792 0.010853 0.000000 -0.005441 0.000000
# 4 0.000000 0.000000 0.000000 0.030608 0.000000 0.002236
# 5 0.008109 -0.000766 -0.005441 0.000000 0.038962 0.000000
# 6 0.000000 0.000000 0.000000 0.002236 0.000000 0.028211
#
#
# Mechanical properties :
#
#
# Convention : Reuss Voigt Hill
#
# Bulk Modulus (GPa) = 38.03274 43.09217 40.56245
# Shear Modulus (GPa) = 31.05301 34.33456 32.69378
#
# Velocity S-wave (km/s) = 3.73395 3.92629 3.83133
# Velocity P-wave (km/s) = 5.97211 6.31682 6.14688
#
# Compressibility (1/GPa) = 0.02629314
#
# Stress axis : x y z
#
# Youngs Moduli (GPa) = 73.63755 62.70069 92.14072
#
# Poissons Ratio (x) = 0.07768 0.46193
# Poissons Ratio (y) = 0.09123 0.07298
# Poissons Ratio (z) = 0.36917 0.04966
#
# Static dielectric constant tensor:
#      x y z
#    x 4.333780 0.000000 -0.460360 
#    y 0.000000 4.283270 0.000000 
#    z -0.460360 0.000000 4.790290 
# 
# 
# High freq. dielectric constant tensor:
#      x y z
#    x 1.865230 0.000000 -0.011010 
#    y 0.000000 1.894140 0.000000 
#    z -0.011010 0.000000 1.865130 
# 
# From -- ./inp_files/47428.got.cif
#   From: 2010.03.12/outbox.cif.g09.slc.cpg/sg14_24_cif.got.tgz:47428.got - 2010.03.31 13:35:05.
