data_PCOD8124540
_publ_section_title
;
Structure prediction by ZEFSAII (Michael W. Deem and Ramdas Pophale) SiO2 
 PCOD8124540
Probable space group: P 21/C
;
_chemical_formula_sum "Si O2"
_cell_formula_units_Z 32
_cell_length_a 23.202134
_cell_length_b 14.287550
_cell_length_c 9.586179
_cell_angle_alpha 90.000000
_cell_angle_beta 31.978091
_cell_angle_gamma 90.000000
_cell_volume 1682.964904
_symmetry_space_group_name_H-M "P 21/C"
_symmetry_group_IT_number 14
_symmetry_cell_setting 'monoclinic'
loop_
_space_group_symop_operation_xyz
x,y,z
-x,1/2+y,1/2-z
-x,-y,-z
x,1/2-y,1/2+z
loop_
_atom_site_type_symbol
_atom_site_label
_atom_site_fract_x
_atom_site_fract_y
_atom_site_fract_z
Si Si1 0.185038 0.060945 0.592119
Si Si2 0.624708 0.149767 0.944170
Si Si3 0.065951 0.905230 0.346178
Si Si4 0.002152 0.201186 0.006256
Si Si5 0.596528 0.186247 0.690837
Si Si6 0.167106 0.897683 0.840226
Si Si7 0.139790 0.898227 0.494674
Si Si8 0.571353 0.956855 0.975703
O O1 0.313176 0.082298 0.316408
O O2 0.161885 0.998347 0.776427
O O3 0.138359 0.005101 0.553521
O O4 0.121575 0.159247 0.730131
O O5 0.583127 0.209713 0.159194
O O6 0.576685 0.189035 0.897591
O O7 0.755006 0.155220 0.661012
O O8 0.591417 0.041894 0.043007
O O9 0.988138 0.813560 0.501678
O O10 0.144620 0.896955 0.318097
O O11 0.139328 0.911279 0.058715
O O12 0.000000 0.000000 0.500000
O O13 0.917053 0.173545 0.059420
O O14 0.963247 0.158633 0.234313
O O15 0.712184 0.142866 0.415235
O O16 0.500291 0.126657 0.812955
O O17 0.500000 0.000000 0.000000
#
# Coordination Sequence:
#
# PCOD8124540 Si02
#       8
#     4   4   4   4   4   4   4   4
#     4  10  19  38  64  82 108 155 200 234 279 357
#     4  10  20  35  62  89 110 149 193 244 288 339
#     4  12  24  35  51  82 126 153 183 239 291 338
#     4  11  20  36  58  83 113 150 197 227 283 352
#     4  11  20  37  64  88 112 149 197 245 289 343
#     4  11  21  35  60  89 106 149 195 240 286 339
#     4  10  20  36  57  85 116 144 189 243 282 343
#     4   9  18  39  60  83 114 152 197 238 290 344
#
# _framework density 19.014061999999999
#
# number of rings (size 3 to 8) (size 9 to 14) (size 15 to 20)
#    0.000    1.500    5.000    5.250    1.750    0.000 
#    0.000    1.875   19.250    0.000    0.000    0.000 
#    0.000    0.000    0.000    0.000    0.000    0.000 
#
# Total GULP energy -396717.336544 kJ/mol
# GULP energy per Si atom -12397.416767 kJ/mol
# Density = 1.897079 g / cm^3
# Si number density = 19.014062 Si / 1000 Ang^3
#
#
#
# Elastic Constant Matrix: (Units=GPa)
#
#
# Indices 1 2 3 4 5 6 
#
# 1 80.5187 34.8562 47.7582 0.0000 7.3370 0.0000
# 2 34.8562 116.3661 45.9361 0.0000 -17.5958 0.0000
# 3 47.7582 45.9361 76.6493 0.0000 -11.7626 0.0000
# 4 0.0000 0.0000 0.0000 29.8020 0.0000 2.4566
# 5 7.3370 -17.5958 -11.7626 0.0000 41.0465 0.0000
# 6 0.0000 0.0000 0.0000 2.4566 0.0000 14.5963
#
#
#
# Elastic Compliance Matrix: (Units=1/GPa)
#
#
# Indices 1 2 3 4 5 6 
#
# 1 0.022688 -0.002685 -0.013939 0.000000 -0.009201 0.000000
# 2 -0.002685 0.011945 -0.004840 0.000000 0.004214 0.000000
# 3 -0.013939 -0.004840 0.025832 0.000000 0.007820 0.000000
# 4 0.000000 0.000000 0.000000 0.034027 0.000000 -0.005727
# 5 -0.009201 0.004214 0.007820 0.000000 0.030054 0.000000
# 6 0.000000 0.000000 0.000000 -0.005727 0.000000 0.069474
#
#
# Mechanical properties :
#
#
# Convention : Reuss Voigt Hill
#
# Bulk Modulus (GPa) = 57.01789 58.95947 57.98868
# Shear Modulus (GPa) = 20.59361 26.75453 23.67407
#
# Velocity S-wave (km/s) = 3.29458 3.75519 3.53240
# Velocity P-wave (km/s) = 6.67268 7.06241 6.87031
#
# Compressibility (1/GPa) = 0.01753835
#
# Stress axis : x y z
#
# Youngs Moduli (GPa) = 44.07641 83.71508 38.71163
#
# Poissons Ratio (x) = 0.22474 0.53961
# Poissons Ratio (y) = 0.11832 0.18735
# Poissons Ratio (z) = 0.61440 0.40514
#
# Static dielectric constant tensor:
#      x y z
#    x 3.716000 0.000000 0.011960 
#    y 0.000000 3.773970 0.000000 
#    z 0.011960 0.000000 3.620510 
# 
# 
# High freq. dielectric constant tensor:
#      x y z
#    x 1.731410 0.000000 -0.000920 
#    y 0.000000 1.736630 0.000000 
#    z -0.000920 0.000000 1.723280 
# 
# From -- ./inp_files/19084.got.cif
#   From: 2010.03.12/outbox.cif.g09.slc.cpg/sg14_10_cif.got.tgz:19084.got - 2010.03.31 13:35:05.
