data_PCOD8124767
_publ_section_title
;
Structure prediction by ZEFSAII (Michael W. Deem and Ramdas Pophale) SiO2 
 PCOD8124767
Probable space group: P 21/C
;
_chemical_formula_sum "Si O2"
_cell_formula_units_Z 32
_cell_length_a 15.509280
_cell_length_b 27.827236
_cell_length_c 9.218445
_cell_angle_alpha 90.000000
_cell_angle_beta 26.928286
_cell_angle_gamma 90.000000
_cell_volume 1801.762930
_symmetry_space_group_name_H-M "P 21/C"
_symmetry_group_IT_number 14
_symmetry_cell_setting 'monoclinic'
loop_
_space_group_symop_operation_xyz
x,y,z
-x,1/2+y,1/2-z
-x,-y,-z
x,1/2-y,1/2+z
loop_
_atom_site_type_symbol
_atom_site_label
_atom_site_fract_x
_atom_site_fract_y
_atom_site_fract_z
Si Si1 0.522302 0.798997 0.136129
Si Si2 0.477698 0.298997 0.703035
Si Si3 0.247295 0.634720 0.548051
Si Si4 0.455344 0.447050 0.898398
Si Si5 0.818529 0.881791 0.354470
Si Si6 0.247295 0.865280 0.710065
Si Si7 0.544656 0.552950 0.764430
Si Si8 0.818529 0.618209 0.189943
O O1 0.572522 0.750000 0.141217
O O2 0.331651 0.821688 0.489869
O O3 0.488456 0.789681 0.017315
O O4 0.700291 0.833677 0.898545
O O5 0.668349 0.321688 0.484822
O O6 0.299709 0.333677 0.999418
O O7 0.362159 0.585989 0.407347
O O8 0.257010 0.649093 0.364484
O O9 0.032517 0.626696 0.923428
O O10 0.499999 0.500000 0.770346
O O11 0.268980 0.426741 0.099231
O O12 0.405434 0.449174 0.141850
O O13 0.815082 0.895786 0.527376
O O14 0.032518 0.873304 0.979020
O O15 0.362159 0.914010 0.506176
O O16 0.731020 0.573259 0.406170
#
# Coordination Sequence:
#
# PCOD8124767 Si02
#       8
#     4   4   4   4   4   4   4   4
#     4  10  20  34  51  72  97 125 160 199 242 290
#     4  10  20  34  51  72  97 125 160 199 242 290
#     4   9  18  34  52  71  99 131 163 201 243 288
#     4   9  18  32  50  73 101 132 165 202 245 291
#     4   9  19  34  51  72  98 129 164 202 243 288
#     4   9  18  34  52  71  99 131 163 201 243 288
#     4   9  18  32  50  73 101 132 165 202 245 291
#     4   9  19  34  51  72  98 129 164 202 243 288
#
# _framework density 17.760382
#
# number of rings (size 3 to 8) (size 9 to 14) (size 15 to 20)
#    0.000    2.750    0.000    0.750    0.000    4.500 
#    0.000    2.500    0.000    0.000    0.000    0.000 
#    0.000    0.000    0.000    0.000    0.000    0.000 
#
# Total GULP energy -396905.765914 kJ/mol
# GULP energy per Si atom -12403.305185 kJ/mol
# Density = 1.771996 g / cm^3
# Si number density = 17.760382 Si / 1000 Ang^3
#
#
#
# Elastic Constant Matrix: (Units=GPa)
#
#
# Indices 1 2 3 4 5 6 
#
# 1 74.7013 38.2972 36.3136 0.0000 -12.5115 0.0000
# 2 38.2972 96.9788 31.3444 0.0000 5.1411 0.0000
# 3 36.3136 31.3444 109.3145 0.0000 -13.0830 0.0000
# 4 0.0000 0.0000 0.0000 17.7545 0.0000 7.0888
# 5 -12.5115 5.1411 -13.0830 0.0000 28.0765 0.0000
# 6 0.0000 0.0000 0.0000 7.0888 0.0000 27.3412
#
#
#
# Elastic Compliance Matrix: (Units=1/GPa)
#
#
# Indices 1 2 3 4 5 6 
#
# 1 0.020370 -0.007338 -0.003617 0.000000 0.008736 0.000000
# 2 -0.007338 0.014407 -0.002542 0.000000 -0.007093 0.000000
# 3 -0.003617 -0.002542 0.011588 0.000000 0.004253 0.000000
# 4 0.000000 0.000000 0.000000 0.062828 0.000000 -0.016289
# 5 0.008736 -0.007093 0.004253 0.000000 0.042790 0.000000
# 6 0.000000 0.000000 0.000000 -0.016289 0.000000 0.040798
#
#
# Mechanical properties :
#
#
# Convention : Reuss Voigt Hill
#
# Bulk Modulus (GPa) = 51.62756 54.76721 53.19739
# Shear Modulus (GPa) = 22.10111 26.30373 24.20242
#
# Velocity S-wave (km/s) = 3.53144 3.85260 3.69551
# Velocity P-wave (km/s) = 6.76462 7.11995 6.94456
#
# Compressibility (1/GPa) = 0.01936950
#
# Stress axis : x y z
#
# Youngs Moduli (GPa) = 49.09113 69.41021 86.29987
#
# Poissons Ratio (x) = 0.50935 0.31217
# Poissons Ratio (y) = 0.36024 0.21939
# Poissons Ratio (z) = 0.17757 0.17645
#
# Static dielectric constant tensor:
#      x y z
#    x 3.290070 0.000000 -0.025210 
#    y 0.000000 3.315530 0.000000 
#    z -0.025210 0.000000 3.324160 
# 
# 
# High freq. dielectric constant tensor:
#      x y z
#    x 1.686070 0.000000 -0.000800 
#    y 0.000000 1.687990 0.000000 
#    z -0.000800 0.000000 1.687140 
# 
# From -- ./inp_files/10981.got.cif
#   From: 2010.03.12/outbox.cif.g09.slc.cpg/sg14_6_cif.got.tgz:10981.got - 2010.03.31 13:35:05.
