data_PCOD8124003
_publ_section_title
;
Structure prediction by ZEFSAII (Michael W. Deem and Ramdas Pophale) SiO2 
 PCOD8124003
Probable space group: P 21/C
;
_chemical_formula_sum "Si O2"
_cell_formula_units_Z 28
_cell_length_a 20.890657
_cell_length_b 15.466645
_cell_length_c 9.367030
_cell_angle_alpha 90.000000
_cell_angle_beta 150.859092
_cell_angle_gamma 90.000000
_cell_volume 1473.813817
_symmetry_space_group_name_H-M "P 21/C"
_symmetry_group_IT_number 14
_symmetry_cell_setting 'monoclinic'
loop_
_space_group_symop_operation_xyz
x,y,z
-x,1/2+y,1/2-z
-x,-y,-z
x,1/2-y,1/2+z
loop_
_atom_site_type_symbol
_atom_site_label
_atom_site_fract_x
_atom_site_fract_y
_atom_site_fract_z
Si Si1 0.763366 0.945649 0.739792
Si Si2 0.031653 0.485803 0.822310
Si Si3 0.344889 0.924708 0.241320
Si Si4 0.921280 0.125009 0.355462
Si Si5 0.378665 0.409500 0.629365
Si Si6 0.814451 0.697802 0.562889
Si Si7 0.262827 0.394766 0.115877
O O1 0.690389 0.930628 0.446798
O O2 0.687536 0.018021 0.682139
O O3 0.771050 0.854598 0.838081
O O4 0.911933 0.975810 0.997480
O O5 0.980035 0.412048 0.825410
O O6 0.093927 0.558026 0.045460
O O7 0.137051 0.449162 0.919162
O O8 0.481356 0.874477 0.537676
O O9 0.360348 0.991022 0.140005
O O10 0.231771 0.852980 0.982520
O O11 0.025302 0.199171 0.603681
O O12 0.257759 0.349713 0.445423
O O13 0.378963 0.406349 0.457514
O O14 0.770935 0.794877 0.465388
#
# Coordination Sequence:
#
# PCOD8124003 Si02
#       7
#     4   4   4   4   4   4   4
#     4   9  20  31  49  80 109 132 175 227 262 302
#     4   9  16  30  52  77 104 135 173 222 255 299
#     4   9  18  35  56  76  96 138 188 218 249 316
#     4   9  15  33  56  75 100 139 187 209 244 318
#     4  10  19  33  56  77  99 142 182 212 259 317
#     4  10  20  33  52  79 105 142 176 212 264 321
#     4  12  19  30  52  83 112 134 171 225 274 304
#
# _framework density 18.998328999999998
#
# number of rings (size 3 to 8) (size 9 to 14) (size 15 to 20)
#    0.000    2.286    2.857    3.000    0.000    0.571 
#    0.000    0.000    6.286    0.000    0.000    0.000 
#    0.000    0.000    0.000    0.000    0.000    0.000 
#
# Total GULP energy -346887.238349 kJ/mol
# GULP energy per Si atom -12388.829941 kJ/mol
# Density = 1.895509 g / cm^3
# Si number density = 18.998329 Si / 1000 Ang^3
#
#
#
# Elastic Constant Matrix: (Units=GPa)
#
#
# Indices 1 2 3 4 5 6 
#
# 1 58.0588 5.9651 34.6889 0.0000 -19.5692 0.0000
# 2 5.9651 43.3278 16.6841 0.0000 -6.3824 0.0000
# 3 34.6889 16.6841 134.1460 0.0000 -0.6095 0.0000
# 4 0.0000 0.0000 0.0000 12.4741 0.0000 1.9734
# 5 -19.5692 -6.3824 -0.6095 0.0000 40.5766 0.0000
# 6 0.0000 0.0000 0.0000 1.9734 0.0000 9.5480
#
#
#
# Elastic Compliance Matrix: (Units=1/GPa)
#
#
# Indices 1 2 3 4 5 6 
#
# 1 0.025154 0.000853 -0.006555 0.000000 0.012167 0.000000
# 2 0.000853 0.024860 -0.003293 0.000000 0.004272 0.000000
# 3 -0.006555 -0.003293 0.009543 0.000000 -0.003536 0.000000
# 4 0.000000 0.000000 0.000000 0.082876 0.000000 -0.017129
# 5 0.012167 0.004272 -0.003536 0.000000 0.031131 0.000000
# 6 0.000000 0.000000 0.000000 -0.017129 0.000000 0.108274
#
#
# Mechanical properties :
#
#
# Convention : Reuss Voigt Hill
#
# Bulk Modulus (GPa) = 24.05772 38.91209 31.48490
# Shear Modulus (GPa) = 15.93959 24.39937 20.16948
#
# Velocity S-wave (km/s) = 2.89969 3.58759 3.26182
# Velocity P-wave (km/s) = 4.88892 6.13900 5.54927
#
# Compressibility (1/GPa) = 0.04156671
#
# Stress axis : x y z
#
# Youngs Moduli (GPa) = 39.75524 40.22560 104.78608
#
# Poissons Ratio (x) = -0.03433 0.68692
# Poissons Ratio (y) = -0.03393 0.34508
# Poissons Ratio (z) = 0.26061 0.13247
#
# Static dielectric constant tensor:
#      x y z
#    x 3.443320 0.000000 -0.004670 
#    y 0.000000 3.062550 0.000000 
#    z -0.004670 0.000000 3.780700 
# 
# 
# High freq. dielectric constant tensor:
#      x y z
#    x 1.730780 0.000000 -0.007670 
#    y 0.000000 1.689450 0.000000 
#    z -0.007670 0.000000 1.748460 
# 
# From -- ./inp_files/13414.got.cif
#   From: 2010.03.12/outbox.cif.g09.slc.cpg/sg14_7_cif.got.tgz:13414.got - 2010.03.31 13:35:05.
