data_PCOD8124625
_publ_section_title
;
Structure prediction by ZEFSAII (Michael W. Deem and Ramdas Pophale) SiO2 
 PCOD8124625
Probable space group: P 21/C
;
_chemical_formula_sum "Si O2"
_cell_formula_units_Z 20
_cell_length_a 24.672215
_cell_length_b 7.804733
_cell_length_c 14.579695
_cell_angle_alpha 90.000000
_cell_angle_beta 160.183940
_cell_angle_gamma 90.000000
_cell_volume 951.735840
_symmetry_space_group_name_H-M "P 21/C"
_symmetry_group_IT_number 14
_symmetry_cell_setting 'monoclinic'
loop_
_space_group_symop_operation_xyz
x,y,z
-x,1/2+y,1/2-z
-x,-y,-z
x,1/2-y,1/2+z
loop_
_atom_site_type_symbol
_atom_site_label
_atom_site_fract_x
_atom_site_fract_y
_atom_site_fract_z
Si Si1 0.040921 0.045430 0.412609
Si Si2 0.549757 0.420577 0.914424
Si Si3 0.220038 0.779884 0.585339
Si Si4 0.370725 0.745359 0.637961
Si Si5 0.202222 0.087069 0.847830
O O1 0.129716 0.150920 0.635785
O O2 0.175418 0.956025 0.564268
O O3 0.924206 0.897505 0.269906
O O4 0.942757 0.179798 0.196102
O O5 0.530403 0.624827 0.902325
O O6 0.605787 0.395478 0.898427
O O7 0.373971 0.328093 0.645555
O O8 0.672756 0.341632 0.180807
O O9 0.322392 0.828724 0.658153
O O10 0.228386 0.620086 0.377169
#
# Coordination Sequence:
#
# PCOD8124625 Si02
#       5
#     4   4   4   4   4
#     4  10  20  38  58  83 119 145 189 231 290 325
#     4  10  19  40  60  80 116 152 190 231 280 336
#     4  11  21  38  59  88 112 151 188 237 274 346
#     4   9  20  36  60  81 112 146 192 233 275 329
#     4   8  19  38  59  75 115 158 174 233 286 328
#
# _framework density 21.014234999999999
#
# number of rings (size 3 to 8) (size 9 to 14) (size 15 to 20)
#    1.200    1.200    2.000    0.600    0.000    1.600 
#    3.600    3.000    0.000    0.000    0.000    0.000 
#    0.000    0.000    0.000    0.000    0.000    0.000 
#
# Total GULP energy -247766.814198 kJ/mol
# GULP energy per Si atom -12388.340710 kJ/mol
# Density = 2.096641 g / cm^3
# Si number density = 21.014235 Si / 1000 Ang^3
#
#
#
# Elastic Constant Matrix: (Units=GPa)
#
#
# Indices 1 2 3 4 5 6 
#
# 1 111.3561 10.0328 -6.4421 0.0000 16.6806 0.0000
# 2 10.0328 19.8945 -5.4342 0.0000 7.8666 0.0000
# 3 -6.4421 -5.4342 61.4601 0.0000 -12.9224 0.0000
# 4 0.0000 0.0000 0.0000 17.6684 0.0000 10.9986
# 5 16.6806 7.8666 -12.9224 0.0000 35.2654 0.0000
# 6 0.0000 0.0000 0.0000 10.9986 0.0000 23.9786
#
#
#
# Elastic Compliance Matrix: (Units=1/GPa)
#
#
# Indices 1 2 3 4 5 6 
#
# 1 0.009875 -0.003450 -0.000098 0.000000 -0.003937 0.000000
# 2 -0.003450 0.056684 0.002530 0.000000 -0.010086 0.000000
# 3 -0.000098 0.002530 0.017742 0.000000 0.005983 0.000000
# 4 0.000000 0.000000 0.000000 0.079217 0.000000 -0.036335
# 5 -0.003937 -0.010086 0.005983 0.000000 0.034661 0.000000
# 6 0.000000 0.000000 0.000000 -0.036335 0.000000 0.058370
#
#
# Mechanical properties :
#
#
# Convention : Reuss Voigt Hill
#
# Bulk Modulus (GPa) = 12.15582 21.00265 16.57923
# Shear Modulus (GPa) = 17.48209 28.35276 22.91743
#
# Velocity S-wave (km/s) = 2.88743 3.67715 3.30596
# Velocity P-wave (km/s) = 4.11259 5.29573 4.74121
#
# Compressibility (1/GPa) = 0.08226513
#
# Stress axis : x y z
#
# Youngs Moduli (GPa) = 101.26434 17.64171 56.36291
#
# Poissons Ratio (x) = 0.06086 0.00551
# Poissons Ratio (y) = 0.34935 -0.14258
# Poissons Ratio (z) = 0.00990 -0.04463
#
# Static dielectric constant tensor:
#      x y z
#    x 3.882120 0.000000 0.104830 
#    y 0.000000 3.109980 0.000000 
#    z 0.104830 0.000000 3.848720 
# 
# 
# High freq. dielectric constant tensor:
#      x y z
#    x 1.834760 0.000000 0.003280 
#    y 0.000000 1.757490 0.000000 
#    z 0.003280 0.000000 1.831330 
# 
# From -- ./inp_files/42894.got.cif
#   From: 2010.03.12/outbox.cif.g09.slc.cpg/sg14_22_cif.got.tgz:42894.got - 2010.03.31 13:35:05.
