data_PCOD8124390
_publ_section_title
;
Structure prediction by ZEFSAII (Michael W. Deem and Ramdas Pophale) SiO2 
 PCOD8124390
Probable space group: P 21/C
;
_chemical_formula_sum "Si O2"
_cell_formula_units_Z 28
_cell_length_a 6.772606
_cell_length_b 17.294821
_cell_length_c 20.635677
_cell_angle_alpha 90.000000
_cell_angle_beta 139.747072
_cell_angle_gamma 90.000000
_cell_volume 1561.826108
_symmetry_space_group_name_H-M "P 21/C"
_symmetry_group_IT_number 14
_symmetry_cell_setting 'monoclinic'
loop_
_space_group_symop_operation_xyz
x,y,z
-x,1/2+y,1/2-z
-x,-y,-z
x,1/2-y,1/2+z
loop_
_atom_site_type_symbol
_atom_site_label
_atom_site_fract_x
_atom_site_fract_y
_atom_site_fract_z
Si Si1 0.581114 0.707718 0.130649
Si Si2 0.915867 0.879904 0.604410
Si Si3 0.055705 0.157292 0.719979
Si Si4 0.412986 0.375071 0.112702
Si Si5 0.959987 0.756491 0.413718
Si Si6 0.287675 0.021876 0.699261
Si Si7 0.583294 0.870417 0.765744
O O1 0.676281 0.658019 0.092526
O O2 0.768866 0.786863 0.186527
O O3 0.634520 0.649604 0.203276
O O4 0.233370 0.735890 0.033354
O O5 0.795574 0.871821 0.502221
O O6 0.243163 0.836595 0.695892
O O7 0.973303 0.972314 0.629459
O O8 0.936854 0.205712 0.628477
O O9 0.284195 0.089067 0.752628
O O10 0.770389 0.119933 0.685746
O O11 0.344466 0.297295 0.135644
O O12 0.308473 0.446275 0.131383
O O13 0.852375 0.667812 0.375805
O O14 0.578835 0.963016 0.779167
#
# Coordination Sequence:
#
# PCOD8124390 Si02
#       7
#     4   4   4   4   4   4   4
#     4  11  20  36  57  82 107 142 184 226 261 317
#     4  10  20  33  55  83 107 142 180 216 276 318
#     4  10  22  35  55  81 112 140 179 225 269 316
#     4  11  19  35  55  81 112 142 174 225 275 316
#     4  10  19  37  56  79 108 142 186 221 264 315
#     4   9  22  35  52  81 113 142 175 218 275 323
#     4   9  21  36  54  79 109 143 179 222 264 320
#
# _framework density 17.927731999999999
#
# number of rings (size 3 to 8) (size 9 to 14) (size 15 to 20)
#    0.857    1.143    2.857    1.286    2.000    0.571 
#    0.000    0.714    0.000    0.857    0.000    0.000 
#    0.000    0.000    0.000    0.000    0.000    0.000 
#
# Total GULP energy -346881.354606 kJ/mol
# GULP energy per Si atom -12388.619807 kJ/mol
# Density = 1.788693 g / cm^3
# Si number density = 17.927732 Si / 1000 Ang^3
#
#
#
# Elastic Constant Matrix: (Units=GPa)
#
#
# Indices 1 2 3 4 5 6 
#
# 1 78.1731 36.4601 16.6589 0.0000 6.6268 0.0000
# 2 36.4601 95.7321 37.9258 0.0000 2.6397 0.0000
# 3 16.6589 37.9258 41.9885 0.0000 4.6703 0.0000
# 4 0.0000 0.0000 0.0000 17.3740 0.0000 3.7597
# 5 6.6268 2.6397 4.6703 0.0000 18.2111 0.0000
# 6 0.0000 0.0000 0.0000 3.7597 0.0000 25.8471
#
#
#
# Elastic Compliance Matrix: (Units=1/GPa)
#
#
# Indices 1 2 3 4 5 6 
#
# 1 0.016000 -0.005697 -0.000665 0.000000 -0.004826 0.000000
# 2 -0.005697 0.018332 -0.014651 0.000000 0.003173 0.000000
# 3 -0.000665 -0.014651 0.038139 0.000000 -0.007415 0.000000
# 4 0.000000 0.000000 0.000000 0.059428 0.000000 -0.008644
# 5 -0.004826 0.003173 -0.007415 0.000000 0.058109 0.000000
# 6 0.000000 0.000000 0.000000 -0.008644 0.000000 0.039946
#
#
# Mechanical properties :
#
#
# Convention : Reuss Voigt Hill
#
# Bulk Modulus (GPa) = 32.84776 44.22037 38.53406
# Shear Modulus (GPa) = 17.72231 20.60968 19.16600
#
# Velocity S-wave (km/s) = 3.14752 3.39425 3.27321
# Velocity P-wave (km/s) = 5.61883 6.33093 5.98548
#
# Compressibility (1/GPa) = 0.03044348
#
# Stress axis : x y z
#
# Youngs Moduli (GPa) = 62.49949 54.54814 26.22017
#
# Poissons Ratio (x) = 0.31076 0.01745
# Poissons Ratio (y) = 0.35606 0.38416
# Poissons Ratio (z) = 0.04159 0.79920
#
# Static dielectric constant tensor:
#      x y z
#    x 3.301000 0.000000 0.027980 
#    y 0.000000 3.289510 0.000000 
#    z 0.027980 0.000000 3.020470 
# 
# 
# High freq. dielectric constant tensor:
#      x y z
#    x 1.700720 0.000000 0.000150 
#    y 0.000000 1.687750 0.000000 
#    z 0.000150 0.000000 1.665830 
# 
# From -- ./inp_files/37577.got.cif
#   From: 2010.03.12/outbox.cif.g09.slc.cpg/sg14_19_cif.got.tgz:37577.got - 2010.03.31 13:35:05.
