data_PCOD8124673
_publ_section_title
;
Structure prediction by ZEFSAII (Michael W. Deem and Ramdas Pophale) SiO2 
 PCOD8124673
Probable space group: P 21/C
;
_chemical_formula_sum "Si O2"
_cell_formula_units_Z 28
_cell_length_a 8.128668
_cell_length_b 13.670377
_cell_length_c 14.297891
_cell_angle_alpha 90.000000
_cell_angle_beta 127.995205
_cell_angle_gamma 90.000000
_cell_volume 1252.080920
_symmetry_space_group_name_H-M "P 21/C"
_symmetry_group_IT_number 14
_symmetry_cell_setting 'monoclinic'
loop_
_space_group_symop_operation_xyz
x,y,z
-x,1/2+y,1/2-z
-x,-y,-z
x,1/2-y,1/2+z
loop_
_atom_site_type_symbol
_atom_site_label
_atom_site_fract_x
_atom_site_fract_y
_atom_site_fract_z
Si Si1 0.620564 0.946761 0.835754
Si Si2 0.321149 0.116914 0.494253
Si Si3 0.089704 0.923756 0.407493
Si Si4 0.458488 0.826523 0.617026
Si Si5 0.858204 0.824783 0.066153
Si Si6 0.747804 0.092442 0.736186
Si Si7 0.656199 0.615336 0.685222
O O1 0.468785 0.878673 0.720900
O O2 0.764323 0.003873 0.813704
O O3 0.491285 0.020791 0.856690
O O4 0.781081 0.880436 0.948058
O O5 0.409209 0.113349 0.417419
O O6 0.185191 0.211734 0.457798
O O7 0.511040 0.126191 0.634897
O O8 0.171707 0.027873 0.477170
O O9 0.217305 0.833380 0.498239
O O10 0.141450 0.941107 0.318256
O O11 0.843671 0.897832 0.327464
O O12 0.525910 0.714747 0.656319
O O13 0.742748 0.878742 0.111213
O O14 0.109006 0.823690 0.166793
#
# Coordination Sequence:
#
# PCOD8124673 Si02
#       7
#     4   4   4   4   4   4   4
#     4  12  22  40  63  91 129 157 207 262 308 366
#     4  10  19  41  68  91 120 167 217 248 306 376
#     4  10  19  43  68  87 121 168 211 253 308 371
#     4  10  21  41  64  93 124 164 207 265 303 369
#     4  10  24  40  62  92 130 169 200 251 320 377
#     4  10  20  40  63  89 121 166 208 246 307 369
#     4  10  25  42  60  94 129 164 209 254 319 368
#
# _framework density 22.362770000000001
#
# number of rings (size 3 to 8) (size 9 to 14) (size 15 to 20)
#    0.000    1.714    2.857    1.714    2.000    1.714 
#    5.143    4.286    0.000    0.000    0.000    0.000 
#    0.000    0.000    0.000    0.000    0.000    0.000 
#
# Total GULP energy -346998.150805 kJ/mol
# GULP energy per Si atom -12392.791100 kJ/mol
# Density = 2.231187 g / cm^3
# Si number density = 22.362770 Si / 1000 Ang^3
#
#
#
# Elastic Constant Matrix: (Units=GPa)
#
#
# Indices 1 2 3 4 5 6 
#
# 1 27.5617 29.3131 40.6011 0.0000 14.4483 0.0000
# 2 29.3131 74.4719 76.4121 0.0000 16.8903 0.0000
# 3 40.6011 76.4121 139.8788 0.0000 18.8022 0.0000
# 4 0.0000 0.0000 0.0000 48.3436 0.0000 13.6295
# 5 14.4483 16.8903 18.8022 0.0000 34.0852 0.0000
# 6 0.0000 0.0000 0.0000 13.6295 0.0000 43.2899
#
#
#
# Elastic Compliance Matrix: (Units=1/GPa)
#
#
# Indices 1 2 3 4 5 6 
#
# 1 0.081059 -0.013573 -0.013392 0.000000 -0.020247 0.000000
# 2 -0.013573 0.034179 -0.014288 0.000000 -0.003302 0.000000
# 3 -0.013392 -0.014288 0.018498 0.000000 0.002553 0.000000
# 4 0.000000 0.000000 0.000000 0.022700 0.000000 -0.007147
# 5 -0.020247 -0.003302 0.002553 0.000000 0.038149 0.000000
# 6 0.000000 0.000000 0.000000 -0.007147 0.000000 0.025350
#
#
# Mechanical properties :
#
#
# Convention : Reuss Voigt Hill
#
# Bulk Modulus (GPa) = 19.51945 59.39610 39.45777
# Shear Modulus (GPa) = 15.64860 31.51616 23.58238
#
# Velocity S-wave (km/s) = 2.64817 3.75816 3.25089
# Velocity P-wave (km/s) = 4.25416 6.74163 5.63682
#
# Compressibility (1/GPa) = 0.05123096
#
# Stress axis : x y z
#
# Youngs Moduli (GPa) = 12.33670 29.25764 54.05988
#
# Poissons Ratio (x) = 0.39711 0.72397
# Poissons Ratio (y) = 0.16744 0.77239
# Poissons Ratio (z) = 0.16521 0.41802
#
# Static dielectric constant tensor:
#      x y z
#    x 3.919000 0.000000 0.055170 
#    y 0.000000 3.928450 0.000000 
#    z 0.055170 0.000000 4.379740 
# 
# 
# High freq. dielectric constant tensor:
#      x y z
#    x 1.868750 0.000000 -0.003020 
#    y 0.000000 1.874730 0.000000 
#    z -0.003020 0.000000 1.897950 
# 
# From -- ./inp_files/41267.got.cif
#   From: 2010.03.12/outbox.cif.g09.slc.cpg/sg14_21_cif.got.tgz:41267.got - 2010.03.31 13:35:05.
