data_PCOD8124923
_publ_section_title
;
Structure prediction by ZEFSAII (Michael W. Deem and Ramdas Pophale) SiO2 
 PCOD8124923
Probable space group: P 21/C
;
_chemical_formula_sum "Si O2"
_cell_formula_units_Z 32
_cell_length_a 25.375653
_cell_length_b 5.138781
_cell_length_c 14.484809
_cell_angle_alpha 90.000000
_cell_angle_beta 134.741316
_cell_angle_gamma 90.000000
_cell_volume 1341.612439
_symmetry_space_group_name_H-M "P 21/C"
_symmetry_group_IT_number 14
_symmetry_cell_setting 'monoclinic'
loop_
_space_group_symop_operation_xyz
x,y,z
-x,1/2+y,1/2-z
-x,-y,-z
x,1/2-y,1/2+z
loop_
_atom_site_type_symbol
_atom_site_label
_atom_site_fract_x
_atom_site_fract_y
_atom_site_fract_z
Si Si1 0.245442 0.026243 0.570565
Si Si2 0.691807 0.303533 0.201111
Si Si3 0.610903 0.790314 0.040088
Si Si4 0.478380 0.821831 0.277575
Si Si5 0.934988 0.382557 0.754044
Si Si6 0.332453 0.411447 0.581257
Si Si7 0.209067 0.746027 0.846320
Si Si8 0.089687 0.382760 0.894326
O O1 0.275246 0.764841 0.657381
O O2 0.217762 0.985029 0.431350
O O3 0.173863 0.141363 0.539218
O O4 0.312615 0.232873 0.645699
O O5 0.648752 0.575950 0.151979
O O6 0.761296 0.334482 0.217264
O O7 0.635665 0.077092 0.100203
O O8 0.520807 0.759643 0.925876
O O9 0.630858 0.742858 0.956261
O O10 0.486048 0.594230 0.212108
O O11 0.390475 0.866864 0.187861
O O12 0.878075 0.331121 0.768990
O O13 0.915912 0.175866 0.650878
O O14 0.023080 0.349368 0.888310
O O15 0.921318 0.671546 0.699495
O O16 0.256680 0.520468 0.446591
#
# Coordination Sequence:
#
# PCOD8124923 Si02
#       8
#     4   4   4   4   4   4   4   4
#     4  11  22  37  59  87 119 152 198 239 290 343
#     4  11  24  37  60  85 119 153 194 245 286 339
#     4  10  21  41  55  85 117 150 192 239 290 345
#     4  10  20  35  61  87 113 153 196 237 291 349
#     4   9  17  31  56  79 112 149 191 231 288 340
#     4  10  20  35  63  85 112 153 199 235 290 350
#     4  10  20  38  59  85 116 154 198 236 291 346
#     4   9  18  32  52  84 111 149 188 236 283 343
#
# _framework density 23.851894000000001
#
# number of rings (size 3 to 8) (size 9 to 14) (size 15 to 20)
#    0.000    2.000    2.500    2.250    3.500    0.000 
#    0.000    1.875    0.000    0.000    0.000   12.250 
#    0.000    0.000    0.000    0.000    0.000    0.000 
#
# Total GULP energy -396439.976846 kJ/mol
# GULP energy per Si atom -12388.749276 kJ/mol
# Density = 2.379761 g / cm^3
# Si number density = 23.851894 Si / 1000 Ang^3
#
#
#
# Elastic Constant Matrix: (Units=GPa)
#
#
# Indices 1 2 3 4 5 6 
#
# 1 52.0472 9.0760 21.6130 0.0000 18.4505 0.0000
# 2 9.0760 84.7536 0.8303 0.0000 8.3749 0.0000
# 3 21.6130 0.8303 42.2241 0.0000 9.6012 0.0000
# 4 0.0000 0.0000 0.0000 30.6542 0.0000 2.4045
# 5 18.4505 8.3749 9.6012 0.0000 27.3197 0.0000
# 6 0.0000 0.0000 0.0000 2.4045 0.0000 21.9961
#
#
#
# Elastic Compliance Matrix: (Units=1/GPa)
#
#
# Indices 1 2 3 4 5 6 
#
# 1 0.029872 -0.001544 -0.011717 0.000000 -0.015583 0.000000
# 2 -0.001544 0.012264 0.001268 0.000000 -0.003162 0.000000
# 3 -0.011717 0.001268 0.030372 0.000000 -0.003150 0.000000
# 4 0.000000 0.000000 0.000000 0.032904 0.000000 -0.003597
# 5 -0.015583 -0.003162 -0.003150 0.000000 0.049204 0.000000
# 6 0.000000 0.000000 0.000000 -0.003597 0.000000 0.045856
#
#
# Mechanical properties :
#
#
# Convention : Reuss Voigt Hill
#
# Bulk Modulus (GPa) = 20.60872 26.89595 23.75233
# Shear Modulus (GPa) = 20.77860 25.82773 23.30316
#
# Velocity S-wave (km/s) = 2.95473 3.29422 3.12908
# Velocity P-wave (km/s) = 4.50551 5.07640 4.79945
#
# Compressibility (1/GPa) = 0.04852314
#
# Stress axis : x y z
#
# Youngs Moduli (GPa) = 33.47581 81.53714 32.92532
#
# Poissons Ratio (x) = 0.12592 0.38578
# Poissons Ratio (y) = 0.05170 -0.04176
# Poissons Ratio (z) = 0.39223 -0.10342
#
# Static dielectric constant tensor:
#      x y z
#    x 4.831640 0.000000 0.710290 
#    y 0.000000 4.181970 0.000000 
#    z 0.710290 0.000000 4.148520 
# 
# 
# High freq. dielectric constant tensor:
#      x y z
#    x 1.942150 0.000000 0.042470 
#    y 0.000000 1.954260 0.000000 
#    z 0.042470 0.000000 1.907710 
# 
# From -- ./inp_files/51009.got.cif
#   From: 2010.03.12/outbox.cif.g09.slc.cpg/sg14_26_cif.got.tgz:51009.got - 2010.03.31 13:35:05.
