data_PCOD8124035
_publ_section_title
;
Structure prediction by ZEFSAII (Michael W. Deem and Ramdas Pophale) SiO2 
 PCOD8124035
Probable space group: P 21/C
;
_chemical_formula_sum "Si O2"
_cell_formula_units_Z 28
_cell_length_a 8.421494
_cell_length_b 13.751310
_cell_length_c 14.766218
_cell_angle_alpha 90.000000
_cell_angle_beta 58.023229
_cell_angle_gamma 90.000000
_cell_volume 1450.550818
_symmetry_space_group_name_H-M "P 21/C"
_symmetry_group_IT_number 14
_symmetry_cell_setting 'monoclinic'
loop_
_space_group_symop_operation_xyz
x,y,z
-x,1/2+y,1/2-z
-x,-y,-z
x,1/2-y,1/2+z
loop_
_atom_site_type_symbol
_atom_site_label
_atom_site_fract_x
_atom_site_fract_y
_atom_site_fract_z
Si Si1 0.417255 0.968640 0.619780
Si Si2 0.672086 0.001681 0.015566
Si Si3 0.151618 0.804733 0.677754
Si Si4 0.117299 0.183098 0.082313
Si Si5 0.542137 0.769128 0.619115
Si Si6 0.330203 0.105512 0.803199
Si Si7 0.932647 0.324901 0.455007
O O1 0.212843 0.918766 0.663878
O O2 0.549968 0.886768 0.627581
O O3 0.500000 0.000000 0.500000
O O4 0.406781 0.063644 0.685932
O O5 0.746902 0.110753 0.002830
O O6 0.836914 0.931714 0.928613
O O7 0.500000 0.000000 0.000000
O O8 0.605896 0.964664 0.134275
O O9 0.331532 0.739096 0.652390
O O10 0.090932 0.773930 0.595427
O O11 0.975021 0.783497 0.796146
O O12 0.310621 0.239957 0.004179
O O13 0.966754 0.205323 0.048615
O O14 0.590015 0.714067 0.699047
O O15 0.106226 0.111563 0.865551
#
# Coordination Sequence:
#
# PCOD8124035 Si02
#       7
#     4   4   4   4   4   4   4
#     4  10  22  39  61  90 130 160 208 254 324 374
#     4  10  19  35  58  87 115 153 212 257 304 365
#     4  10  21  37  59  89 122 164 200 251 322 367
#     4  10  20  39  57  84 125 154 210 257 299 382
#     4   8  21  39  59  90 117 164 211 249 309 375
#     4  10  20  40  62  87 122 167 204 262 312 374
#     4  10  19  33  61  84 116 158 208 252 309 364
#
# _framework density 19.303011999999999
#
# number of rings (size 3 to 8) (size 9 to 14) (size 15 to 20)
#    0.857    1.714    0.000    5.143    2.000    1.143 
#    5.143    0.000    0.000    4.286    0.000    0.000 
#    0.000    0.000    0.000    0.000    0.000    0.000 
#
# Total GULP energy -346961.950387 kJ/mol
# GULP energy per Si atom -12391.498228 kJ/mol
# Density = 1.925908 g / cm^3
# Si number density = 19.303012 Si / 1000 Ang^3
#
#
#
# Elastic Constant Matrix: (Units=GPa)
#
#
# Indices 1 2 3 4 5 6 
#
# 1 77.5334 18.9736 31.5405 0.0000 11.0263 0.0000
# 2 18.9736 81.0606 34.8489 0.0000 11.5406 0.0000
# 3 31.5405 34.8489 95.6175 0.0000 7.1193 0.0000
# 4 0.0000 0.0000 0.0000 33.9100 0.0000 4.1234
# 5 11.0263 11.5406 7.1193 0.0000 29.8462 0.0000
# 6 0.0000 0.0000 0.0000 4.1234 0.0000 24.3027
#
#
#
# Elastic Compliance Matrix: (Units=1/GPa)
#
#
# Indices 1 2 3 4 5 6 
#
# 1 0.015575 -0.001146 -0.004403 0.000000 -0.004261 0.000000
# 2 -0.001146 0.015321 -0.004883 0.000000 -0.004336 0.000000
# 3 -0.004403 -0.004883 0.013671 0.000000 0.000254 0.000000
# 4 0.000000 0.000000 0.000000 0.030111 0.000000 -0.005109
# 5 -0.004261 -0.004336 0.000254 0.000000 0.036695 0.000000
# 6 0.000000 0.000000 0.000000 -0.005109 0.000000 0.042015
#
#
# Mechanical properties :
#
#
# Convention : Reuss Voigt Hill
#
# Bulk Modulus (GPa) = 42.18715 47.21527 44.70121
# Shear Modulus (GPa) = 27.44927 28.86832 28.15880
#
# Velocity S-wave (km/s) = 3.77506 3.87141 3.82354
# Velocity P-wave (km/s) = 6.39563 6.67060 6.53456
#
# Compressibility (1/GPa) = 0.02370390
#
# Stress axis : x y z
#
# Youngs Moduli (GPa) = 64.20510 65.26826 73.14539
#
# Poissons Ratio (x) = 0.07482 0.32203
# Poissons Ratio (y) = 0.07360 0.35718
# Poissons Ratio (z) = 0.28267 0.31871
#
# Static dielectric constant tensor:
#      x y z
#    x 3.425040 0.000000 -0.007220 
#    y 0.000000 3.418910 0.000000 
#    z -0.007220 0.000000 3.307100 
# 
# 
# High freq. dielectric constant tensor:
#      x y z
#    x 1.743860 0.000000 -0.001960 
#    y 0.000000 1.736420 0.000000 
#    z -0.001960 0.000000 1.739150 
# 
# From -- ./inp_files/40737.got.cif
#   From: 2010.03.12/outbox.cif.g09.slc.cpg/sg14_21_cif.got.tgz:40737.got - 2010.03.31 13:35:05.
