data_PCOD8124931
_publ_section_title
;
Structure prediction by ZEFSAII (Michael W. Deem and Ramdas Pophale) SiO2 
 PCOD8124931
Probable space group: P 21/C
;
_chemical_formula_sum "Si O2"
_cell_formula_units_Z 32
_cell_length_a 11.676751
_cell_length_b 14.184176
_cell_length_c 21.329548
_cell_angle_alpha 90.000000
_cell_angle_beta 154.495671
_cell_angle_gamma 90.000000
_cell_volume 1521.111049
_symmetry_space_group_name_H-M "P 21/C"
_symmetry_group_IT_number 14
_symmetry_cell_setting 'monoclinic'
loop_
_space_group_symop_operation_xyz
x,y,z
-x,1/2+y,1/2-z
-x,-y,-z
x,1/2-y,1/2+z
loop_
_atom_site_type_symbol
_atom_site_label
_atom_site_fract_x
_atom_site_fract_y
_atom_site_fract_z
Si Si1 0.041439 0.251685 0.664251
Si Si2 0.400108 0.482715 0.744073
Si Si3 0.825347 0.610435 0.670391
Si Si4 0.962211 0.801612 0.108498
Si Si5 0.480562 0.314718 0.167664
Si Si6 0.824937 0.501301 0.495603
Si Si7 0.553265 0.280360 0.836954
Si Si8 0.763242 0.414282 0.591829
O O1 0.042327 0.151284 0.700937
O O2 0.333275 0.267060 0.781502
O O3 0.829859 0.255451 0.503076
O O4 0.975901 0.331855 0.684193
O O5 0.525692 0.571608 0.841801
O O6 0.363665 0.521227 0.655588
O O7 0.588592 0.391503 0.839120
O O8 0.114064 0.451516 0.631608
O O9 0.947078 0.669507 0.673286
O O10 0.891587 0.498253 0.697737
O O11 0.505613 0.625873 0.510394
O O12 0.262376 0.772200 0.240251
O O13 0.870560 0.886878 0.018688
O O14 0.777074 0.714332 0.998982
O O15 0.478376 0.278331 0.238197
O O16 0.677390 0.463075 0.483804
#
# Coordination Sequence:
#
# PCOD8124931 Si02
#       8
#     4   4   4   4   4   4   4   4
#     4  12  24  42  67  98 130 171 213 274 319 384
#     4  10  20  35  61  93 127 163 207 256 329 378
#     4  10  24  42  66  96 125 173 220 262 320 383
#     4  10  22  40  64  87 128 161 219 254 318 386
#     4  11  23  41  63  95 125 172 205 269 324 385
#     4   9  17  36  64  88 118 167 212 253 306 402
#     4  12  24  42  66  97 132 166 219 267 327 388
#     4  10  20  42  67  93 123 172 218 265 316 383
#
# _framework density 21.037254000000001
#
# number of rings (size 3 to 8) (size 9 to 14) (size 15 to 20)
#    0.000    1.500    3.750    1.500    3.500    0.000 
#    2.250    3.125    0.000    0.000    0.000    0.000 
#    0.000    0.000    0.000    0.000    0.000    0.000 
#
# Total GULP energy -396825.029516 kJ/mol
# GULP energy per Si atom -12400.782172 kJ/mol
# Density = 2.098937 g / cm^3
# Si number density = 21.037254 Si / 1000 Ang^3
#
#
#
# Elastic Constant Matrix: (Units=GPa)
#
#
# Indices 1 2 3 4 5 6 
#
# 1 93.9743 16.0183 2.8591 0.0000 12.3078 0.0000
# 2 16.0183 90.0987 16.2433 0.0000 4.9135 0.0000
# 3 2.8591 16.2433 35.2985 0.0000 3.5190 0.0000
# 4 0.0000 0.0000 0.0000 28.4899 0.0000 1.6647
# 5 12.3078 4.9135 3.5190 0.0000 22.5020 0.0000
# 6 0.0000 0.0000 0.0000 1.6647 0.0000 30.4844
#
#
#
# Elastic Compliance Matrix: (Units=1/GPa)
#
#
# Indices 1 2 3 4 5 6 
#
# 1 0.011739 -0.001846 0.000506 0.000000 -0.006097 0.000000
# 2 -0.001846 0.012465 -0.005502 0.000000 -0.000852 0.000000
# 3 0.000506 -0.005502 0.031215 0.000000 -0.003957 0.000000
# 4 0.000000 0.000000 0.000000 0.035213 0.000000 -0.001923
# 5 -0.006097 -0.000852 -0.003957 0.000000 0.048580 0.000000
# 6 0.000000 0.000000 0.000000 -0.001923 0.000000 0.032909
#
#
# Mechanical properties :
#
#
# Convention : Reuss Voigt Hill
#
# Bulk Modulus (GPa) = 23.95955 32.17921 28.06938
# Shear Modulus (GPa) = 25.03559 28.57863 26.80711
#
# Velocity S-wave (km/s) = 3.45347 3.68975 3.57356
# Velocity P-wave (km/s) = 5.22645 5.78635 5.51351
#
# Compressibility (1/GPa) = 0.04173701
#
# Stress axis : x y z
#
# Youngs Moduli (GPa) = 85.18654 80.22173 32.03578
#
# Poissons Ratio (x) = 0.14808 -0.01622
# Poissons Ratio (y) = 0.15724 0.17625
# Poissons Ratio (z) = -0.04314 0.44136
#
# Static dielectric constant tensor:
#      x y z
#    x 3.904020 0.000000 0.044250 
#    y 0.000000 3.949310 0.000000 
#    z 0.044250 0.000000 3.332520 
# 
# 
# High freq. dielectric constant tensor:
#      x y z
#    x 1.837160 0.000000 0.000990 
#    y 0.000000 1.833640 0.000000 
#    z 0.000990 0.000000 1.783630 
# 
# From -- ./inp_files/67497.got.cif
#   From: 2010.03.12/outbox.cif.g09.slc.cpg/sg14_34_cif.got.tgz:67497.got - 2010.03.31 13:35:05.
