data_PCOD8124805
_publ_section_title
;
Structure prediction by ZEFSAII (Michael W. Deem and Ramdas Pophale) SiO2 
 PCOD8124805
Probable space group: P 21/C
;
_chemical_formula_sum "Si O2"
_cell_formula_units_Z 32
_cell_length_a 18.767943
_cell_length_b 12.065300
_cell_length_c 14.436211
_cell_angle_alpha 90.000000
_cell_angle_beta 149.042264
_cell_angle_gamma 90.000000
_cell_volume 1681.565354
_symmetry_space_group_name_H-M "P 21/C"
_symmetry_group_IT_number 14
_symmetry_cell_setting 'monoclinic'
loop_
_space_group_symop_operation_xyz
x,y,z
-x,1/2+y,1/2-z
-x,-y,-z
x,1/2-y,1/2+z
loop_
_atom_site_type_symbol
_atom_site_label
_atom_site_fract_x
_atom_site_fract_y
_atom_site_fract_z
Si Si1 0.946593 0.585811 0.072696
Si Si2 0.777188 0.423145 0.526445
Si Si3 0.294110 0.149516 0.983968
Si Si4 0.245201 0.745363 0.652066
Si Si5 0.333893 0.138177 0.645283
Si Si6 0.010644 0.149351 0.571338
Si Si7 0.623734 0.224063 0.002255
Si Si8 0.599053 0.394040 0.813223
O O1 0.794900 0.625832 0.930541
O O2 0.001735 0.666485 0.052779
O O3 0.935600 0.463475 0.018465
O O4 0.056318 0.590964 0.279393
O O5 0.737084 0.552879 0.474985
O O6 0.724331 0.366035 0.372810
O O7 0.707499 0.371371 0.541084
O O8 0.173099 0.148126 0.773910
O O9 0.293421 0.271648 0.024404
O O10 0.442020 0.123954 0.102104
O O11 0.078471 0.754995 0.477824
O O12 0.312453 0.742338 0.828277
O O13 0.301038 0.849012 0.655452
O O14 0.367477 0.022579 0.631660
O O15 0.469182 0.179834 0.851382
O O16 0.620821 0.333568 0.935559
#
# Coordination Sequence:
#
# PCOD8124805 Si02
#       8
#     4   4   4   4   4   4   4   4
#     4  10  20  34  56  87 115 148 192 248 284 336
#     4  10  20  39  60  80 121 151 192 241 290 343
#     4  10  22  38  57  86 117 154 190 239 292 339
#     4  11  21  38  62  86 112 160 193 237 293 342
#     4  11  21  38  59  84 120 150 191 237 291 343
#     4  10  20  35  57  87 115 147 198 242 284 336
#     4  10  22  38  60  88 113 151 197 240 280 352
#     4  10  22  38  60  85 118 153 191 237 294 340
#
# _framework density 19.029888
#
# number of rings (size 3 to 8) (size 9 to 14) (size 15 to 20)
#    0.000    1.750    3.750    0.750    1.750    0.500 
#    0.000    3.750    0.000    2.250    0.000    0.000 
#    0.000    0.000    0.000    0.000    0.000    0.000 
#
# Total GULP energy -396680.667092 kJ/mol
# GULP energy per Si atom -12396.270847 kJ/mol
# Density = 1.898658 g / cm^3
# Si number density = 19.029888 Si / 1000 Ang^3
#
#
#
# Elastic Constant Matrix: (Units=GPa)
#
#
# Indices 1 2 3 4 5 6 
#
# 1 93.0635 34.3959 53.1170 0.0000 6.0857 0.0000
# 2 34.3959 105.2069 37.2498 0.0000 -1.6210 0.0000
# 3 53.1170 37.2498 93.7580 0.0000 9.6891 0.0000
# 4 0.0000 0.0000 0.0000 24.6581 0.0000 6.8968
# 5 6.0857 -1.6210 9.6891 0.0000 35.3308 0.0000
# 6 0.0000 0.0000 0.0000 6.8968 0.0000 15.0903
#
#
#
# Elastic Compliance Matrix: (Units=1/GPa)
#
#
# Indices 1 2 3 4 5 6 
#
# 1 0.016405 -0.002453 -0.008249 0.000000 -0.000676 0.000000
# 2 -0.002453 0.011535 -0.003388 0.000000 0.001881 0.000000
# 3 -0.008249 -0.003388 0.017037 0.000000 -0.003407 0.000000
# 4 0.000000 0.000000 0.000000 0.046499 0.000000 -0.021251
# 5 -0.000676 0.001881 -0.003407 0.000000 0.029441 0.000000
# 6 0.000000 0.000000 0.000000 -0.021251 0.000000 0.075980
#
#
# Mechanical properties :
#
#
# Convention : Reuss Voigt Hill
#
# Bulk Modulus (GPa) = 59.53309 60.17263 59.85286
# Shear Modulus (GPa) = 21.67543 26.16689 23.92116
#
# Velocity S-wave (km/s) = 3.37860 3.71218 3.54931
# Velocity P-wave (km/s) = 6.82435 7.07548 6.95105
#
# Compressibility (1/GPa) = 0.01679738
#
# Stress axis : x y z
#
# Youngs Moduli (GPa) = 60.95881 86.68920 58.69472
#
# Poissons Ratio (x) = 0.21264 0.48419
# Poissons Ratio (y) = 0.14952 0.19884
# Poissons Ratio (z) = 0.50287 0.29368
#
# Static dielectric constant tensor:
#      x y z
#    x 3.390100 0.000000 0.262700 
#    y 0.000000 3.505800 0.000000 
#    z 0.262700 0.000000 3.543040 
# 
# 
# High freq. dielectric constant tensor:
#      x y z
#    x 1.728530 0.000000 0.021800 
#    y 0.000000 1.730880 0.000000 
#    z 0.021800 0.000000 1.748710 
# 
# From -- ./inp_files/49054.got.cif
#   From: 2010.03.12/outbox.cif.g09.slc.cpg/sg14_25_cif.got.tgz:49054.got - 2010.03.31 13:35:05.
