data_PCOD8124090
_publ_section_title
;
Structure prediction by ZEFSAII (Michael W. Deem and Ramdas Pophale) SiO2 
 PCOD8124090
Probable space group: P 21/C
;
_chemical_formula_sum "Si O2"
_cell_formula_units_Z 20
_cell_length_a 9.594282
_cell_length_b 9.366020
_cell_length_c 14.311108
_cell_angle_alpha 90.000000
_cell_angle_beta 135.502946
_cell_angle_gamma 90.000000
_cell_volume 901.321841
_symmetry_space_group_name_H-M "P 21/C"
_symmetry_group_IT_number 14
_symmetry_cell_setting 'monoclinic'
loop_
_space_group_symop_operation_xyz
x,y,z
-x,1/2+y,1/2-z
-x,-y,-z
x,1/2-y,1/2+z
loop_
_atom_site_type_symbol
_atom_site_label
_atom_site_fract_x
_atom_site_fract_y
_atom_site_fract_z
Si Si1 0.790793 0.812858 0.051705
Si Si2 0.856608 0.997568 0.584974
Si Si3 0.154448 0.511084 0.708820
Si Si4 0.225778 0.181118 0.746098
Si Si5 0.461268 0.374082 0.184828
O O1 0.925887 0.668563 0.125624
O O2 0.710998 0.851692 0.117176
O O3 0.605093 0.778298 0.894325
O O4 0.929792 0.938005 0.076222
O O5 0.801108 0.053585 0.662052
O O6 0.659692 0.003438 0.425088
O O7 0.030886 0.091430 0.623445
O O8 0.173011 0.344228 0.699433
O O9 0.306095 0.598732 0.716079
O O10 0.409135 0.130821 0.769478
#
# Coordination Sequence:
#
# PCOD8124090 Si02
#       5
#     4   4   4   4   4
#     4   8  20  36  56  79 115 147 176 229 276 322
#     4   8  18  36  57  77 109 148 175 223 281 320
#     4  10  19  36  59  82 111 144 188 226 264 332
#     4  10  19  34  58  82 108 142 193 222 267 329
#     4  10  20  35  58  83 113 146 182 219 286 323
#
# _framework density 22.189632
#
# number of rings (size 3 to 8) (size 9 to 14) (size 15 to 20)
#    1.200    1.600    0.000    1.200    0.000    2.400 
#    0.000    0.000    4.400    6.000    0.000    0.000 
#    0.000    0.000    0.000    0.000    0.000    0.000 
#
# Total GULP energy -247869.276172 kJ/mol
# GULP energy per Si atom -12393.463809 kJ/mol
# Density = 2.213913 g / cm^3
# Si number density = 22.189632 Si / 1000 Ang^3
#
#
#
# Elastic Constant Matrix: (Units=GPa)
#
#
# Indices 1 2 3 4 5 6 
#
# 1 134.7011 34.4144 2.6650 0.0000 -11.8372 0.0000
# 2 34.4144 52.6099 -9.6697 0.0000 2.4072 0.0000
# 3 2.6650 -9.6697 20.2208 0.0000 -7.6764 0.0000
# 4 0.0000 0.0000 0.0000 17.2323 0.0000 1.0531
# 5 -11.8372 2.4072 -7.6764 0.0000 14.7093 0.0000
# 6 0.0000 0.0000 0.0000 1.0531 0.0000 28.0698
#
#
#
# Elastic Compliance Matrix: (Units=1/GPa)
#
#
# Indices 1 2 3 4 5 6 
#
# 1 0.010050 -0.007252 -0.001586 0.000000 0.008447 0.000000
# 2 -0.007252 0.026132 0.011988 0.000000 -0.003857 0.000000
# 3 -0.001586 0.011988 0.067549 0.000000 0.032014 0.000000
# 4 0.000000 0.000000 0.000000 0.058164 0.000000 -0.002182
# 5 0.008447 -0.003857 0.032014 0.000000 0.092120 0.000000
# 6 0.000000 0.000000 0.000000 -0.002182 0.000000 0.035707
#
#
# Mechanical properties :
#
#
# Convention : Reuss Voigt Hill
#
# Bulk Modulus (GPa) = 9.08833 29.15013 19.11923
# Shear Modulus (GPa) = 15.62008 24.01042 19.81525
#
# Velocity S-wave (km/s) = 2.65606 3.29303 2.99155
# Velocity P-wave (km/s) = 3.67571 5.25586 4.53514
#
# Compressibility (1/GPa) = 0.11003126
#
# Stress axis : x y z
#
# Youngs Moduli (GPa) = 99.49804 38.26741 14.80401
#
# Poissons Ratio (x) = 0.27753 0.02348
# Poissons Ratio (y) = 0.72160 -0.17747
# Poissons Ratio (z) = 0.15780 -0.45876
#
# Static dielectric constant tensor:
#      x y z
#    x 3.895670 0.000000 -0.236100 
#    y 0.000000 3.798780 0.000000 
#    z -0.236100 0.000000 3.492240 
# 
# 
# High freq. dielectric constant tensor:
#      x y z
#    x 1.876730 0.000000 -0.021940 
#    y 0.000000 1.856730 0.000000 
#    z -0.021940 0.000000 1.837970 
# 
# From -- ./inp_files/39416.got.cif
#   From: 2010.03.12/outbox.cif.g09.slc.cpg/sg14_20_cif.got.tgz:39416.got - 2010.03.31 13:35:05.
