data_PCOD8124429
_publ_section_title
;
Structure prediction by ZEFSAII (Michael W. Deem and Ramdas Pophale) SiO2 
 PCOD8124429
Probable space group: P 21/C
;
_chemical_formula_sum "Si O2"
_cell_formula_units_Z 28
_cell_length_a 6.286338
_cell_length_b 14.175942
_cell_length_c 16.566887
_cell_angle_alpha 90.000000
_cell_angle_beta 67.784382
_cell_angle_gamma 90.000000
_cell_volume 1366.760826
_symmetry_space_group_name_H-M "P 21/C"
_symmetry_group_IT_number 14
_symmetry_cell_setting 'monoclinic'
loop_
_space_group_symop_operation_xyz
x,y,z
-x,1/2+y,1/2-z
-x,-y,-z
x,1/2-y,1/2+z
loop_
_atom_site_type_symbol
_atom_site_label
_atom_site_fract_x
_atom_site_fract_y
_atom_site_fract_z
Si Si1 0.744955 0.954498 0.950488
Si Si2 0.768844 0.295193 0.959096
Si Si3 0.699997 0.015559 0.407016
Si Si4 0.437257 0.380168 0.214105
Si Si5 0.311403 0.235819 0.104066
Si Si6 0.930755 0.128073 0.601865
Si Si7 0.913011 0.882583 0.096136
O O1 0.727076 0.876636 0.881811
O O2 0.838425 0.898819 0.015189
O O3 0.920805 0.034367 0.897287
O O4 0.500000 0.000000 0.000000
O O5 0.745402 0.371799 0.889628
O O6 0.956672 0.216540 0.911629
O O7 0.520844 0.249195 0.010853
O O8 0.841821 0.359493 0.024130
O O9 0.500000 0.000000 0.500000
O O10 0.633719 0.969230 0.331148
O O11 0.927838 0.967515 0.409704
O O12 0.370828 0.281021 0.181528
O O13 0.709333 0.380322 0.192302
O O14 0.313825 0.385072 0.317402
O O15 0.079556 0.281274 0.103643
#
# Coordination Sequence:
#
# PCOD8124429 Si02
#       7
#     4   4   4   4   4   4   4
#     4  11  23  42  70  85 123 170 217 247 306 376
#     4  11  20  36  64  90 118 157 215 244 312 373
#     4  11  20  35  64  94 121 162 204 253 313 379
#     4  10  24  39  59  95 134 154 206 260 316 362
#     4  10  20  39  66  91 117 167 205 258 305 369
#     4  10  19  37  61  88 124 157 198 256 310 365
#     4  11  25  41  61  96 122 166 212 258 304 373
#
# _framework density 20.486395000000002
#
# number of rings (size 3 to 8) (size 9 to 14) (size 15 to 20)
#    0.000    1.429    7.143    0.429    0.000    3.429 
#    0.000    1.429    0.000    0.000    0.000    0.000 
#    0.000    0.000    0.000    0.000    0.000    0.000 
#
# Total GULP energy -347199.359211 kJ/mol
# GULP energy per Si atom -12399.977115 kJ/mol
# Density = 2.043977 g / cm^3
# Si number density = 20.486395 Si / 1000 Ang^3
#
#
#
# Elastic Constant Matrix: (Units=GPa)
#
#
# Indices 1 2 3 4 5 6 
#
# 1 99.0399 29.6185 20.1182 0.0000 -34.3079 0.0000
# 2 29.6185 131.1509 21.1963 0.0000 -16.3826 0.0000
# 3 20.1182 21.1963 84.7800 0.0000 -29.7751 0.0000
# 4 0.0000 0.0000 0.0000 20.7327 0.0000 -5.6113
# 5 -34.3079 -16.3826 -29.7751 0.0000 32.3920 0.0000
# 6 0.0000 0.0000 0.0000 -5.6113 0.0000 30.2609
#
#
#
# Elastic Compliance Matrix: (Units=1/GPa)
#
#
# Indices 1 2 3 4 5 6 
#
# 1 0.016965 -0.001872 0.003574 0.000000 0.020307 0.000000
# 2 -0.001872 0.008389 -0.001269 0.000000 0.001093 0.000000
# 3 0.003574 -0.001269 0.018265 0.000000 0.019933 0.000000
# 4 0.000000 0.000000 0.000000 0.050782 0.000000 0.009416
# 5 0.020307 0.001093 0.019933 0.000000 0.071256 0.000000
# 6 0.000000 0.000000 0.000000 0.009416 0.000000 0.034792
#
#
# Mechanical properties :
#
#
# Convention : Reuss Voigt Hill
#
# Bulk Modulus (GPa) = 22.47940 50.75966 36.61953
# Shear Modulus (GPa) = 23.31953 32.94630 28.13292
#
# Velocity S-wave (km/s) = 3.37752 4.01459 3.70976
# Velocity P-wave (km/s) = 5.11926 6.80590 6.02193
#
# Compressibility (1/GPa) = 0.04448518
#
# Stress axis : x y z
#
# Youngs Moduli (GPa) = 58.94331 119.19896 54.74957
#
# Poissons Ratio (x) = 0.22319 -0.19569
# Poissons Ratio (y) = 0.11036 0.06949
# Poissons Ratio (z) = -0.21068 0.15129
#
# Static dielectric constant tensor:
#      x y z
#    x 3.941420 0.000000 -0.242310 
#    y 0.000000 3.971390 0.000000 
#    z -0.242310 0.000000 3.358660 
# 
# 
# High freq. dielectric constant tensor:
#      x y z
#    x 1.814200 0.000000 -0.022310 
#    y 0.000000 1.812330 0.000000 
#    z -0.022310 0.000000 1.765560 
# 
# From -- ./inp_files/53408.got.cif
#   From: 2010.03.12/outbox.cif.g09.slc.cpg/sg14_27_cif.got.tgz:53408.got - 2010.03.31 13:35:05.
