data_PCOD8124886
_publ_section_title
;
Structure prediction by ZEFSAII (Michael W. Deem and Ramdas Pophale) SiO2 
 PCOD8124886
Probable space group: P 21/C
;
_chemical_formula_sum "Si O2"
_cell_formula_units_Z 32
_cell_length_a 16.222374
_cell_length_b 9.294763
_cell_length_c 13.334104
_cell_angle_alpha 90.000000
_cell_angle_beta 126.592920
_cell_angle_gamma 90.000000
_cell_volume 1614.259073
_symmetry_space_group_name_H-M "P 21/C"
_symmetry_group_IT_number 14
_symmetry_cell_setting 'monoclinic'
loop_
_space_group_symop_operation_xyz
x,y,z
-x,1/2+y,1/2-z
-x,-y,-z
x,1/2-y,1/2+z
loop_
_atom_site_type_symbol
_atom_site_label
_atom_site_fract_x
_atom_site_fract_y
_atom_site_fract_z
Si Si1 0.155055 0.844985 0.105526
Si Si2 0.285489 0.792021 0.030966
Si Si3 0.469096 0.615087 0.102198
Si Si4 0.097728 0.810519 0.270173
Si Si5 0.603728 0.821452 0.520339
Si Si6 0.780754 0.852723 0.797045
Si Si7 0.024258 0.122697 0.170450
Si Si8 0.345982 0.107905 0.116640
O O1 0.234311 0.746233 0.100703
O O2 0.098967 0.758197 0.154377
O O3 0.219275 0.973278 0.203404
O O4 0.073650 0.915265 0.968908
O O5 0.399532 0.730523 0.108661
O O6 0.294831 0.965526 0.031743
O O7 0.211232 0.728029 0.892207
O O8 0.505949 0.687981 0.024257
O O9 0.564853 0.566945 0.239666
O O10 0.397780 0.477415 0.031678
O O11 0.007577 0.729664 0.263683
O O12 0.072448 0.980629 0.256074
O O13 0.706078 0.795116 0.657282
O O14 0.602978 0.701831 0.433473
O O15 0.893695 0.798939 0.844684
O O16 0.741548 0.806077 0.880791
#
# Coordination Sequence:
#
# PCOD8124886 Si02
#       8
#     4   4   4   4   4   4   4   4
#     4   9  19  37  57  79 107 148 185 219 274 334
#     4  10  21  37  57  81 110 145 184 227 276 323
#     4  10  20  37  57  79 109 146 184 225 275 330
#     4  10  20  36  57  83 111 146 184 225 275 330
#     4  10  21  35  55  82 108 143 186 224 271 330
#     4   9  18  33  54  77 106 142 179 220 268 326
#     4  10  20  35  58  82 108 144 186 225 274 329
#     4  10  21  36  55  80 109 142 184 229 272 322
#
# _framework density 19.823338
#
# number of rings (size 3 to 8) (size 9 to 14) (size 15 to 20)
#    0.000    2.250    0.000    3.750    0.000    7.500 
#    0.000    6.250    0.000    1.500    0.000    0.000 
#    0.000    0.000    0.000    0.000    0.000    0.000 
#
# Total GULP energy -396518.348701 kJ/mol
# GULP energy per Si atom -12391.198397 kJ/mol
# Density = 1.977822 g / cm^3
# Si number density = 19.823338 Si / 1000 Ang^3
#
#
#
# Elastic Constant Matrix: (Units=GPa)
#
#
# Indices 1 2 3 4 5 6 
#
# 1 130.8330 35.7875 33.4375 0.0000 -2.0880 0.0000
# 2 35.7875 42.2508 23.9269 0.0000 -1.6426 0.0000
# 3 33.4375 23.9269 66.0534 0.0000 -10.0741 0.0000
# 4 0.0000 0.0000 0.0000 28.5697 0.0000 1.9209
# 5 -2.0880 -1.6426 -10.0741 0.0000 27.6879 0.0000
# 6 0.0000 0.0000 0.0000 1.9209 0.0000 34.2230
#
#
#
# Elastic Compliance Matrix: (Units=1/GPa)
#
#
# Indices 1 2 3 4 5 6 
#
# 1 0.010297 -0.007221 -0.002693 0.000000 -0.000632 0.000000
# 2 -0.007221 0.034978 -0.009297 0.000000 -0.001852 0.000000
# 3 -0.002693 -0.009297 0.020916 0.000000 0.006855 0.000000
# 4 0.000000 0.000000 0.000000 0.035135 0.000000 -0.001972
# 5 -0.000632 -0.001852 0.006855 0.000000 0.038454 0.000000
# 6 0.000000 0.000000 0.000000 -0.001972 0.000000 0.029331
#
#
# Mechanical properties :
#
#
# Convention : Reuss Voigt Hill
#
# Bulk Modulus (GPa) = 36.01310 47.27120 41.64215
# Shear Modulus (GPa) = 23.06401 27.82847 25.44624
#
# Velocity S-wave (km/s) = 3.41468 3.75083 3.58669
# Velocity P-wave (km/s) = 5.80975 6.53118 6.18100
#
# Compressibility (1/GPa) = 0.02776767
#
# Stress axis : x y z
#
# Youngs Moduli (GPa) = 97.11817 28.58967 47.81061
#
# Poissons Ratio (x) = 0.20645 0.12876
# Poissons Ratio (y) = 0.70130 0.44450
# Poissons Ratio (z) = 0.26154 0.26580
#
# Static dielectric constant tensor:
#      x y z
#    x 4.157000 0.000000 -0.141630 
#    y 0.000000 3.129100 0.000000 
#    z -0.141630 0.000000 3.512980 
# 
# 
# High freq. dielectric constant tensor:
#      x y z
#    x 1.803580 0.000000 -0.002080 
#    y 0.000000 1.725110 0.000000 
#    z -0.002080 0.000000 1.771180 
# 
# From -- ./inp_files/48430.got.cif
#   From: 2010.03.12/outbox.cif.g09.slc.cpg/sg14_25_cif.got.tgz:48430.got - 2010.03.31 13:35:05.
