data_PCOD8124246
_publ_section_title
;
Structure prediction by ZEFSAII (Michael W. Deem and Ramdas Pophale) SiO2 
 PCOD8124246
Probable space group: P 21/C
;
_chemical_formula_sum "Si O2"
_cell_formula_units_Z 32
_cell_length_a 15.480465
_cell_length_b 12.143632
_cell_length_c 14.002830
_cell_angle_alpha 90.000000
_cell_angle_beta 141.650515
_cell_angle_gamma 90.000000
_cell_volume 1633.276901
_symmetry_space_group_name_H-M "P 21/C"
_symmetry_group_IT_number 14
_symmetry_cell_setting 'monoclinic'
loop_
_space_group_symop_operation_xyz
x,y,z
-x,1/2+y,1/2-z
-x,-y,-z
x,1/2-y,1/2+z
loop_
_atom_site_type_symbol
_atom_site_label
_atom_site_fract_x
_atom_site_fract_y
_atom_site_fract_z
Si Si1 0.669267 0.730981 0.045014
Si Si2 0.636212 0.681199 0.220337
Si Si3 0.576913 0.939297 0.848207
Si Si4 0.328839 0.096715 0.638675
Si Si5 0.125734 0.530007 0.390225
Si Si6 0.933542 0.898505 0.994078
Si Si7 0.956783 0.479284 0.069933
Si Si8 0.006689 0.264568 0.618736
O O1 0.580986 0.696450 0.063787
O O2 0.832743 0.743923 0.209382
O O3 0.610226 0.846145 0.955269
O O4 0.645983 0.635254 0.947835
O O5 0.537773 0.618117 0.211570
O O6 0.673315 0.801720 0.291223
O O7 0.770803 0.604213 0.329527
O O8 0.446643 0.009859 0.770825
O O9 0.708049 0.021994 0.954957
O O10 0.180757 0.040695 0.518340
O O11 0.053125 0.422504 0.380647
O O12 0.083118 0.525340 0.243353
O O13 0.075608 0.644546 0.392132
O O14 0.001847 0.790671 0.004031
O O15 0.000000 0.000000 0.000000
O O16 0.930585 0.350635 0.066904
O O17 0.000000 0.500000 0.000000
#
# Coordination Sequence:
#
# PCOD8124246 Si02
#       8
#     4   4   4   4   4   4   4   4
#     4  10  19  39  63  84 118 169 199 245 311 363
#     4   9  20  38  62  85 120 164 205 238 306 369
#     4  10  22  39  62  89 122 162 203 247 305 372
#     4  11  24  39  61  89 126 157 201 255 309 365
#     4  10  20  38  63  87 119 160 203 249 305 360
#     4   8  16  32  59  90 112 150 202 247 289 356
#     4  12  24  38  60  92 121 155 204 257 300 361
#     4  10  19  35  63  89 119 156 209 249 302 361
#
# _framework density 19.592514000000001
#
# number of rings (size 3 to 8) (size 9 to 14) (size 15 to 20)
#    0.000    2.000    2.500    1.500    0.000    4.000 
#    0.000    0.000    2.750    0.000    0.000    0.000 
#    0.000    0.000    0.000    0.000    0.000    0.000 
#
# Total GULP energy -396478.625478 kJ/mol
# GULP energy per Si atom -12389.957046 kJ/mol
# Density = 1.954792 g / cm^3
# Si number density = 19.592514 Si / 1000 Ang^3
#
#
#
# Elastic Constant Matrix: (Units=GPa)
#
#
# Indices 1 2 3 4 5 6 
#
# 1 68.7957 19.1174 39.4769 0.0000 -26.1054 0.0000
# 2 19.1174 91.1411 36.1581 0.0000 -1.4016 0.0000
# 3 39.4769 36.1581 68.8378 0.0000 -15.3930 0.0000
# 4 0.0000 0.0000 0.0000 26.3607 0.0000 1.5609
# 5 -26.1054 -1.4016 -15.3930 0.0000 34.7191 0.0000
# 6 0.0000 0.0000 0.0000 1.5609 0.0000 16.7127
#
#
#
# Elastic Compliance Matrix: (Units=1/GPa)
#
#
# Indices 1 2 3 4 5 6 
#
# 1 0.027359 -0.000802 -0.011850 0.000000 0.015285 0.000000
# 2 -0.000802 0.014164 -0.007756 0.000000 -0.003470 0.000000
# 3 -0.011850 -0.007756 0.025902 0.000000 0.002260 0.000000
# 4 0.000000 0.000000 0.000000 0.038146 0.000000 -0.003563
# 5 0.015285 -0.003470 0.002260 0.000000 0.041157 0.000000
# 6 0.000000 0.000000 0.000000 -0.003563 0.000000 0.060167
#
#
# Mechanical properties :
#
#
# Convention : Reuss Voigt Hill
#
# Bulk Modulus (GPa) = 37.58242 46.47550 42.02896
# Shear Modulus (GPa) = 19.48699 24.49333 21.99016
#
# Velocity S-wave (km/s) = 3.15717 3.53956 3.35382
# Velocity P-wave (km/s) = 5.70210 6.36217 6.04116
#
# Compressibility (1/GPa) = 0.02660818
#
# Stress axis : x y z
#
# Youngs Moduli (GPa) = 36.55121 70.60279 38.60702
#
# Poissons Ratio (x) = 0.05664 0.45751
# Poissons Ratio (y) = 0.02932 0.29942
# Poissons Ratio (z) = 0.43315 0.54756
#
# Static dielectric constant tensor:
#      x y z
#    x 4.074300 0.000000 -0.390570 
#    y 0.000000 0.726470 0.000000 
#    z -0.390570 0.000000 3.438080 
# 
# 
# High freq. dielectric constant tensor:
#      x y z
#    x 1.771280 0.000000 -0.020760 
#    y 0.000000 1.770630 0.000000 
#    z -0.020760 0.000000 1.733850 
# 
# From -- ./inp_files/47176.got.cif
#   From: 2010.03.12/outbox.cif.g09.slc.cpg/sg14_24_cif.got.tgz:47176.got - 2010.03.31 13:35:05.
