data_PCOD8124458
_publ_section_title
;
Structure prediction by ZEFSAII (Michael W. Deem and Ramdas Pophale) SiO2 
 PCOD8124458
Probable space group: P 21/C
;
_chemical_formula_sum "Si O2"
_cell_formula_units_Z 28
_cell_length_a 6.321452
_cell_length_b 15.763599
_cell_length_c 15.444901
_cell_angle_alpha 90.000000
_cell_angle_beta 112.674329
_cell_angle_gamma 90.000000
_cell_volume 1420.113326
_symmetry_space_group_name_H-M "P 21/C"
_symmetry_group_IT_number 14
_symmetry_cell_setting 'monoclinic'
loop_
_space_group_symop_operation_xyz
x,y,z
-x,1/2+y,1/2-z
-x,-y,-z
x,1/2-y,1/2+z
loop_
_atom_site_type_symbol
_atom_site_label
_atom_site_fract_x
_atom_site_fract_y
_atom_site_fract_z
Si Si1 0.993282 0.789570 0.378493
Si Si2 0.881737 0.913028 0.512694
Si Si3 0.381509 0.608506 0.876289
Si Si4 0.999001 0.469235 0.797699
Si Si5 0.646884 0.030257 0.943685
Si Si6 0.067477 0.406169 0.614526
Si Si7 0.370323 0.102856 0.758248
O O1 0.257910 0.804289 0.390565
O O2 0.912588 0.694135 0.379179
O O3 0.959257 0.836279 0.464432
O O4 0.826941 0.825834 0.276474
O O5 0.604598 0.916335 0.467179
O O6 0.967313 0.894809 0.625135
O O7 0.000000 0.000000 0.500000
O O8 0.197374 0.534454 0.855661
O O9 0.444743 0.621080 0.786445
O O10 0.015481 0.438514 0.702429
O O11 0.750777 0.511266 0.773374
O O12 0.502696 0.102410 0.870305
O O13 0.872285 0.073730 0.014845
O O14 0.704740 0.952268 0.886884
O O15 0.500000 0.000000 0.000000
#
# Coordination Sequence:
#
# PCOD8124458 Si02
#       7
#     4   4   4   4   4   4   4
#     4  10  24  41  59  96 135 155 213 275 322 372
#     4  11  20  36  63  94 124 163 209 263 323 393
#     4  10  19  37  65  86 122 161 202 261 322 372
#     4  11  20  37  63  90 119 162 215 255 321 387
#     4  11  23  43  70  85 123 176 223 254 319 392
#     4  11  25  43  61  95 127 169 216 270 313 388
#     4  10  20  40  64  93 117 166 211 265 313 384
#
# _framework density 19.716735
#
# number of rings (size 3 to 8) (size 9 to 14) (size 15 to 20)
#    0.000    1.429    7.143    0.429    0.000    2.286 
#    7.714    0.000    0.000    0.000    0.000    0.000 
#    0.000    0.000    0.000    0.000    0.000    0.000 
#
# Total GULP energy -347036.864109 kJ/mol
# GULP energy per Si atom -12394.173718 kJ/mol
# Density = 1.967186 g / cm^3
# Si number density = 19.716735 Si / 1000 Ang^3
#
#
#
# Elastic Constant Matrix: (Units=GPa)
#
#
# Indices 1 2 3 4 5 6 
#
# 1 109.7496 31.1399 37.2888 0.0000 -3.6637 0.0000
# 2 31.1399 101.9806 38.1576 0.0000 -4.7245 0.0000
# 3 37.2888 38.1576 135.8828 0.0000 0.0689 0.0000
# 4 0.0000 0.0000 0.0000 19.2416 0.0000 -2.3231
# 5 -3.6637 -4.7245 0.0689 0.0000 33.9098 0.0000
# 6 0.0000 0.0000 0.0000 -2.3231 0.0000 16.6951
#
#
#
# Elastic Compliance Matrix: (Units=1/GPa)
#
#
# Indices 1 2 3 4 5 6 
#
# 1 0.010567 -0.002351 -0.002240 0.000000 0.000819 0.000000
# 2 -0.002351 0.011560 -0.002602 0.000000 0.001362 0.000000
# 3 -0.002240 -0.002602 0.008705 0.000000 -0.000622 0.000000
# 4 0.000000 0.000000 0.000000 0.052859 0.000000 0.007355
# 5 0.000819 0.001362 -0.000622 0.000000 0.029769 0.000000
# 6 0.000000 0.000000 0.000000 0.007355 0.000000 0.060921
#
#
# Mechanical properties :
#
#
# Convention : Reuss Voigt Hill
#
# Bulk Modulus (GPa) = 60.80133 62.30952 61.55542
# Shear Modulus (GPa) = 25.74013 30.03775 27.88894
#
# Velocity S-wave (km/s) = 3.61709 3.90739 3.76504
# Velocity P-wave (km/s) = 6.95333 7.21304 7.08437
#
# Compressibility (1/GPa) = 0.01644701
#
# Stress axis : x y z
#
# Youngs Moduli (GPa) = 94.63394 86.50394 114.87679
#
# Poissons Ratio (x) = 0.20333 0.25734
# Poissons Ratio (y) = 0.22244 0.29890
# Poissons Ratio (z) = 0.21199 0.22507
#
# Static dielectric constant tensor:
#      x y z
#    x 5.410260 0.000000 1.626970 
#    y 0.000000 3.342850 0.000000 
#    z 1.626970 0.000000 5.756940 
# 
# 
# High freq. dielectric constant tensor:
#      x y z
#    x 1.783700 0.000000 -0.000350 
#    y 0.000000 1.730500 0.000000 
#    z -0.000350 0.000000 1.781140 
# 
# From -- ./inp_files/37732.got.cif
#   From: 2010.03.12/outbox.cif.g09.slc.cpg/sg14_19_cif.got.tgz:37732.got - 2010.03.31 13:35:05.
