data_PCOD8124013
_publ_section_title
;
Structure prediction by ZEFSAII (Michael W. Deem and Ramdas Pophale) SiO2 
 PCOD8124013
Probable space group: P 21/C
;
_chemical_formula_sum "Si O2"
_cell_formula_units_Z 32
_cell_length_a 19.738489
_cell_length_b 13.621832
_cell_length_c 22.855824
_cell_angle_alpha 90.000000
_cell_angle_beta 16.057660
_cell_angle_gamma 90.000000
_cell_volume 1699.830771
_symmetry_space_group_name_H-M "P 21/C"
_symmetry_group_IT_number 14
_symmetry_cell_setting 'monoclinic'
loop_
_space_group_symop_operation_xyz
x,y,z
-x,1/2+y,1/2-z
-x,-y,-z
x,1/2-y,1/2+z
loop_
_atom_site_type_symbol
_atom_site_label
_atom_site_fract_x
_atom_site_fract_y
_atom_site_fract_z
Si Si1 0.709202 0.327182 0.207046
Si Si2 0.405754 0.031906 0.811577
Si Si3 0.530516 0.766495 0.288068
Si Si4 0.890446 0.320321 0.298763
Si Si5 0.999147 0.156899 0.581940
Si Si6 0.925830 0.054824 0.435100
Si Si7 0.721876 0.967854 0.956822
Si Si8 0.544476 0.670443 0.153482
O O1 0.537013 0.423040 0.348129
O O2 0.563232 0.227942 0.312857
O O3 0.824291 0.310933 0.174747
O O4 0.920595 0.352013 0.983492
O O5 0.377610 0.120483 0.788826
O O6 0.664938 0.023855 0.627711
O O7 0.388629 0.930173 0.789728
O O8 0.220274 0.046646 0.021231
O O9 0.262897 0.763482 0.540593
O O10 0.492435 0.737778 0.252459
O O11 0.724843 0.695854 0.159566
O O12 0.723371 0.416731 0.443341
O O13 0.911332 0.288215 0.213849
O O14 0.162261 0.341940 0.099254
O O15 0.977208 0.040120 0.609861
O O16 0.081901 0.084646 0.248439
#
# Coordination Sequence:
#
# PCOD8124013 Si02
#       8
#     4   4   4   4   4   4   4   4
#     4  11  23  35  57  84 124 149 186 231 292 346
#     4  11  20  35  56  88 110 141 192 248 276 326
#     4  11  20  37  60  77 113 151 190 231 288 332
#     4  10  21  35  60  82 113 150 191 231 285 343
#     4  10  22  39  52  86 120 153 185 231 283 354
#     4  10  19  33  57  86 114 145 182 235 290 338
#     4  10  19  33  57  86 112 143 186 234 293 334
#     4  11  21  36  55  88 113 147 192 241 277 333
#
# _framework density 18.825403000000001
#
# number of rings (size 3 to 8) (size 9 to 14) (size 15 to 20)
#    0.000    1.500    7.500    1.125    1.750    3.000 
#    0.000    0.625    0.000    0.750    0.000    0.000 
#    0.000    0.000    0.000    0.000    0.000    0.000 
#
# Total GULP energy -396578.844046 kJ/mol
# GULP energy per Si atom -12393.088876 kJ/mol
# Density = 1.878256 g / cm^3
# Si number density = 18.825403 Si / 1000 Ang^3
#
#
#
# Elastic Constant Matrix: (Units=GPa)
#
#
# Indices 1 2 3 4 5 6 
#
# 1 69.9098 32.0089 35.4897 0.0000 -2.2735 0.0000
# 2 32.0089 81.7145 37.9175 0.0000 4.5015 0.0000
# 3 35.4897 37.9175 85.5056 0.0000 23.8782 0.0000
# 4 0.0000 0.0000 0.0000 16.6104 0.0000 -3.6717
# 5 -2.2735 4.5015 23.8782 0.0000 24.0973 0.0000
# 6 0.0000 0.0000 0.0000 -3.6717 0.0000 24.3983
#
#
#
# Elastic Compliance Matrix: (Units=1/GPa)
#
#
# Indices 1 2 3 4 5 6 
#
# 1 0.022542 -0.004315 -0.011423 0.000000 0.014252 0.000000
# 2 -0.004315 0.016756 -0.006432 0.000000 0.002836 0.000000
# 3 -0.011423 -0.006432 0.026620 0.000000 -0.026254 0.000000
# 4 0.000000 0.000000 0.000000 0.062275 0.000000 0.009372
# 5 0.014252 0.002836 -0.026254 0.000000 0.068329 0.000000
# 6 0.000000 0.000000 0.000000 0.009372 0.000000 0.042397
#
#
# Mechanical properties :
#
#
# Convention : Reuss Voigt Hill
#
# Bulk Modulus (GPa) = 46.33925 49.77358 48.05641
# Shear Modulus (GPa) = 17.21470 21.80212 19.50841
#
# Velocity S-wave (km/s) = 3.02725 3.40681 3.22262
# Velocity P-wave (km/s) = 6.07353 6.47859 6.27932
#
# Compressibility (1/GPa) = 0.02157998
#
# Stress axis : x y z
#
# Youngs Moduli (GPa) = 44.36192 59.67991 37.56580
#
# Poissons Ratio (x) = 0.25750 0.42910
# Poissons Ratio (y) = 0.19141 0.24161
# Poissons Ratio (z) = 0.50673 0.38384
#
# Static dielectric constant tensor:
#      x y z
#    x 3.280850 0.000000 0.461890 
#    y 0.000000 3.424570 0.000000 
#    z 0.461890 0.000000 3.822920 
# 
# 
# High freq. dielectric constant tensor:
#      x y z
#    x 1.696200 0.000000 0.025820 
#    y 0.000000 1.721940 0.000000 
#    z 0.025820 0.000000 1.733100 
# 
# From -- ./inp_files/69417.got.cif
#   From: 2010.03.12/outbox.cif.g09.slc.cpg/sg14_35_cif.got.tgz:69417.got - 2010.03.31 13:35:05.
