data_PCOD8124044
_publ_section_title
;
Structure prediction by ZEFSAII (Michael W. Deem and Ramdas Pophale) SiO2 
 PCOD8124044
Probable space group: P 21/C
;
_chemical_formula_sum "Si O2"
_cell_formula_units_Z 32
_cell_length_a 12.935240
_cell_length_b 19.779432
_cell_length_c 8.411937
_cell_angle_alpha 90.000000
_cell_angle_beta 128.655416
_cell_angle_gamma 90.000000
_cell_volume 1680.695458
_symmetry_space_group_name_H-M "P 21/C"
_symmetry_group_IT_number 14
_symmetry_cell_setting 'monoclinic'
loop_
_space_group_symop_operation_xyz
x,y,z
-x,1/2+y,1/2-z
-x,-y,-z
x,1/2-y,1/2+z
loop_
_atom_site_type_symbol
_atom_site_label
_atom_site_fract_x
_atom_site_fract_y
_atom_site_fract_z
Si Si1 0.857507 0.163463 0.608679
Si Si2 0.143901 0.193030 0.364206
Si Si3 0.862550 0.191007 0.241573
Si Si4 0.644892 0.059713 0.357361
Si Si5 0.647007 0.590135 0.800082
Si Si6 0.139815 0.336370 0.493255
Si Si7 0.653189 0.936476 0.934955
Si Si8 0.651395 0.413781 0.492686
O O1 0.856648 0.179380 0.422413
O O2 0.824506 0.231553 0.672510
O O3 0.748194 0.107260 0.550117
O O4 0.000433 0.134573 0.795869
O O5 0.260969 0.147143 0.540287
O O6 0.181542 0.270798 0.431820
O O7 0.008238 0.172722 0.320483
O O8 0.123519 0.184958 0.158626
O O9 0.757997 0.143202 0.048606
O O10 0.496020 0.076851 0.270154
O O11 0.654811 0.073030 0.181707
O O12 0.679554 0.980953 0.418354
O O13 0.670493 0.584943 0.634400
O O14 0.495835 0.610644 0.694944
O O15 0.249969 0.393674 0.582607
O O16 0.687241 0.015544 0.941534
#
# Coordination Sequence:
#
# PCOD8124044 Si02
#       8
#     4   4   4   4   4   4   4   4
#     4  10  19  34  53  76 102 134 171 211 254 302
#     4  11  22  36  52  75 103 136 172 212 256 303
#     4  10  19  34  53  76 102 134 171 211 254 302
#     4   8  17  33  56  79 103 135 172 207 251 305
#     4   9  17  35  57  78 103 135 171 210 250 302
#     4  11  22  36  52  75 103 136 172 212 256 303
#     4   9  17  35  57  78 103 135 171 210 250 302
#     4   8  17  33  56  79 103 135 172 207 251 305
#
# _framework density 19.039738
#
# number of rings (size 3 to 8) (size 9 to 14) (size 15 to 20)
#    0.000    2.500    0.000    6.000    0.000    2.000 
#    0.000   15.000    0.000    0.000    0.000    0.000 
#    0.000    0.000    0.000    0.000    0.000    0.000 
#
# Total GULP energy -396774.528308 kJ/mol
# GULP energy per Si atom -12399.204010 kJ/mol
# Density = 1.899640 g / cm^3
# Si number density = 19.039738 Si / 1000 Ang^3
#
#
#
# Elastic Constant Matrix: (Units=GPa)
#
#
# Indices 1 2 3 4 5 6 
#
# 1 38.8550 16.9472 14.6463 0.0000 20.1639 0.0000
# 2 16.9472 60.5951 30.9700 0.0000 38.5091 0.0000
# 3 14.6463 30.9700 80.4314 0.0000 23.2846 0.0000
# 4 0.0000 0.0000 0.0000 27.9561 0.0000 28.2016
# 5 20.1639 38.5091 23.2846 0.0000 38.5132 0.0000
# 6 0.0000 0.0000 0.0000 28.2016 0.0000 -6.4323
#
#
#
# Elastic Compliance Matrix: (Units=1/GPa)
#
#
# Indices 1 2 3 4 5 6 
#
# 1 0.036193 0.005974 -0.002031 0.000000 -0.023694 0.000000
# 2 0.005974 0.048157 -0.005801 0.000000 -0.047773 0.000000
# 3 -0.002031 -0.005801 0.015818 0.000000 -0.002700 0.000000
# 4 0.000000 0.000000 0.000000 0.006596 0.000000 0.028920
# 5 -0.023694 -0.047773 -0.002700 0.000000 0.087771 0.000000
# 6 0.000000 0.000000 0.000000 0.028920 0.000000 -0.028669
#
#
# Mechanical properties :
#
#
# Convention : Reuss Voigt Hill
#
# Bulk Modulus (GPa) = 10.36782 33.88984 22.12883
# Shear Modulus (GPa) = 24.78508 19.82860 22.30684
#
# Velocity S-wave (km/s) = 3.61190 3.23062 3.42657
# Velocity P-wave (km/s) = 4.78033 5.63508 5.22521
#
# Compressibility (1/GPa) = 0.09645227
#
# Stress axis : x y z
#
# Youngs Moduli (GPa) = 27.62957 20.76521 63.21923
#
# Poissons Ratio (x) = -0.12405 0.12843
# Poissons Ratio (y) = -0.16506 0.36671
# Poissons Ratio (z) = 0.05613 0.12045
#
# Static dielectric constant tensor:
#      x y z
#    x 3.399310 0.000000 0.259860 
#    y 0.000000 3.743280 0.000000 
#    z 0.259860 0.000000 3.590990 
# 
# 
# High freq. dielectric constant tensor:
#      x y z
#    x 1.729510 0.000000 0.011740 
#    y 0.000000 1.740470 0.000000 
#    z 0.011740 0.000000 1.740100 
# 
# From -- ./inp_files/16815.got.cif
#   From: 2010.03.12/outbox.cif.g09.slc.cpg/sg14_9_cif.got.tgz:16815.got - 2010.03.31 13:35:05.
