data_PCOD8124209
_publ_section_title
;
Structure prediction by ZEFSAII (Michael W. Deem and Ramdas Pophale) SiO2 
 PCOD8124209
Probable space group: P 21/C
;
_chemical_formula_sum "Si O2"
_cell_formula_units_Z 32
_cell_length_a 7.939049
_cell_length_b 8.585711
_cell_length_c 23.523341
_cell_angle_alpha 90.000000
_cell_angle_beta 95.709666
_cell_angle_gamma 90.000000
_cell_volume 1595.452094
_symmetry_space_group_name_H-M "P 21/C"
_symmetry_group_IT_number 14
_symmetry_cell_setting 'monoclinic'
loop_
_space_group_symop_operation_xyz
x,y,z
-x,1/2+y,1/2-z
-x,-y,-z
x,1/2-y,1/2+z
loop_
_atom_site_type_symbol
_atom_site_label
_atom_site_fract_x
_atom_site_fract_y
_atom_site_fract_z
Si Si1 0.543921 0.279323 0.612165
Si Si2 0.481369 0.476797 0.715792
Si Si3 0.219812 0.444491 0.551872
Si Si4 0.346794 0.037679 0.661464
Si Si5 0.163887 0.272336 0.719379
Si Si6 0.265893 0.699017 0.643823
Si Si7 0.950045 0.558980 0.685681
Si Si8 0.847111 0.070414 0.070491
O O1 0.576686 0.372551 0.671919
O O2 0.378300 0.337910 0.572706
O O3 0.503198 0.100713 0.628358
O O4 0.712806 0.289705 0.578918
O O5 0.603609 0.508213 0.771752
O O6 0.318391 0.388877 0.735102
O O7 0.431450 0.638817 0.683112
O O8 0.239823 0.610791 0.583459
O O9 0.220001 0.470429 0.484662
O O10 0.039267 0.368346 0.565627
O O11 0.201637 0.172620 0.662579
O O12 0.277823 0.881717 0.630178
O O13 0.154848 0.149188 0.770364
O O14 0.998785 0.380956 0.705767
O O15 0.111191 0.667036 0.680469
O O16 0.841669 0.546093 0.624216
#
# Coordination Sequence:
#
# PCOD8124209 Si02
#       8
#     4   4   4   4   4   4   4   4
#     4  10  20  34  55  81 107 141 183 226 274 320
#     4   9  19  33  49  75 110 147 181 215 261 327
#     4   9  20  38  57  77 104 140 188 239 270 313
#     4  11  19  31  51  77 111 146 176 219 278 331
#     4  10  20  32  50  77 111 141 174 221 270 323
#     4   9  18  33  51  73 108 145 179 224 274 320
#     4  10  20  34  54  80 106 142 182 220 270 329
#     4  10  19  35  60  79 100 142 192 227 268 325
#
# _framework density 20.057009999999998
#
# number of rings (size 3 to 8) (size 9 to 14) (size 15 to 20)
#    0.000    2.250    0.000    5.625    0.000    3.000 
#    0.000    1.875    0.000   13.500    0.000    0.000 
#    0.000    0.000    0.000    0.000    0.000    0.000 
#
# Total GULP energy -396570.395996 kJ/mol
# GULP energy per Si atom -12392.824875 kJ/mol
# Density = 2.001136 g / cm^3
# Si number density = 20.057010 Si / 1000 Ang^3
#
#
#
# Elastic Constant Matrix: (Units=GPa)
#
#
# Indices 1 2 3 4 5 6 
#
# 1 89.4479 35.4642 36.3506 0.0000 -9.1495 0.0000
# 2 35.4642 112.4540 26.7502 0.0000 -9.2443 0.0000
# 3 36.3506 26.7502 96.3047 0.0000 2.9839 0.0000
# 4 0.0000 0.0000 0.0000 9.5066 0.0000 -3.7648
# 5 -9.1495 -9.2443 2.9839 0.0000 30.0326 0.0000
# 6 0.0000 0.0000 0.0000 -3.7648 0.0000 20.2770
#
#
#
# Elastic Compliance Matrix: (Units=1/GPa)
#
#
# Indices 1 2 3 4 5 6 
#
# 1 0.014820 -0.003195 -0.004831 0.000000 0.004011 0.000000
# 2 -0.003195 0.010528 -0.001794 0.000000 0.002446 0.000000
# 3 -0.004831 -0.001794 0.012808 0.000000 -0.003296 0.000000
# 4 0.000000 0.000000 0.000000 0.113538 0.000000 0.021080
# 5 0.004011 0.002446 -0.003296 0.000000 0.035600 0.000000
# 6 0.000000 0.000000 0.000000 0.021080 0.000000 0.053231
#
#
# Mechanical properties :
#
#
# Convention : Reuss Voigt Hill
#
# Bulk Modulus (GPa) = 54.00747 55.03740 54.52243
# Shear Modulus (GPa) = 18.77335 25.27268 22.02301
#
# Velocity S-wave (km/s) = 3.06273 3.55356 3.31723
# Velocity P-wave (km/s) = 6.28431 6.65861 6.47416
#
# Compressibility (1/GPa) = 0.01851596
#
# Stress axis : x y z
#
# Youngs Moduli (GPa) = 67.47714 94.98579 78.07887
#
# Poissons Ratio (x) = 0.30346 0.37717
# Poissons Ratio (y) = 0.21558 0.14009
# Poissons Ratio (z) = 0.32596 0.17042
#
# Static dielectric constant tensor:
#      x y z
#    x 3.719090 0.000000 -0.053370 
#    y 0.000000 3.551130 0.000000 
#    z -0.053370 0.000000 3.568790 
# 
# 
# High freq. dielectric constant tensor:
#      x y z
#    x 1.787500 0.000000 -0.004390 
#    y 0.000000 1.758270 0.000000 
#    z -0.004390 0.000000 1.772380 
# 
# From -- ./inp_files/71951.got.cif
#   From: 2010.03.12/outbox.cif.g09.slc.cpg/sg14_36_cif.got.tgz:71951.got - 2010.03.31 13:35:05.
