data_PCOD8124397
_publ_section_title
;
Structure prediction by ZEFSAII (Michael W. Deem and Ramdas Pophale) SiO2 
 PCOD8124397
Probable space group: P 21/C
;
_chemical_formula_sum "Si O2"
_cell_formula_units_Z 28
_cell_length_a 6.907443
_cell_length_b 8.791843
_cell_length_c 27.982190
_cell_angle_alpha 90.000000
_cell_angle_beta 54.220748
_cell_angle_gamma 90.000000
_cell_volume 1378.628793
_symmetry_space_group_name_H-M "P 21/C"
_symmetry_group_IT_number 14
_symmetry_cell_setting 'monoclinic'
loop_
_space_group_symop_operation_xyz
x,y,z
-x,1/2+y,1/2-z
-x,-y,-z
x,1/2-y,1/2+z
loop_
_atom_site_type_symbol
_atom_site_label
_atom_site_fract_x
_atom_site_fract_y
_atom_site_fract_z
Si Si1 0.289436 0.073040 0.921835
Si Si2 0.963848 0.074270 0.225867
Si Si3 0.339110 0.329028 0.599073
Si Si4 0.735244 0.751574 0.249187
Si Si5 0.537763 0.806924 0.676760
Si Si6 0.618139 0.369112 0.127039
Si Si7 0.066929 0.318778 0.545311
O O1 0.437737 0.159199 0.859803
O O2 0.466691 0.961100 0.923926
O O3 0.179289 0.190261 0.976088
O O4 0.076313 0.977704 0.927848
O O5 0.730176 0.177042 0.266192
O O6 0.088300 0.126147 0.159170
O O7 0.142226 0.104701 0.244434
O O8 0.904275 0.896887 0.232674
O O9 0.445551 0.175473 0.607518
O O10 0.283720 0.304087 0.551447
O O11 0.708267 0.713548 0.197678
O O12 0.480366 0.783437 0.311219
O O13 0.617737 0.950918 0.634035
O O14 0.889347 0.322389 0.077972
#
# Coordination Sequence:
#
# PCOD8124397 Si02
#       7
#     4   4   4   4   4   4   4
#     4  10  22  36  59  87 108 143 195 228 268 335
#     4  10  21  35  56  83 111 143 184 224 276 338
#     4  10  19  37  58  80 110 147 185 231 274 322
#     4  10  21  36  56  81 112 145 178 227 278 330
#     4  11  22  37  55  84 116 145 181 230 280 330
#     4   9  22  36  54  82 111 145 188 223 276 340
#     4  10  20  39  59  79 111 149 186 233 275 315
#
# _framework density 20.310034999999999
#
# number of rings (size 3 to 8) (size 9 to 14) (size 15 to 20)
#    0.000    2.000    0.000    3.000    0.000   12.000 
#    0.000    0.714    0.000    0.000    0.000    0.000 
#    0.000    0.000    0.000    0.000    0.000    0.000 
#
# Total GULP energy -347277.987085 kJ/mol
# GULP energy per Si atom -12402.785253 kJ/mol
# Density = 2.026381 g / cm^3
# Si number density = 20.310035 Si / 1000 Ang^3
#
#
#
# Elastic Constant Matrix: (Units=GPa)
#
#
# Indices 1 2 3 4 5 6 
#
# 1 93.3337 21.6291 19.3018 0.0000 12.9487 0.0000
# 2 21.6291 50.4746 10.2104 0.0000 1.0103 0.0000
# 3 19.3018 10.2104 54.7679 0.0000 -3.6975 0.0000
# 4 0.0000 0.0000 0.0000 32.5385 0.0000 -4.3548
# 5 12.9487 1.0103 -3.6975 0.0000 29.7125 0.0000
# 6 0.0000 0.0000 0.0000 -4.3548 0.0000 23.5162
#
#
#
# Elastic Compliance Matrix: (Units=1/GPa)
#
#
# Indices 1 2 3 4 5 6 
#
# 1 0.013600 -0.004828 -0.004318 0.000000 -0.006300 0.000000
# 2 -0.004828 0.022344 -0.002393 0.000000 0.001047 0.000000
# 3 -0.004318 -0.002393 0.020532 0.000000 0.004518 0.000000
# 4 0.000000 0.000000 0.000000 0.031514 0.000000 0.005836
# 5 -0.006300 0.001047 0.004518 0.000000 0.036928 0.000000
# 6 0.000000 0.000000 0.000000 0.005836 0.000000 0.043605
#
#
# Mechanical properties :
#
#
# Convention : Reuss Voigt Hill
#
# Bulk Modulus (GPa) = 29.94323 33.42874 31.68599
# Shear Modulus (GPa) = 24.66272 26.98243 25.82257
#
# Velocity S-wave (km/s) = 3.48848 3.64885 3.56957
# Velocity P-wave (km/s) = 5.56786 5.85210 5.71175
#
# Compressibility (1/GPa) = 0.03339653
#
# Stress axis : x y z
#
# Youngs Moduli (GPa) = 73.52803 44.75449 48.70442
#
# Poissons Ratio (x) = 0.21609 0.21032
# Poissons Ratio (y) = 0.35501 0.11657
# Poissons Ratio (z) = 0.31752 0.10711
#
# Static dielectric constant tensor:
#      x y z
#    x 3.602990 0.000000 -0.067600 
#    y 0.000000 3.482590 0.000000 
#    z -0.067600 0.000000 3.689230 
# 
# 
# High freq. dielectric constant tensor:
#      x y z
#    x 1.793970 0.000000 -0.004570 
#    y 0.000000 1.780050 0.000000 
#    z -0.004570 0.000000 1.794000 
# 
# From -- ./inp_files/78757.got.cif
#   From: 2010.03.12/outbox.cif.g09.slc.cpg/sg14_40_cif.got.tgz:78757.got - 2010.03.31 13:35:05.
