data_PCOD8124678
_publ_section_title
;
Structure prediction by ZEFSAII (Michael W. Deem and Ramdas Pophale) SiO2 
 PCOD8124678
Probable space group: P 21/C
;
_chemical_formula_sum "Si O2"
_cell_formula_units_Z 28
_cell_length_a 7.499834
_cell_length_b 7.707277
_cell_length_c 23.404863
_cell_angle_alpha 90.000000
_cell_angle_beta 136.154759
_cell_angle_gamma 90.000000
_cell_volume 937.156182
_symmetry_space_group_name_H-M "P 21/C"
_symmetry_group_IT_number 14
_symmetry_cell_setting 'monoclinic'
loop_
_space_group_symop_operation_xyz
x,y,z
-x,1/2+y,1/2-z
-x,-y,-z
x,1/2-y,1/2+z
loop_
_atom_site_type_symbol
_atom_site_label
_atom_site_fract_x
_atom_site_fract_y
_atom_site_fract_z
Si Si1 0.599974 0.476279 0.408858
Si Si2 0.098286 0.292243 0.289484
Si Si3 0.099512 0.730780 0.940706
Si Si4 0.268490 0.972841 0.376574
Si Si5 0.802572 0.255249 0.349616
Si Si6 0.290584 0.088753 0.229495
Si Si7 0.795042 0.856984 0.474088
O O1 0.291742 0.452963 0.346506
O O2 0.750444 0.391589 0.497116
O O3 0.688630 0.392562 0.369651
O O4 0.663732 0.678271 0.422893
O O5 0.251487 0.154186 0.284292
O O6 0.842944 0.345685 0.197958
O O7 0.091924 0.152073 0.341544
O O8 0.282439 0.624153 0.940539
O O9 0.852189 0.791136 0.848712
O O10 0.996632 0.599836 0.967755
O O11 0.570035 0.002824 0.429184
O O12 0.597733 0.102321 0.287620
O O13 0.826004 0.388431 0.299601
O O14 0.066494 0.175376 0.433237
#
# Coordination Sequence:
#
# PCOD8124678 Si02
#       7
#     4   4   4   4   4   4   4
#     4  10  19  41  71  94 135 179 225 289 341 412
#     4  10  24  43  64  98 144 182 227 291 353 405
#     4  10  21  42  68  97 134 176 227 280 350 404
#     4  11  25  45  65  99 139 177 234 289 339 425
#     4  10  20  38  62  99 132 177 223 282 344 410
#     4  10  20  38  64  96 137 171 232 278 339 419
#     4  11  21  42  72  98 131 182 231 283 347 414
#
# _framework density 29.877624999999998
#
# number of rings (size 3 to 8) (size 9 to 14) (size 15 to 20)
#    0.000    1.714    2.857    1.714    2.000    1.143 
#    5.143    2.143    0.000    0.000    0.000    0.000 
#    0.000    0.000    0.000    0.000    0.000    0.000 
#
# Total GULP energy -347364.620986 kJ/mol
# GULP energy per Si atom -12405.879321 kJ/mol
# Density = 2.980962 g / cm^3
# Si number density = 29.877625 Si / 1000 Ang^3
#
#
#
# Elastic Constant Matrix: (Units=GPa)
#
#
# Indices 1 2 3 4 5 6 
#
# 1 77.3351 11.6645 43.5355 0.0000 3.0775 0.0000
# 2 11.6645 131.3022 29.5049 0.0000 4.1086 0.0000
# 3 43.5355 29.5049 145.3542 0.0000 13.2877 0.0000
# 4 0.0000 0.0000 0.0000 62.7170 0.0000 5.0942
# 5 3.0775 4.1086 13.2877 0.0000 61.1091 0.0000
# 6 0.0000 0.0000 0.0000 5.0942 0.0000 48.5747
#
#
#
# Elastic Compliance Matrix: (Units=1/GPa)
#
#
# Indices 1 2 3 4 5 6 
#
# 1 0.015572 -0.000354 -0.004614 0.000000 0.000243 0.000000
# 2 -0.000354 0.007990 -0.001498 0.000000 -0.000194 0.000000
# 3 -0.004614 -0.001498 0.008709 0.000000 -0.001561 0.000000
# 4 0.000000 0.000000 0.000000 0.016082 0.000000 -0.001687
# 5 0.000243 -0.000194 -0.001561 0.000000 0.016704 0.000000
# 6 0.000000 0.000000 0.000000 -0.001687 0.000000 0.020764
#
#
# Mechanical properties :
#
#
# Convention : Reuss Voigt Hill
#
# Bulk Modulus (GPa) = 51.71261 58.15570 54.93416
# Shear Modulus (GPa) = 47.52867 52.43260 49.98064
#
# Velocity S-wave (km/s) = 3.99278 4.19371 4.09448
# Velocity P-wave (km/s) = 6.21306 6.55412 6.38587
#
# Compressibility (1/GPa) = 0.01933764
#
# Stress axis : x y z
#
# Youngs Moduli (GPa) = 64.21727 125.15366 114.82936
#
# Poissons Ratio (x) = 0.04432 0.52987
# Poissons Ratio (y) = 0.02274 0.17203
# Poissons Ratio (z) = 0.29632 0.18750
#
# Static dielectric constant tensor:
#      x y z
#    x 6.149610 0.000000 -0.466070 
#    y 0.000000 5.897920 0.000000 
#    z -0.466070 0.000000 5.674410 
# 
# 
# High freq. dielectric constant tensor:
#      x y z
#    x 2.236980 0.000000 -0.017610 
#    y 0.000000 2.247040 0.000000 
#    z -0.017610 0.000000 2.251060 
# 
# From -- ./inp_files/76392.got.cif
#   From: 2010.03.12/outbox.cif.g09.slc.cpg/sg14_39_cif.got.tgz:76392.got - 2010.03.31 13:35:05.
