data_PCOD8124221
_publ_section_title
;
Structure prediction by ZEFSAII (Michael W. Deem and Ramdas Pophale) SiO2 
 PCOD8124221
Probable space group: P 21/C
;
_chemical_formula_sum "Si O2"
_cell_formula_units_Z 28
_cell_length_a 9.086388
_cell_length_b 22.226093
_cell_length_c 14.241050
_cell_angle_alpha 90.000000
_cell_angle_beta 151.998416
_cell_angle_gamma 90.000000
_cell_volume 1350.293843
_symmetry_space_group_name_H-M "P 21/C"
_symmetry_group_IT_number 14
_symmetry_cell_setting 'monoclinic'
loop_
_space_group_symop_operation_xyz
x,y,z
-x,1/2+y,1/2-z
-x,-y,-z
x,1/2-y,1/2+z
loop_
_atom_site_type_symbol
_atom_site_label
_atom_site_fract_x
_atom_site_fract_y
_atom_site_fract_z
Si Si1 0.329068 0.456280 0.053493
Si Si2 0.467870 0.670616 0.297682
Si Si3 0.446565 0.086687 0.315603
Si Si4 0.457418 0.148640 0.506625
Si Si5 0.804533 0.117769 0.181298
Si Si6 0.853029 0.288490 0.371820
Si Si7 0.730855 0.399493 0.429824
O O1 0.368174 0.526379 0.054470
O O2 0.542532 0.415934 0.103203
O O3 0.456378 0.440181 0.229544
O O4 0.963671 0.438501 0.828398
O O5 0.423897 0.611388 0.209801
O O6 0.454504 0.649046 0.398639
O O7 0.194550 0.719376 0.123948
O O8 0.788415 0.702704 0.451549
O O9 0.521144 0.139819 0.432274
O O10 0.074742 0.071689 0.105610
O O11 0.660973 0.201312 0.666777
O O12 0.089551 0.163993 0.317350
O O13 0.648111 0.099608 0.994164
O O14 0.731143 0.332329 0.385837
#
# Coordination Sequence:
#
# PCOD8124221 Si02
#       7
#     4   4   4   4   4   4   4
#     4   9  18  35  63  85 128 152 192 238 289 348
#     4  11  23  38  58  84 118 151 203 247 295 348
#     4  10  19  35  60  93 116 157 198 235 291 359
#     4   8  18  36  59  85 114 157 191 231 292 343
#     4   9  20  37  58  86 118 155 192 235 289 353
#     4  10  21  39  58  82 117 151 196 255 287 349
#     4   9  19  36  61  89 116 158 197 231 296 346
#
# _framework density 20.736228000000001
#
# number of rings (size 3 to 8) (size 9 to 14) (size 15 to 20)
#    0.857    1.714    0.000    1.714    0.000    1.714 
#    2.571    3.571    0.000    0.000    0.000    0.000 
#    0.000    0.000    0.000    0.000    0.000    0.000 
#
# Total GULP energy -346952.852139 kJ/mol
# GULP energy per Si atom -12391.173291 kJ/mol
# Density = 2.068903 g / cm^3
# Si number density = 20.736228 Si / 1000 Ang^3
#
#
#
# Elastic Constant Matrix: (Units=GPa)
#
#
# Indices 1 2 3 4 5 6 
#
# 1 124.0740 34.2218 29.0513 0.0000 -13.2733 0.0000
# 2 34.2218 51.7651 0.6647 0.0000 3.1371 0.0000
# 3 29.0513 0.6647 61.3035 0.0000 -22.8126 0.0000
# 4 0.0000 0.0000 0.0000 16.2231 0.0000 -0.3197
# 5 -13.2733 3.1371 -22.8126 0.0000 27.8941 0.0000
# 6 0.0000 0.0000 0.0000 -0.3197 0.0000 16.6283
#
#
#
# Elastic Compliance Matrix: (Units=1/GPa)
#
#
# Indices 1 2 3 4 5 6 
#
# 1 0.011501 -0.007717 -0.004322 0.000000 0.002806 0.000000
# 2 -0.007717 0.024722 0.001420 0.000000 -0.005291 0.000000
# 3 -0.004322 0.001420 0.025185 0.000000 0.018380 0.000000
# 4 0.000000 0.000000 0.000000 0.061664 0.000000 0.001186
# 5 0.002806 -0.005291 0.018380 0.000000 0.052812 0.000000
# 6 0.000000 0.000000 0.000000 0.001186 0.000000 0.060161
#
#
# Mechanical properties :
#
#
# Convention : Reuss Voigt Hill
#
# Bulk Modulus (GPa) = 24.89496 40.55756 32.72626
# Shear Modulus (GPa) = 18.47244 23.69612 21.08428
#
# Velocity S-wave (km/s) = 2.98791 3.38411 3.19217
# Velocity P-wave (km/s) = 4.89235 5.90516 5.42245
#
# Compressibility (1/GPa) = 0.04016878
#
# Stress axis : x y z
#
# Youngs Moduli (GPa) = 86.95270 40.44900 39.70614
#
# Poissons Ratio (x) = 0.31216 0.17162
# Poissons Ratio (y) = 0.67106 -0.05639
# Poissons Ratio (z) = 0.37584 -0.05745
#
# Static dielectric constant tensor:
#      x y z
#    x 3.632460 0.000000 -0.219860 
#    y 0.000000 3.429400 0.000000 
#    z -0.219860 0.000000 3.612200 
# 
# 
# High freq. dielectric constant tensor:
#      x y z
#    x 1.803710 0.000000 -0.016640 
#    y 0.000000 1.788560 0.000000 
#    z -0.016640 0.000000 1.794940 
# 
# From -- ./inp_files/42121.got.cif
#   From: 2010.03.12/outbox.cif.g09.slc.cpg/sg14_22_cif.got.tgz:42121.got - 2010.03.31 13:35:05.
