data_PCOD8124592
_publ_section_title
;
Structure prediction by ZEFSAII (Michael W. Deem and Ramdas Pophale) SiO2 
 PCOD8124592
Probable space group: P 21/C
;
_chemical_formula_sum "Si O2"
_cell_formula_units_Z 32
_cell_length_a 14.623711
_cell_length_b 19.091603
_cell_length_c 9.330035
_cell_angle_alpha 90.000000
_cell_angle_beta 38.119206
_cell_angle_gamma 90.000000
_cell_volume 1607.974948
_symmetry_space_group_name_H-M "P 21/C"
_symmetry_group_IT_number 14
_symmetry_cell_setting 'monoclinic'
loop_
_space_group_symop_operation_xyz
x,y,z
-x,1/2+y,1/2-z
-x,-y,-z
x,1/2-y,1/2+z
loop_
_atom_site_type_symbol
_atom_site_label
_atom_site_fract_x
_atom_site_fract_y
_atom_site_fract_z
Si Si1 0.955274 0.577763 0.213764
Si Si2 0.968338 0.580973 0.868450
Si Si3 0.363312 0.051771 0.791141
Si Si4 0.843885 0.321815 0.868978
Si Si5 0.466567 0.598997 0.165721
Si Si6 0.420537 0.580769 0.741725
Si Si7 0.638061 0.576674 0.234311
Si Si8 0.188493 0.678445 0.432236
O O1 0.778138 0.578339 0.448413
O O2 0.020745 0.501964 0.168506
O O3 0.016072 0.631922 0.255950
O O4 0.996954 0.600154 0.000190
O O5 0.087547 0.616714 0.619440
O O6 0.804553 0.606432 0.022177
O O7 0.383742 0.090261 0.613659
O O8 0.518639 0.070859 0.674378
O O9 0.357672 0.967917 0.783737
O O10 0.839077 0.314186 0.703447
O O11 0.699352 0.358480 0.111991
O O12 0.860332 0.247439 0.923893
O O13 0.531188 0.607692 0.244244
O O14 0.362594 0.664371 0.250787
O O15 0.559789 0.603831 0.474266
O O16 0.350536 0.507816 0.774102
#
# Coordination Sequence:
#
# PCOD8124592 Si02
#       8
#     4   4   4   4   4   4   4   4
#     4  11  23  39  68  97 135 174 214 271 322 388
#     4  11  23  40  64 102 133 173 217 265 326 388
#     4  10  19  39  63  99 127 159 211 268 322 371
#     4  12  27  45  66  91 131 178 219 268 330 396
#     4  10  22  37  65  96 130 163 205 269 319 385
#     4  10  20  39  63  96 130 165 207 262 321 380
#     4  10  21  35  67 100 130 157 208 264 321 377
#     4  12  27  46  64  93 131 176 221 266 331 399
#
# _framework density 19.900808000000001
#
# number of rings (size 3 to 8) (size 9 to 14) (size 15 to 20)
#    0.000    1.250    5.000    0.750    5.250    0.500 
#    0.000    2.500    0.000    0.000    0.000    0.000 
#    0.000    0.000    0.000    0.000    0.000    0.000 
#
# Total GULP energy -396790.417182 kJ/mol
# GULP energy per Si atom -12399.700537 kJ/mol
# Density = 1.985551 g / cm^3
# Si number density = 19.900808 Si / 1000 Ang^3
#
#
#
# Elastic Constant Matrix: (Units=GPa)
#
#
# Indices 1 2 3 4 5 6 
#
# 1 97.9886 38.9774 44.2170 0.0000 10.8451 0.0000
# 2 38.9774 60.5243 26.2730 0.0000 11.9363 0.0000
# 3 44.2170 26.2730 93.0791 0.0000 3.9549 0.0000
# 4 0.0000 0.0000 0.0000 23.0644 0.0000 3.5670
# 5 10.8451 11.9363 3.9549 0.0000 37.3610 0.0000
# 6 0.0000 0.0000 0.0000 3.5670 0.0000 26.0900
#
#
#
# Elastic Compliance Matrix: (Units=1/GPa)
#
#
# Indices 1 2 3 4 5 6 
#
# 1 0.015773 -0.007542 -0.005296 0.000000 -0.001609 0.000000
# 2 -0.007542 0.023622 -0.002870 0.000000 -0.005054 0.000000
# 3 -0.005296 -0.002870 0.014028 0.000000 0.000969 0.000000
# 4 0.000000 0.000000 0.000000 0.044293 0.000000 -0.006056
# 5 -0.001609 -0.005054 0.000969 0.000000 0.028745 0.000000
# 6 0.000000 0.000000 0.000000 -0.006056 0.000000 0.039157
#
#
# Mechanical properties :
#
#
# Convention : Reuss Voigt Hill
#
# Bulk Modulus (GPa) = 45.43885 52.28076 48.85980
# Shear Modulus (GPa) = 24.46556 26.77805 25.62181
#
# Velocity S-wave (km/s) = 3.51005 3.67219 3.59203
# Velocity P-wave (km/s) = 6.26973 6.65640 6.46596
#
# Compressibility (1/GPa) = 0.02200760
#
# Stress axis : x y z
#
# Youngs Moduli (GPa) = 63.39999 42.33396 71.28457
#
# Poissons Ratio (x) = 0.31927 0.37751
# Poissons Ratio (y) = 0.47814 0.20460
# Poissons Ratio (z) = 0.33575 0.12151
#
# Static dielectric constant tensor:
#      x y z
#    x 3.615500 0.000000 0.088920 
#    y 0.000000 3.326200 0.000000 
#    z 0.088920 0.000000 3.644080 
# 
# 
# High freq. dielectric constant tensor:
#      x y z
#    x 1.784930 0.000000 0.004550 
#    y 0.000000 1.741750 0.000000 
#    z 0.004550 0.000000 1.788710 
# 
# From -- ./inp_files/16849.got.cif
#   From: 2010.03.12/outbox.cif.g09.slc.cpg/sg14_9_cif.got.tgz:16849.got - 2010.03.31 13:35:05.
