data_PCOD8124581
_publ_section_title
;
Structure prediction by ZEFSAII (Michael W. Deem and Ramdas Pophale) SiO2 
 PCOD8124581
Probable space group: P 21/C
;
_chemical_formula_sum "Si O2"
_cell_formula_units_Z 28
_cell_length_a 9.221271
_cell_length_b 14.226771
_cell_length_c 12.763889
_cell_angle_alpha 90.000000
_cell_angle_beta 48.546544
_cell_angle_gamma 90.000000
_cell_volume 1255.012817
_symmetry_space_group_name_H-M "P 21/C"
_symmetry_group_IT_number 14
_symmetry_cell_setting 'monoclinic'
loop_
_space_group_symop_operation_xyz
x,y,z
-x,1/2+y,1/2-z
-x,-y,-z
x,1/2-y,1/2+z
loop_
_atom_site_type_symbol
_atom_site_label
_atom_site_fract_x
_atom_site_fract_y
_atom_site_fract_z
Si Si1 0.478044 0.686008 0.261512
Si Si2 0.988333 0.093428 0.384916
Si Si3 0.126553 0.220745 0.896948
Si Si4 0.580222 0.344511 0.358741
Si Si5 0.167074 0.393949 0.583197
Si Si6 0.681368 0.003963 0.655652
Si Si7 0.828428 0.111902 0.931060
O O1 0.650731 0.749535 0.229277
O O2 0.397012 0.739391 0.197734
O O3 0.553092 0.585124 0.185517
O O4 0.311545 0.670902 0.425741
O O5 0.996622 0.185032 0.455315
O O6 0.015779 0.119672 0.250153
O O7 0.156589 0.021618 0.336047
O O8 0.780519 0.044511 0.502624
O O9 0.047201 0.150206 0.844374
O O10 0.093485 0.171242 0.024236
O O11 0.379971 0.358986 0.519246
O O12 0.556297 0.415484 0.271561
O O13 0.763283 0.367569 0.343638
O O14 0.176725 0.501856 0.541567
#
# Coordination Sequence:
#
# PCOD8124581 Si02
#       7
#     4   4   4   4   4   4   4
#     4  10  23  41  65 100 133 170 224 279 328 396
#     4  10  21  38  62  94 130 167 220 266 330 399
#     4  10  24  40  62  98 136 163 221 284 327 388
#     4  11  21  39  71  93 122 180 225 266 331 407
#     4  11  22  42  68  97 126 178 224 271 337 405
#     4  10  19  39  62  93 131 171 210 274 328 386
#     4  12  22  42  69  97 131 180 223 274 335 406
#
# _framework density 22.310528000000001
#
# number of rings (size 3 to 8) (size 9 to 14) (size 15 to 20)
#    0.000    1.429    2.857    3.429    0.000    2.286 
#    7.714    0.000    0.000    2.571    0.000    0.000 
#    0.000    0.000    0.000    0.000    0.000    0.000 
#
# Total GULP energy -347184.459307 kJ/mol
# GULP energy per Si atom -12399.444975 kJ/mol
# Density = 2.225975 g / cm^3
# Si number density = 22.310528 Si / 1000 Ang^3
#
#
#
# Elastic Constant Matrix: (Units=GPa)
#
#
# Indices 1 2 3 4 5 6 
#
# 1 74.1669 37.1647 26.0883 0.0000 12.0491 0.0000
# 2 37.1647 120.2374 53.3364 0.0000 11.8007 0.0000
# 3 26.0883 53.3364 117.0480 0.0000 8.3249 0.0000
# 4 0.0000 0.0000 0.0000 40.0266 0.0000 0.6228
# 5 12.0491 11.8007 8.3249 0.0000 19.5642 0.0000
# 6 0.0000 0.0000 0.0000 0.6228 0.0000 27.0018
#
#
#
# Elastic Compliance Matrix: (Units=1/GPa)
#
#
# Indices 1 2 3 4 5 6 
#
# 1 0.017205 -0.003899 -0.001518 0.000000 -0.007599 0.000000
# 2 -0.003899 0.011688 -0.004255 0.000000 -0.002838 0.000000
# 3 -0.001518 -0.004255 0.010902 0.000000 -0.001138 0.000000
# 4 0.000000 0.000000 0.000000 0.024992 0.000000 -0.000576
# 5 -0.007599 -0.002838 -0.001138 0.000000 0.057989 0.000000
# 6 0.000000 0.000000 0.000000 -0.000576 0.000000 0.037048
#
#
# Mechanical properties :
#
#
# Convention : Reuss Voigt Hill
#
# Bulk Modulus (GPa) = 48.89660 60.51457 54.70559
# Shear Modulus (GPa) = 26.88383 30.30939 28.59661
#
# Velocity S-wave (km/s) = 3.47505 3.68981 3.58404
# Velocity P-wave (km/s) = 6.16971 6.73317 6.45759
#
# Compressibility (1/GPa) = 0.02045132
#
# Stress axis : x y z
#
# Youngs Moduli (GPa) = 58.12202 85.55672 91.72920
#
# Poissons Ratio (x) = 0.33359 0.13921
# Poissons Ratio (y) = 0.22662 0.39032
# Poissons Ratio (z) = 0.08821 0.36406
#
# Static dielectric constant tensor:
#      x y z
#    x 3.871510 0.000000 -0.153230 
#    y 0.000000 4.257670 0.000000 
#    z -0.153230 0.000000 3.781460 
# 
# 
# High freq. dielectric constant tensor:
#      x y z
#    x 1.855370 0.000000 -0.010650 
#    y 0.000000 1.897310 0.000000 
#    z -0.010650 0.000000 1.864070 
# 
# From -- ./inp_files/25408.got.cif
#   From: 2010.03.12/outbox.cif.g09.slc.cpg/sg14_13_cif.got.tgz:25408.got - 2010.03.31 13:35:05.
