data_PCOD8124760
_publ_section_title
;
Structure prediction by ZEFSAII (Michael W. Deem and Ramdas Pophale) SiO2 
 PCOD8124760
Probable space group: P 21/C
;
_chemical_formula_sum "Si O2"
_cell_formula_units_Z 28
_cell_length_a 15.033987
_cell_length_b 14.135902
_cell_length_c 13.933112
_cell_angle_alpha 90.000000
_cell_angle_beta 30.047159
_cell_angle_gamma 90.000000
_cell_volume 1482.635443
_symmetry_space_group_name_H-M "P 21/C"
_symmetry_group_IT_number 14
_symmetry_cell_setting 'monoclinic'
loop_
_space_group_symop_operation_xyz
x,y,z
-x,1/2+y,1/2-z
-x,-y,-z
x,1/2-y,1/2+z
loop_
_atom_site_type_symbol
_atom_site_label
_atom_site_fract_x
_atom_site_fract_y
_atom_site_fract_z
Si Si1 0.271927 0.970851 0.330407
Si Si2 0.968697 0.319827 0.877397
Si Si3 0.248287 0.617664 0.656384
Si Si4 0.609547 0.004839 0.133894
Si Si5 0.730871 0.810890 0.058659
Si Si6 0.127635 0.171283 0.426496
Si Si7 0.620836 0.289864 0.642200
O O1 0.093187 0.928579 0.546428
O O2 0.326359 0.902191 0.189956
O O3 0.416489 0.972354 0.278454
O O4 0.243029 0.075465 0.314834
O O5 0.094095 0.305323 0.669668
O O6 0.790808 0.257357 0.032925
O O7 0.079353 0.288086 0.867351
O O8 0.267350 0.521268 0.575712
O O9 0.353881 0.700044 0.498353
O O10 0.044824 0.647932 0.849923
O O11 0.599324 0.102647 0.204538
O O12 0.692557 0.920698 0.119766
O O13 0.761202 0.754164 0.127657
O O14 0.557243 0.768308 0.167360
#
# Coordination Sequence:
#
# PCOD8124760 Si02
#       7
#     4   4   4   4   4   4   4
#     4  11  19  35  61  95 120 145 197 262 305 341
#     4  11  23  38  59  88 123 159 192 246 302 352
#     4   9  19  35  56  88 121 145 190 255 298 341
#     4  10  20  33  59  86 120 153 197 240 299 346
#     4  12  21  39  59  87 120 162 197 240 302 359
#     4  11  21  37  61  92 123 151 203 247 298 354
#     4  10  22  38  56  85 124 157 192 241 299 357
#
# _framework density 18.885290999999999
#
# number of rings (size 3 to 8) (size 9 to 14) (size 15 to 20)
#    0.857    0.571    4.286    3.857    0.000    1.143 
#    0.000    0.714    0.000    0.857    0.000    0.000 
#    0.000    0.000    0.000    0.000    0.000    0.000 
#
# Total GULP energy -346924.840240 kJ/mol
# GULP energy per Si atom -12390.172866 kJ/mol
# Density = 1.884231 g / cm^3
# Si number density = 18.885291 Si / 1000 Ang^3
#
#
#
# Elastic Constant Matrix: (Units=GPa)
#
#
# Indices 1 2 3 4 5 6 
#
# 1 66.7166 24.8891 1.7767 0.0000 -12.6369 0.0000
# 2 24.8891 93.3872 3.7765 0.0000 -7.9180 0.0000
# 3 1.7767 3.7765 39.6415 0.0000 -5.3946 0.0000
# 4 0.0000 0.0000 0.0000 26.8094 0.0000 -9.1372
# 5 -12.6369 -7.9180 -5.3946 0.0000 25.9604 0.0000
# 6 0.0000 0.0000 0.0000 -9.1372 0.0000 33.7556
#
#
#
# Elastic Compliance Matrix: (Units=1/GPa)
#
#
# Indices 1 2 3 4 5 6 
#
# 1 0.017968 -0.004169 0.000627 0.000000 0.007605 0.000000
# 2 -0.004169 0.011974 -0.000754 0.000000 0.001466 0.000000
# 3 0.000627 -0.000754 0.026016 0.000000 0.005481 0.000000
# 4 0.000000 0.000000 0.000000 0.041091 0.000000 0.011123
# 5 0.007605 0.001466 0.005481 0.000000 0.043808 0.000000
# 6 0.000000 0.000000 0.000000 0.011123 0.000000 0.032636
#
#
# Mechanical properties :
#
#
# Convention : Reuss Voigt Hill
#
# Bulk Modulus (GPa) = 21.11304 28.95887 25.03596
# Shear Modulus (GPa) = 25.26854 28.59194 26.93024
#
# Velocity S-wave (km/s) = 3.66184 3.89521 3.78033
# Velocity P-wave (km/s) = 5.39283 5.96637 5.68684
#
# Compressibility (1/GPa) = 0.04736409
#
# Stress axis : x y z
#
# Youngs Moduli (GPa) = 55.65474 83.51377 38.43818
#
# Poissons Ratio (x) = 0.34819 -0.02409
# Poissons Ratio (y) = 0.23204 0.02900
# Poissons Ratio (z) = -0.03488 0.06300
#
# Static dielectric constant tensor:
#      x y z
#    x 3.175210 0.000000 -0.141580 
#    y 0.000000 3.546840 0.000000 
#    z -0.141580 0.000000 3.445340 
# 
# 
# High freq. dielectric constant tensor:
#      x y z
#    x 1.705220 0.000000 -0.021350 
#    y 0.000000 1.729930 0.000000 
#    z -0.021350 0.000000 1.736710 
# 
# From -- ./inp_files/47343.got.cif
#   From: 2010.03.12/outbox.cif.g09.slc.cpg/sg14_24_cif.got.tgz:47343.got - 2010.03.31 13:35:05.
