data_PCOD8124147
_publ_section_title
;
Structure prediction by ZEFSAII (Michael W. Deem and Ramdas Pophale) SiO2 
 PCOD8124147
Probable space group: P 21/C
;
_chemical_formula_sum "Si O2"
_cell_formula_units_Z 32
_cell_length_a 13.048549
_cell_length_b 23.601656
_cell_length_c 7.083795
_cell_angle_alpha 90.000000
_cell_angle_beta 130.216438
_cell_angle_gamma 90.000000
_cell_volume 1665.876314
_symmetry_space_group_name_H-M "P 21/C"
_symmetry_group_IT_number 14
_symmetry_cell_setting 'monoclinic'
loop_
_space_group_symop_operation_xyz
x,y,z
-x,1/2+y,1/2-z
-x,-y,-z
x,1/2-y,1/2+z
loop_
_atom_site_type_symbol
_atom_site_label
_atom_site_fract_x
_atom_site_fract_y
_atom_site_fract_z
Si Si1 0.463513 0.807937 0.038689
Si Si2 0.755882 0.823648 0.304365
Si Si3 0.310669 0.871268 0.558406
Si Si4 0.876905 0.460659 0.059278
Si Si5 0.952462 0.917241 0.575193
Si Si6 0.205436 0.301139 0.721049
Si Si7 0.503996 0.680782 0.019534
Si Si8 0.036487 0.874620 0.068901
O O1 0.596075 0.825720 0.073435
O O2 0.471031 0.830467 0.261251
O O3 0.338454 0.835527 0.781345
O O4 0.443939 0.740351 0.020315
O O5 0.843112 0.877444 0.336961
O O6 0.766994 0.825030 0.541616
O O7 0.818516 0.766300 0.292650
O O8 0.273762 0.935738 0.580605
O O9 0.435908 0.869042 0.562058
O O10 0.179934 0.846218 0.293078
O O11 0.872191 0.528308 0.060333
O O12 0.976129 0.435497 0.339524
O O13 0.929675 0.437631 0.921342
O O14 0.023483 0.883284 0.829316
O O15 0.075863 0.332088 0.482059
O O16 0.335511 0.316766 0.748023
#
# Coordination Sequence:
#
# PCOD8124147 Si02
#       8
#     4   4   4   4   4   4   4   4
#     4  10  19  36  52  82 112 150 186 212 282 348
#     4   9  20  33  60  80 110 146 184 235 266 331
#     4  10  22  34  53  85 109 148 183 226 278 336
#     4   9  22  36  58  83 106 152 191 225 290 331
#     4  10  19  41  59  80 110 150 190 237 279 323
#     4   9  19  35  54  85 109 141 189 222 282 331
#     4  10  19  35  56  73 115 153 177 222 276 341
#     4   9  21  37  55  86 111 141 185 240 273 331
#
# _framework density 19.209108000000001
#
# number of rings (size 3 to 8) (size 9 to 14) (size 15 to 20)
#    0.750    1.750    1.250    0.375    5.250    0.000 
#    6.750    0.625    0.000    6.750    0.000    0.000 
#    0.000    0.000    0.000    0.000    0.000    0.000 
#
# Total GULP energy -396545.983829 kJ/mol
# GULP energy per Si atom -12392.061995 kJ/mol
# Density = 1.916539 g / cm^3
# Si number density = 19.209108 Si / 1000 Ang^3
#
#
#
# Elastic Constant Matrix: (Units=GPa)
#
#
# Indices 1 2 3 4 5 6 
#
# 1 63.9647 27.8143 16.8575 0.0000 4.3277 0.0000
# 2 27.8143 84.6510 28.3834 0.0000 21.0830 0.0000
# 3 16.8575 28.3834 70.3370 0.0000 17.0008 0.0000
# 4 0.0000 0.0000 0.0000 22.3031 0.0000 2.4486
# 5 4.3277 21.0830 17.0008 0.0000 23.6233 0.0000
# 6 0.0000 0.0000 0.0000 2.4486 0.0000 31.9399
#
#
#
# Elastic Compliance Matrix: (Units=1/GPa)
#
#
# Indices 1 2 3 4 5 6 
#
# 1 0.018862 -0.006252 -0.003040 0.000000 0.004312 0.000000
# 2 -0.006252 0.017988 -0.002611 0.000000 -0.013029 0.000000
# 3 -0.003040 -0.002611 0.018524 0.000000 -0.010444 0.000000
# 4 0.000000 0.000000 0.000000 0.045217 0.000000 -0.003467
# 5 0.004312 -0.013029 -0.010444 0.000000 0.060685 0.000000
# 6 0.000000 0.000000 0.000000 -0.003467 0.000000 0.031575
#
#
# Mechanical properties :
#
#
# Convention : Reuss Voigt Hill
#
# Bulk Modulus (GPa) = 31.67843 40.56257 36.12050
# Shear Modulus (GPa) = 22.00903 25.29976 23.65439
#
# Velocity S-wave (km/s) = 3.38858 3.63308 3.51296
# Velocity P-wave (km/s) = 5.64244 6.22585 5.94131
#
# Compressibility (1/GPa) = 0.03156722
#
# Stress axis : x y z
#
# Youngs Moduli (GPa) = 53.01744 55.59230 53.98468
#
# Poissons Ratio (x) = 0.34758 0.16410
# Poissons Ratio (y) = 0.33148 0.14096
# Poissons Ratio (z) = 0.16116 0.14516
#
# Static dielectric constant tensor:
#      x y z
#    x 3.470580 0.000000 0.033480 
#    y 0.000000 3.335650 0.000000 
#    z 0.033480 0.000000 3.540990 
# 
# 
# High freq. dielectric constant tensor:
#      x y z
#    x 1.744560 0.000000 -0.013780 
#    y 0.000000 1.717020 0.000000 
#    z -0.013780 0.000000 1.747640 
# 
# From -- ./inp_files/16970.got.cif
#   From: 2010.03.12/outbox.cif.g09.slc.cpg/sg14_9_cif.got.tgz:16970.got - 2010.03.31 13:35:05.
