data_PCOD8124067
_publ_section_title
;
Structure prediction by ZEFSAII (Michael W. Deem and Ramdas Pophale) SiO2 
 PCOD8124067
Probable space group: P 21/C
;
_chemical_formula_sum "Si O2"
_cell_formula_units_Z 32
_cell_length_a 5.197253
_cell_length_b 34.596360
_cell_length_c 9.662916
_cell_angle_alpha 90.000000
_cell_angle_beta 57.250889
_cell_angle_gamma 90.000000
_cell_volume 1461.278338
_symmetry_space_group_name_H-M "P 21/C"
_symmetry_group_IT_number 14
_symmetry_cell_setting 'monoclinic'
loop_
_space_group_symop_operation_xyz
x,y,z
-x,1/2+y,1/2-z
-x,-y,-z
x,1/2-y,1/2+z
loop_
_atom_site_type_symbol
_atom_site_label
_atom_site_fract_x
_atom_site_fract_y
_atom_site_fract_z
Si Si1 0.032102 0.617563 0.713470
Si Si2 0.588507 0.840260 0.158436
Si Si3 0.917161 0.282491 0.821155
Si Si4 0.037410 0.133392 0.216513
Si Si5 0.089475 0.465224 0.159233
Si Si6 0.714773 0.756236 0.050783
Si Si7 0.466146 0.008391 0.285387
Si Si8 0.593461 0.409011 0.661121
O O1 0.241412 0.644835 0.748442
O O2 0.218160 0.603204 0.527119
O O3 0.738478 0.642463 0.753513
O O4 0.921831 0.580974 0.833120
O O5 0.590626 0.793992 0.167003
O O6 0.780120 0.853684 0.971317
O O7 0.142731 0.267543 0.636938
O O8 0.023906 0.264160 0.934485
O O9 0.928867 0.328836 0.831141
O O10 0.568307 0.272143 0.890321
O O11 0.746621 0.107812 0.255839
O O12 0.249061 0.107397 0.254001
O O13 0.250784 0.481936 0.249428
O O14 0.748669 0.482643 0.250503
O O15 0.280513 0.475791 0.969343
O O16 0.592882 0.044631 0.162889
#
# Coordination Sequence:
#
# PCOD8124067 Si02
#       8
#     4   4   4   4   4   4   4   4
#     4  10  19  34  56  79 101 134 181 223 263 317
#     4   9  19  35  55  78 108 143 176 221 279 327
#     4  11  22  39  61  86 118 155 194 237 289 345
#     4   9  19  35  55  78 108 143 176 221 279 327
#     4  10  21  36  52  73 105 140 169 207 267 325
#     4  11  22  39  61  86 118 155 194 237 289 345
#     4  10  21  36  52  73 105 140 169 207 267 325
#     4  10  19  34  56  79 101 134 181 223 263 317
#
# _framework density 21.898631999999999
#
# number of rings (size 3 to 8) (size 9 to 14) (size 15 to 20)
#    0.000    2.000    0.000    3.750    0.000    5.000 
#    0.000    7.500    0.000    0.000    0.000    0.000 
#    0.000    0.000    0.000    0.000    0.000    0.000 
#
# Total GULP energy -396961.551344 kJ/mol
# GULP energy per Si atom -12405.048479 kJ/mol
# Density = 2.184879 g / cm^3
# Si number density = 21.898632 Si / 1000 Ang^3
#
#
#
# Elastic Constant Matrix: (Units=GPa)
#
#
# Indices 1 2 3 4 5 6 
#
# 1 170.7669 21.6908 4.2144 0.0000 5.2738 0.0000
# 2 21.6908 38.4382 -1.5117 0.0000 4.7099 0.0000
# 3 4.2144 -1.5117 13.7027 0.0000 -2.2626 0.0000
# 4 0.0000 0.0000 0.0000 27.9558 0.0000 -1.1422
# 5 5.2738 4.7099 -2.2626 0.0000 10.8188 0.0000
# 6 0.0000 0.0000 0.0000 -1.1422 0.0000 47.0170
#
#
#
# Elastic Compliance Matrix: (Units=1/GPa)
#
#
# Indices 1 2 3 4 5 6 
#
# 1 0.006431 -0.003467 -0.002723 0.000000 -0.002195 0.000000
# 2 -0.003467 0.029367 0.002563 0.000000 -0.010559 0.000000
# 3 -0.002723 0.002563 0.076785 0.000000 0.016270 0.000000
# 4 0.000000 0.000000 0.000000 0.035806 0.000000 0.000870
# 5 -0.002195 -0.010559 0.016270 0.000000 0.101501 0.000000
# 6 0.000000 0.000000 0.000000 0.000870 0.000000 0.021290
#
#
# Mechanical properties :
#
#
# Convention : Reuss Voigt Hill
#
# Bulk Modulus (GPa) = 9.49415 30.18832 19.84123
# Shear Modulus (GPa) = 15.94666 30.39262 23.16964
#
# Velocity S-wave (km/s) = 2.70145 3.72946 3.25628
# Velocity P-wave (km/s) = 3.75172 5.68864 4.81851
#
# Compressibility (1/GPa) = 0.10532807
#
# Stress axis : x y z
#
# Youngs Moduli (GPa) = 155.48834 34.05185 13.02339
#
# Poissons Ratio (x) = 0.11807 0.03546
# Poissons Ratio (y) = 0.53913 -0.03338
# Poissons Ratio (z) = 0.42339 -0.08727
#
# Static dielectric constant tensor:
#      x y z
#    x 4.266420 0.000000 0.015320 
#    y 0.000000 4.057350 0.000000 
#    z 0.015320 0.000000 3.486700 
# 
# 
# High freq. dielectric constant tensor:
#      x y z
#    x 1.878700 0.000000 0.000110 
#    y 0.000000 1.870620 0.000000 
#    z 0.000110 0.000000 1.830450 
# 
# From -- ./inp_files/22343.got.cif
#   From: 2010.03.12/outbox.cif.g09.slc.cpg/sg14_12_cif.got.tgz:22343.got - 2010.03.31 13:35:05.
