data_PCOD8124797
_publ_section_title
;
Structure prediction by ZEFSAII (Michael W. Deem and Ramdas Pophale) SiO2 
 PCOD8124797
Probable space group: P 21/C
;
_chemical_formula_sum "Si O2"
_cell_formula_units_Z 24
_cell_length_a 11.066671
_cell_length_b 10.729782
_cell_length_c 8.922412
_cell_angle_alpha 90.000000
_cell_angle_beta 111.279006
_cell_angle_gamma 90.000000
_cell_volume 987.243280
_symmetry_space_group_name_H-M "P 21/C"
_symmetry_group_IT_number 14
_symmetry_cell_setting 'monoclinic'
loop_
_space_group_symop_operation_xyz
x,y,z
-x,1/2+y,1/2-z
-x,-y,-z
x,1/2-y,1/2+z
loop_
_atom_site_type_symbol
_atom_site_label
_atom_site_fract_x
_atom_site_fract_y
_atom_site_fract_z
Si Si1 0.076292 0.845815 0.389526
Si Si2 0.948308 0.101011 0.273453
Si Si3 0.318383 0.605967 0.492749
Si Si4 0.324127 0.614405 0.828862
Si Si5 0.549859 0.849254 0.903132
Si Si6 0.595624 0.860595 0.593533
O O1 0.998749 0.722184 0.296175
O O2 0.061309 0.857127 0.558970
O O3 0.226983 0.815849 0.404359
O O4 0.034194 0.975785 0.292385
O O5 0.809308 0.059510 0.147990
O O6 0.288801 0.661597 0.644971
O O7 0.415107 0.491572 0.565253
O O8 0.407467 0.688907 0.417235
O O9 0.292603 0.464591 0.834911
O O10 0.478020 0.603313 0.927761
O O11 0.536190 0.813858 0.724218
O O12 0.655687 0.761725 0.036479
#
# Coordination Sequence:
#
# PCOD8124797 Si02
#       6
#     4   4   4   4   4   4
#     4  11  25  44  66  91 121 160 205 254 307 363
#     4  11  25  44  66  91 121 160 205 254 307 363
#     4  10  21  37  58  84 116 155 197 243 296 356
#     4  10  21  37  58  84 116 155 197 243 296 356
#     4  10  20  34  55  84 118 155 194 240 295 355
#     4  10  20  34  55  84 118 155 194 240 295 355
#
# _framework density 24.310119
#
# number of rings (size 3 to 8) (size 9 to 14) (size 15 to 20)
#    0.000    1.667    0.000    4.000    0.000    8.000 
#    0.000    6.667    0.000    0.000    0.000    0.000 
#    0.000    0.000    0.000    0.000    0.000    0.000 
#
# Total GULP energy -297384.214139 kJ/mol
# GULP energy per Si atom -12391.008922 kJ/mol
# Density = 2.425479 g / cm^3
# Si number density = 24.310119 Si / 1000 Ang^3
#
#
#
# Elastic Constant Matrix: (Units=GPa)
#
#
# Indices 1 2 3 4 5 6 
#
# 1 39.4551 6.0852 15.5948 0.0000 1.1734 0.0000
# 2 6.0852 77.7007 24.8480 0.0000 -1.2599 0.0000
# 3 15.5948 24.8480 150.8820 0.0000 -10.1873 0.0000
# 4 0.0000 0.0000 0.0000 44.2770 0.0000 -4.4042
# 5 1.1734 -1.2599 -10.1873 0.0000 24.7628 0.0000
# 6 0.0000 0.0000 0.0000 -4.4042 0.0000 32.4463
#
#
#
# Elastic Compliance Matrix: (Units=1/GPa)
#
#
# Indices 1 2 3 4 5 6 
#
# 1 0.026686 -0.001261 -0.002716 0.000000 -0.002446 0.000000
# 2 -0.001261 0.013646 -0.002125 0.000000 -0.000120 0.000000
# 3 -0.002716 -0.002125 0.007467 0.000000 0.003092 0.000000
# 4 0.000000 0.000000 0.000000 0.022894 0.000000 0.003108
# 5 -0.002446 -0.000120 0.003092 0.000000 0.041765 0.000000
# 6 0.000000 0.000000 0.000000 0.003108 0.000000 0.031242
#
#
# Mechanical properties :
#
#
# Convention : Reuss Voigt Hill
#
# Bulk Modulus (GPa) = 28.09341 40.12155 34.10748
# Shear Modulus (GPa) = 29.80278 35.06456 32.43367
#
# Velocity S-wave (km/s) = 3.50514 3.80200 3.65658
# Velocity P-wave (km/s) = 5.28798 5.98443 5.64695
#
# Compressibility (1/GPa) = 0.03559554
#
# Stress axis : x y z
#
# Youngs Moduli (GPa) = 37.47301 73.27989 133.91991
#
# Poissons Ratio (x) = 0.09242 0.36368
# Poissons Ratio (y) = 0.04726 0.28459
# Poissons Ratio (z) = 0.10176 0.15573
#
# Static dielectric constant tensor:
#      x y z
#    x 3.975660 0.000000 -0.227770 
#    y 0.000000 5.584860 0.000000 
#    z -0.227770 0.000000 4.390660 
# 
# 
# High freq. dielectric constant tensor:
#      x y z
#    x 1.922140 0.000000 -0.013740 
#    y 0.000000 2.018800 0.000000 
#    z -0.013740 0.000000 1.974110 
# 
# From -- ./inp_files/12512.got.cif
#   From: 2010.03.12/outbox.cif.g09.slc.cpg/sg14_7_cif.got.tgz:12512.got - 2010.03.31 13:35:05.
