data_PCOD8124478
_publ_section_title
;
Structure prediction by ZEFSAII (Michael W. Deem and Ramdas Pophale) SiO2 
 PCOD8124478
Probable space group: P 21/C
;
_chemical_formula_sum "Si O2"
_cell_formula_units_Z 32
_cell_length_a 15.513110
_cell_length_b 8.555489
_cell_length_c 15.165014
_cell_angle_alpha 90.000000
_cell_angle_beta 58.168794
_cell_angle_gamma 90.000000
_cell_volume 1710.030559
_symmetry_space_group_name_H-M "P 21/C"
_symmetry_group_IT_number 14
_symmetry_cell_setting 'monoclinic'
loop_
_space_group_symop_operation_xyz
x,y,z
-x,1/2+y,1/2-z
-x,-y,-z
x,1/2-y,1/2+z
loop_
_atom_site_type_symbol
_atom_site_label
_atom_site_fract_x
_atom_site_fract_y
_atom_site_fract_z
Si Si1 0.727566 0.441792 0.419955
Si Si2 0.115996 0.044018 0.031070
Si Si3 0.713258 0.905009 0.305241
Si Si4 0.610165 0.284626 0.875579
Si Si5 0.623444 0.759413 0.016046
Si Si6 0.105714 0.609269 0.350960
Si Si7 0.233327 0.589457 0.787649
Si Si8 0.263928 0.295745 0.878248
O O1 0.824076 0.433324 0.432506
O O2 0.671283 0.274615 0.431399
O O3 0.644736 0.555791 0.507997
O O4 0.767631 0.508138 0.303812
O O5 0.006714 0.093174 0.129650
O O6 0.174494 0.203904 0.976222
O O7 0.102364 0.937449 0.954053
O O8 0.701629 0.813405 0.403056
O O9 0.697824 0.793487 0.229441
O O10 0.623810 0.032497 0.351462
O O11 0.820820 0.995591 0.244604
O O12 0.491752 0.258393 0.950814
O O13 0.659612 0.187518 0.766464
O O14 0.643554 0.686401 0.102128
O O15 0.140154 0.789361 0.332610
O O16 0.224743 0.469165 0.873320
#
# Coordination Sequence:
#
# PCOD8124478 Si02
#       8
#     4   4   4   4   4   4   4   4
#     4   9  19  36  55  79 112 143 183 228 286 334
#     4   9  19  37  57  83 105 148 182 229 292 336
#     4  10  19  38  53  80 115 146 184 241 276 330
#     4   9  20  34  58  79 111 151 189 233 282 342
#     4  11  20  35  57  82 110 153 191 230 289 336
#     4   9  19  37  58  77 116 142 184 235 281 339
#     4   9  19  37  54  79 113 148 183 235 283 334
#     4  10  21  35  57  79 116 146 185 238 282 336
#
# _framework density 18.713115999999999
#
# number of rings (size 3 to 8) (size 9 to 14) (size 15 to 20)
#    0.750    1.750    1.250    0.750    0.000    2.500 
#    4.500    3.750    0.000    0.000    0.000    0.000 
#    0.000    0.000    0.000    0.000    0.000    0.000 
#
# Total GULP energy -396496.009509 kJ/mol
# GULP energy per Si atom -12390.500297 kJ/mol
# Density = 1.867052 g / cm^3
# Si number density = 18.713116 Si / 1000 Ang^3
#
#
#
# Elastic Constant Matrix: (Units=GPa)
#
#
# Indices 1 2 3 4 5 6 
#
# 1 121.5188 33.2858 38.9971 0.0000 -8.7307 0.0000
# 2 33.2858 74.9107 20.7684 0.0000 -0.6911 0.0000
# 3 38.9971 20.7684 59.4191 0.0000 -4.0089 0.0000
# 4 0.0000 0.0000 0.0000 21.1965 0.0000 1.8762
# 5 -8.7307 -0.6911 -4.0089 0.0000 30.3835 0.0000
# 6 0.0000 0.0000 0.0000 1.8762 0.0000 17.7276
#
#
#
# Elastic Compliance Matrix: (Units=1/GPa)
#
#
# Indices 1 2 3 4 5 6 
#
# 1 0.011249 -0.003293 -0.006073 0.000000 0.002356 0.000000
# 2 -0.003293 0.015749 -0.003414 0.000000 -0.001038 0.000000
# 3 -0.006073 -0.003414 0.022082 0.000000 0.001091 0.000000
# 4 0.000000 0.000000 0.000000 0.047624 0.000000 -0.005040
# 5 0.002356 -0.001038 0.001091 0.000000 0.033710 0.000000
# 6 0.000000 0.000000 0.000000 -0.005040 0.000000 0.056943
#
#
# Mechanical properties :
#
#
# Convention : Reuss Voigt Hill
#
# Bulk Modulus (GPa) = 42.51446 49.10567 45.81006
# Shear Modulus (GPa) = 22.64931 24.71466 23.68198
#
# Velocity S-wave (km/s) = 3.48277 3.63810 3.56129
# Velocity P-wave (km/s) = 6.24030 6.62918 6.43768
#
# Compressibility (1/GPa) = 0.02352141
#
# Stress axis : x y z
#
# Youngs Moduli (GPa) = 88.89327 63.49492 45.28553
#
# Poissons Ratio (x) = 0.20910 0.27502
# Poissons Ratio (y) = 0.29274 0.15458
# Poissons Ratio (z) = 0.53986 0.21674
#
# Static dielectric constant tensor:
#      x y z
#    x 3.338720 0.000000 -0.028200 
#    y 0.000000 3.346810 0.000000 
#    z -0.028200 0.000000 3.396560 
# 
# 
# High freq. dielectric constant tensor:
#      x y z
#    x 1.711130 0.000000 -0.004160 
#    y 0.000000 1.724630 0.000000 
#    z -0.004160 0.000000 1.717680 
# 
# From -- ./inp_files/46484.got.cif
#   From: 2010.03.12/outbox.cif.g09.slc.cpg/sg14_24_cif.got.tgz:46484.got - 2010.03.31 13:35:05.
