data_PCOD8124303
_publ_section_title
;
Structure prediction by ZEFSAII (Michael W. Deem and Ramdas Pophale) SiO2 
 PCOD8124303
Probable space group: P 21/C
;
_chemical_formula_sum "Si O2"
_cell_formula_units_Z 28
_cell_length_a 19.463487
_cell_length_b 16.873120
_cell_length_c 10.640155
_cell_angle_alpha 90.000000
_cell_angle_beta 154.183690
_cell_angle_gamma 90.000000
_cell_volume 1521.736868
_symmetry_space_group_name_H-M "P 21/C"
_symmetry_group_IT_number 14
_symmetry_cell_setting 'monoclinic'
loop_
_space_group_symop_operation_xyz
x,y,z
-x,1/2+y,1/2-z
-x,-y,-z
x,1/2-y,1/2+z
loop_
_atom_site_type_symbol
_atom_site_label
_atom_site_fract_x
_atom_site_fract_y
_atom_site_fract_z
Si Si1 0.724133 0.408982 0.718753
Si Si2 0.500005 0.697995 0.500001
Si Si3 0.372737 0.151269 0.199508
Si Si4 0.724135 0.591018 0.718736
Si Si5 0.972412 0.812930 0.314220
Si Si6 0.627270 0.348727 0.300519
Si Si7 0.972419 0.187072 0.314259
O O1 0.644008 0.356160 0.693339
O O2 0.713830 0.500002 0.741914
O O3 0.628470 0.394879 0.432879
O O4 0.905948 0.385112 0.002711
O O5 0.571075 0.756365 0.725641
O O6 0.644033 0.643853 0.693357
O O7 0.428922 0.756362 0.274342
O O8 0.500005 0.107665 0.500017
O O9 0.371541 0.105114 0.067156
O O10 0.201692 0.150652 0.984423
O O11 0.905948 0.614886 0.002669
O O12 0.999987 0.750001 0.249962
O O13 0.000003 0.775550 0.499990
O O14 0.798314 0.349343 0.515601
#
# Coordination Sequence:
#
# PCOD8124303 Si02
#       7
#     4   4   4   4   4   4   4
#     4  11  22  36  58  88 116 147 187 241 290 331
#     4  10  19  36  59  80 112 152 190 222 279 346
#     4   9  20  35  60  83 112 147 199 223 281 342
#     4  11  22  36  58  88 116 147 187 241 290 331
#     4  10  19  36  59  85 113 153 193 236 280 349
#     4   9  20  35  60  83 112 147 199 223 281 342
#     4  10  19  36  59  85 113 153 193 236 280 349
#
# _framework density 18.400027000000001
#
# number of rings (size 3 to 8) (size 9 to 14) (size 15 to 20)
#    0.857    1.143    2.857    1.286    0.000    5.714 
#    0.000    0.000    0.000    0.857    0.000    0.000 
#    0.000    0.000    0.000    0.000    0.000    0.000 
#
# Total GULP energy -346990.856426 kJ/mol
# GULP energy per Si atom -12392.530587 kJ/mol
# Density = 1.835815 g / cm^3
# Si number density = 18.400027 Si / 1000 Ang^3
#
#
#
# Elastic Constant Matrix: (Units=GPa)
#
#
# Indices 1 2 3 4 5 6 
#
# 1 58.7406 6.9090 16.2504 0.0000 8.3754 0.0000
# 2 6.9090 83.2357 9.3877 0.0000 3.2303 0.0000
# 3 16.2504 9.3877 110.4770 0.0000 14.5702 0.0000
# 4 0.0000 0.0000 0.0000 18.0994 0.0000 5.1089
# 5 8.3754 3.2303 14.5702 0.0000 29.9622 0.0000
# 6 0.0000 0.0000 0.0000 5.1089 0.0000 17.3581
#
#
#
# Elastic Compliance Matrix: (Units=1/GPa)
#
#
# Indices 1 2 3 4 5 6 
#
# 1 0.018298 -0.001131 -0.002070 0.000000 -0.003987 0.000000
# 2 -0.001131 0.012221 -0.000791 0.000000 -0.000617 0.000000
# 3 -0.002070 -0.000791 0.009976 0.000000 -0.004187 0.000000
# 4 0.000000 0.000000 0.000000 0.060256 0.000000 -0.017735
# 5 -0.003987 -0.000617 -0.004187 0.000000 0.036592 0.000000
# 6 0.000000 0.000000 0.000000 -0.017735 0.000000 0.062830
#
#
# Mechanical properties :
#
#
# Convention : Reuss Voigt Hill
#
# Bulk Modulus (GPa) = 30.75765 35.28305 33.02035
# Shear Modulus (GPa) = 22.83180 27.74437 25.28809
#
# Velocity S-wave (km/s) = 3.52640 3.88731 3.71125
# Velocity P-wave (km/s) = 5.77348 6.27419 6.02903
#
# Compressibility (1/GPa) = 0.03251224
#
# Stress axis : x y z
#
# Youngs Moduli (GPa) = 54.65092 81.82599 100.24554
#
# Poissons Ratio (x) = 0.09252 0.20747
# Poissons Ratio (y) = 0.06179 0.07927
# Poissons Ratio (z) = 0.11311 0.06471
#
# Static dielectric constant tensor:
#      x y z
#    x 3.411410 0.000000 0.141180 
#    y 0.000000 3.077280 0.000000 
#    z 0.141180 0.000000 3.516450 
# 
# 
# High freq. dielectric constant tensor:
#      x y z
#    x 1.712160 0.000000 0.017430 
#    y 0.000000 1.686810 0.000000 
#    z 0.017430 0.000000 1.720080 
# 
# From -- ./inp_files/18180.got.cif
#   From: 2010.03.12/outbox.cif.g09.slc.cpg/sg14_10_cif.got.tgz:18180.got - 2010.03.31 13:35:05.
