data_PCOD8124508
_publ_section_title
;
Structure prediction by ZEFSAII (Michael W. Deem and Ramdas Pophale) SiO2 
 PCOD8124508
Probable space group: P 21/C
;
_chemical_formula_sum "Si O2"
_cell_formula_units_Z 32
_cell_length_a 8.829993
_cell_length_b 8.487305
_cell_length_c 23.267165
_cell_angle_alpha 90.000000
_cell_angle_beta 112.015099
_cell_angle_gamma 90.000000
_cell_volume 1616.565258
_symmetry_space_group_name_H-M "P 21/C"
_symmetry_group_IT_number 14
_symmetry_cell_setting 'monoclinic'
loop_
_space_group_symop_operation_xyz
x,y,z
-x,1/2+y,1/2-z
-x,-y,-z
x,1/2-y,1/2+z
loop_
_atom_site_type_symbol
_atom_site_label
_atom_site_fract_x
_atom_site_fract_y
_atom_site_fract_z
Si Si1 0.828254 0.082601 0.977498
Si Si2 0.826283 0.241466 0.366782
Si Si3 0.895780 0.891785 0.167048
Si Si4 0.590862 0.831260 0.889486
Si Si5 0.581058 0.469482 0.277597
Si Si6 0.863669 0.844561 0.766603
Si Si7 0.355796 0.568244 0.440871
Si Si8 0.255490 0.396115 0.164833
O O1 0.823492 0.232656 0.934970
O O2 0.703287 0.951360 0.939079
O O3 0.780344 0.140685 0.035227
O O4 0.000000 0.000000 0.000000
O O5 0.662436 0.311770 0.315179
O O6 0.982408 0.330035 0.364085
O O7 0.841533 0.056811 0.357707
O O8 0.859889 0.755338 0.207785
O O9 0.726803 0.934398 0.111126
O O10 0.973958 0.046804 0.208531
O O11 0.539849 0.903895 0.820899
O O12 0.431638 0.801888 0.907397
O O13 0.686128 0.668985 0.889279
O O14 0.702341 0.545502 0.247290
O O15 0.412114 0.418536 0.226859
O O16 0.866790 0.727522 0.822067
O O17 0.500000 0.500000 0.500000
#
# Coordination Sequence:
#
# PCOD8124508 Si02
#       8
#     4   4   4   4   4   4   4   4
#     4  10  19  38  61  78 105 152 205 242 285 348
#     4  10  20  34  57  85 110 159 195 239 290 352
#     4  11  21  38  59  88 123 149 202 242 300 354
#     4   9  20  35  56  86 112 147 198 241 285 342
#     4   9  19  35  56  82 118 160 194 226 286 354
#     4  10  22  34  57  88 120 157 189 244 296 358
#     4  10  21  36  62  84 109 154 207 249 284 344
#     4  11  20  35  56  85 124 150 191 235 299 355
#
# _framework density 19.795057
#
# number of rings (size 3 to 8) (size 9 to 14) (size 15 to 20)
#    0.000    2.000    1.250    3.750    0.000    4.000 
#    0.000    1.250    0.000    0.000    0.000    0.000 
#    0.000    0.000    0.000    0.000    0.000    0.000 
#
# Total GULP energy -396683.151522 kJ/mol
# GULP energy per Si atom -12396.348485 kJ/mol
# Density = 1.975000 g / cm^3
# Si number density = 19.795057 Si / 1000 Ang^3
#
#
#
# Elastic Constant Matrix: (Units=GPa)
#
#
# Indices 1 2 3 4 5 6 
#
# 1 73.8365 3.1878 33.9870 0.0000 -18.6825 0.0000
# 2 3.1878 73.8375 16.3005 0.0000 -7.4914 0.0000
# 3 33.9870 16.3005 79.4830 0.0000 -14.5132 0.0000
# 4 0.0000 0.0000 0.0000 14.2332 0.0000 -9.9064
# 5 -18.6825 -7.4914 -14.5132 0.0000 39.2810 0.0000
# 6 0.0000 0.0000 0.0000 -9.9064 0.0000 26.7939
#
#
#
# Elastic Compliance Matrix: (Units=1/GPa)
#
#
# Indices 1 2 3 4 5 6 
#
# 1 0.018298 0.001392 -0.006941 0.000000 0.006404 0.000000
# 2 0.001392 0.014404 -0.003138 0.000000 0.002250 0.000000
# 3 -0.006941 -0.003138 0.016601 0.000000 0.002234 0.000000
# 4 0.000000 0.000000 0.000000 0.094603 0.000000 0.034977
# 5 0.006404 0.002250 0.002234 0.000000 0.029758 0.000000
# 6 0.000000 0.000000 0.000000 0.034977 0.000000 0.050254
#
#
# Mechanical properties :
#
#
# Convention : Reuss Voigt Hill
#
# Bulk Modulus (GPa) = 31.31931 37.12307 34.22119
# Shear Modulus (GPa) = 19.84638 27.64039 23.74339
#
# Velocity S-wave (km/s) = 3.16981 3.74080 3.46708
# Velocity P-wave (km/s) = 5.40861 6.11985 5.77519
#
# Compressibility (1/GPa) = 0.03192919
#
# Stress axis : x y z
#
# Youngs Moduli (GPa) = 54.64932 69.42397 60.23866
#
# Poissons Ratio (x) = -0.09663 0.41809
# Poissons Ratio (y) = -0.07607 0.18906
# Poissons Ratio (z) = 0.37930 0.21789
#
# Static dielectric constant tensor:
#      x y z
#    x 4.067940 0.000000 -0.397240 
#    y 0.000000 3.548780 0.000000 
#    z -0.397240 0.000000 3.748960 
# 
# 
# High freq. dielectric constant tensor:
#      x y z
#    x 1.784400 0.000000 -0.011780 
#    y 0.000000 1.747700 0.000000 
#    z -0.011780 0.000000 1.767140 
# 
# From -- ./inp_files/71934.got.cif
#   From: 2010.03.12/outbox.cif.g09.slc.cpg/sg14_36_cif.got.tgz:71934.got - 2010.03.31 13:35:05.
