data_PCOD8124112
_publ_section_title
;
Structure prediction by ZEFSAII (Michael W. Deem and Ramdas Pophale) SiO2 
 PCOD8124112
Probable space group: P 21/C
;
_chemical_formula_sum "Si O2"
_cell_formula_units_Z 20
_cell_length_a 14.432598
_cell_length_b 11.684656
_cell_length_c 10.833088
_cell_angle_alpha 90.000000
_cell_angle_beta 141.206510
_cell_angle_gamma 90.000000
_cell_volume 1144.575300
_symmetry_space_group_name_H-M "P 21/C"
_symmetry_group_IT_number 14
_symmetry_cell_setting 'monoclinic'
loop_
_space_group_symop_operation_xyz
x,y,z
-x,1/2+y,1/2-z
-x,-y,-z
x,1/2-y,1/2+z
loop_
_atom_site_type_symbol
_atom_site_label
_atom_site_fract_x
_atom_site_fract_y
_atom_site_fract_z
Si Si1 0.087809 0.170792 0.556903
Si Si2 0.838518 0.096358 0.118143
Si Si3 0.327135 0.983775 0.826589
Si Si4 0.854711 0.165614 0.531026
Si Si5 0.953904 0.918490 0.062282
O O1 0.124504 0.303724 0.569777
O O2 0.997504 0.113712 0.350156
O O3 0.995107 0.157053 0.585883
O O4 0.242231 0.105012 0.732721
O O5 0.710349 0.082182 0.085762
O O6 0.802308 0.203746 0.992882
O O7 0.841534 0.984266 0.035606
O O8 0.282117 0.905481 0.663934
O O9 0.500000 0.000000 0.000000
O O10 0.898164 0.116851 0.710205
O O11 0.000000 0.000000 0.000000
#
# Coordination Sequence:
#
# PCOD8124112 Si02
#       5
#     4   4   4   4   4
#     4  10  19  34  61  81 109 149 191 236 289 329
#     4  10  19  36  58  83 112 142 189 248 277 329
#     4  11  22  40  57  81 119 162 189 222 291 359
#     4  10  19  37  58  84 112 141 193 244 282 329
#     4  11  19  31  60  92 108 134 188 252 287 318
#
# _framework density 17.473731000000001
#
# number of rings (size 3 to 8) (size 9 to 14) (size 15 to 20)
#    0.000    1.600    6.000    1.200    0.000    0.000 
#    3.600    0.000    0.000    2.400    0.000    0.000 
#    0.000    0.000    0.000    0.000    0.000    0.000 
#
# Total GULP energy -248041.679731 kJ/mol
# GULP energy per Si atom -12402.083987 kJ/mol
# Density = 1.743396 g / cm^3
# Si number density = 17.473731 Si / 1000 Ang^3
#
#
#
# Elastic Constant Matrix: (Units=GPa)
#
#
# Indices 1 2 3 4 5 6 
#
# 1 61.4121 43.0524 47.1435 0.0000 2.1477 0.0000
# 2 43.0524 138.4787 58.9452 0.0000 3.4172 0.0000
# 3 47.1435 58.9452 92.5096 0.0000 14.7340 0.0000
# 4 0.0000 0.0000 0.0000 24.9801 0.0000 -11.9285
# 5 2.1477 3.4172 14.7340 0.0000 30.4183 0.0000
# 6 0.0000 0.0000 0.0000 -11.9285 0.0000 39.5160
#
#
#
# Elastic Compliance Matrix: (Units=1/GPa)
#
#
# Indices 1 2 3 4 5 6 
#
# 1 0.028613 -0.003409 -0.013164 0.000000 0.004739 0.000000
# 2 -0.003409 0.010441 -0.005166 0.000000 0.001570 0.000000
# 3 -0.013164 -0.005166 0.022289 0.000000 -0.009286 0.000000
# 4 0.000000 0.000000 0.000000 0.046774 0.000000 0.014119
# 5 0.004739 0.001570 -0.009286 0.000000 0.036862 0.000000
# 6 0.000000 0.000000 0.000000 0.014119 0.000000 0.029568
#
#
# Mechanical properties :
#
#
# Convention : Reuss Voigt Hill
#
# Bulk Modulus (GPa) = 55.97412 65.63140 60.80276
# Shear Modulus (GPa) = 22.32337 28.53351 25.42844
#
# Velocity S-wave (km/s) = 3.57815 4.04535 3.81890
# Velocity P-wave (km/s) = 7.01239 7.71112 7.37004
#
# Compressibility (1/GPa) = 0.01786540
#
# Stress axis : x y z
#
# Youngs Moduli (GPa) = 34.94900 95.77319 44.86593
#
# Poissons Ratio (x) = 0.32651 0.59061
# Poissons Ratio (y) = 0.11915 0.23176
# Poissons Ratio (z) = 0.46007 0.49473
#
# Static dielectric constant tensor:
#      x y z
#    x 3.255030 0.000000 -0.374850 
#    y 0.000000 3.597370 0.000000 
#    z -0.374850 0.000000 2.944200 
# 
# 
# High freq. dielectric constant tensor:
#      x y z
#    x 1.671450 0.000000 -0.034050 
#    y 0.000000 1.699520 0.000000 
#    z -0.034050 0.000000 1.633480 
# 
# From -- ./inp_files/7942.got.cif
#   From: 2010.03.12/outbox.cif.g09.slc.cpg/sg14_4_cif.got.tgz:7942.got - 2010.03.31 13:35:05.
