data_PCOD8124620
_publ_section_title
;
Structure prediction by ZEFSAII (Michael W. Deem and Ramdas Pophale) SiO2 
 PCOD8124620
Probable space group: P 21/C
;
_chemical_formula_sum "Si O2"
_cell_formula_units_Z 28
_cell_length_a 8.324063
_cell_length_b 16.738265
_cell_length_c 15.132927
_cell_angle_alpha 90.000000
_cell_angle_beta 136.882079
_cell_angle_gamma 90.000000
_cell_volume 1441.148059
_symmetry_space_group_name_H-M "P 21/C"
_symmetry_group_IT_number 14
_symmetry_cell_setting 'monoclinic'
loop_
_space_group_symop_operation_xyz
x,y,z
-x,1/2+y,1/2-z
-x,-y,-z
x,1/2-y,1/2+z
loop_
_atom_site_type_symbol
_atom_site_label
_atom_site_fract_x
_atom_site_fract_y
_atom_site_fract_z
Si Si1 0.247270 0.171399 0.265635
Si Si2 0.749537 0.521851 0.639438
Si Si3 0.754681 0.379106 0.906964
Si Si4 0.601139 0.550278 0.860492
Si Si5 0.821189 0.850409 0.308867
Si Si6 0.090444 0.492357 0.634134
Si Si7 0.952218 0.890922 0.638574
O O1 0.521404 0.165384 0.347430
O O2 0.163371 0.256307 0.197870
O O3 0.104370 0.102036 0.158950
O O4 0.178472 0.166260 0.342353
O O5 0.500000 0.500000 0.500000
O O6 0.734019 0.604364 0.686616
O O7 0.903069 0.539609 0.615893
O O8 0.865879 0.450696 0.742065
O O9 0.706186 0.470262 0.858076
O O10 0.894124 0.343454 0.876044
O O11 0.920937 0.379242 0.059216
O O12 0.639604 0.626862 0.813689
O O13 0.325545 0.537509 0.758022
O O14 0.731297 0.562681 0.006192
O O15 0.000000 0.500000 0.500000
#
# Coordination Sequence:
#
# PCOD8124620 Si02
#       7
#     4   4   4   4   4   4   4
#     4  10  25  38  61  93 131 157 203 268 310 366
#     4  11  22  36  64  88 123 166 205 251 313 381
#     4  10  20  40  69  85 119 163 210 259 298 376
#     4  10  19  39  71  86 114 162 219 255 297 375
#     4  11  21  41  60  93 122 159 205 263 321 351
#     4  10  23  40  62  92 124 166 211 252 308 380
#     4  10  20  41  63  93 114 163 215 248 301 375
#
# _framework density 19.428954000000001
#
# number of rings (size 3 to 8) (size 9 to 14) (size 15 to 20)
#    0.000    1.714    2.857    1.714    4.000    5.143 
#    7.714    0.000    0.000    0.000    0.000    0.000 
#    0.000    0.000    0.000    0.000    0.000    0.000 
#
# Total GULP energy -346918.064813 kJ/mol
# GULP energy per Si atom -12389.930886 kJ/mol
# Density = 1.938473 g / cm^3
# Si number density = 19.428954 Si / 1000 Ang^3
#
#
#
# Elastic Constant Matrix: (Units=GPa)
#
#
# Indices 1 2 3 4 5 6 
#
# 1 146.4102 35.8483 61.6199 0.0000 1.9178 0.0000
# 2 35.8483 78.7643 25.9636 0.0000 -1.4067 0.0000
# 3 61.6199 25.9636 138.7119 0.0000 4.4724 0.0000
# 4 0.0000 0.0000 0.0000 17.7545 0.0000 -9.8379
# 5 1.9178 -1.4067 4.4724 0.0000 34.4058 0.0000
# 6 0.0000 0.0000 0.0000 -9.8379 0.0000 19.1968
#
#
#
# Elastic Compliance Matrix: (Units=1/GPa)
#
#
# Indices 1 2 3 4 5 6 
#
# 1 0.009007 -0.002969 -0.003440 0.000000 -0.000176 0.000000
# 2 -0.002969 0.014536 -0.001433 0.000000 0.000946 0.000000
# 3 -0.003440 -0.001433 0.009039 0.000000 -0.001042 0.000000
# 4 0.000000 0.000000 0.000000 0.078661 0.000000 0.040312
# 5 -0.000176 0.000946 -0.001042 0.000000 0.029249 0.000000
# 6 0.000000 0.000000 0.000000 0.040312 0.000000 0.072751
#
#
# Mechanical properties :
#
#
# Convention : Reuss Voigt Hill
#
# Bulk Modulus (GPa) = 59.17085 67.86111 63.51598
# Shear Modulus (GPa) = 21.31659 30.30173 25.80916
#
# Velocity S-wave (km/s) = 3.31593 3.95348 3.64866
# Velocity P-wave (km/s) = 6.72173 7.47286 7.10722
#
# Compressibility (1/GPa) = 0.01690021
#
# Stress axis : x y z
#
# Youngs Moduli (GPa) = 111.02432 68.79288 110.63171
#
# Poissons Ratio (x) = 0.20422 0.38056
# Poissons Ratio (y) = 0.32959 0.15849
# Poissons Ratio (z) = 0.38191 0.09855
#
# Static dielectric constant tensor:
#      x y z
#    x 3.845010 0.000000 -0.031910 
#    y 0.000000 3.291750 0.000000 
#    z -0.031910 0.000000 3.663840 
# 
# 
# High freq. dielectric constant tensor:
#      x y z
#    x 1.772650 0.000000 0.000280 
#    y 0.000000 1.724500 0.000000 
#    z 0.000280 0.000000 1.766010 
# 
# From -- ./inp_files/41809.got.cif
#   From: 2010.03.12/outbox.cif.g09.slc.cpg/sg14_21_cif.got.tgz:41809.got - 2010.03.31 13:35:05.
