data_PCOD8124864
_publ_section_title
;
Structure prediction by ZEFSAII (Michael W. Deem and Ramdas Pophale) SiO2 
 PCOD8124864
Probable space group: P 21/C
;
_chemical_formula_sum "Si O2"
_cell_formula_units_Z 20
_cell_length_a 14.745036
_cell_length_b 8.642342
_cell_length_c 20.398587
_cell_angle_alpha 90.000000
_cell_angle_beta 157.641435
_cell_angle_gamma 90.000000
_cell_volume 988.825782
_symmetry_space_group_name_H-M "P 21/C"
_symmetry_group_IT_number 14
_symmetry_cell_setting 'monoclinic'
loop_
_space_group_symop_operation_xyz
x,y,z
-x,1/2+y,1/2-z
-x,-y,-z
x,1/2-y,1/2+z
loop_
_atom_site_type_symbol
_atom_site_label
_atom_site_fract_x
_atom_site_fract_y
_atom_site_fract_z
Si Si1 0.724762 0.212293 0.474859
Si Si2 0.742947 0.795742 0.666136
Si Si3 0.558619 0.455397 0.138201
Si Si4 0.677524 0.897376 0.239946
Si Si5 0.177165 0.709295 0.107661
O O1 0.558010 0.360137 0.376334
O O2 0.718437 0.170968 0.394067
O O3 0.986478 0.261627 0.674058
O O4 0.632457 0.064817 0.453663
O O5 0.587579 0.821181 0.497234
O O6 0.642691 0.648760 0.640223
O O7 0.724937 0.949637 0.699264
O O8 0.732754 0.374710 0.306910
O O9 0.890501 0.790474 0.412076
O O10 0.737658 0.077499 0.284907
#
# Coordination Sequence:
#
# PCOD8124864 Si02
#       5
#     4   4   4   4   4
#     4  10  20  36  56  82 112 143 185 229 272 325
#     4   9  21  39  55  80 114 145 184 227 272 329
#     4  10  21  38  59  81 110 150 185 222 277 329
#     4   9  20  36  54  81 113 144 182 229 273 322
#     4  10  20  35  56  82 111 144 184 227 274 326
#
# _framework density 20.226009999999999
#
# number of rings (size 3 to 8) (size 9 to 14) (size 15 to 20)
#    0.000    2.400    0.000    1.200    0.000   11.200 
#    0.000   20.000    0.000    0.000    0.000    0.000 
#    0.000    0.000    0.000    0.000    0.000    0.000 
#
# Total GULP energy -248005.265230 kJ/mol
# GULP energy per Si atom -12400.263261 kJ/mol
# Density = 2.017998 g / cm^3
# Si number density = 20.226010 Si / 1000 Ang^3
#
#
#
# Elastic Constant Matrix: (Units=GPa)
#
#
# Indices 1 2 3 4 5 6 
#
# 1 67.8405 6.9820 28.4015 0.0000 10.4377 0.0000
# 2 6.9820 46.9692 20.6856 0.0000 0.3625 0.0000
# 3 28.4015 20.6856 66.8744 0.0000 15.0333 0.0000
# 4 0.0000 0.0000 0.0000 42.8816 0.0000 -5.9068
# 5 10.4377 0.3625 15.0333 0.0000 39.0263 0.0000
# 6 0.0000 0.0000 0.0000 -5.9068 0.0000 26.1220
#
#
#
# Elastic Compliance Matrix: (Units=1/GPa)
#
#
# Indices 1 2 3 4 5 6 
#
# 1 0.018092 0.000594 -0.007421 0.000000 -0.001986 0.000000
# 2 0.000594 0.024985 -0.008641 0.000000 0.002938 0.000000
# 3 -0.007421 -0.008641 0.022240 0.000000 -0.006502 0.000000
# 4 0.000000 0.000000 0.000000 0.024070 0.000000 0.005443
# 5 -0.001986 0.002938 -0.006502 0.000000 0.028632 0.000000
# 6 0.000000 0.000000 0.000000 0.005443 0.000000 0.039513
#
#
# Mechanical properties :
#
#
# Convention : Reuss Voigt Hill
#
# Bulk Modulus (GPa) = 29.08619 32.64693 30.86656
# Shear Modulus (GPa) = 25.00919 29.98034 27.49477
#
# Velocity S-wave (km/s) = 3.52019 3.85420 3.69097
# Velocity P-wave (km/s) = 5.56184 5.99855 5.78432
#
# Compressibility (1/GPa) = 0.03438057
#
# Stress axis : x y z
#
# Youngs Moduli (GPa) = 55.27437 40.02378 44.96494
#
# Poissons Ratio (x) = -0.02378 0.33368
# Poissons Ratio (y) = -0.03285 0.38855
# Poissons Ratio (z) = 0.41019 0.34585
#
# Static dielectric constant tensor:
#      x y z
#    x 3.645700 0.000000 0.021400 
#    y 0.000000 3.542190 0.000000 
#    z 0.021400 0.000000 3.638040 
# 
# 
# High freq. dielectric constant tensor:
#      x y z
#    x 1.787350 0.000000 0.003580 
#    y 0.000000 1.783970 0.000000 
#    z 0.003580 0.000000 1.789900 
# 
# From -- ./inp_files/23041.got.cif
#   From: 2010.03.12/outbox.cif.g09.slc.cpg/sg14_12_cif.got.tgz:23041.got - 2010.03.31 13:35:05.
