data_PCOD8124942
_publ_section_title
;
Structure prediction by ZEFSAII (Michael W. Deem and Ramdas Pophale) SiO2 
 PCOD8124942
Probable space group: P 21/C
;
_chemical_formula_sum "Si O2"
_cell_formula_units_Z 32
_cell_length_a 20.561492
_cell_length_b 9.800125
_cell_length_c 9.217148
_cell_angle_alpha 90.000000
_cell_angle_beta 108.932022
_cell_angle_gamma 90.000000
_cell_volume 1756.830832
_symmetry_space_group_name_H-M "P 21/C"
_symmetry_group_IT_number 14
_symmetry_cell_setting 'monoclinic'
loop_
_space_group_symop_operation_xyz
x,y,z
-x,1/2+y,1/2-z
-x,-y,-z
x,1/2-y,1/2+z
loop_
_atom_site_type_symbol
_atom_site_label
_atom_site_fract_x
_atom_site_fract_y
_atom_site_fract_z
Si Si1 0.873565 0.447292 0.453778
Si Si2 0.235607 0.766427 0.533843
Si Si3 0.332444 0.761679 0.852239
Si Si4 0.081519 0.235894 0.898583
Si Si5 0.462894 0.620178 0.551771
Si Si6 0.123034 0.973978 0.389831
Si Si7 0.015667 0.773246 0.423419
Si Si8 0.463028 0.620443 0.894128
O O1 0.801810 0.375202 0.447476
O O2 0.877838 0.599977 0.522879
O O3 0.879383 0.453063 0.284688
O O4 0.935370 0.358119 0.567667
O O5 0.304359 0.800738 0.673824
O O6 0.262374 0.758744 0.389473
O O7 0.185473 0.894734 0.509548
O O8 0.380441 0.625804 0.867542
O O9 0.380427 0.880866 0.956727
O O10 0.131326 0.367990 0.942510
O O11 0.056174 0.229954 0.714910
O O12 0.009764 0.263904 0.929940
O O13 0.500000 0.500000 0.500000
O O14 0.477456 0.619400 0.733307
O O15 0.497417 0.749555 0.497329
O O16 0.053933 0.913675 0.412405
O O17 0.500000 0.500000 0.000000
#
# Coordination Sequence:
#
# PCOD8124942 Si02
#       8
#     4   4   4   4   4   4   4   4
#     4  11  23  39  58  86 118 148 193 256 289 347
#     4  11  22  40  65  82 111 161 209 232 280 357
#     4  10  20  39  64  87 117 161 198 237 283 349
#     4  12  22  38  59  80 122 146 188 247 317 349
#     4  10  20  35  62  94 127 154 195 239 297 339
#     4  11  23  38  59  87 114 151 196 248 291 354
#     4  11  22  37  61  84 110 153 192 241 307 366
#     4  10  20  35  62  94 126 155 193 241 298 338
#
# _framework density 18.214615999999999
#
# number of rings (size 3 to 8) (size 9 to 14) (size 15 to 20)
#    0.750    0.500    5.000    2.250    1.750    1.000 
#    0.000    0.000    5.500    0.000    0.000    0.000 
#    0.000    0.000    0.000    0.000    0.000    0.000 
#
# Total GULP energy -396519.237099 kJ/mol
# GULP energy per Si atom -12391.226159 kJ/mol
# Density = 1.817316 g / cm^3
# Si number density = 18.214616 Si / 1000 Ang^3
#
#
#
# Elastic Constant Matrix: (Units=GPa)
#
#
# Indices 1 2 3 4 5 6 
#
# 1 79.4034 45.8635 30.5971 0.0000 -1.8736 0.0000
# 2 45.8635 136.8469 47.4259 0.0000 8.3961 0.0000
# 3 30.5971 47.4259 96.5779 0.0000 6.0997 0.0000
# 4 0.0000 0.0000 0.0000 29.6363 0.0000 -2.5095
# 5 -1.8736 8.3961 6.0997 0.0000 36.5316 0.0000
# 6 0.0000 0.0000 0.0000 -2.5095 0.0000 22.5105
#
#
#
# Elastic Compliance Matrix: (Units=1/GPa)
#
#
# Indices 1 2 3 4 5 6 
#
# 1 0.016512 -0.004600 -0.003126 0.000000 0.002426 0.000000
# 2 -0.004600 0.010150 -0.003401 0.000000 -0.002001 0.000000
# 3 -0.003126 -0.003401 0.013114 0.000000 -0.001568 0.000000
# 4 0.000000 0.000000 0.000000 0.034064 0.000000 0.003798
# 5 0.002426 -0.002001 -0.001568 0.000000 0.028220 0.000000
# 6 0.000000 0.000000 0.000000 0.003798 0.000000 0.044847
#
#
# Mechanical properties :
#
#
# Convention : Reuss Voigt Hill
#
# Bulk Modulus (GPa) = 57.06515 62.28903 59.67709
# Shear Modulus (GPa) = 28.57122 30.33178 29.45150
#
# Velocity S-wave (km/s) = 3.96484 4.08517 4.02545
# Velocity P-wave (km/s) = 7.23583 7.51818 7.37835
#
# Compressibility (1/GPa) = 0.01752383
#
# Stress axis : x y z
#
# Youngs Moduli (GPa) = 60.56057 98.51889 76.25582
#
# Poissons Ratio (x) = 0.45315 0.23837
# Poissons Ratio (y) = 0.27855 0.25934
# Poissons Ratio (z) = 0.18930 0.33505
#
# Static dielectric constant tensor:
#      x y z
#    x 3.214570 0.000000 -0.063420 
#    y 0.000000 3.271960 0.000000 
#    z -0.063420 0.000000 3.400740 
# 
# 
# High freq. dielectric constant tensor:
#      x y z
#    x 1.686780 0.000000 -0.008760 
#    y 0.000000 1.692600 0.000000 
#    z -0.008760 0.000000 1.725350 
# 
# From -- ./inp_files/18634.got.cif
#   From: 2010.03.12/outbox.cif.g09.slc.cpg/sg14_10_cif.got.tgz:18634.got - 2010.03.31 13:35:05.
