data_PCOD8124725
_publ_section_title
;
Structure prediction by ZEFSAII (Michael W. Deem and Ramdas Pophale) SiO2 
 PCOD8124725
Probable space group: P 21/C
;
_chemical_formula_sum "Si O2"
_cell_formula_units_Z 28
_cell_length_a 12.698200
_cell_length_b 16.291311
_cell_length_c 8.945775
_cell_angle_alpha 90.000000
_cell_angle_beta 132.007912
_cell_angle_gamma 90.000000
_cell_volume 1375.104236
_symmetry_space_group_name_H-M "P 21/C"
_symmetry_group_IT_number 14
_symmetry_cell_setting 'monoclinic'
loop_
_space_group_symop_operation_xyz
x,y,z
-x,1/2+y,1/2-z
-x,-y,-z
x,1/2-y,1/2+z
loop_
_atom_site_type_symbol
_atom_site_label
_atom_site_fract_x
_atom_site_fract_y
_atom_site_fract_z
Si Si1 0.639687 0.436132 0.474679
Si Si2 0.847866 0.489115 0.926048
Si Si3 0.241659 0.641809 0.950903
Si Si4 0.285063 0.703070 0.681177
Si Si5 0.607704 0.712301 0.044566
Si Si6 0.540693 0.566291 0.164573
Si Si7 0.661887 0.640340 0.783207
O O1 0.739698 0.444329 0.711579
O O2 0.708692 0.369094 0.432873
O O3 0.629695 0.523176 0.380076
O O4 0.482735 0.410294 0.376192
O O5 0.857075 0.432797 0.084038
O O6 0.793435 0.579296 0.915893
O O7 0.000000 0.500000 0.000000
O O8 0.217251 0.717133 0.041773
O O9 0.402625 0.608846 0.103670
O O10 0.195740 0.671290 0.740599
O O11 0.439445 0.727143 0.888645
O O12 0.662430 0.694128 0.932531
O O13 0.640707 0.635158 0.184527
O O14 0.683716 0.795449 0.169473
O O15 0.500000 0.500000 0.000000
#
# Coordination Sequence:
#
# PCOD8124725 Si02
#       7
#     4   4   4   4   4   4   4
#     4  11  21  37  66  94 119 160 206 247 319 362
#     4  12  27  43  60  86 127 167 219 258 304 370
#     4  11  20  38  60  88 129 157 202 253 309 368
#     4  10  20  34  65  98 124 154 198 258 315 373
#     4  10  20  32  59  98 129 144 198 251 320 364
#     4  11  17  33  62  99 125 151 191 260 310 374
#     4  11  22  39  63  92 123 162 199 262 316 366
#
# _framework density 20.362093000000002
#
# number of rings (size 3 to 8) (size 9 to 14) (size 15 to 20)
#    0.000    1.143    5.714    5.571    4.000    0.000 
#    0.000    3.571    0.000    0.000    0.000    0.000 
#    0.000    0.000    0.000    0.000    0.000    0.000 
#
# Total GULP energy -347232.166940 kJ/mol
# GULP energy per Si atom -12401.148819 kJ/mol
# Density = 2.031575 g / cm^3
# Si number density = 20.362093 Si / 1000 Ang^3
#
#
#
# Elastic Constant Matrix: (Units=GPa)
#
#
# Indices 1 2 3 4 5 6 
#
# 1 97.5931 29.6147 30.3617 0.0000 -6.7321 0.0000
# 2 29.6147 101.6322 19.6556 0.0000 -1.9272 0.0000
# 3 30.3617 19.6556 37.0619 0.0000 -10.0851 0.0000
# 4 0.0000 0.0000 0.0000 26.6839 0.0000 -19.7913
# 5 -6.7321 -1.9272 -10.0851 0.0000 14.7044 0.0000
# 6 0.0000 0.0000 0.0000 -19.7913 0.0000 24.9764
#
#
#
# Elastic Compliance Matrix: (Units=1/GPa)
#
#
# Indices 1 2 3 4 5 6 
#
# 1 0.014158 -0.002052 -0.010844 0.000000 -0.001224 0.000000
# 2 -0.002052 0.011380 -0.005169 0.000000 -0.002993 0.000000
# 3 -0.010844 -0.005169 0.045578 0.000000 0.025618 0.000000
# 4 0.000000 0.000000 0.000000 0.090898 0.000000 0.072028
# 5 -0.001224 -0.002993 0.025618 0.000000 0.084624 0.000000
# 6 0.000000 0.000000 0.000000 0.072028 0.000000 0.097112
#
#
# Mechanical properties :
#
#
# Convention : Reuss Voigt Hill
#
# Bulk Modulus (GPa) = 28.58197 43.95013 36.26605
# Shear Modulus (GPa) = 12.77001 23.71661 18.24331
#
# Velocity S-wave (km/s) = 2.50701 3.41654 2.99648
# Velocity P-wave (km/s) = 4.73787 6.09875 5.46087
#
# Compressibility (1/GPa) = 0.03498709
#
# Stress axis : x y z
#
# Youngs Moduli (GPa) = 70.62995 87.87207 21.94061
#
# Poissons Ratio (x) = 0.18028 0.23792
# Poissons Ratio (y) = 0.14491 0.11341
# Poissons Ratio (z) = 0.76589 0.45422
#
# Static dielectric constant tensor:
#      x y z
#    x 3.518180 0.000000 -0.487890 
#    y 0.000000 4.103770 0.000000 
#    z -0.487890 0.000000 3.520540 
# 
# 
# High freq. dielectric constant tensor:
#      x y z
#    x 1.763320 0.000000 -0.053760 
#    y 0.000000 1.824060 0.000000 
#    z -0.053760 0.000000 1.764990 
# 
# From -- ./inp_files/13420.got.cif
#   From: 2010.03.12/outbox.cif.g09.slc.cpg/sg14_7_cif.got.tgz:13420.got - 2010.03.31 13:35:05.
