data_PCOD8124137
_publ_section_title
;
Structure prediction by ZEFSAII (Michael W. Deem and Ramdas Pophale) SiO2 
 PCOD8124137
Probable space group: P 21/C
;
_chemical_formula_sum "Si O2"
_cell_formula_units_Z 32
_cell_length_a 7.760170
_cell_length_b 19.999866
_cell_length_c 11.813483
_cell_angle_alpha 90.000000
_cell_angle_beta 113.354182
_cell_angle_gamma 90.000000
_cell_volume 1683.266913
_symmetry_space_group_name_H-M "P 21/C"
_symmetry_group_IT_number 14
_symmetry_cell_setting 'monoclinic'
loop_
_space_group_symop_operation_xyz
x,y,z
-x,1/2+y,1/2-z
-x,-y,-z
x,1/2-y,1/2+z
loop_
_atom_site_type_symbol
_atom_site_label
_atom_site_fract_x
_atom_site_fract_y
_atom_site_fract_z
Si Si1 0.795466 0.665132 0.829493
Si Si2 0.592210 0.205996 0.118601
Si Si3 0.677084 0.811842 0.776906
Si Si4 0.926658 0.207256 0.768195
Si Si5 0.323232 0.054626 0.869497
Si Si6 0.941893 0.884628 0.012515
Si Si7 0.266138 0.924322 0.951418
Si Si8 0.259566 0.204690 0.442215
O O1 0.674009 0.730580 0.765311
O O2 0.723598 0.596944 0.753939
O O3 0.003912 0.677173 0.834037
O O4 0.785425 0.657016 0.962851
O O5 0.513055 0.166807 0.208276
O O6 0.718983 0.267053 0.191928
O O7 0.714538 0.153190 0.079913
O O8 0.410207 0.236145 0.006244
O O9 0.671392 0.840467 0.646809
O O10 0.858125 0.834735 0.895769
O O11 0.918734 0.151812 0.863650
O O12 0.064540 0.264385 0.849664
O O13 0.230021 0.083142 0.961834
O O14 0.250030 0.977521 0.842599
O O15 0.547730 0.054892 0.932676
O O16 0.081067 0.934533 0.981258
#
# Coordination Sequence:
#
# PCOD8124137 Si02
#       8
#     4   4   4   4   4   4   4   4
#     4   9  18  35  52  75 113 143 181 232 281 330
#     4  11  21  33  55  86 116 146 191 231 287 347
#     4  10  19  35  54  81 117 143 177 244 282 334
#     4  10  20  32  55  83 113 143 184 235 290 340
#     4  10  22  38  54  84 117 147 195 239 273 343
#     4  11  20  37  57  87 117 143 189 236 290 341
#     4  11  21  34  59  82 113 157 187 232 290 334
#     4  10  20  34  53  82 116 148 176 240 292 328
#
# _framework density 19.010652
#
# number of rings (size 3 to 8) (size 9 to 14) (size 15 to 20)
#    0.000    1.750    3.750    3.375    5.250    0.000 
#    0.000    0.000    0.000    3.750    0.000    0.000 
#    0.000    0.000    0.000    0.000    0.000    0.000 
#
# Total GULP energy -396417.590931 kJ/mol
# GULP energy per Si atom -12388.049717 kJ/mol
# Density = 1.896738 g / cm^3
# Si number density = 19.010652 Si / 1000 Ang^3
#
#
#
# Elastic Constant Matrix: (Units=GPa)
#
#
# Indices 1 2 3 4 5 6 
#
# 1 91.1133 8.6581 36.7183 0.0000 -11.5848 0.0000
# 2 8.6581 44.1477 11.4858 0.0000 1.2482 0.0000
# 3 36.7183 11.4858 87.7666 0.0000 -27.2498 0.0000
# 4 0.0000 0.0000 0.0000 19.2828 0.0000 -2.3242
# 5 -11.5848 1.2482 -27.2498 0.0000 30.0355 0.0000
# 6 0.0000 0.0000 0.0000 -2.3242 0.0000 23.2800
#
#
#
# Elastic Compliance Matrix: (Units=1/GPa)
#
#
# Indices 1 2 3 4 5 6 
#
# 1 0.013265 -0.001243 -0.005266 0.000000 0.000391 0.000000
# 2 -0.001243 0.024172 -0.004321 0.000000 -0.005405 0.000000
# 3 -0.005266 -0.004321 0.018916 0.000000 0.015310 0.000000
# 4 0.000000 0.000000 0.000000 0.052491 0.000000 0.005241
# 5 0.000391 -0.005405 0.015310 0.000000 0.047559 0.000000
# 6 0.000000 0.000000 0.000000 0.005241 0.000000 0.043478
#
#
# Mechanical properties :
#
#
# Convention : Reuss Voigt Hill
#
# Bulk Modulus (GPa) = 28.82388 37.41691 33.12039
# Shear Modulus (GPa) = 21.44946 25.59737 23.52341
#
# Velocity S-wave (km/s) = 3.36264 3.67342 3.52146
# Velocity P-wave (km/s) = 5.50194 6.14140 5.83044
#
# Compressibility (1/GPa) = 0.03469346
#
# Stress axis : x y z
#
# Youngs Moduli (GPa) = 75.38534 41.37009 52.86575
#
# Poissons Ratio (x) = 0.05141 0.27838
# Poissons Ratio (y) = 0.09367 0.22846
# Poissons Ratio (z) = 0.39696 0.17878
#
# Static dielectric constant tensor:
#      x y z
#    x 3.701850 0.000000 -0.376250 
#    y 0.000000 3.331220 0.000000 
#    z -0.376250 0.000000 3.517660 
# 
# 
# High freq. dielectric constant tensor:
#      x y z
#    x 1.756640 0.000000 -0.016490 
#    y 0.000000 1.703700 0.000000 
#    z -0.016490 0.000000 1.717190 
# 
# From -- ./inp_files/26661.got.cif
#   From: 2010.03.12/outbox.cif.g09.slc.cpg/sg14_14_cif.got.tgz:26661.got - 2010.03.31 13:35:05.
