data_PCOD8124718
_publ_section_title
;
Structure prediction by ZEFSAII (Michael W. Deem and Ramdas Pophale) SiO2 
 PCOD8124718
Probable space group: P 21/C
;
_chemical_formula_sum "Si O2"
_cell_formula_units_Z 28
_cell_length_a 19.241209
_cell_length_b 19.227990
_cell_length_c 9.054826
_cell_angle_alpha 90.000000
_cell_angle_beta 152.199613
_cell_angle_gamma 90.000000
_cell_volume 1562.420825
_symmetry_space_group_name_H-M "P 21/C"
_symmetry_group_IT_number 14
_symmetry_cell_setting 'monoclinic'
loop_
_space_group_symop_operation_xyz
x,y,z
-x,1/2+y,1/2-z
-x,-y,-z
x,1/2-y,1/2+z
loop_
_atom_site_type_symbol
_atom_site_label
_atom_site_fract_x
_atom_site_fract_y
_atom_site_fract_z
Si Si1 0.438210 0.421800 0.120196
Si Si2 0.726230 0.003943 0.112130
Si Si3 0.453241 0.128314 0.332059
Si Si4 0.237206 0.335833 0.938422
Si Si5 0.058498 0.411014 0.824014
Si Si6 0.237331 0.288571 0.250592
Si Si7 0.259005 0.945648 0.176463
O O1 0.609668 0.443743 0.473028
O O2 0.378830 0.380425 0.150722
O O3 0.433356 0.369716 0.971184
O O4 0.332680 0.487758 0.891857
O O5 0.859272 0.982669 0.472771
O O6 0.630461 0.937779 0.889701
O O7 0.793465 0.037328 0.089424
O O8 0.626543 0.119087 0.614259
O O9 0.384245 0.196366 0.125966
O O10 0.285408 0.287399 0.168538
O O11 0.107871 0.389412 0.749778
O O12 0.176118 0.286162 0.691706
O O13 0.882566 0.421475 0.495245
O O14 0.109654 0.348156 0.031248
#
# Coordination Sequence:
#
# PCOD8124718 Si02
#       7
#     4   4   4   4   4   4   4
#     4   9  17  29  53  76 103 126 160 199 248 290
#     4   8  15  30  49  79 102 128 158 193 244 295
#     4   8  15  31  53  75  94 132 161 200 237 284
#     4  10  20  32  53  71  93 135 170 207 239 289
#     4   9  19  30  51  76 100 132 162 196 248 293
#     4   9  19  34  50  68  93 128 181 199 237 279
#     4   9  16  30  53  76 107 128 152 200 251 308
#
# _framework density 17.920907
#
# number of rings (size 3 to 8) (size 9 to 14) (size 15 to 20)
#    0.857    2.286    0.000    3.000    0.000    1.143 
#    0.000    0.000    9.429    0.000    0.000    0.000 
#    0.000    0.000    0.000    0.000    0.000    0.000 
#
# Total GULP energy -346886.542717 kJ/mol
# GULP energy per Si atom -12388.805097 kJ/mol
# Density = 1.788012 g / cm^3
# Si number density = 17.920907 Si / 1000 Ang^3
#
#
#
# Elastic Constant Matrix: (Units=GPa)
#
#
# Indices 1 2 3 4 5 6 
#
# 1 115.5054 29.7690 31.8048 0.0000 14.0456 0.0000
# 2 29.7690 36.4589 9.3403 0.0000 1.6087 0.0000
# 3 31.8048 9.3403 56.3417 0.0000 14.4133 0.0000
# 4 0.0000 0.0000 0.0000 10.4225 0.0000 -5.5782
# 5 14.0456 1.6087 14.4133 0.0000 23.4335 0.0000
# 6 0.0000 0.0000 0.0000 -5.5782 0.0000 32.4558
#
#
#
# Elastic Compliance Matrix: (Units=1/GPa)
#
#
# Indices 1 2 3 4 5 6 
#
# 1 0.012780 -0.009061 -0.004642 0.000000 -0.004183 0.000000
# 2 -0.009061 0.035094 -0.001752 0.000000 0.004099 0.000000
# 3 -0.004642 -0.001752 0.023636 0.000000 -0.011635 0.000000
# 4 0.000000 0.000000 0.000000 0.105666 0.000000 0.018161
# 5 -0.004183 0.004099 -0.011635 0.000000 0.052056 0.000000
# 6 0.000000 0.000000 0.000000 0.018161 0.000000 0.033933
#
#
# Mechanical properties :
#
#
# Convention : Reuss Voigt Hill
#
# Bulk Modulus (GPa) = 24.62993 38.90380 31.76687
# Shear Modulus (GPa) = 16.25446 22.42182 19.33814
#
# Velocity S-wave (km/s) = 3.01493 3.54100 3.28850
# Velocity P-wave (km/s) = 5.08854 6.20274 5.67306
#
# Compressibility (1/GPa) = 0.04060101
#
# Stress axis : x y z
#
# Youngs Moduli (GPa) = 78.24925 28.49455 42.30807
#
# Poissons Ratio (x) = 0.25819 0.19639
# Poissons Ratio (y) = 0.70901 0.07411
# Poissons Ratio (z) = 0.36323 0.04991
#
# Static dielectric constant tensor:
#      x y z
#    x 3.220520 0.000000 0.001830 
#    y 0.000000 3.293100 0.000000 
#    z 0.001830 0.000000 3.175880 
# 
# 
# High freq. dielectric constant tensor:
#      x y z
#    x 1.691490 0.000000 0.004110 
#    y 0.000000 1.675050 0.000000 
#    z 0.004110 0.000000 1.659480 
# 
# From -- ./inp_files/16784.got.cif
#   From: 2010.03.12/outbox.cif.g09.slc.cpg/sg14_9_cif.got.tgz:16784.got - 2010.03.31 13:35:05.
