data_PCOD8124338
_publ_section_title
;
Structure prediction by ZEFSAII (Michael W. Deem and Ramdas Pophale) SiO2 
 PCOD8124338
Probable space group: P 21/C
;
_chemical_formula_sum "Si O2"
_cell_formula_units_Z 28
_cell_length_a 9.719600
_cell_length_b 20.775901
_cell_length_c 15.054718
_cell_angle_alpha 90.000000
_cell_angle_beta 27.403632
_cell_angle_gamma 90.000000
_cell_volume 1399.201952
_symmetry_space_group_name_H-M "P 21/C"
_symmetry_group_IT_number 14
_symmetry_cell_setting 'monoclinic'
loop_
_space_group_symop_operation_xyz
x,y,z
-x,1/2+y,1/2-z
-x,-y,-z
x,1/2-y,1/2+z
loop_
_atom_site_type_symbol
_atom_site_label
_atom_site_fract_x
_atom_site_fract_y
_atom_site_fract_z
Si Si1 0.115892 0.170842 0.232123
Si Si2 0.660779 0.252901 0.882196
Si Si3 0.053112 0.394272 0.946984
Si Si4 0.242151 0.463581 0.598904
Si Si5 0.769944 0.666538 0.980337
Si Si6 0.661407 0.524361 0.994382
Si Si7 0.549427 0.010890 0.755410
O O1 0.996660 0.150148 0.395563
O O2 0.266988 0.113308 0.090078
O O3 0.818885 0.194010 0.352098
O O4 0.374203 0.224002 0.097618
O O5 0.907434 0.198825 0.721146
O O6 0.513187 0.287048 0.879316
O O7 0.265786 0.454272 0.802873
O O8 0.227505 0.350576 0.917982
O O9 0.734577 0.422537 0.161777
O O10 0.500000 0.500000 0.500000
O O11 0.249229 0.481051 0.488211
O O12 0.962344 0.484431 0.817886
O O13 0.729720 0.600412 0.947545
O O14 0.500000 0.500000 0.000000
O O15 0.490285 0.505811 0.184964
#
# Coordination Sequence:
#
# PCOD8124338 Si02
#       7
#     4   4   4   4   4   4   4
#     4  11  21  38  62  88 120 167 204 254 306 368
#     4  10  23  40  58  84 120 167 216 241 304 366
#     4  10  19  36  61  89 126 153 204 259 307 370
#     4  12  20  36  68  91 119 162 205 252 317 376
#     4  10  22  39  61  85 121 164 202 261 299 368
#     4  11  23  39  62  95 132 156 198 269 327 361
#     4  10  20  36  59  99 123 156 203 246 323 391
#
# _framework density 20.011406999999998
#
# number of rings (size 3 to 8) (size 9 to 14) (size 15 to 20)
#    0.000    1.429    2.857    4.286    0.000    1.714 
#    0.000    0.000    0.000    0.000    0.000    0.000 
#    0.000    0.000    0.000    0.000    0.000    0.000 
#
# Total GULP energy -346920.946466 kJ/mol
# GULP energy per Si atom -12390.033802 kJ/mol
# Density = 1.996586 g / cm^3
# Si number density = 20.011407 Si / 1000 Ang^3
#
#
#
# Elastic Constant Matrix: (Units=GPa)
#
#
# Indices 1 2 3 4 5 6 
#
# 1 117.0814 54.6384 36.3534 0.0000 -0.0580 0.0000
# 2 54.6384 109.9344 27.7849 0.0000 -2.2870 0.0000
# 3 36.3534 27.7849 58.2884 0.0000 4.8228 0.0000
# 4 0.0000 0.0000 0.0000 24.0179 0.0000 -7.6113
# 5 -0.0580 -2.2870 4.8228 0.0000 39.4970 0.0000
# 6 0.0000 0.0000 0.0000 -7.6113 0.0000 37.4316
#
#
#
# Elastic Compliance Matrix: (Units=1/GPa)
#
#
# Indices 1 2 3 4 5 6 
#
# 1 0.012505 -0.004805 -0.005543 0.000000 0.000417 0.000000
# 2 -0.004805 0.012247 -0.002928 0.000000 0.001060 0.000000
# 3 -0.005543 -0.002928 0.022249 0.000000 -0.002894 0.000000
# 4 0.000000 0.000000 0.000000 0.044503 0.000000 0.009049
# 5 0.000417 0.001060 -0.002894 0.000000 0.025734 0.000000
# 6 0.000000 0.000000 0.000000 0.009049 0.000000 0.028555
#
#
# Mechanical properties :
#
#
# Convention : Reuss Voigt Hill
#
# Bulk Modulus (GPa) = 48.90774 58.09529 53.50151
# Shear Modulus (GPa) = 27.90772 31.29115 29.59944
#
# Velocity S-wave (km/s) = 3.73847 3.95861 3.85012
# Velocity P-wave (km/s) = 6.56718 7.07024 6.82335
#
# Compressibility (1/GPa) = 0.02044666
#
# Stress axis : x y z
#
# Youngs Moduli (GPa) = 79.96873 81.65358 44.94683
#
# Poissons Ratio (x) = 0.39238 0.24914
# Poissons Ratio (y) = 0.38429 0.13162
# Poissons Ratio (z) = 0.44326 0.23912
#
# Static dielectric constant tensor:
#      x y z
#    x 3.656150 0.000000 0.099420 
#    y 0.000000 3.860010 0.000000 
#    z 0.099420 0.000000 3.794520 
# 
# 
# High freq. dielectric constant tensor:
#      x y z
#    x 1.785630 0.000000 0.001370 
#    y 0.000000 1.790730 0.000000 
#    z 0.001370 0.000000 1.762210 
# 
# From -- ./inp_files/42099.got.cif
#   From: 2010.03.12/outbox.cif.g09.slc.cpg/sg14_22_cif.got.tgz:42099.got - 2010.03.31 13:35:05.
