data_PCOD8124671
_publ_section_title
;
Structure prediction by ZEFSAII (Michael W. Deem and Ramdas Pophale) SiO2 
 PCOD8124671
Probable space group: P 21/C
;
_chemical_formula_sum "Si O2"
_cell_formula_units_Z 32
_cell_length_a 11.517234
_cell_length_b 9.362838
_cell_length_c 15.109082
_cell_angle_alpha 90.000000
_cell_angle_beta 86.275384
_cell_angle_gamma 90.000000
_cell_volume 1625.831342
_symmetry_space_group_name_H-M "P 21/C"
_symmetry_group_IT_number 14
_symmetry_cell_setting 'monoclinic'
loop_
_space_group_symop_operation_xyz
x,y,z
-x,1/2+y,1/2-z
-x,-y,-z
x,1/2-y,1/2+z
loop_
_atom_site_type_symbol
_atom_site_label
_atom_site_fract_x
_atom_site_fract_y
_atom_site_fract_z
Si Si1 0.911257 0.132476 0.315890
Si Si2 0.067142 0.647362 0.989489
Si Si3 0.584056 0.656187 0.135038
Si Si4 0.061585 0.203190 0.667494
Si Si5 0.328604 0.888584 0.466704
Si Si6 0.322476 0.251884 0.192140
Si Si7 0.659961 0.431634 0.833857
Si Si8 0.523880 0.837090 0.975839
O O1 0.925290 0.209147 0.411307
O O2 0.776288 0.144915 0.291345
O O3 0.991065 0.218228 0.246458
O O4 0.947255 0.966429 0.316572
O O5 0.196468 0.634182 0.941162
O O6 0.993491 0.745408 0.925300
O O7 0.000000 0.500000 0.000000
O O8 0.604462 0.495113 0.101604
O O9 0.672568 0.683391 0.210444
O O10 0.451799 0.667367 0.179399
O O11 0.597712 0.765912 0.052516
O O12 0.192381 0.259516 0.661754
O O13 0.323398 0.962734 0.562730
O O14 0.399871 0.740929 0.468243
O O15 0.360454 0.414367 0.208181
O O16 0.404295 0.170334 0.118688
O O17 0.500000 0.000000 0.000000
#
# Coordination Sequence:
#
# PCOD8124671 Si02
#       8
#     4   4   4   4   4   4   4   4
#     4   9  20  39  62  85 120 154 206 245 305 351
#     4   9  20  37  68  87 114 162 211 245 295 367
#     4  11  22  37  67  86 121 164 203 244 307 371
#     4  10  22  40  59  90 121 160 199 255 291 361
#     4  10  19  41  68  87 112 168 211 245 307 371
#     4  11  23  37  61  91 126 160 201 242 312 365
#     4   9  18  41  60  85 117 159 201 254 293 367
#     4  11  24  41  60  93 130 154 202 264 308 361
#
# _framework density 19.682238000000002
#
# number of rings (size 3 to 8) (size 9 to 14) (size 15 to 20)
#    0.000    2.000    2.500    1.500    5.250    1.000 
#    9.000    0.625    0.000    0.000    0.000    0.000 
#    0.000    0.000    0.000    0.000    0.000    0.000 
#
# Total GULP energy -396731.044957 kJ/mol
# GULP energy per Si atom -12397.845155 kJ/mol
# Density = 1.963744 g / cm^3
# Si number density = 19.682238 Si / 1000 Ang^3
#
#
#
# Elastic Constant Matrix: (Units=GPa)
#
#
# Indices 1 2 3 4 5 6 
#
# 1 120.0287 36.4872 41.3408 0.0000 2.1622 0.0000
# 2 36.4872 77.5040 38.2456 0.0000 1.6733 0.0000
# 3 41.3408 38.2456 90.2190 0.0000 3.7752 0.0000
# 4 0.0000 0.0000 0.0000 27.5348 0.0000 -5.8027
# 5 2.1622 1.6733 3.7752 0.0000 36.3957 0.0000
# 6 0.0000 0.0000 0.0000 -5.8027 0.0000 25.6043
#
#
#
# Elastic Compliance Matrix: (Units=1/GPa)
#
#
# Indices 1 2 3 4 5 6 
#
# 1 0.010503 -0.003249 -0.003430 0.000000 -0.000119 0.000000
# 2 -0.003249 0.017321 -0.005854 0.000000 0.000004 0.000000
# 3 -0.003430 -0.005854 0.015184 0.000000 -0.001102 0.000000
# 4 0.000000 0.000000 0.000000 0.038139 0.000000 0.008644
# 5 -0.000119 0.000004 -0.001102 0.000000 0.027597 0.000000
# 6 0.000000 0.000000 0.000000 0.008644 0.000000 0.041015
#
#
# Mechanical properties :
#
#
# Convention : Reuss Voigt Hill
#
# Bulk Modulus (GPa) = 55.73992 57.76657 56.75325
# Shear Modulus (GPa) = 27.65410 29.35217 28.50314
#
# Velocity S-wave (km/s) = 3.75244 3.86593 3.80961
# Velocity P-wave (km/s) = 6.86701 7.02428 6.94609
#
# Compressibility (1/GPa) = 0.01794046
#
# Stress axis : x y z
#
# Youngs Moduli (GPa) = 95.21417 57.73391 65.86011
#
# Poissons Ratio (x) = 0.18759 0.22592
# Poissons Ratio (y) = 0.30936 0.38554
# Poissons Ratio (z) = 0.32661 0.33797
#
# Static dielectric constant tensor:
#      x y z
#    x 3.884040 0.000000 0.116910 
#    y 0.000000 3.244430 0.000000 
#    z 0.116910 0.000000 3.735740 
# 
# 
# High freq. dielectric constant tensor:
#      x y z
#    x 1.781250 0.000000 -0.000110 
#    y 0.000000 1.735350 0.000000 
#    z -0.000110 0.000000 1.767250 
# 
# From -- ./inp_files/43715.got.cif
#   From: 2010.03.12/outbox.cif.g09.slc.cpg/sg14_22_cif.got.tgz:43715.got - 2010.03.31 13:35:05.
