data_PCOD8124086
_publ_section_title
;
Structure prediction by ZEFSAII (Michael W. Deem and Ramdas Pophale) SiO2 
 PCOD8124086
Probable space group: P 21/C
;
_chemical_formula_sum "Si O2"
_cell_formula_units_Z 28
_cell_length_a 30.463549
_cell_length_b 4.951886
_cell_length_c 19.170884
_cell_angle_alpha 90.000000
_cell_angle_beta 26.707538
_cell_angle_gamma 90.000000
_cell_volume 1299.755436
_symmetry_space_group_name_H-M "P 21/C"
_symmetry_group_IT_number 14
_symmetry_cell_setting 'monoclinic'
loop_
_space_group_symop_operation_xyz
x,y,z
-x,1/2+y,1/2-z
-x,-y,-z
x,1/2-y,1/2+z
loop_
_atom_site_type_symbol
_atom_site_label
_atom_site_fract_x
_atom_site_fract_y
_atom_site_fract_z
Si Si1 0.128268 0.558554 0.083558
Si Si2 0.169398 0.512160 0.294398
Si Si3 0.593097 0.432344 0.680246
Si Si4 0.379328 0.068584 0.451345
Si Si5 0.960121 0.737686 0.917424
Si Si6 0.766301 0.542094 0.517099
Si Si7 0.883839 0.989446 0.713052
O O1 0.087274 0.480467 0.066718
O O2 0.185760 0.841671 0.993889
O O3 0.038134 0.577764 0.265496
O O4 0.206658 0.344451 0.000907
O O5 0.122962 0.435714 0.434746
O O6 0.146040 0.821243 0.309399
O O7 0.121940 0.323086 0.301342
O O8 0.286259 0.474676 0.133132
O O9 0.627488 0.632229 0.570044
O O10 0.477249 0.466724 0.858822
O O11 0.649677 0.500002 0.672597
O O12 0.618719 0.132833 0.617459
O O13 0.007673 0.567548 0.913993
O O14 0.809547 0.455280 0.381145
#
# Coordination Sequence:
#
# PCOD8124086 Si02
#       7
#     4   4   4   4   4   4   4
#     4  11  25  39  56  78 110 158 201 228 273 321
#     4  12  22  37  58  86 119 146 182 236 296 338
#     4  10  19  34  58  85 118 143 182 231 281 351
#     4  10  19  34  57  88 115 147 177 227 296 344
#     4  11  25  41  57  81 117 153 200 235 271 337
#     4  11  20  38  60  81 115 148 191 237 270 339
#     4  11  22  35  56  85 116 149 182 233 289 342
#
# _framework density 21.542511999999999
#
# number of rings (size 3 to 8) (size 9 to 14) (size 15 to 20)
#    0.000    1.143    2.857    5.143    0.000    5.714 
#    0.000    0.000    0.000    1.714    0.000    0.000 
#    0.000    0.000    0.000    0.000    0.000    0.000 
#
# Total GULP energy -347296.990505 kJ/mol
# GULP energy per Si atom -12403.463947 kJ/mol
# Density = 2.149348 g / cm^3
# Si number density = 21.542512 Si / 1000 Ang^3
#
#
#
# Elastic Constant Matrix: (Units=GPa)
#
#
# Indices 1 2 3 4 5 6 
#
# 1 73.6631 6.9550 30.7251 0.0000 -21.4794 0.0000
# 2 6.9550 66.8794 -5.7922 0.0000 1.1741 0.0000
# 3 30.7251 -5.7922 69.4697 0.0000 -20.7925 0.0000
# 4 0.0000 0.0000 0.0000 22.9401 0.0000 -6.4190
# 5 -21.4794 1.1741 -20.7925 0.0000 28.5025 0.0000
# 6 0.0000 0.0000 0.0000 -6.4190 0.0000 23.4243
#
#
#
# Elastic Compliance Matrix: (Units=1/GPa)
#
#
# Indices 1 2 3 4 5 6 
#
# 1 0.019222 -0.002666 -0.005572 0.000000 0.010531 0.000000
# 2 -0.002666 0.015434 0.002142 0.000000 -0.001082 0.000000
# 3 -0.005572 0.002142 0.020155 0.000000 0.010416 0.000000
# 4 0.000000 0.000000 0.000000 0.047212 0.000000 0.012938
# 5 0.010531 -0.001082 0.010416 0.000000 0.050664 0.000000
# 6 0.000000 0.000000 0.000000 0.012938 0.000000 0.046236
#
#
# Mechanical properties :
#
#
# Convention : Reuss Voigt Hill
#
# Bulk Modulus (GPa) = 23.46375 30.42089 26.94232
# Shear Modulus (GPa) = 22.19055 26.84832 24.51944
#
# Velocity S-wave (km/s) = 3.21297 3.53412 3.37736
# Velocity P-wave (km/s) = 4.96787 5.55025 5.26712
#
# Compressibility (1/GPa) = 0.04261894
#
# Stress axis : x y z
#
# Youngs Moduli (GPa) = 52.02449 64.79155 49.61491
#
# Poissons Ratio (x) = 0.17276 0.27645
# Poissons Ratio (y) = 0.13872 -0.10628
# Poissons Ratio (z) = 0.28987 -0.13879
#
# Static dielectric constant tensor:
#      x y z
#    x 3.878650 0.000000 -0.429840 
#    y 0.000000 3.922360 0.000000 
#    z -0.429840 0.000000 3.861650 
# 
# 
# High freq. dielectric constant tensor:
#      x y z
#    x 1.829220 0.000000 -0.030530 
#    y 0.000000 1.864830 0.000000 
#    z -0.030530 0.000000 1.818850 
# 
# From -- ./inp_files/62407.got.cif
#   From: 2010.03.12/outbox.cif.g09.slc.cpg/sg14_32_cif.got.tgz:62407.got - 2010.03.31 13:35:05.
