data_PCOD8124717
_publ_section_title
;
Structure prediction by ZEFSAII (Michael W. Deem and Ramdas Pophale) SiO2 
 PCOD8124717
Probable space group: P 21/C
;
_chemical_formula_sum "Si O2"
_cell_formula_units_Z 28
_cell_length_a 9.926634
_cell_length_b 9.038754
_cell_length_c 18.142352
_cell_angle_alpha 90.000000
_cell_angle_beta 107.025711
_cell_angle_gamma 90.000000
_cell_volume 1556.470344
_symmetry_space_group_name_H-M "P 21/C"
_symmetry_group_IT_number 14
_symmetry_cell_setting 'monoclinic'
loop_
_space_group_symop_operation_xyz
x,y,z
-x,1/2+y,1/2-z
-x,-y,-z
x,1/2-y,1/2+z
loop_
_atom_site_type_symbol
_atom_site_label
_atom_site_fract_x
_atom_site_fract_y
_atom_site_fract_z
Si Si1 0.606786 0.620940 0.394973
Si Si2 0.488921 0.800309 0.102677
Si Si3 0.162201 0.928220 0.306514
Si Si4 0.928083 0.742391 0.197263
Si Si5 0.758692 0.591289 0.561295
Si Si6 0.674895 0.839885 0.743514
Si Si7 0.663953 0.230619 0.063834
O O1 0.570610 0.450689 0.372564
O O2 0.741592 0.625446 0.471462
O O3 0.651347 0.694376 0.325278
O O4 0.472467 0.705519 0.406771
O O5 0.625047 0.833978 0.076647
O O6 0.529148 0.689858 0.175568
O O7 0.378919 0.727461 0.027128
O O8 0.244036 0.864851 0.390181
O O9 0.073658 0.797681 0.254878
O O10 0.062760 0.065358 0.317492
O O11 0.275364 0.991250 0.265088
O O12 0.899479 0.833770 0.117067
O O13 0.798386 0.770947 0.233850
O O14 0.760101 0.416455 0.577493
#
# Coordination Sequence:
#
# PCOD8124717 Si02
#       7
#     4   4   4   4   4   4   4
#     4   9  17  31  53  76 108 123 156 199 260 297
#     4   8  16  32  49  76 105 128 161 193 243 310
#     4  10  20  32  52  73  95 131 174 203 238 287
#     4   9  19  34  50  70  97 128 179 202 232 285
#     4   8  15  33  53  74  94 139 162 196 236 304
#     4   9  20  30  50  78  99 127 163 208 247 280
#     4   9  17  30  55  76  99 134 159 192 251 302
#
# _framework density 17.989419999999999
#
# number of rings (size 3 to 8) (size 9 to 14) (size 15 to 20)
#    0.857    2.286    0.000    2.571    2.000    0.571 
#    0.000    0.714    0.000    0.857    0.000    0.000 
#    0.000    0.000    0.000    0.000    0.000    0.000 
#
# Total GULP energy -346908.985439 kJ/mol
# GULP energy per Si atom -12389.606623 kJ/mol
# Density = 1.794848 g / cm^3
# Si number density = 17.989420 Si / 1000 Ang^3
#
#
#
# Elastic Constant Matrix: (Units=GPa)
#
#
# Indices 1 2 3 4 5 6 
#
# 1 30.0010 22.9153 37.1544 0.0000 10.6009 0.0000
# 2 22.9153 63.4426 36.9268 0.0000 4.9915 0.0000
# 3 37.1544 36.9268 126.9502 0.0000 1.5208 0.0000
# 4 0.0000 0.0000 0.0000 35.0466 0.0000 13.8433
# 5 10.6009 4.9915 1.5208 0.0000 23.1486 0.0000
# 6 0.0000 0.0000 0.0000 13.8433 0.0000 24.5857
#
#
#
# Elastic Compliance Matrix: (Units=1/GPa)
#
#
# Indices 1 2 3 4 5 6 
#
# 1 0.078773 -0.015373 -0.018205 0.000000 -0.031563 0.000000
# 2 -0.015373 0.022303 -0.002016 0.000000 0.002364 0.000000
# 3 -0.018205 -0.002016 0.013697 0.000000 0.007872 0.000000
# 4 0.000000 0.000000 0.000000 0.036695 0.000000 -0.020661
# 5 -0.031563 0.002364 0.007872 0.000000 0.056627 0.000000
# 6 0.000000 0.000000 0.000000 -0.020661 0.000000 0.052308
#
#
# Mechanical properties :
#
#
# Convention : Reuss Voigt Hill
#
# Bulk Modulus (GPa) = 22.94398 46.04296 34.49347
# Shear Modulus (GPa) = 14.44594 24.78266 19.61430
#
# Velocity S-wave (km/s) = 2.83684 3.71566 3.30559
# Velocity P-wave (km/s) = 4.84892 6.63764 5.81250
#
# Compressibility (1/GPa) = 0.04358442
#
# Stress axis : x y z
#
# Youngs Moduli (GPa) = 12.69475 44.83759 73.00749
#
# Poissons Ratio (x) = 0.68930 1.32907
# Poissons Ratio (y) = 0.19516 0.14721
# Poissons Ratio (z) = 0.23110 0.09041
#
# Static dielectric constant tensor:
#      x y z
#    x 2.983500 0.000000 0.414590 
#    y 0.000000 3.229940 0.000000 
#    z 0.414590 0.000000 3.775550 
# 
# 
# High freq. dielectric constant tensor:
#      x y z
#    x 1.649840 0.000000 0.021890 
#    y 0.000000 1.680570 0.000000 
#    z 0.021890 0.000000 1.704440 
# 
# From -- ./inp_files/56847.got.cif
#   From: 2010.03.12/outbox.cif.g09.slc.cpg/sg14_29_cif.got.tgz:56847.got - 2010.03.31 13:35:05.
