data_PCOD8124766
_publ_section_title
;
Structure prediction by ZEFSAII (Michael W. Deem and Ramdas Pophale) SiO2 
 PCOD8124766
Probable space group: P 21/C
;
_chemical_formula_sum "Si O2"
_cell_formula_units_Z 32
_cell_length_a 16.004186
_cell_length_b 9.219038
_cell_length_c 27.924786
_cell_angle_alpha 90.000000
_cell_angle_beta 154.016852
_cell_angle_gamma 90.000000
_cell_volume 1805.049080
_symmetry_space_group_name_H-M "P 21/C"
_symmetry_group_IT_number 14
_symmetry_cell_setting 'monoclinic'
loop_
_space_group_symop_operation_xyz
x,y,z
-x,1/2+y,1/2-z
-x,-y,-z
x,1/2-y,1/2+z
loop_
_atom_site_type_symbol
_atom_site_label
_atom_site_fract_x
_atom_site_fract_y
_atom_site_fract_z
Si Si1 0.788167 0.167809 0.525628
Si Si2 0.213638 0.168790 0.722399
Si Si3 0.472095 0.169698 0.285145
Si Si4 0.472046 0.830338 0.285133
Si Si5 0.786409 0.331166 0.777611
Si Si6 0.469225 0.331569 0.537494
Si Si7 0.530823 0.168391 0.962517
Si Si8 0.788120 0.832231 0.525616
O O1 0.659775 0.199613 0.413178
O O2 0.711115 0.252647 0.531938
O O3 0.000569 0.221719 0.623686
O O4 0.786600 0.000025 0.538678
O O5 0.288125 0.263468 0.716498
O O6 0.339226 0.199242 0.834064
O O7 0.220040 0.999972 0.710883
O O8 0.500045 0.249988 0.250012
O O9 0.437382 0.000017 0.258550
O O10 0.288060 0.763562 0.216489
O O11 0.659721 0.800414 0.413165
O O12 0.660839 0.300734 0.665950
O O13 0.999494 0.278278 0.876330
O O14 0.417630 0.499977 0.509445
O O15 0.500028 0.270152 0.500005
O O16 0.288959 0.252557 0.468081
#
# Coordination Sequence:
#
# PCOD8124766 Si02
#       8
#     4   4   4   4   4   4   4   4
#     4   9  19  34  51  71  96 128 163 197 235 284
#     4   9  18  34  52  70  97 130 161 195 237 283
#     4  10  20  34  51  72  97 125 160 199 240 285
#     4  10  20  34  51  72  97 125 160 199 240 285
#     4   9  18  34  52  70  97 130 161 195 237 283
#     4   9  18  32  50  73 100 128 159 197 239 281
#     4   9  18  32  50  73 100 128 159 197 239 281
#     4   9  19  34  51  71  96 128 163 197 235 284
#
# _framework density 17.728051000000001
#
# number of rings (size 3 to 8) (size 9 to 14) (size 15 to 20)
#    0.000    2.750    0.000    0.750    0.000    4.500 
#    0.000    5.000    0.000    0.000    0.000    0.000 
#    0.000    0.000    0.000    0.000    0.000    0.000 
#
# Total GULP energy -396898.037047 kJ/mol
# GULP energy per Si atom -12403.063658 kJ/mol
# Density = 1.768770 g / cm^3
# Si number density = 17.728051 Si / 1000 Ang^3
#
#
#
# Elastic Constant Matrix: (Units=GPa)
#
#
# Indices 1 2 3 4 5 6 
#
# 1 194.0887 85.9941 85.2467 0.0000 8.6135 0.0000
# 2 85.9941 78.4895 46.6801 0.0000 5.9097 0.0000
# 3 85.2467 46.6801 90.6627 0.0000 28.2125 0.0000
# 4 0.0000 0.0000 0.0000 23.5859 0.0000 3.6865
# 5 8.6135 5.9097 28.2125 0.0000 34.3711 0.0000
# 6 0.0000 0.0000 0.0000 3.6865 0.0000 38.9679
#
#
#
# Elastic Compliance Matrix: (Units=1/GPa)
#
#
# Indices 1 2 3 4 5 6 
#
# 1 0.013131 -0.009187 -0.009514 0.000000 0.006098 0.000000
# 2 -0.009187 0.025825 -0.005363 0.000000 0.002264 0.000000
# 3 -0.009514 -0.005363 0.029154 0.000000 -0.020624 0.000000
# 4 0.000000 0.000000 0.000000 0.043035 0.000000 -0.004071
# 5 0.006098 0.002264 -0.020624 0.000000 0.044106 0.000000
# 6 0.000000 0.000000 0.000000 -0.004071 0.000000 0.026047
#
#
# Mechanical properties :
#
#
# Convention : Reuss Voigt Hill
#
# Bulk Modulus (GPa) = 50.04312 88.78695 69.41504
# Shear Modulus (GPa) = 21.17869 29.07297 25.12583
#
# Velocity S-wave (km/s) = 3.46011 4.05401 3.76878
# Velocity P-wave (km/s) = 6.65227 8.49146 7.62750
#
# Compressibility (1/GPa) = 0.01998277
#
# Stress axis : x y z
#
# Youngs Moduli (GPa) = 76.15694 38.72165 34.30034
#
# Poissons Ratio (x) = 0.35575 0.32632
# Poissons Ratio (y) = 0.69968 0.18395
# Poissons Ratio (z) = 0.72453 0.20766
#
# Static dielectric constant tensor:
#      x y z
#    x 3.393160 0.000000 0.073110 
#    y 0.000000 3.283630 0.000000 
#    z 0.073110 0.000000 3.340790 
# 
# 
# High freq. dielectric constant tensor:
#      x y z
#    x 1.692110 0.000000 0.003390 
#    y 0.000000 1.684580 0.000000 
#    z 0.003390 0.000000 1.682300 
# 
# From -- ./inp_files/46524.got.cif
#   From: 2010.03.12/outbox.cif.g09.slc.cpg/sg14_24_cif.got.tgz:46524.got - 2010.03.31 13:35:05.
