data_PCOD8124654
_publ_section_title
;
Structure prediction by ZEFSAII (Michael W. Deem and Ramdas Pophale) SiO2 
 PCOD8124654
Probable space group: P 21/C
;
_chemical_formula_sum "Si O2"
_cell_formula_units_Z 24
_cell_length_a 9.559302
_cell_length_b 9.406492
_cell_length_c 31.029959
_cell_angle_alpha 90.000000
_cell_angle_beta 153.869366
_cell_angle_gamma 90.000000
_cell_volume 1228.857056
_symmetry_space_group_name_H-M "P 21/C"
_symmetry_group_IT_number 14
_symmetry_cell_setting 'monoclinic'
loop_
_space_group_symop_operation_xyz
x,y,z
-x,1/2+y,1/2-z
-x,-y,-z
x,1/2-y,1/2+z
loop_
_atom_site_type_symbol
_atom_site_label
_atom_site_fract_x
_atom_site_fract_y
_atom_site_fract_z
Si Si1 0.228824 0.954920 0.683606
Si Si2 0.115705 0.414819 0.827050
Si Si3 0.155474 0.213728 0.170431
Si Si4 0.395699 0.158991 0.519451
Si Si5 0.206136 0.608872 0.349222
Si Si6 0.506015 0.674763 0.541654
O O1 0.559002 0.892156 0.759709
O O2 0.153326 0.897544 0.710728
O O3 0.960132 0.902457 0.574569
O O4 0.261698 0.124569 0.692744
O O5 0.359308 0.529832 0.912910
O O6 0.310508 0.268837 0.871685
O O7 0.955939 0.457459 0.737749
O O8 0.044878 0.189944 0.189357
O O9 0.875531 0.174947 0.058910
O O10 0.516942 0.276314 0.588149
O O11 0.414149 0.245277 0.480338
O O12 0.361643 0.484307 0.420530
#
# Coordination Sequence:
#
# PCOD8124654 Si02
#       6
#     4   4   4   4   4   4
#     4  11  23  39  63  84 122 157 201 239 295 353
#     4  11  20  41  63  87 117 159 195 249 295 341
#     4  11  23  40  58  91 118 158 200 242 289 358
#     4  10  19  41  61  84 115 162 200 237 289 357
#     4  11  23  36  65  92 118 148 206 249 290 345
#     4  10  20  37  63  87 116 158 202 239 285 360
#
# _framework density 19.530342999999998
#
# number of rings (size 3 to 8) (size 9 to 14) (size 15 to 20)
#    0.000    1.333    5.000    4.000    7.000    0.000 
#    0.000    3.333    0.000    0.000    0.000    0.000 
#    0.000    0.000    0.000    0.000    0.000    0.000 
#
# Total GULP energy -297421.152264 kJ/mol
# GULP energy per Si atom -12392.548011 kJ/mol
# Density = 1.948589 g / cm^3
# Si number density = 19.530343 Si / 1000 Ang^3
#
#
#
# Elastic Constant Matrix: (Units=GPa)
#
#
# Indices 1 2 3 4 5 6 
#
# 1 48.3249 23.6737 44.7611 0.0000 2.8650 0.0000
# 2 23.6737 124.9361 37.6692 0.0000 16.2904 0.0000
# 3 44.7611 37.6692 102.3758 0.0003 8.2404 0.0001
# 4 0.0000 0.0000 0.0003 64.4292 0.0000 15.3264
# 5 2.8650 16.2904 8.2404 0.0000 28.3802 0.0000
# 6 0.0000 0.0000 0.0001 15.3264 0.0000 28.1357
#
#
#
# Elastic Compliance Matrix: (Units=1/GPa)
#
#
# Indices 1 2 3 4 5 6 
#
# 1 0.035474 -0.002560 -0.014743 0.000000 0.002169 0.000000
# 2 -0.002560 0.009733 -0.002082 0.000000 -0.004724 0.000000
# 3 -0.014743 -0.002082 0.017165 0.000000 -0.002301 0.000000
# 4 0.000000 0.000000 0.000000 0.017832 0.000000 -0.009713
# 5 0.002169 -0.004724 -0.002301 0.000000 0.038396 0.000000
# 6 0.000000 0.000000 0.000000 -0.009713 0.000000 0.040833
#
#
# Mechanical properties :
#
#
# Convention : Reuss Voigt Hill
#
# Bulk Modulus (GPa) = 42.36680 54.20498 48.28589
# Shear Modulus (GPa) = 24.26362 35.49120 29.87741
#
# Velocity S-wave (km/s) = 3.52853 4.26753 3.91550
# Velocity P-wave (km/s) = 6.19198 7.21782 6.72449
#
# Compressibility (1/GPa) = 0.02360339
#
# Stress axis : x y z
#
# Youngs Moduli (GPa) = 28.18944 102.74623 58.25778
#
# Poissons Ratio (x) = 0.26299 0.85889
# Poissons Ratio (y) = 0.07215 0.12128
# Poissons Ratio (z) = 0.41560 0.21390
#
# Static dielectric constant tensor:
#      x y z
#    x 3.026690 0.000000 -0.019440 
#    y 0.000000 3.960470 0.000000 
#    z -0.019440 0.000000 4.128400 
# 
# 
# High freq. dielectric constant tensor:
#      x y z
#    x 1.700360 0.000000 -0.002030 
#    y 0.000000 1.790380 0.000000 
#    z -0.002030 0.000000 1.776880 
# 
# From -- ./inp_files/61738.got.cif
#   From: 2010.03.12/outbox.cif.g09.slc.cpg/sg14_31_cif.got.tgz:61738.got - 2010.03.31 13:35:05.
