data_PCOD8124929
_publ_section_title
;
Structure prediction by ZEFSAII (Michael W. Deem and Ramdas Pophale) SiO2 
 PCOD8124929
Probable space group: P 21/C
;
_chemical_formula_sum "Si O2"
_cell_formula_units_Z 32
_cell_length_a 8.980445
_cell_length_b 26.392242
_cell_length_c 11.278779
_cell_angle_alpha 90.000000
_cell_angle_beta 33.983128
_cell_angle_gamma 90.000000
_cell_volume 1494.198235
_symmetry_space_group_name_H-M "P 21/C"
_symmetry_group_IT_number 14
_symmetry_cell_setting 'monoclinic'
loop_
_space_group_symop_operation_xyz
x,y,z
-x,1/2+y,1/2-z
-x,-y,-z
x,1/2-y,1/2+z
loop_
_atom_site_type_symbol
_atom_site_label
_atom_site_fract_x
_atom_site_fract_y
_atom_site_fract_z
Si Si1 0.507410 0.560305 0.865150
Si Si2 0.039742 0.879038 0.039426
Si Si3 0.823750 0.276821 0.991047
Si Si4 0.603272 0.130802 0.765549
Si Si5 0.941130 0.870925 0.365166
Si Si6 0.292633 0.275243 0.850594
Si Si7 0.923131 0.680393 0.393166
Si Si8 0.481274 0.943951 0.649564
O O1 0.338744 0.591635 0.879859
O O2 0.520858 0.502493 0.813649
O O3 0.800198 0.583069 0.671806
O O4 0.375817 0.563995 0.083291
O O5 0.004484 0.851569 0.190014
O O6 0.301964 0.913431 0.860851
O O7 0.059805 0.835325 0.926858
O O8 0.117907 0.262818 0.847146
O O9 0.849676 0.310347 0.854370
O O10 0.691445 0.312901 0.174536
O O11 0.611392 0.230433 0.110494
O O12 0.776812 0.114103 0.763097
O O13 0.289799 0.136909 0.006176
O O14 0.769440 0.830365 0.553732
O O15 0.780496 0.923304 0.463355
O O16 0.216081 0.234698 0.000399
#
# Coordination Sequence:
#
# PCOD8124929 Si02
#       8
#     4   4   4   4   4   4   4   4
#     4   9  19  38  61  87 121 158 208 255 308 373
#     4  10  21  38  61  88 118 160 204 256 304 373
#     4  10  22  41  62  86 117 160 208 249 305 366
#     4   9  20  41  57  85 121 160 198 246 308 370
#     4  10  23  38  59  89 126 156 202 256 309 369
#     4  10  24  39  59  88 119 159 203 254 302 366
#     4  10  22  38  61  82 113 162 200 247 300 358
#     4  10  20  35  61  92 119 159 205 261 309 358
#
# _framework density 21.416167999999999
#
# number of rings (size 3 to 8) (size 9 to 14) (size 15 to 20)
#    0.000    2.250    0.000    1.125    3.500    6.500 
#    0.000    0.625    0.000    0.000    0.000    0.000 
#    0.000    0.000    0.000    0.000    0.000    0.000 
#
# Total GULP energy -396656.979742 kJ/mol
# GULP energy per Si atom -12395.530617 kJ/mol
# Density = 2.136742 g / cm^3
# Si number density = 21.416168 Si / 1000 Ang^3
#
#
#
# Elastic Constant Matrix: (Units=GPa)
#
#
# Indices 1 2 3 4 5 6 
#
# 1 139.1400 35.4699 48.6711 0.0000 -9.3540 0.0000
# 2 35.4699 72.3236 13.0885 0.0000 1.7947 0.0000
# 3 48.6711 13.0885 80.4832 0.0000 5.2157 0.0000
# 4 0.0000 0.0000 0.0000 28.3369 0.0000 5.3206
# 5 -9.3540 1.7947 5.2157 0.0000 25.0861 0.0000
# 6 0.0000 0.0000 0.0000 5.3206 0.0000 21.7600
#
#
#
# Elastic Compliance Matrix: (Units=1/GPa)
#
#
# Indices 1 2 3 4 5 6 
#
# 1 0.010848 -0.004334 -0.006221 0.000000 0.005649 0.000000
# 2 -0.004334 0.015985 0.000203 0.000000 -0.002802 0.000000
# 3 -0.006221 0.000203 0.016528 0.000000 -0.005771 0.000000
# 4 0.000000 0.000000 0.000000 0.036988 0.000000 -0.009044
# 5 0.005649 -0.002802 -0.005771 0.000000 0.043369 0.000000
# 6 0.000000 0.000000 0.000000 -0.009044 0.000000 0.048167
#
#
# Mechanical properties :
#
#
# Convention : Reuss Voigt Hill
#
# Bulk Modulus (GPa) = 44.13800 54.04508 49.09154
# Shear Modulus (GPa) = 24.98220 28.01776 26.49998
#
# Velocity S-wave (km/s) = 3.41913 3.62090 3.52146
# Velocity P-wave (km/s) = 6.02010 6.54001 6.28543
#
# Compressibility (1/GPa) = 0.02265622
#
# Stress axis : x y z
#
# Youngs Moduli (GPa) = 92.18378 62.55758 60.50302
#
# Poissons Ratio (x) = 0.27115 0.37641
# Poissons Ratio (y) = 0.39957 -0.01230
# Poissons Ratio (z) = 0.57350 -0.01271
#
# Static dielectric constant tensor:
#      x y z
#    x 3.951190 0.000000 -0.109070 
#    y 0.000000 3.716890 0.000000 
#    z -0.109070 0.000000 3.821530 
# 
# 
# High freq. dielectric constant tensor:
#      x y z
#    x 1.834050 0.000000 -0.001820 
#    y 0.000000 1.830080 0.000000 
#    z -0.001820 0.000000 1.834700 
# 
# From -- ./inp_files/27144.got.cif
#   From: 2010.03.12/outbox.cif.g09.slc.cpg/sg14_14_cif.got.tgz:27144.got - 2010.03.31 13:35:05.
