data_PCOD8124914
_publ_section_title
;
Structure prediction by ZEFSAII (Michael W. Deem and Ramdas Pophale) SiO2 
 PCOD8124914
Probable space group: P 21/C
;
_chemical_formula_sum "Si O2"
_cell_formula_units_Z 24
_cell_length_a 8.954209
_cell_length_b 16.888866
_cell_length_c 12.237405
_cell_angle_alpha 90.000000
_cell_angle_beta 144.025356
_cell_angle_gamma 90.000000
_cell_volume 1087.103962
_symmetry_space_group_name_H-M "P 21/C"
_symmetry_group_IT_number 14
_symmetry_cell_setting 'monoclinic'
loop_
_space_group_symop_operation_xyz
x,y,z
-x,1/2+y,1/2-z
-x,-y,-z
x,1/2-y,1/2+z
loop_
_atom_site_type_symbol
_atom_site_label
_atom_site_fract_x
_atom_site_fract_y
_atom_site_fract_z
Si Si1 0.678024 0.068988 0.273611
Si Si2 0.035318 0.869819 0.974635
Si Si3 0.847477 0.524893 0.554979
Si Si4 0.256985 0.740578 0.253097
Si Si5 0.213394 0.190560 0.379020
Si Si6 0.157046 0.018546 0.429089
O O1 0.737431 0.161614 0.316098
O O2 0.889673 0.023816 0.331389
O O3 0.417823 0.054983 0.052134
O O4 0.653256 0.031774 0.381860
O O5 0.849243 0.820012 0.785863
O O6 0.876299 0.922153 0.964705
O O7 0.195110 0.931410 0.995720
O O8 0.219889 0.811349 0.146847
O O9 0.091297 0.532068 0.780244
O O10 0.533771 0.755464 0.470574
O O11 0.025734 0.734821 0.203742
O O12 0.270082 0.104961 0.468217
#
# Coordination Sequence:
#
# PCOD8124914 Si02
#       6
#     4   4   4   4   4   4
#     4  10  20  35  60  89 119 158 200 243 298 354
#     4  10  23  39  59  87 119 157 201 249 300 356
#     4  10  20  38  61  85 116 159 204 244 292 355
#     4  11  23  39  60  89 123 158 196 247 306 359
#     4  10  23  41  60  87 123 158 200 250 300 356
#     4   9  20  38  60  88 119 156 202 249 291 350
#
# _framework density 22.077006000000001
#
# number of rings (size 3 to 8) (size 9 to 14) (size 15 to 20)
#    0.000    2.000    0.000    2.500    0.000    6.667 
#    0.000    8.333    0.000    0.000    0.000    0.000 
#    0.000    0.000    0.000    0.000    0.000    0.000 
#
# Total GULP energy -297486.804237 kJ/mol
# GULP energy per Si atom -12395.283510 kJ/mol
# Density = 2.202676 g / cm^3
# Si number density = 22.077006 Si / 1000 Ang^3
#
#
#
# Elastic Constant Matrix: (Units=GPa)
#
#
# Indices 1 2 3 4 5 6 
#
# 1 54.6235 28.2528 37.9285 0.0000 -1.8560 0.0000
# 2 28.2528 80.3714 43.4426 0.0000 -0.1454 0.0000
# 3 37.9285 43.4426 102.5014 0.0000 0.0220 0.0000
# 4 0.0000 0.0000 0.0000 41.5984 0.0000 0.7669
# 5 -1.8560 -0.1454 0.0220 0.0000 39.4725 0.0000
# 6 0.0000 0.0000 0.0000 0.7669 0.0000 20.1089
#
#
#
# Elastic Compliance Matrix: (Units=1/GPa)
#
#
# Indices 1 2 3 4 5 6 
#
# 1 0.026240 -0.005154 -0.007525 0.000000 0.001219 0.000000
# 2 -0.005154 0.017152 -0.005362 0.000000 -0.000176 0.000000
# 3 -0.007525 -0.005362 0.014813 0.000000 -0.000382 0.000000
# 4 0.000000 0.000000 0.000000 0.024056 0.000000 -0.000917
# 5 0.001219 -0.000176 -0.000382 0.000000 0.025391 0.000000
# 6 0.000000 0.000000 0.000000 -0.000917 0.000000 0.049764
#
#
# Mechanical properties :
#
#
# Convention : Reuss Voigt Hill
#
# Bulk Modulus (GPa) = 45.20446 50.74937 47.97692
# Shear Modulus (GPa) = 24.89121 28.76078 26.82599
#
# Velocity S-wave (km/s) = 3.36143 3.61328 3.48962
# Velocity P-wave (km/s) = 5.96539 6.35964 6.16567
#
# Compressibility (1/GPa) = 0.02212171
#
# Stress axis : x y z
#
# Youngs Moduli (GPa) = 38.11017 58.30151 67.50706
#
# Poissons Ratio (x) = 0.30050 0.50801
# Poissons Ratio (y) = 0.19643 0.36199
# Poissons Ratio (z) = 0.28679 0.31263
#
# Static dielectric constant tensor:
#      x y z
#    x 3.871590 0.000000 -0.195220 
#    y 0.000000 4.049490 0.000000 
#    z -0.195220 0.000000 4.072510 
# 
# 
# High freq. dielectric constant tensor:
#      x y z
#    x 1.856600 0.000000 -0.002470 
#    y 0.000000 1.871120 0.000000 
#    z -0.002470 0.000000 1.870900 
# 
# From -- ./inp_files/45150.got.cif
#   From: 2010.03.12/outbox.cif.g09.slc.cpg/sg14_23_cif.got.tgz:45150.got - 2010.03.31 13:35:05.
