data_PCOD8124252
_publ_section_title
;
Structure prediction by ZEFSAII (Michael W. Deem and Ramdas Pophale) SiO2 
 PCOD8124252
Probable space group: P 21/C
;
_chemical_formula_sum "Si O2"
_cell_formula_units_Z 28
_cell_length_a 20.196463
_cell_length_b 8.172641
_cell_length_c 15.616153
_cell_angle_alpha 90.000000
_cell_angle_beta 148.967374
_cell_angle_gamma 90.000000
_cell_volume 1328.808643
_symmetry_space_group_name_H-M "P 21/C"
_symmetry_group_IT_number 14
_symmetry_cell_setting 'monoclinic'
loop_
_space_group_symop_operation_xyz
x,y,z
-x,1/2+y,1/2-z
-x,-y,-z
x,1/2-y,1/2+z
loop_
_atom_site_type_symbol
_atom_site_label
_atom_site_fract_x
_atom_site_fract_y
_atom_site_fract_z
Si Si1 0.322135 0.414448 0.520262
Si Si2 0.258883 0.303832 0.722930
Si Si3 0.495946 0.148661 0.062554
Si Si4 0.914033 0.885353 0.347157
Si Si5 0.817655 0.662399 0.028619
Si Si6 0.936069 0.181053 0.651939
Si Si7 0.289608 0.888649 0.145851
O O1 0.450692 0.412373 0.605997
O O2 0.204357 0.483082 0.330416
O O3 0.274103 0.233529 0.498231
O O4 0.362052 0.518618 0.648413
O O5 0.144660 0.265352 0.663012
O O6 0.255022 0.168017 0.642581
O O7 0.250047 0.487614 0.677616
O O8 0.396391 0.285391 0.920361
O O9 0.632555 0.237648 0.226567
O O10 0.500000 0.000000 0.000000
O O11 0.013570 0.819340 0.388808
O O12 0.000000 0.000000 0.500000
O O13 0.864280 0.481879 0.104547
O O14 0.943165 0.778974 0.153300
O O15 0.836071 0.328137 0.542810
#
# Coordination Sequence:
#
# PCOD8124252 Si02
#       7
#     4   4   4   4   4   4   4
#     4   9  23  41  60  90 122 162 215 258 316 383
#     4  10  21  39  61  89 127 159 203 260 308 369
#     4  11  24  43  66  89 119 168 213 263 323 373
#     4  10  19  35  64  90 126 163 197 252 316 381
#     4  10  19  37  61  87 126 159 203 258 308 382
#     4  11  21  36  60  93 122 166 205 248 320 373
#     4  11  24  40  61  93 127 164 214 261 313 382
#
# _framework density 21.071505999999999
#
# number of rings (size 3 to 8) (size 9 to 14) (size 15 to 20)
#    0.000    1.714    1.429    3.857    2.000    4.000 
#    0.000    5.714    0.000    0.000    0.000    0.000 
#    0.000    0.000    0.000    0.000    0.000    0.000 
#
# Total GULP energy -347060.695367 kJ/mol
# GULP energy per Si atom -12395.024835 kJ/mol
# Density = 2.102355 g / cm^3
# Si number density = 21.071506 Si / 1000 Ang^3
#
#
#
# Elastic Constant Matrix: (Units=GPa)
#
#
# Indices 1 2 3 4 5 6 
#
# 1 113.6272 39.2572 15.8629 0.0000 -2.1144 0.0000
# 2 39.2572 94.6139 12.6389 0.0000 -1.0060 0.0000
# 3 15.8629 12.6389 64.1366 0.0000 -10.2709 0.0000
# 4 0.0000 0.0000 0.0000 39.4724 0.0000 -2.0900
# 5 -2.1144 -1.0060 -10.2709 0.0000 29.2632 0.0000
# 6 0.0000 0.0000 0.0000 -2.0900 0.0000 22.7705
#
#
#
# Elastic Compliance Matrix: (Units=1/GPa)
#
#
# Indices 1 2 3 4 5 6 
#
# 1 0.010468 -0.004105 -0.001782 0.000000 -0.000010 0.000000
# 2 -0.004105 0.012470 -0.001505 0.000000 -0.000396 0.000000
# 3 -0.001782 -0.001505 0.017271 0.000000 0.005881 0.000000
# 4 0.000000 0.000000 0.000000 0.025458 0.000000 0.002337
# 5 -0.000010 -0.000396 0.005881 0.000000 0.036222 0.000000
# 6 0.000000 0.000000 0.000000 0.002337 0.000000 0.044131
#
#
# Mechanical properties :
#
#
# Convention : Reuss Voigt Hill
#
# Bulk Modulus (GPa) = 39.33380 45.32175 42.32778
# Shear Modulus (GPa) = 29.53717 31.94246 30.73982
#
# Velocity S-wave (km/s) = 3.74807 3.89769 3.82361
# Velocity P-wave (km/s) = 6.11866 6.46616 6.29481
#
# Compressibility (1/GPa) = 0.02542343
#
# Stress axis : x y z
#
# Youngs Moduli (GPa) = 95.53293 80.19542 57.90112
#
# Poissons Ratio (x) = 0.32923 0.10315
# Poissons Ratio (y) = 0.39219 0.08716
# Poissons Ratio (z) = 0.17020 0.12072
#
# Static dielectric constant tensor:
#      x y z
#    x 2.406870 0.000000 0.811540 
#    y 0.000000 2.998650 0.000000 
#    z 0.811540 0.000000 3.382750 
# 
# 
# High freq. dielectric constant tensor:
#      x y z
#    x 1.822050 0.000000 -0.007660 
#    y 0.000000 1.804990 0.000000 
#    z -0.007660 0.000000 1.838830 
# 
# From -- ./inp_files/50253.got.cif
#   From: 2010.03.12/outbox.cif.g09.slc.cpg/sg14_26_cif.got.tgz:50253.got - 2010.03.31 13:35:05.
