data_PCOD8124743
_publ_section_title
;
Structure prediction by ZEFSAII (Michael W. Deem and Ramdas Pophale) SiO2 
 PCOD8124743
Probable space group: P 21/C
;
_chemical_formula_sum "Si O2"
_cell_formula_units_Z 32
_cell_length_a 13.325205
_cell_length_b 15.942936
_cell_length_c 15.218431
_cell_angle_alpha 90.000000
_cell_angle_beta 29.378489
_cell_angle_gamma 90.000000
_cell_volume 1586.057541
_symmetry_space_group_name_H-M "P 21/C"
_symmetry_group_IT_number 14
_symmetry_cell_setting 'monoclinic'
loop_
_space_group_symop_operation_xyz
x,y,z
-x,1/2+y,1/2-z
-x,-y,-z
x,1/2-y,1/2+z
loop_
_atom_site_type_symbol
_atom_site_label
_atom_site_fract_x
_atom_site_fract_y
_atom_site_fract_z
Si Si1 0.021439 0.840934 0.744482
Si Si2 0.726684 0.212604 0.039597
Si Si3 0.045790 0.976222 0.850881
Si Si4 0.781684 0.931692 0.595051
Si Si5 0.277409 0.241148 0.891469
Si Si6 0.648713 0.473302 0.561386
Si Si7 0.047205 0.141344 0.925002
Si Si8 0.849081 0.545124 0.241965
O O1 0.175854 0.765528 0.613574
O O2 0.137882 0.921181 0.700484
O O3 0.942812 0.869407 0.709314
O O4 0.832467 0.810868 0.948464
O O5 0.520180 0.261565 0.225652
O O6 0.882064 0.201162 0.003189
O O7 0.676723 0.126083 0.030846
O O8 0.076295 0.920245 0.914628
O O9 0.804038 0.986439 0.012465
O O10 0.145107 0.070462 0.783238
O O11 0.793304 0.837257 0.551054
O O12 0.758192 0.929727 0.718377
O O13 0.978005 0.975152 0.404592
O O14 0.578663 0.985082 0.724116
O O15 0.216893 0.198332 0.843625
O O16 0.679351 0.511394 0.440232
#
# Coordination Sequence:
#
# PCOD8124743 Si02
#       8
#     4   4   4   4   4   4   4   4
#     4  10  20  35  54  80 111 142 181 224 268 324
#     4  10  20  35  56  80 108 145 181 222 276 326
#     4   8  17  33  55  78 104 142 178 220 270 313
#     4  10  20  34  53  78 106 140 182 223 270 329
#     4  10  21  37  56  79 109 143 180 225 275 325
#     4   9  18  34  54  76 107 142 179 223 272 322
#     4   9  17  35  57  78 108 141 180 225 268 320
#     4  10  20  33  52  78 107 142 179 223 272 319
#
# _framework density 20.175813000000002
#
# number of rings (size 3 to 8) (size 9 to 14) (size 15 to 20)
#    0.000    2.500    0.000    1.875    0.000    3.000 
#    0.000    9.375    0.000    6.000    0.000    0.000 
#    0.000    0.000    0.000    0.000    0.000    0.000 
#
# Total GULP energy -396458.260508 kJ/mol
# GULP energy per Si atom -12389.320641 kJ/mol
# Density = 2.012989 g / cm^3
# Si number density = 20.175813 Si / 1000 Ang^3
#
#
#
# Elastic Constant Matrix: (Units=GPa)
#
#
# Indices 1 2 3 4 5 6 
#
# 1 82.9402 25.9206 13.1540 0.0000 -2.2139 0.0000
# 2 25.9206 68.6269 28.5362 0.0000 -4.6699 0.0000
# 3 13.1540 28.5362 52.9071 0.0000 0.3564 0.0000
# 4 0.0000 0.0000 0.0000 22.6611 0.0000 6.5973
# 5 -2.2139 -4.6699 0.3564 0.0000 18.1095 0.0000
# 6 0.0000 0.0000 0.0000 6.5973 0.0000 37.6912
#
#
#
# Elastic Compliance Matrix: (Units=1/GPa)
#
#
# Indices 1 2 3 4 5 6 
#
# 1 0.013700 -0.004803 -0.000818 0.000000 0.000452 0.000000
# 2 -0.004803 0.020941 -0.010134 0.000000 0.005012 0.000000
# 3 -0.000818 -0.010134 0.024592 0.000000 -0.003197 0.000000
# 4 0.000000 0.000000 0.000000 0.046498 0.000000 -0.008139
# 5 0.000452 0.005012 -0.003197 0.000000 0.056630 0.000000
# 6 0.000000 0.000000 0.000000 -0.008139 0.000000 0.027956
#
#
# Mechanical properties :
#
#
# Convention : Reuss Voigt Hill
#
# Bulk Modulus (GPa) = 36.07406 37.74398 36.90902
# Shear Modulus (GPa) = 21.63851 24.81660 23.22755
#
# Velocity S-wave (km/s) = 3.27845 3.51096 3.39670
# Velocity P-wave (km/s) = 5.67888 5.93161 5.80662
#
# Compressibility (1/GPa) = 0.02772075
#
# Stress axis : x y z
#
# Youngs Moduli (GPa) = 72.99314 47.75344 40.66337
#
# Poissons Ratio (x) = 0.22938 0.03328
# Poissons Ratio (y) = 0.35062 0.41209
# Poissons Ratio (z) = 0.05974 0.48395
#
# Static dielectric constant tensor:
#      x y z
#    x 3.788310 0.000000 -0.052770 
#    y 0.000000 3.961570 0.000000 
#    z -0.052770 0.000000 3.396080 
# 
# 
# High freq. dielectric constant tensor:
#      x y z
#    x 1.788930 0.000000 0.002810 
#    y 0.000000 1.808720 0.000000 
#    z 0.002810 0.000000 1.750530 
# 
# From -- ./inp_files/59599.got.cif
#   From: 2010.03.12/outbox.cif.g09.slc.cpg/sg14_30_cif.got.tgz:59599.got - 2010.03.31 13:35:05.
