data_PCOD8124022
_publ_section_title
;
Structure prediction by ZEFSAII (Michael W. Deem and Ramdas Pophale) SiO2 
 PCOD8124022
Probable space group: P 21/C
;
_chemical_formula_sum "Si O2"
_cell_formula_units_Z 20
_cell_length_a 10.515388
_cell_length_b 16.131558
_cell_length_c 5.229202
_cell_angle_alpha 90.000000
_cell_angle_beta 91.876120
_cell_angle_gamma 90.000000
_cell_volume 886.551906
_symmetry_space_group_name_H-M "P 21/C"
_symmetry_group_IT_number 14
_symmetry_cell_setting 'monoclinic'
loop_
_space_group_symop_operation_xyz
x,y,z
-x,1/2+y,1/2-z
-x,-y,-z
x,1/2-y,1/2+z
loop_
_atom_site_type_symbol
_atom_site_label
_atom_site_fract_x
_atom_site_fract_y
_atom_site_fract_z
Si Si1 0.752470 0.800689 0.174921
Si Si2 0.912779 0.080431 0.446202
Si Si3 0.625930 0.430244 0.783325
Si Si4 0.014762 0.097914 0.952848
Si Si5 0.498062 0.607822 0.725586
O O1 0.781313 0.768388 0.461994
O O2 0.606233 0.827341 0.155296
O O3 0.841425 0.879244 0.115005
O O4 0.772058 0.053428 0.359528
O O5 0.920368 0.128986 0.717789
O O6 0.971291 0.137850 0.221235
O O7 0.000000 0.000000 0.500000
O O8 0.556360 0.517277 0.759130
O O9 0.607271 0.386202 0.507245
O O10 0.566370 0.372378 0.004393
O O11 0.000000 0.000000 0.000000
#
# Coordination Sequence:
#
# PCOD8124022 Si02
#       5
#     4   4   4   4   4
#     4  12  25  42  65  93 130 171 213 265 330 391
#     4  10  19  33  58  90 123 156 199 258 314 357
#     4  10  20  35  61  92 119 153 204 264 316 361
#     4  10  21  37  62  90 122 163 214 265 313 372
#     4  10  21  37  58  89 123 156 204 259 311 374
#
# _framework density 22.559311000000001
#
# number of rings (size 3 to 8) (size 9 to 14) (size 15 to 20)
#    0.000    1.600    0.000    6.000    0.000    9.600 
#    0.000    0.000    0.000   24.000    0.000    0.000 
#    0.000    0.000    0.000    0.000    0.000    0.000 
#
# Total GULP energy -247813.193305 kJ/mol
# GULP energy per Si atom -12390.659665 kJ/mol
# Density = 2.250797 g / cm^3
# Si number density = 22.559311 Si / 1000 Ang^3
#
#
#
# Elastic Constant Matrix: (Units=GPa)
#
#
# Indices 1 2 3 4 5 6 
#
# 1 143.4632 23.4918 72.1559 0.0000 11.7287 0.0000
# 2 23.4918 40.1800 16.7541 0.0000 -7.6548 0.0000
# 3 72.1559 16.7541 231.1704 0.0000 -4.8537 0.0000
# 4 0.0000 0.0000 0.0000 19.0505 0.0000 -7.1322
# 5 11.7287 -7.6548 -4.8537 0.0000 48.1862 0.0000
# 6 0.0000 0.0000 0.0000 -7.1322 0.0000 30.3270
#
#
#
# Elastic Compliance Matrix: (Units=1/GPa)
#
#
# Indices 1 2 3 4 5 6 
#
# 1 0.009395 -0.005032 -0.002638 0.000000 -0.003352 0.000000
# 2 -0.005032 0.029110 -0.000417 0.000000 0.005807 0.000000
# 3 -0.002638 -0.000417 0.005203 0.000000 0.001100 0.000000
# 4 0.000000 0.000000 0.000000 0.057560 0.000000 0.013537
# 5 -0.003352 0.005807 0.001100 0.000000 0.022602 0.000000
# 6 0.000000 0.000000 0.000000 0.013537 0.000000 0.036157
#
#
# Mechanical properties :
#
#
# Convention : Reuss Voigt Hill
#
# Bulk Modulus (GPa) = 36.31912 71.06858 53.69385
# Shear Modulus (GPa) = 26.97165 39.67353 33.32259
#
# Velocity S-wave (km/s) = 3.46148 4.19815 3.84749
# Velocity P-wave (km/s) = 5.66658 7.42096 6.60230
#
# Compressibility (1/GPa) = 0.02753371
#
# Stress axis : x y z
#
# Youngs Moduli (GPa) = 106.43585 34.35231 192.20962
#
# Poissons Ratio (x) = 0.17285 0.50711
# Poissons Ratio (y) = 0.53554 0.08021
# Poissons Ratio (z) = 0.28081 0.01434
#
# Static dielectric constant tensor:
#      x y z
#    x 4.015270 0.000000 0.123310 
#    y 0.000000 3.431100 0.000000 
#    z 0.123310 0.000000 0.620890 
# 
# 
# High freq. dielectric constant tensor:
#      x y z
#    x 1.886410 0.000000 -0.005220 
#    y 0.000000 1.829300 0.000000 
#    z -0.005220 0.000000 1.934450 
# 
# From -- ./inp_files/1198.got.cif
#   From: 2010.03.12/outbox.cif.g09.slc.cpg/sg14_1_cif.got.tgz:1198.got - 2010.03.31 13:35:05.
