data_PCOD8124222
_publ_section_title
;
Structure prediction by ZEFSAII (Michael W. Deem and Ramdas Pophale) SiO2 
 PCOD8124222
Probable space group: P 21/C
;
_chemical_formula_sum "Si O2"
_cell_formula_units_Z 32
_cell_length_a 5.722584
_cell_length_b 14.290545
_cell_length_c 18.588603
_cell_angle_alpha 90.000000
_cell_angle_beta 95.372934
_cell_angle_gamma 90.000000
_cell_volume 1513.475380
_symmetry_space_group_name_H-M "P 21/C"
_symmetry_group_IT_number 14
_symmetry_cell_setting 'monoclinic'
loop_
_space_group_symop_operation_xyz
x,y,z
-x,1/2+y,1/2-z
-x,-y,-z
x,1/2-y,1/2+z
loop_
_atom_site_type_symbol
_atom_site_label
_atom_site_fract_x
_atom_site_fract_y
_atom_site_fract_z
Si Si1 0.036304 0.077227 0.321481
Si Si2 0.762644 0.034521 0.031575
Si Si3 0.310214 0.422311 0.340179
Si Si4 0.368502 0.933277 0.273963
Si Si5 0.324842 0.475537 0.090758
Si Si6 0.634276 0.870722 0.541974
Si Si7 0.096308 0.776186 0.188580
Si Si8 0.355433 0.804650 0.056961
O O1 0.210426 0.124230 0.383146
O O2 0.923593 0.169700 0.280462
O O3 0.165760 0.013360 0.264972
O O4 0.871220 0.005369 0.358758
O O5 0.806335 0.006008 0.116412
O O6 0.766712 0.146199 0.015731
O O7 0.500000 0.000000 0.000000
O O8 0.000000 0.000000 0.000000
O O9 0.413998 0.466652 0.269860
O O10 0.526407 0.385134 0.392404
O O11 0.140506 0.336224 0.316309
O O12 0.460000 0.927949 0.358770
O O13 0.282559 0.831641 0.244008
O O14 0.405773 0.565179 0.047483
O O15 0.233332 0.401012 0.028291
O O16 0.546042 0.765546 0.530457
O O17 0.170121 0.759067 0.107115
#
# Coordination Sequence:
#
# PCOD8124222 Si02
#       8
#     4   4   4   4   4   4   4   4
#     4  11  21  39  65  93 118 170 220 262 324 399
#     4  10  20  35  60  91 129 161 214 275 325 379
#     4  10  20  38  59  87 125 165 208 261 320 393
#     4  10  24  38  59  90 129 168 211 263 327 395
#     4  10  21  39  58  87 127 154 204 269 328 384
#     4  10  20  36  62  91 118 157 209 274 323 380
#     4  11  20  37  66  89 120 168 219 258 318 406
#     4  10  19  35  60  93 117 159 213 265 325 387
#
# _framework density 21.143388999999999
#
# number of rings (size 3 to 8) (size 9 to 14) (size 15 to 20)
#    0.000    1.750    3.750    1.125    0.000    0.000 
#    0.000    5.000    0.000    0.000    0.000    0.000 
#    0.000    0.000    0.000    0.000    0.000    0.000 
#
# Total GULP energy -396425.754555 kJ/mol
# GULP energy per Si atom -12388.304830 kJ/mol
# Density = 2.109527 g / cm^3
# Si number density = 21.143389 Si / 1000 Ang^3
#
#
#
# Elastic Constant Matrix: (Units=GPa)
#
#
# Indices 1 2 3 4 5 6 
#
# 1 78.6962 20.9828 12.4411 0.0000 -24.6743 0.0000
# 2 20.9828 107.1231 44.0562 0.0000 -12.5740 0.0000
# 3 12.4411 44.0562 73.2791 0.0000 -20.7072 0.0000
# 4 0.0000 0.0000 0.0000 34.0956 0.0000 -1.9525
# 5 -24.6743 -12.5740 -20.7072 0.0000 25.5078 0.0000
# 6 0.0000 0.0000 0.0000 -1.9525 0.0000 36.5038
#
#
#
# Elastic Compliance Matrix: (Units=1/GPa)
#
#
# Indices 1 2 3 4 5 6 
#
# 1 0.019383 -0.003214 0.004531 0.000000 0.020844 0.000000
# 2 -0.003214 0.012934 -0.008185 0.000000 -0.003377 0.000000
# 3 0.004531 -0.008185 0.023224 0.000000 0.019202 0.000000
# 4 0.000000 0.000000 0.000000 0.029419 0.000000 0.001574
# 5 0.020844 -0.003377 0.019202 0.000000 0.073290 0.000000
# 6 0.000000 0.000000 0.000000 0.001574 0.000000 0.027479
#
#
# Mechanical properties :
#
#
# Convention : Reuss Voigt Hill
#
# Bulk Modulus (GPa) = 23.91950 46.00651 34.96300
# Shear Modulus (GPa) = 23.43027 31.32933 27.37980
#
# Velocity S-wave (km/s) = 3.33252 3.85353 3.60246
# Velocity P-wave (km/s) = 5.11323 6.45028 5.82028
#
# Compressibility (1/GPa) = 0.04180690
#
# Stress axis : x y z
#
# Youngs Moduli (GPa) = 51.59169 77.31369 43.05878
#
# Poissons Ratio (x) = 0.24846 -0.19511
# Poissons Ratio (y) = 0.16579 0.35244
# Poissons Ratio (z) = -0.23378 0.63281
#
# Static dielectric constant tensor:
#      x y z
#    x 3.910750 0.000000 -0.146010 
#    y 0.000000 3.927180 0.000000 
#    z -0.146010 0.000000 4.150990 
# 
# 
# High freq. dielectric constant tensor:
#      x y z
#    x 1.833420 0.000000 -0.008200 
#    y 0.000000 1.818550 0.000000 
#    z -0.008200 0.000000 1.813250 
# 
# From -- ./inp_files/53478.got.cif
#   From: 2010.03.12/outbox.cif.g09.slc.cpg/sg14_27_cif.got.tgz:53478.got - 2010.03.31 13:35:05.
