data_PCOD8124404
_publ_section_title
;
Structure prediction by ZEFSAII (Michael W. Deem and Ramdas Pophale) SiO2 
 PCOD8124404
Probable space group: P 21/C
;
_chemical_formula_sum "Si O2"
_cell_formula_units_Z 28
_cell_length_a 8.901450
_cell_length_b 18.095430
_cell_length_c 18.108749
_cell_angle_alpha 90.000000
_cell_angle_beta 149.299539
_cell_angle_gamma 90.000000
_cell_volume 1489.211066
_symmetry_space_group_name_H-M "P 21/C"
_symmetry_group_IT_number 14
_symmetry_cell_setting 'monoclinic'
loop_
_space_group_symop_operation_xyz
x,y,z
-x,1/2+y,1/2-z
-x,-y,-z
x,1/2-y,1/2+z
loop_
_atom_site_type_symbol
_atom_site_label
_atom_site_fract_x
_atom_site_fract_y
_atom_site_fract_z
Si Si1 0.084307 0.455159 0.825413
Si Si2 0.300524 0.361283 0.709065
Si Si3 0.488240 0.101808 0.129295
Si Si4 0.487204 0.330924 0.483629
Si Si5 0.349924 0.902082 0.504711
Si Si6 0.199255 0.959053 0.948859
Si Si7 0.038638 0.260137 0.190188
O O1 0.174821 0.522464 0.916690
O O2 0.836333 0.409626 0.763887
O O3 0.966630 0.485181 0.696303
O O4 0.365022 0.401224 0.929152
O O5 0.436727 0.359535 0.685461
O O6 0.210397 0.277144 0.693557
O O7 0.012248 0.412339 0.587347
O O8 0.544100 0.396422 0.866171
O O9 0.364711 0.157327 0.014330
O O10 0.312693 0.025439 0.047137
O O11 0.515390 0.410180 0.454098
O O12 0.282176 0.273900 0.355108
O O13 0.819014 0.300466 0.630016
O O14 0.128861 0.834819 0.398902
#
# Coordination Sequence:
#
# PCOD8124404 Si02
#       7
#     4   4   4   4   4   4   4
#     4   9  19  34  62  90 105 148 200 248 284 334
#     4  10  22  35  54  85 119 155 187 235 291 354
#     4  11  20  36  56  89 119 140 198 248 286 335
#     4  10  21  35  61  82 111 151 202 233 283 344
#     4  10  19  37  59  81 118 149 194 237 290 349
#     4   9  18  36  59  83 111 150 192 232 289 346
#     4  11  20  39  57  80 111 165 191 226 285 356
#
# _framework density 18.801902999999999
#
# number of rings (size 3 to 8) (size 9 to 14) (size 15 to 20)
#    0.000    2.000    1.429    4.714    0.000    0.571 
#    2.571    0.000    0.000    0.000    0.000    0.000 
#    0.000    0.000    0.000    0.000    0.000    0.000 
#
# Total GULP energy -347133.879350 kJ/mol
# GULP energy per Si atom -12397.638548 kJ/mol
# Density = 1.875911 g / cm^3
# Si number density = 18.801903 Si / 1000 Ang^3
#
#
#
# Elastic Constant Matrix: (Units=GPa)
#
#
# Indices 1 2 3 4 5 6 
#
# 1 140.7335 55.4832 48.3579 0.0000 -10.4304 0.0000
# 2 55.4832 90.4724 45.3035 0.0000 -6.4250 0.0000
# 3 48.3579 45.3035 86.9091 0.0000 6.0652 0.0000
# 4 0.0000 0.0000 0.0000 41.8840 0.0000 -0.8985
# 5 -10.4304 -6.4250 6.0652 0.0000 19.7956 0.0000
# 6 0.0000 0.0000 0.0000 -0.8985 0.0000 25.7253
#
#
#
# Elastic Compliance Matrix: (Units=1/GPa)
#
#
# Indices 1 2 3 4 5 6 
#
# 1 0.010511 -0.003967 -0.004166 0.000000 0.005527 0.000000
# 2 -0.003967 0.017597 -0.007376 0.000000 0.005881 0.000000
# 3 -0.004166 -0.007376 0.018383 0.000000 -0.010221 0.000000
# 4 0.000000 0.000000 0.000000 0.023893 0.000000 0.000834
# 5 0.005527 0.005881 -0.010221 0.000000 0.058469 0.000000
# 6 0.000000 0.000000 0.000000 0.000834 0.000000 0.038901
#
#
# Mechanical properties :
#
#
# Convention : Reuss Voigt Hill
#
# Bulk Modulus (GPa) = 64.63282 68.48934 66.56108
# Shear Modulus (GPa) = 24.51818 28.74568 26.63193
#
# Velocity S-wave (km/s) = 3.61505 3.91432 3.76766
# Velocity P-wave (km/s) = 7.20244 7.54553 7.37598
#
# Compressibility (1/GPa) = 0.01547202
#
# Stress axis : x y z
#
# Youngs Moduli (GPa) = 95.13969 56.82742 54.39921
#
# Poissons Ratio (x) = 0.22545 0.22664
# Poissons Ratio (y) = 0.37744 0.40124
# Poissons Ratio (z) = 0.39637 0.41916
#
# Static dielectric constant tensor:
#      x y z
#    x 3.253760 0.000000 0.167640 
#    y 0.000000 3.523090 0.000000 
#    z 0.167640 0.000000 3.603080 
# 
# 
# High freq. dielectric constant tensor:
#      x y z
#    x 1.707060 0.000000 0.013480 
#    y 0.000000 1.730300 0.000000 
#    z 0.013480 0.000000 1.736570 
# 
# From -- ./inp_files/56156.got.cif
#   From: 2010.03.12/outbox.cif.g09.slc.cpg/sg14_29_cif.got.tgz:56156.got - 2010.03.31 13:35:05.
