data_PCOD8124485
_publ_section_title
;
Structure prediction by ZEFSAII (Michael W. Deem and Ramdas Pophale) SiO2 
 PCOD8124485
Probable space group: P 21/C
;
_chemical_formula_sum "Si O2"
_cell_formula_units_Z 32
_cell_length_a 22.136101
_cell_length_b 9.170118
_cell_length_c 13.516321
_cell_angle_alpha 90.000000
_cell_angle_beta 150.088871
_cell_angle_gamma 90.000000
_cell_volume 1368.156247
_symmetry_space_group_name_H-M "P 21/C"
_symmetry_group_IT_number 14
_symmetry_cell_setting 'monoclinic'
loop_
_space_group_symop_operation_xyz
x,y,z
-x,1/2+y,1/2-z
-x,-y,-z
x,1/2-y,1/2+z
loop_
_atom_site_type_symbol
_atom_site_label
_atom_site_fract_x
_atom_site_fract_y
_atom_site_fract_z
Si Si1 0.719448 0.398195 0.997902
Si Si2 0.567506 0.006811 0.464171
Si Si3 0.145904 0.183174 0.323110
Si Si4 0.926284 0.227595 0.403573
Si Si5 0.343289 0.636015 0.717909
Si Si6 0.239659 0.215834 0.249484
Si Si7 0.114838 0.453010 0.423275
Si Si8 0.905746 0.961351 0.503009
O O1 0.611157 0.448734 0.917073
O O2 0.790947 0.533625 0.049587
O O3 0.814359 0.308386 0.197324
O O4 0.660417 0.301690 0.827333
O O5 0.601129 0.132330 0.592073
O O6 0.424994 0.968848 0.262877
O O7 0.631026 0.855286 0.591613
O O8 0.228274 0.242786 0.349826
O O9 0.143350 0.306600 0.402062
O O10 0.009492 0.160625 0.085794
O O11 0.005750 0.138914 0.437617
O O12 0.871065 0.112204 0.403129
O O13 0.206152 0.579104 0.519194
O O14 0.137338 0.095143 0.068634
O O15 0.217739 0.367828 0.158667
O O16 0.977413 0.511017 0.208988
#
# Coordination Sequence:
#
# PCOD8124485 Si02
#       8
#     4   4   4   4   4   4   4   4
#     4  11  20  37  60  91 109 152 204 240 291 354
#     4   9  22  41  60  83 118 159 194 250 300 333
#     4   9  20  36  55  84 125 147 185 241 295 346
#     4   9  17  33  56  81 118 153 182 243 294 350
#     4  10  21  41  64  80 117 158 202 239 294 356
#     4   9  19  36  56  79 116 155 191 231 290 354
#     4  10  19  38  58  83 117 160 189 236 298 354
#     4   9  17  34  54  83 114 152 192 229 293 355
#
# _framework density 23.389140000000001
#
# number of rings (size 3 to 8) (size 9 to 14) (size 15 to 20)
#    0.000    2.500    1.250    1.125    0.000    2.000 
#   20.250    0.000    0.000    3.000    0.000    0.000 
#    0.000    0.000    0.000    0.000    0.000    0.000 
#
# Total GULP energy -396524.783536 kJ/mol
# GULP energy per Si atom -12391.399486 kJ/mol
# Density = 2.333591 g / cm^3
# Si number density = 23.389140 Si / 1000 Ang^3
#
#
#
# Elastic Constant Matrix: (Units=GPa)
#
#
# Indices 1 2 3 4 5 6 
#
# 1 50.5760 14.7025 5.6249 0.0000 1.0427 0.0000
# 2 14.7025 101.7501 28.5479 0.0000 -0.8891 0.0000
# 3 5.6249 28.5479 43.0322 0.0000 -6.6963 0.0000
# 4 0.0000 0.0000 0.0000 38.3587 0.0000 1.6835
# 5 1.0427 -0.8891 -6.6963 0.0000 19.7500 0.0000
# 6 0.0000 0.0000 0.0000 1.6835 0.0000 27.2754
#
#
#
# Elastic Compliance Matrix: (Units=1/GPa)
#
#
# Indices 1 2 3 4 5 6 
#
# 1 0.020715 -0.002675 -0.001185 0.000000 -0.001616 0.000000
# 2 -0.002675 0.012520 -0.008284 0.000000 -0.002104 0.000000
# 3 -0.001185 -0.008284 0.030447 0.000000 0.010013 0.000000
# 4 0.000000 0.000000 0.000000 0.026140 0.000000 -0.001613
# 5 -0.001616 -0.002104 0.010013 0.000000 0.054019 0.000000
# 6 0.000000 0.000000 0.000000 -0.001613 0.000000 0.036763
#
#
# Mechanical properties :
#
#
# Convention : Reuss Voigt Hill
#
# Bulk Modulus (GPa) = 25.38360 32.56765 28.97563
# Shear Modulus (GPa) = 22.93343 26.84235 24.88789
#
# Velocity S-wave (km/s) = 3.13472 3.39136 3.26556
# Velocity P-wave (km/s) = 4.89676 5.41199 5.16081
#
# Compressibility (1/GPa) = 0.03939551
#
# Stress axis : x y z
#
# Youngs Moduli (GPa) = 48.27441 79.87012 32.84404
#
# Poissons Ratio (x) = 0.21365 0.03890
# Poissons Ratio (y) = 0.12913 0.27207
# Poissons Ratio (z) = 0.05718 0.66163
#
# Static dielectric constant tensor:
#      x y z
#    x 4.140400 0.000000 -0.103090 
#    y 0.000000 4.428300 0.000000 
#    z -0.103090 0.000000 4.146100 
# 
# 
# High freq. dielectric constant tensor:
#      x y z
#    x 1.924020 0.000000 -0.012130 
#    y 0.000000 1.922720 0.000000 
#    z -0.012130 0.000000 1.900930 
# 
# From -- ./inp_files/51270.got.cif
#   From: 2010.03.12/outbox.cif.g09.slc.cpg/sg14_26_cif.got.tgz:51270.got - 2010.03.31 13:35:05.
