data_PCOD8124849
_publ_section_title
;
Structure prediction by ZEFSAII (Michael W. Deem and Ramdas Pophale) SiO2 
 PCOD8124849
Probable space group: P 21/C
;
_chemical_formula_sum "Si O2"
_cell_formula_units_Z 32
_cell_length_a 23.990775
_cell_length_b 9.228387
_cell_length_c 14.065385
_cell_angle_alpha 90.000000
_cell_angle_beta 148.217541
_cell_angle_gamma 90.000000
_cell_volume 1640.141708
_symmetry_space_group_name_H-M "P 21/C"
_symmetry_group_IT_number 14
_symmetry_cell_setting 'monoclinic'
loop_
_space_group_symop_operation_xyz
x,y,z
-x,1/2+y,1/2-z
-x,-y,-z
x,1/2-y,1/2+z
loop_
_atom_site_type_symbol
_atom_site_label
_atom_site_fract_x
_atom_site_fract_y
_atom_site_fract_z
Si Si1 0.893693 0.588034 0.423775
Si Si2 0.551511 0.354174 0.037181
Si Si3 0.409574 0.097072 0.824217
Si Si4 0.729973 0.338991 0.151780
Si Si5 0.857551 0.144969 0.469836
Si Si6 0.309890 0.673970 0.116286
Si Si7 0.188566 0.337608 0.067263
Si Si8 0.955030 0.655478 0.311825
O O1 0.812041 0.470614 0.264254
O O2 0.840009 0.688908 0.423393
O O3 0.932760 0.684899 0.391144
O O4 0.990530 0.504066 0.615907
O O5 0.627307 0.394124 0.059698
O O6 0.610836 0.279411 0.212096
O O7 0.500000 0.500000 0.000000
O O8 0.462057 0.245940 0.863619
O O9 0.315030 0.140615 0.759677
O O10 0.355665 0.990283 0.669201
O O11 0.500000 0.000000 0.000000
O O12 0.777766 0.202224 0.274928
O O13 0.704014 0.272469 0.011097
O O14 0.803472 0.170770 0.494684
O O15 0.969559 0.223375 0.624925
O O16 0.872055 0.973279 0.472160
O O17 0.152800 0.334515 0.904612
#
# Coordination Sequence:
#
# PCOD8124849 Si02
#       8
#     4   4   4   4   4   4   4   4
#     4  10  21  36  57  84 112 144 186 227 269 339
#     4  10  20  35  55  84 114 138 184 243 279 317
#     4   9  19  36  56  77 106 146 183 221 274 329
#     4  10  20  37  57  79 110 150 184 221 281 337
#     4   9  20  36  55  80 109 140 180 228 271 325
#     4   9  19  37  58  76 107 152 184 217 279 343
#     4  11  20  36  58  80 110 144 183 231 275 323
#     4  10  21  37  57  81 111 149 182 219 283 340
#
# _framework density 19.51051
#
# number of rings (size 3 to 8) (size 9 to 14) (size 15 to 20)
#    0.000    2.250    0.000    3.750    0.000    3.500 
#    0.000    8.750    0.000    0.000    0.000    0.000 
#    0.000    0.000    0.000    0.000    0.000    0.000 
#
# Total GULP energy -396606.843136 kJ/mol
# GULP energy per Si atom -12393.963848 kJ/mol
# Density = 1.946610 g / cm^3
# Si number density = 19.510510 Si / 1000 Ang^3
#
#
#
# Elastic Constant Matrix: (Units=GPa)
#
#
# Indices 1 2 3 4 5 6 
#
# 1 94.4288 20.3314 44.7693 0.0000 -6.5184 0.0000
# 2 20.3314 65.5005 18.6117 0.0000 -0.0158 0.0000
# 3 44.7693 18.6117 77.5501 0.0000 6.1110 0.0000
# 4 0.0000 0.0000 0.0000 22.8512 0.0000 10.6511
# 5 -6.5184 -0.0158 6.1110 0.0000 32.2926 0.0000
# 6 0.0000 0.0000 0.0000 10.6511 0.0000 32.7375
#
#
#
# Elastic Compliance Matrix: (Units=1/GPa)
#
#
# Indices 1 2 3 4 5 6 
#
# 1 0.015614 -0.002335 -0.008833 0.000000 0.004822 0.000000
# 2 -0.002335 0.016752 -0.002676 0.000000 0.000043 0.000000
# 3 -0.008833 -0.002676 0.019061 0.000000 -0.005391 0.000000
# 4 0.000000 0.000000 0.000000 0.051584 0.000000 -0.016783
# 5 0.004822 0.000043 -0.005391 0.000000 0.032961 0.000000
# 6 0.000000 0.000000 0.000000 -0.016783 0.000000 0.036006
#
#
# Mechanical properties :
#
#
# Convention : Reuss Voigt Hill
#
# Bulk Modulus (GPa) = 42.12542 44.98938 43.55740
# Shear Modulus (GPa) = 24.08720 27.82739 25.95730
#
# Velocity S-wave (km/s) = 3.51746 3.78071 3.65146
# Velocity P-wave (km/s) = 6.17533 6.49364 6.33649
#
# Compressibility (1/GPa) = 0.02373864
#
# Stress axis : x y z
#
# Youngs Moduli (GPa) = 64.04702 59.69348 52.46254
#
# Poissons Ratio (x) = 0.13941 0.46341
# Poissons Ratio (y) = 0.14958 0.14037
# Poissons Ratio (z) = 0.56574 0.15972
#
# Static dielectric constant tensor:
#      x y z
#    x 3.465780 0.000000 0.245290 
#    y 0.000000 3.692930 0.000000 
#    z 0.245290 0.000000 3.699180 
# 
# 
# High freq. dielectric constant tensor:
#      x y z
#    x 1.745640 0.000000 0.015100 
#    y 0.000000 1.758770 0.000000 
#    z 0.015100 0.000000 1.764270 
# 
# From -- ./inp_files/46304.got.cif
#   From: 2010.03.12/outbox.cif.g09.slc.cpg/sg14_24_cif.got.tgz:46304.got - 2010.03.31 13:35:05.
