data_PCOD8124379
_publ_section_title
;
Structure prediction by ZEFSAII (Michael W. Deem and Ramdas Pophale) SiO2 
 PCOD8124379
Probable space group: P 21/C
;
_chemical_formula_sum "Si O2"
_cell_formula_units_Z 28
_cell_length_a 7.640753
_cell_length_b 28.137644
_cell_length_c 5.276492
_cell_angle_alpha 90.000000
_cell_angle_beta 93.612918
_cell_angle_gamma 90.000000
_cell_volume 1132.153142
_symmetry_space_group_name_H-M "P 21/C"
_symmetry_group_IT_number 14
_symmetry_cell_setting 'monoclinic'
loop_
_space_group_symop_operation_xyz
x,y,z
-x,1/2+y,1/2-z
-x,-y,-z
x,1/2-y,1/2+z
loop_
_atom_site_type_symbol
_atom_site_label
_atom_site_fract_x
_atom_site_fract_y
_atom_site_fract_z
Si Si1 0.141827 0.227995 0.661554
Si Si2 0.064730 0.053908 0.475978
Si Si3 0.126293 0.868235 0.828087
Si Si4 0.551588 0.950886 0.625889
Si Si5 0.453594 0.596413 0.607068
Si Si6 0.239996 0.732833 0.263513
Si Si7 0.183200 0.130547 0.852241
O O1 0.232885 0.252466 0.426534
O O2 0.163920 0.170966 0.634503
O O3 0.936134 0.240291 0.653202
O O4 0.237892 0.053704 0.313944
O O5 0.122975 0.078316 0.746320
O O6 0.905202 0.085385 0.349610
O O7 0.000000 0.000000 0.500000
O O8 0.263543 0.880080 0.065005
O O9 0.203776 0.822459 0.689570
O O10 0.939915 0.853266 0.928289
O O11 0.460579 0.945582 0.893206
O O12 0.500000 0.000000 0.500000
O O13 0.480299 0.914362 0.406499
O O14 0.615352 0.630025 0.535628
O O15 0.343589 0.740635 0.542273
#
# Coordination Sequence:
#
# PCOD8124379 Si02
#       7
#     4   4   4   4   4   4   4
#     4  10  19  36  66  94 126 173 215 265 335 388
#     4  11  25  42  70 100 132 182 230 271 338 404
#     4  12  24  42  72  94 136 180 222 279 333 400
#     4  11  24  47  64  94 138 171 224 289 325 392
#     4  11  27  43  65  99 131 177 221 273 340 390
#     4  10  20  36  64  97 127 168 218 269 329 387
#     4  11  24  44  67  96 138 175 222 278 334 398
#
# _framework density 24.731636999999999
#
# number of rings (size 3 to 8) (size 9 to 14) (size 15 to 20)
#    0.000    1.143    4.286    3.000    4.000    1.714 
#    0.000    1.429    0.000    0.000    0.000    0.000 
#    0.000    0.000    0.000    0.000    0.000    0.000 
#
# Total GULP energy -346940.545569 kJ/mol
# GULP energy per Si atom -12390.733770 kJ/mol
# Density = 2.467535 g / cm^3
# Si number density = 24.731637 Si / 1000 Ang^3
#
#
#
# Elastic Constant Matrix: (Units=GPa)
#
#
# Indices 1 2 3 4 5 6 
#
# 1 67.9035 4.3252 1.0379 0.0000 20.5635 0.0000
# 2 4.3252 137.7756 21.4158 0.0000 10.5917 0.0000
# 3 1.0379 21.4158 117.0736 0.0000 0.6257 0.0000
# 4 0.0000 0.0000 0.0000 38.3517 0.0000 2.5027
# 5 20.5635 10.5917 0.6257 0.0000 31.1131 0.0000
# 6 0.0000 0.0000 0.0000 2.5027 0.0000 14.8925
#
#
#
# Elastic Compliance Matrix: (Units=1/GPa)
#
#
# Indices 1 2 3 4 5 6 
#
# 1 0.018433 0.000394 -0.000170 0.000000 -0.012314 0.000000
# 2 0.000394 0.007681 -0.001393 0.000000 -0.002848 0.000000
# 3 -0.000170 -0.001393 0.008796 0.000000 0.000410 0.000000
# 4 0.000000 0.000000 0.000000 0.026364 0.000000 -0.004430
# 5 -0.012314 -0.002848 0.000410 0.000000 0.041240 0.000000
# 6 0.000000 0.000000 0.000000 -0.004430 0.000000 0.067893
#
#
# Mechanical properties :
#
#
# Convention : Reuss Voigt Hill
#
# Bulk Modulus (GPa) = 30.70035 41.81228 36.25631
# Shear Modulus (GPa) = 27.23276 36.60304 31.91790
#
# Velocity S-wave (km/s) = 3.32193 3.85126 3.59635
# Velocity P-wave (km/s) = 5.21095 6.05965 5.65125
#
# Compressibility (1/GPa) = 0.03257292
#
# Stress axis : x y z
#
# Youngs Moduli (GPa) = 54.24953 130.18643 113.69018
#
# Poissons Ratio (x) = -0.05134 0.01930
# Poissons Ratio (y) = -0.02139 0.15841
# Poissons Ratio (z) = 0.00921 0.18140
#
# Static dielectric constant tensor:
#      x y z
#    x 4.258070 0.000000 0.083480 
#    y 0.000000 4.483800 0.000000 
#    z 0.083480 0.000000 5.380020 
# 
# 
# High freq. dielectric constant tensor:
#      x y z
#    x 1.957400 0.000000 0.011620 
#    y 0.000000 1.981270 0.000000 
#    z 0.011620 0.000000 1.991280 
# 
# From -- ./inp_files/1936.got.cif
#   From: 2010.03.12/outbox.cif.g09.slc.cpg/sg14_1_cif.got.tgz:1936.got - 2010.03.31 13:35:05.
