data_PCOD8124553
_publ_section_title
;
Structure prediction by ZEFSAII (Michael W. Deem and Ramdas Pophale) SiO2 
 PCOD8124553
Probable space group: P 21/C
;
_chemical_formula_sum "Si O2"
_cell_formula_units_Z 28
_cell_length_a 18.181093
_cell_length_b 17.760463
_cell_length_c 8.969473
_cell_angle_alpha 90.000000
_cell_angle_beta 28.542777
_cell_angle_gamma 90.000000
_cell_volume 1383.887390
_symmetry_space_group_name_H-M "P 21/C"
_symmetry_group_IT_number 14
_symmetry_cell_setting 'monoclinic'
loop_
_space_group_symop_operation_xyz
x,y,z
-x,1/2+y,1/2-z
-x,-y,-z
x,1/2-y,1/2+z
loop_
_atom_site_type_symbol
_atom_site_label
_atom_site_fract_x
_atom_site_fract_y
_atom_site_fract_z
Si Si1 0.592377 0.800274 0.112245
Si Si2 0.254052 0.102495 0.726884
Si Si3 0.874584 0.385843 0.207875
Si Si4 0.004958 0.992044 0.258718
Si Si5 0.531957 0.161358 0.365189
Si Si6 0.123973 0.278012 0.675585
Si Si7 0.777372 0.621359 0.046844
O O1 0.527336 0.734155 0.122597
O O2 0.463635 0.824642 0.463392
O O3 0.739232 0.777446 0.948267
O O4 0.645457 0.869289 0.909245
O O5 0.411462 0.093630 0.542747
O O6 0.304257 0.119080 0.468385
O O7 0.160672 0.171988 0.964940
O O8 0.149375 0.027819 0.915164
O O9 0.923896 0.425557 0.270957
O O10 0.697159 0.364443 0.516795
O O11 0.913616 0.443461 0.007641
O O12 0.967796 0.307868 0.027651
O O13 0.877399 0.954384 0.380872
O O14 0.105245 0.192481 0.653342
#
# Coordination Sequence:
#
# PCOD8124553 Si02
#       7
#     4   4   4   4   4   4   4
#     4  11  20  37  65  92 121 161 204 254 323 358
#     4  10  21  38  63  91 125 160 208 251 319 365
#     4  10  23  41  63  92 128 161 218 253 308 376
#     4  10  23  40  62  92 123 172 207 255 308 377
#     4  11  22  40  63  93 128 159 204 266 314 370
#     4  10  19  38  66  92 115 167 207 257 301 373
#     4  12  19  38  68  91 122 163 215 259 301 374
#
# _framework density 20.232859999999999
#
# number of rings (size 3 to 8) (size 9 to 14) (size 15 to 20)
#    0.000    1.429    5.714    0.429    2.000    1.714 
#    2.571    0.714    9.429    0.000    0.000    0.000 
#    0.000    0.000    0.000    0.000    0.000    0.000 
#
# Total GULP energy -346989.788324 kJ/mol
# GULP energy per Si atom -12392.492440 kJ/mol
# Density = 2.018681 g / cm^3
# Si number density = 20.232860 Si / 1000 Ang^3
#
#
#
# Elastic Constant Matrix: (Units=GPa)
#
#
# Indices 1 2 3 4 5 6 
#
# 1 59.2553 33.9996 115.8894 0.0000 44.5718 0.0000
# 2 33.9996 36.2539 -35.3078 0.0000 -16.3078 0.0000
# 3 115.8894 -35.3078 -170.5138 0.0000 -86.1651 0.0000
# 4 0.0000 0.0000 0.0000 17.3645 0.0000 -19.3673
# 5 44.5718 -16.3078 -86.1651 0.0000 10.0997 0.0000
# 6 0.0000 0.0000 0.0000 -19.3673 0.0000 -3.3481
#
#
#
# Elastic Compliance Matrix: (Units=1/GPa)
#
#
# Indices 1 2 3 4 5 6 
#
# 1 0.007582 -0.001812 0.004503 0.000000 0.002029 0.000000
# 2 -0.001812 0.023411 -0.005502 0.000000 -0.001142 0.000000
# 3 0.004503 -0.005502 0.002423 0.000000 -0.008089 0.000000
# 4 0.000000 0.000000 0.000000 0.007728 0.000000 -0.044704
# 5 0.002029 -0.001142 -0.008089 0.000000 0.019204 0.000000
# 6 0.000000 0.000000 0.000000 -0.044704 0.000000 -0.040081
#
#
# Mechanical properties :
#
#
# Convention : Reuss Voigt Hill
#
# Bulk Modulus (GPa) = 35.98054 17.12864 26.55459
# Shear Modulus (GPa) = 142.23129 -7.81585 67.20772
#
# Velocity S-wave (km/s) = 8.39344 -1.96757 5.76968
# Velocity P-wave (km/s) = 10.57142 1.82273 7.58542
#
# Compressibility (1/GPa) = 0.02779280
#
# Stress axis : x y z
#
# Youngs Moduli (GPa) = 131.88391 42.71571 412.76717
#
# Poissons Ratio (x) = 0.07742 -1.85876
# Poissons Ratio (y) = 0.23903 2.27112
# Poissons Ratio (z) = -0.59389 0.23503
#
# Static dielectric constant tensor:
#      x y z
#    x 3.665150 0.000000 0.228890 
#    y 0.000000 3.727650 0.000000 
#    z 0.228890 0.000000 3.763000 
# 
# 
# High freq. dielectric constant tensor:
#      x y z
#    x 1.788700 0.000000 0.020730 
#    y 0.000000 1.779790 0.000000 
#    z 0.020730 0.000000 1.781080 
# 
# From -- ./inp_files/18154.got.cif
#   From: 2010.03.12/outbox.cif.g09.slc.cpg/sg14_10_cif.got.tgz:18154.got - 2010.03.31 13:35:05.
