data_PCOD8124467
_publ_section_title
;
Structure prediction by ZEFSAII (Michael W. Deem and Ramdas Pophale) SiO2 
 PCOD8124467
Probable space group: P 21/C
;
_chemical_formula_sum "Si O2"
_cell_formula_units_Z 28
_cell_length_a 11.294236
_cell_length_b 17.761310
_cell_length_c 10.046922
_cell_angle_alpha 90.000000
_cell_angle_beta 140.857222
_cell_angle_gamma 90.000000
_cell_volume 1272.242041
_symmetry_space_group_name_H-M "P 21/C"
_symmetry_group_IT_number 14
_symmetry_cell_setting 'monoclinic'
loop_
_space_group_symop_operation_xyz
x,y,z
-x,1/2+y,1/2-z
-x,-y,-z
x,1/2-y,1/2+z
loop_
_atom_site_type_symbol
_atom_site_label
_atom_site_fract_x
_atom_site_fract_y
_atom_site_fract_z
Si Si1 0.812957 0.560709 0.989312
Si Si2 0.693776 0.897667 0.928168
Si Si3 0.503224 0.173559 0.716806
Si Si4 0.932514 0.660084 0.858094
Si Si5 0.640466 0.722917 0.179112
Si Si6 0.691262 0.405993 0.775872
Si Si7 0.218081 0.563585 0.442563
O O1 0.652488 0.608440 0.919065
O O2 0.859353 0.589963 0.882136
O O3 0.751466 0.474462 0.924333
O O4 0.994806 0.568709 0.241252
O O5 0.675647 0.860610 0.767037
O O6 0.513256 0.877393 0.861722
O O7 0.871462 0.858447 0.154464
O O8 0.720247 0.986418 0.932840
O O9 0.484350 0.218766 0.562717
O O10 0.478420 0.229224 0.819112
O O11 0.706347 0.133680 0.904209
O O12 0.842784 0.738609 0.827941
O O13 0.158909 0.662040 0.069354
O O14 0.683446 0.432435 0.616229
#
# Coordination Sequence:
#
# PCOD8124467 Si02
#       7
#     4   4   4   4   4   4   4
#     4  10  19  37  65  99 121 162 219 262 313 379
#     4  12  21  38  68  95 128 167 217 269 325 370
#     4  11  24  44  64  91 133 168 220 267 324 383
#     4  10  20  40  62  91 128 168 216 259 309 384
#     4  11  25  44  65  89 133 181 207 263 333 391
#     4  11  19  36  69 101 121 165 222 261 312 391
#     4  11  21  37  68  98 130 167 214 274 316 377
#
# _framework density 22.008389999999999
#
# number of rings (size 3 to 8) (size 9 to 14) (size 15 to 20)
#    0.000    1.143    5.714    3.000    0.000    0.571 
#    2.571    5.000    0.000    0.000    0.000    0.000 
#    0.000    0.000    0.000    0.000    0.000    0.000 
#
# Total GULP energy -347326.993800 kJ/mol
# GULP energy per Si atom -12404.535493 kJ/mol
# Density = 2.195830 g / cm^3
# Si number density = 22.008390 Si / 1000 Ang^3
#
#
#
# Elastic Constant Matrix: (Units=GPa)
#
#
# Indices 1 2 3 4 5 6 
#
# 1 34.1896 22.0254 26.9819 0.0000 -13.6835 0.0000
# 2 22.0254 100.0928 55.8800 0.0000 -16.4751 0.0000
# 3 26.9819 55.8800 108.1507 0.0000 -4.2434 0.0000
# 4 0.0000 0.0000 0.0000 44.8418 0.0000 -4.8318
# 5 -13.6835 -16.4751 -4.2434 0.0000 29.0138 0.0000
# 6 0.0000 0.0000 0.0000 -4.8318 0.0000 24.5855
#
#
#
# Elastic Compliance Matrix: (Units=1/GPa)
#
#
# Indices 1 2 3 4 5 6 
#
# 1 0.045703 -0.001306 -0.009968 0.000000 0.019355 0.000000
# 2 -0.001306 0.015626 -0.007467 0.000000 0.007165 0.000000
# 3 -0.009968 -0.007467 0.015328 0.000000 -0.006699 0.000000
# 4 0.000000 0.000000 0.000000 0.022783 0.000000 0.004478
# 5 0.019355 0.007165 -0.006699 0.000000 0.046683 0.000000
# 6 0.000000 0.000000 0.000000 0.004478 0.000000 0.041554
#
#
# Mechanical properties :
#
#
# Convention : Reuss Voigt Hill
#
# Bulk Modulus (GPa) = 25.52615 50.24529 37.88572
# Shear Modulus (GPa) = 20.98920 28.85797 24.92359
#
# Velocity S-wave (km/s) = 3.09154 3.62501 3.36885
# Velocity P-wave (km/s) = 4.93630 6.35615 5.69068
#
# Compressibility (1/GPa) = 0.03917552
#
# Stress axis : x y z
#
# Youngs Moduli (GPa) = 21.88049 63.99568 65.23891
#
# Poissons Ratio (x) = 0.08360 0.65029
# Poissons Ratio (y) = 0.02858 0.48712
# Poissons Ratio (z) = 0.21810 0.47784
#
# Static dielectric constant tensor:
#      x y z
#    x 3.614760 0.000000 0.134990 
#    y 0.000000 3.988680 0.000000 
#    z 0.134990 0.000000 4.103960 
# 
# 
# High freq. dielectric constant tensor:
#      x y z
#    x 1.824410 0.000000 0.008460 
#    y 0.000000 1.868030 0.000000 
#    z 0.008460 0.000000 1.873950 
# 
# From -- ./inp_files/33106.got.cif
#   From: 2010.03.12/outbox.cif.g09.slc.cpg/sg14_17_cif.got.tgz:33106.got - 2010.03.31 13:35:05.
