data_PCOD8124546
_publ_section_title
;
Structure prediction by ZEFSAII (Michael W. Deem and Ramdas Pophale) SiO2 
 PCOD8124546
Probable space group: P 21/C
;
_chemical_formula_sum "Si O2"
_cell_formula_units_Z 20
_cell_length_a 9.708013
_cell_length_b 8.105436
_cell_length_c 14.047291
_cell_angle_alpha 90.000000
_cell_angle_beta 129.455370
_cell_angle_gamma 90.000000
_cell_volume 853.461644
_symmetry_space_group_name_H-M "P 21/C"
_symmetry_group_IT_number 14
_symmetry_cell_setting 'monoclinic'
loop_
_space_group_symop_operation_xyz
x,y,z
-x,1/2+y,1/2-z
-x,-y,-z
x,1/2-y,1/2+z
loop_
_atom_site_type_symbol
_atom_site_label
_atom_site_fract_x
_atom_site_fract_y
_atom_site_fract_z
Si Si1 0.322349 0.693291 0.651973
Si Si2 0.349365 0.038913 0.611030
Si Si3 0.408082 0.724280 0.993691
Si Si4 0.793218 0.737170 0.105777
Si Si5 0.133325 0.934324 0.238439
O O1 0.523338 0.661996 0.776719
O O2 0.322655 0.655149 0.538169
O O3 0.181331 0.580433 0.646783
O O4 0.276798 0.890073 0.646302
O O5 0.191777 0.142625 0.490131
O O6 0.455837 0.951391 0.568340
O O7 0.589472 0.801150 0.030180
O O8 0.261056 0.697920 0.847615
O O9 0.844853 0.619769 0.216653
O O10 0.927116 0.889446 0.164598
#
# Coordination Sequence:
#
# PCOD8124546 Si02
#       5
#     4   4   4   4   4
#     4  10  19  38  65  85 119 153 206 241 302 348
#     4   9  19  38  65  82 115 163 197 243 297 351
#     4   9  20  41  66  78 121 163 198 239 305 346
#     4  11  21  42  64  84 124 161 198 246 304 348
#     4  11  21  41  61  91 120 161 197 250 294 360
#
# _framework density 23.433976000000001
#
# number of rings (size 3 to 8) (size 9 to 14) (size 15 to 20)
#    1.200    0.800    4.000    1.200    0.000    2.400 
#    7.200    3.000    0.000    0.000    0.000    0.000 
#    0.000    0.000    0.000    0.000    0.000    0.000 
#
# Total GULP energy -247794.878471 kJ/mol
# GULP energy per Si atom -12389.743924 kJ/mol
# Density = 2.338064 g / cm^3
# Si number density = 23.433976 Si / 1000 Ang^3
#
#
#
# Elastic Constant Matrix: (Units=GPa)
#
#
# Indices 1 2 3 4 5 6 
#
# 1 69.7542 2.1561 6.9447 0.0000 10.2691 0.0000
# 2 2.1561 16.2385 -1.2945 0.0000 -10.9532 0.0000
# 3 6.9447 -1.2945 32.9798 0.0000 0.0763 0.0000
# 4 0.0000 0.0000 0.0000 31.3775 0.0000 7.5077
# 5 10.2691 -10.9532 0.0763 0.0000 30.8155 0.0000
# 6 0.0000 0.0000 0.0000 7.5077 0.0000 11.0368
#
#
#
# Elastic Compliance Matrix: (Units=1/GPa)
#
#
# Indices 1 2 3 4 5 6 
#
# 1 0.016160 -0.007980 -0.003697 0.000000 -0.008212 0.000000
# 2 -0.007980 0.085264 0.004951 0.000000 0.032954 0.000000
# 3 -0.003697 0.004951 0.031288 0.000000 0.002914 0.000000
# 4 0.000000 0.000000 0.000000 0.038066 0.000000 -0.025894
# 5 -0.008212 0.032954 0.002914 0.000000 0.046894 0.000000
# 6 0.000000 0.000000 0.000000 -0.025894 0.000000 0.108220
#
#
# Mechanical properties :
#
#
# Convention : Reuss Voigt Hill
#
# Bulk Modulus (GPa) = 8.38505 14.95390 11.66947
# Shear Modulus (GPa) = 13.18924 22.05704 17.62314
#
# Velocity S-wave (km/s) = 2.37497 3.07130 2.74530
# Velocity P-wave (km/s) = 3.33265 4.35572 3.87807
#
# Compressibility (1/GPa) = 0.11925989
#
# Stress axis : x y z
#
# Youngs Moduli (GPa) = 61.88194 11.72821 31.96147
#
# Poissons Ratio (x) = 0.09359 0.11816
# Poissons Ratio (y) = 0.49381 -0.15824
# Poissons Ratio (z) = 0.22878 -0.05806
#
# Static dielectric constant tensor:
#      x y z
#    x 3.924890 0.000000 -0.219720 
#    y 0.000000 3.717840 0.000000 
#    z -0.219720 0.000000 4.176460 
# 
# 
# High freq. dielectric constant tensor:
#      x y z
#    x 1.901960 0.000000 -0.010800 
#    y 0.000000 1.893470 0.000000 
#    z -0.010800 0.000000 1.928510 
# 
# From -- ./inp_files/43247.got.cif
#   From: 2010.03.12/outbox.cif.g09.slc.cpg/sg14_22_cif.got.tgz:43247.got - 2010.03.31 13:35:05.
