data_PCOD8124185
_publ_section_title
;
Structure prediction by ZEFSAII (Michael W. Deem and Ramdas Pophale) SiO2 
 PCOD8124185
Probable space group: P 21/C
;
_chemical_formula_sum "Si O2"
_cell_formula_units_Z 28
_cell_length_a 13.739311
_cell_length_b 8.645347
_cell_length_c 18.483400
_cell_angle_alpha 90.000000
_cell_angle_beta 41.983353
_cell_angle_gamma 90.000000
_cell_volume 1468.587951
_symmetry_space_group_name_H-M "P 21/C"
_symmetry_group_IT_number 14
_symmetry_cell_setting 'monoclinic'
loop_
_space_group_symop_operation_xyz
x,y,z
-x,1/2+y,1/2-z
-x,-y,-z
x,1/2-y,1/2+z
loop_
_atom_site_type_symbol
_atom_site_label
_atom_site_fract_x
_atom_site_fract_y
_atom_site_fract_z
Si Si1 0.322784 0.024991 0.872446
Si Si2 0.033884 0.456351 0.870024
Si Si3 0.273914 0.543629 0.629978
Si Si4 0.827412 0.667398 0.067572
Si Si5 0.567676 0.524964 0.127537
Si Si6 0.760959 0.249989 0.989045
Si Si7 0.462582 0.332588 0.432417
O O1 0.193782 0.148943 0.930936
O O2 0.410113 0.000028 0.749993
O O3 0.434320 0.081193 0.872445
O O4 0.250260 0.864001 0.936016
O O5 0.122384 0.499972 0.750001
O O6 0.141529 0.372465 0.866502
O O7 0.910129 0.339994 0.913727
O O8 0.962655 0.610877 0.943683
O O9 0.237507 0.659969 0.586308
O O10 0.350025 0.389120 0.556306
O O11 0.374514 0.627545 0.633493
O O12 0.679219 0.581164 0.127527
O O13 0.555621 0.648927 0.069071
O O14 0.622304 0.363989 0.063948
#
# Coordination Sequence:
#
# PCOD8124185 Si02
#       7
#     4   4   4   4   4   4   4
#     4  10  19  35  58  83 110 137 176 232 279 318
#     4  10  21  38  56  76 110 149 183 225 272 321
#     4  10  21  38  56  76 110 149 183 225 272 321
#     4   9  20  36  57  80 104 142 188 221 270 334
#     4  10  19  35  58  83 110 137 176 232 279 318
#     4  10  22  34  52  84 112 142 184 220 268 338
#     4   9  20  36  57  80 104 142 188 221 270 334
#
# _framework density 19.065935
#
# number of rings (size 3 to 8) (size 9 to 14) (size 15 to 20)
#    0.000    2.286    0.000    2.571    0.000   10.286 
#    0.000    1.429    0.000    0.000    0.000    0.000 
#    0.000    0.000    0.000    0.000    0.000    0.000 
#
# Total GULP energy -347304.511392 kJ/mol
# GULP energy per Si atom -12403.732550 kJ/mol
# Density = 1.902254 g / cm^3
# Si number density = 19.065935 Si / 1000 Ang^3
#
#
#
# Elastic Constant Matrix: (Units=GPa)
#
#
# Indices 1 2 3 4 5 6 
#
# 1 86.2521 46.7392 43.3547 0.0000 -0.1804 0.0000
# 2 46.7392 149.7334 77.7002 0.0000 -1.5174 0.0000
# 3 43.3547 77.7002 142.4118 0.0000 -2.5620 0.0000
# 4 0.0000 0.0000 0.0000 26.2152 0.0000 0.0067
# 5 -0.1804 -1.5174 -2.5620 0.0000 23.3159 0.0000
# 6 0.0000 0.0000 0.0000 0.0067 0.0000 26.2874
#
#
#
# Elastic Compliance Matrix: (Units=1/GPa)
#
#
# Indices 1 2 3 4 5 6 
#
# 1 0.014690 -0.003160 -0.002755 0.000000 -0.000395 0.000000
# 2 -0.003160 0.009996 -0.004489 0.000000 0.000133 0.000000
# 3 -0.002755 -0.004489 0.010325 0.000000 0.000821 0.000000
# 4 0.000000 0.000000 0.000000 0.038146 0.000000 -0.000010
# 5 -0.000395 0.000133 0.000821 0.000000 0.042985 0.000000
# 6 0.000000 0.000000 0.000000 -0.000010 0.000000 0.038041
#
#
# Mechanical properties :
#
#
# Convention : Reuss Voigt Hill
#
# Bulk Modulus (GPa) = 70.41250 79.33173 74.87212
# Shear Modulus (GPa) = 27.82010 29.20390 28.51200
#
# Velocity S-wave (km/s) = 3.82403 3.91798 3.87129
# Velocity P-wave (km/s) = 7.51724 7.88460 7.70311
#
# Compressibility (1/GPa) = 0.01420202
#
# Stress axis : x y z
#
# Youngs Moduli (GPa) = 68.07211 100.04109 96.85304
#
# Poissons Ratio (x) = 0.31611 0.26686
# Poissons Ratio (y) = 0.21509 0.43482
# Poissons Ratio (z) = 0.18756 0.44913
#
# Static dielectric constant tensor:
#      x y z
#    x 3.403200 0.000000 0.000570 
#    y 0.000000 3.647500 0.000000 
#    z 0.000570 0.000000 3.392940 
# 
# 
# High freq. dielectric constant tensor:
#      x y z
#    x 1.734910 0.000000 -0.000150 
#    y 0.000000 1.746090 0.000000 
#    z -0.000150 0.000000 1.738140 
# 
# From -- ./inp_files/43326.got.cif
#   From: 2010.03.12/outbox.cif.g09.slc.cpg/sg14_22_cif.got.tgz:43326.got - 2010.03.31 13:35:05.
