data_PCOD8124242
_publ_section_title
;
Structure prediction by ZEFSAII (Michael W. Deem and Ramdas Pophale) SiO2 
 PCOD8124242
Probable space group: P 21/C
;
_chemical_formula_sum "Si O2"
_cell_formula_units_Z 32
_cell_length_a 25.300044
_cell_length_b 12.114292
_cell_length_c 9.488978
_cell_angle_alpha 90.000000
_cell_angle_beta 151.117911
_cell_angle_gamma 90.000000
_cell_volume 1404.732702
_symmetry_space_group_name_H-M "P 21/C"
_symmetry_group_IT_number 14
_symmetry_cell_setting 'monoclinic'
loop_
_space_group_symop_operation_xyz
x,y,z
-x,1/2+y,1/2-z
-x,-y,-z
x,1/2-y,1/2+z
loop_
_atom_site_type_symbol
_atom_site_label
_atom_site_fract_x
_atom_site_fract_y
_atom_site_fract_z
Si Si1 0.701014 0.821764 0.185780
Si Si2 0.007647 0.255257 0.375054
Si Si3 0.359732 0.716937 0.111723
Si Si4 0.817280 0.552792 0.182370
Si Si5 0.503120 0.315810 0.293362
Si Si6 0.321143 0.489948 0.880254
Si Si7 0.867369 0.297841 0.296023
Si Si8 0.207562 0.365234 0.405996
O O1 0.740883 0.929910 0.365223
O O2 0.727782 0.835812 0.084466
O O3 0.764085 0.720044 0.403126
O O4 0.571529 0.795058 0.893888
O O5 0.896414 0.258241 0.206867
O O6 0.080655 0.363897 0.571100
O O7 0.077963 0.144706 0.574311
O O8 0.969163 0.245719 0.125189
O O9 0.409572 0.814204 0.131537
O O10 0.440413 0.679689 0.423294
O O11 0.340403 0.616839 0.958282
O O12 0.246163 0.755816 0.917375
O O13 0.738986 0.573123 0.132338
O O14 0.863324 0.429913 0.290758
O O15 0.435325 0.428224 0.117422
O O16 0.245079 0.482617 0.560173
#
# Coordination Sequence:
#
# PCOD8124242 Si02
#       8
#     4   4   4   4   4   4   4   4
#     4  10  19  35  63  95 118 147 198 262 308 354
#     4  11  20  39  64  89 123 168 206 249 304 365
#     4  11  24  40  58  87 125 161 201 249 304 369
#     4  10  21  40  64  94 123 156 208 263 306 359
#     4  11  20  39  64  86 115 159 200 246 310 370
#     4  10  21  40  63  92 121 155 200 256 311 363
#     4  11  24  40  59  90 128 169 206 250 307 365
#     4  10  19  35  62  95 122 151 200 255 303 357
#
# _framework density 22.780132999999999
#
# number of rings (size 3 to 8) (size 9 to 14) (size 15 to 20)
#    0.000    1.500    0.000    9.000    0.000    1.000 
#    0.000   15.625    0.000    0.000    0.000    0.000 
#    0.000    0.000    0.000    0.000    0.000    0.000 
#
# Total GULP energy -396728.921634 kJ/mol
# GULP energy per Si atom -12397.778801 kJ/mol
# Density = 2.272828 g / cm^3
# Si number density = 22.780133 Si / 1000 Ang^3
#
#
#
# Elastic Constant Matrix: (Units=GPa)
#
#
# Indices 1 2 3 4 5 6 
#
# 1 85.7500 14.9251 7.9346 0.0000 16.2990 0.0000
# 2 14.9251 20.0481 7.5463 0.0000 8.1941 0.0000
# 3 7.9346 7.5463 69.7611 0.0000 6.4893 0.0000
# 4 0.0000 0.0000 0.0000 24.5755 0.0000 1.4266
# 5 16.2990 8.1941 6.4893 0.0000 44.8866 0.0000
# 6 0.0000 0.0000 0.0000 1.4266 0.0000 25.0877
#
#
#
# Elastic Compliance Matrix: (Units=1/GPa)
#
#
# Indices 1 2 3 4 5 6 
#
# 1 0.013869 -0.008828 -0.000308 0.000000 -0.003380 0.000000
# 2 -0.008828 0.061285 -0.004949 0.000000 -0.007267 0.000000
# 3 -0.000308 -0.004949 0.015013 0.000000 -0.001155 0.000000
# 4 0.000000 0.000000 0.000000 0.040826 0.000000 -0.002322
# 5 -0.003380 -0.007267 -0.001155 0.000000 0.024999 0.000000
# 6 0.000000 0.000000 0.000000 -0.002322 0.000000 0.039992
#
#
# Mechanical properties :
#
#
# Convention : Reuss Voigt Hill
#
# Bulk Modulus (GPa) = 16.13002 26.26348 21.19675
# Shear Modulus (GPa) = 20.42320 28.58685 24.50502
#
# Velocity S-wave (km/s) = 2.99747 3.54630 3.28337
# Velocity P-wave (km/s) = 4.36759 5.32189 4.86818
#
# Compressibility (1/GPa) = 0.06199621
#
# Stress axis : x y z
#
# Youngs Moduli (GPa) = 72.10174 16.31724 66.61108
#
# Poissons Ratio (x) = 0.14404 0.02053
# Poissons Ratio (y) = 0.63649 0.32968
# Poissons Ratio (z) = 0.02222 0.08076
#
# Static dielectric constant tensor:
#      x y z
#    x 4.307730 0.000000 -0.091180 
#    y 0.000000 3.826650 0.000000 
#    z -0.091180 0.000000 4.464490 
# 
# 
# High freq. dielectric constant tensor:
#      x y z
#    x 1.912830 0.000000 -0.004320 
#    y 0.000000 1.866010 0.000000 
#    z -0.004320 0.000000 1.911280 
# 
# From -- ./inp_files/19554.got.cif
#   From: 2010.03.12/outbox.cif.g09.slc.cpg/sg14_10_cif.got.tgz:19554.got - 2010.03.31 13:35:05.
