data_PCOD8124791
_publ_section_title
;
Structure prediction by ZEFSAII (Michael W. Deem and Ramdas Pophale) SiO2 
 PCOD8124791
Probable space group: P 21/C
;
_chemical_formula_sum "Si O2"
_cell_formula_units_Z 20
_cell_length_a 7.164219
_cell_length_b 12.372340
_cell_length_c 19.799272
_cell_angle_alpha 90.000000
_cell_angle_beta 136.359373
_cell_angle_gamma 90.000000
_cell_volume 1211.163095
_symmetry_space_group_name_H-M "P 21/C"
_symmetry_group_IT_number 14
_symmetry_cell_setting 'monoclinic'
loop_
_space_group_symop_operation_xyz
x,y,z
-x,1/2+y,1/2-z
-x,-y,-z
x,1/2-y,1/2+z
loop_
_atom_site_type_symbol
_atom_site_label
_atom_site_fract_x
_atom_site_fract_y
_atom_site_fract_z
Si Si1 0.722454 0.445037 0.236228
Si Si2 0.521461 0.847841 0.739082
Si Si3 0.065142 0.152162 0.260917
Si Si4 0.026391 0.260598 0.388194
Si Si5 0.484390 0.261069 0.617193
O O1 0.532355 0.521554 0.233358
O O2 0.901074 0.521556 0.233359
O O3 0.922194 0.376894 0.336098
O O4 0.534842 0.366420 0.142420
O O5 0.733461 0.793742 0.741733
O O6 0.220892 0.806045 0.643679
O O7 0.608798 0.816387 0.837518
O O8 0.146181 0.193959 0.356320
O O9 0.758740 0.183617 0.162481
O O10 0.255344 0.279671 0.502670
#
# Coordination Sequence:
#
# PCOD8124791 Si02
#       5
#     4   4   4   4   4
#     4   8  18  38  48  72 110 136 166 202 264 304
#     4   8  18  38  48  72 110 136 166 202 264 304
#     4   8  18  38  48  72 110 136 166 202 264 304
#     4  10  20  34  55  80 100 130 179 214 241 302
#     4  10  20  34  55  80 100 130 179 214 241 302
#
# _framework density 16.513051000000001
#
# number of rings (size 3 to 8) (size 9 to 14) (size 15 to 20)
#    1.200    2.400    0.000    0.000    0.000    4.800 
#   28.800    0.000    0.000    0.000    0.000    0.000 
#    0.000    0.000    0.000    0.000    0.000    0.000 
#
# Total GULP energy -247796.249624 kJ/mol
# GULP energy per Si atom -12389.812481 kJ/mol
# Density = 1.647547 g / cm^3
# Si number density = 16.513051 Si / 1000 Ang^3
#
#
#
# Elastic Constant Matrix: (Units=GPa)
#
#
# Indices 1 2 3 4 5 6 
#
# 1 121.6798 23.5995 12.0581 0.0000 -5.5506 0.0000
# 2 23.5995 90.7830 -16.0711 0.0000 -2.4852 0.0000
# 3 12.0581 -16.0711 59.8047 0.0000 1.6763 0.0000
# 4 0.0000 0.0000 0.0000 10.9161 0.0000 -1.9140
# 5 -5.5506 -2.4852 1.6763 0.0000 10.9483 0.0000
# 6 0.0000 0.0000 0.0000 -1.9140 0.0000 41.4840
#
#
#
# Elastic Compliance Matrix: (Units=1/GPa)
#
#
# Indices 1 2 3 4 5 6 
#
# 1 0.009228 -0.002759 -0.002727 0.000000 0.004469 0.000000
# 2 -0.002759 0.012442 0.003876 0.000000 0.000832 0.000000
# 3 -0.002727 0.003876 0.018406 0.000000 -0.003321 0.000000
# 4 0.000000 0.000000 0.000000 0.092355 0.000000 0.004261
# 5 0.004469 0.000832 -0.003321 0.000000 0.094301 0.000000
# 6 0.000000 0.000000 0.000000 0.004261 0.000000 0.024302
#
#
# Mechanical properties :
#
#
# Convention : Reuss Voigt Hill
#
# Bulk Modulus (GPa) = 27.13358 34.60450 30.86904
# Shear Modulus (GPa) = 18.75902 29.51508 24.13705
#
# Velocity S-wave (km/s) = 3.37413 4.23233 3.82736
# Velocity P-wave (km/s) = 5.62556 6.69961 6.18594
#
# Compressibility (1/GPa) = 0.03685471
#
# Stress axis : x y z
#
# Youngs Moduli (GPa) = 108.37092 80.37592 54.33084
#
# Poissons Ratio (x) = 0.22177 0.14817
# Poissons Ratio (y) = 0.29902 -0.21061
# Poissons Ratio (z) = 0.29555 -0.31157
#
# Static dielectric constant tensor:
#      x y z
#    x 3.090050 0.000000 -0.017530 
#    y 0.000000 3.081650 0.000000 
#    z -0.017530 0.000000 2.810010 
# 
# 
# High freq. dielectric constant tensor:
#      x y z
#    x 1.638060 0.000000 -0.001190 
#    y 0.000000 1.637600 0.000000 
#    z -0.001190 0.000000 1.619010 
# 
# From -- ./inp_files/32272.got.cif
#   From: 2010.03.12/outbox.cif.g09.slc.cpg/sg14_17_cif.got.tgz:32272.got - 2010.03.31 13:35:05.
