data_PCOD8124384
_publ_section_title
;
Structure prediction by ZEFSAII (Michael W. Deem and Ramdas Pophale) SiO2 
 PCOD8124384
Probable space group: P 21/C
;
_chemical_formula_sum "Si O2"
_cell_formula_units_Z 20
_cell_length_a 15.371534
_cell_length_b 11.301051
_cell_length_c 19.324242
_cell_angle_alpha 90.000000
_cell_angle_beta 19.206291
_cell_angle_gamma 90.000000
_cell_volume 1104.320797
_symmetry_space_group_name_H-M "P 21/C"
_symmetry_group_IT_number 14
_symmetry_cell_setting 'monoclinic'
loop_
_space_group_symop_operation_xyz
x,y,z
-x,1/2+y,1/2-z
-x,-y,-z
x,1/2-y,1/2+z
loop_
_atom_site_type_symbol
_atom_site_label
_atom_site_fract_x
_atom_site_fract_y
_atom_site_fract_z
Si Si1 0.290943 0.622453 0.442517
Si Si2 0.417294 0.053028 0.412659
Si Si3 0.424523 0.695133 0.953125
Si Si4 0.083661 0.426946 0.688173
Si Si5 0.719129 0.771099 0.370437
O O1 0.456167 0.612909 0.248661
O O2 0.454489 0.707361 0.370797
O O3 0.266927 0.492027 0.494351
O O4 0.006816 0.676565 0.637395
O O5 0.444519 0.142536 0.456372
O O6 0.560544 0.928793 0.326003
O O7 0.104497 0.025705 0.633192
O O8 0.559300 0.745178 0.920099
O O9 0.111047 0.669247 0.202820
O O10 0.263122 0.359326 0.609185
#
# Coordination Sequence:
#
# PCOD8124384 Si02
#       5
#     4   4   4   4   4
#     4  10  20  36  55  76 108 140 167 218 261 302
#     4   9  20  34  56  77 105 134 178 210 257 311
#     4   9  20  36  53  80 105 133 182 209 253 318
#     4   8  20  35  54  74 109 136 171 214 262 303
#     4  10  19  37  54  78 107 135 173 218 256 306
#
# _framework density 18.110679999999999
#
# number of rings (size 3 to 8) (size 9 to 14) (size 15 to 20)
#    1.200    1.600    0.000    0.600    2.800    1.600 
#    0.000    1.000    0.000    0.000    0.000    0.000 
#    0.000    0.000    0.000    0.000    0.000    0.000 
#
# Total GULP energy -247863.732323 kJ/mol
# GULP energy per Si atom -12393.186616 kJ/mol
# Density = 1.806946 g / cm^3
# Si number density = 18.110680 Si / 1000 Ang^3
#
#
#
# Elastic Constant Matrix: (Units=GPa)
#
#
# Indices 1 2 3 4 5 6 
#
# 1 134.2699 31.1392 42.7421 0.0000 4.9740 0.0000
# 2 31.1392 40.8992 9.0687 0.0000 -0.3931 0.0000
# 3 42.7421 9.0687 57.1476 0.0000 14.3094 0.0000
# 4 0.0000 0.0000 0.0000 11.8815 0.0000 6.8696
# 5 4.9740 -0.3931 14.3094 0.0000 17.7614 0.0000
# 6 0.0000 0.0000 0.0000 6.8696 0.0000 27.9111
#
#
#
# Elastic Compliance Matrix: (Units=1/GPa)
#
#
# Indices 1 2 3 4 5 6 
#
# 1 0.011618 -0.006942 -0.008436 0.000000 0.003389 0.000000
# 2 -0.006942 0.029816 -0.000240 0.000000 0.002797 0.000000
# 3 -0.008436 -0.000240 0.029133 0.000000 -0.021114 0.000000
# 4 0.000000 0.000000 0.000000 0.098129 0.000000 -0.024152
# 5 0.003389 0.002797 -0.021114 0.000000 0.072425 0.000000
# 6 0.000000 0.000000 0.000000 -0.024152 0.000000 0.041772
#
#
# Mechanical properties :
#
#
# Convention : Reuss Voigt Hill
#
# Bulk Modulus (GPa) = 25.42554 44.24628 34.83591
# Shear Modulus (GPa) = 15.27940 21.46857 18.37398
#
# Velocity S-wave (km/s) = 2.90775 3.44671 3.18864
# Velocity P-wave (km/s) = 5.03416 6.35011 5.73004
#
# Compressibility (1/GPa) = 0.03933053
#
# Stress axis : x y z
#
# Youngs Moduli (GPa) = 86.07660 33.53920 34.32544
#
# Poissons Ratio (x) = 0.23283 0.28957
# Poissons Ratio (y) = 0.59755 0.00823
# Poissons Ratio (z) = 0.72615 0.00804
#
# Static dielectric constant tensor:
#      x y z
#    x 3.035130 0.000000 -0.000010 
#    y 0.000000 3.405640 0.000000 
#    z -0.000010 0.000000 3.016740 
# 
# 
# High freq. dielectric constant tensor:
#      x y z
#    x 1.684740 0.000000 0.006660 
#    y 0.000000 1.710180 0.000000 
#    z 0.006660 0.000000 1.671990 
# 
# From -- ./inp_files/29920.got.cif
#   From: 2010.03.12/outbox.cif.g09.slc.cpg/sg14_15_cif.got.tgz:29920.got - 2010.03.31 13:35:05.
