data_PCOD8124042
_publ_section_title
;
Structure prediction by ZEFSAII (Michael W. Deem and Ramdas Pophale) SiO2 
 PCOD8124042
Probable space group: P 21/C
;
_chemical_formula_sum "Si O2"
_cell_formula_units_Z 32
_cell_length_a 28.463375
_cell_length_b 12.239717
_cell_length_c 29.335788
_cell_angle_alpha 90.000000
_cell_angle_beta 9.823848
_cell_angle_gamma 90.000000
_cell_volume 1743.751294
_symmetry_space_group_name_H-M "P 21/C"
_symmetry_group_IT_number 14
_symmetry_cell_setting 'monoclinic'
loop_
_space_group_symop_operation_xyz
x,y,z
-x,1/2+y,1/2-z
-x,-y,-z
x,1/2-y,1/2+z
loop_
_atom_site_type_symbol
_atom_site_label
_atom_site_fract_x
_atom_site_fract_y
_atom_site_fract_z
Si Si1 0.906565 0.326715 0.740503
Si Si2 0.516669 0.695755 0.124756
Si Si3 0.538052 0.541963 0.781700
Si Si4 0.897012 0.300013 0.913240
Si Si5 0.701020 0.972178 0.578400
Si Si6 0.682284 0.420225 0.765973
Si Si7 0.831186 0.429567 0.722213
Si Si8 0.196272 0.834672 0.087415
O O1 0.832179 0.329355 0.757756
O O2 0.898346 0.206569 0.771132
O O3 0.185135 0.392296 0.477386
O O4 0.694542 0.383749 0.976043
O O5 0.490437 0.572045 0.165936
O O6 0.302488 0.766115 0.356341
O O7 0.426523 0.686427 0.157624
O O8 0.807503 0.753651 0.854782
O O9 0.512617 0.525981 0.752189
O O10 0.797386 0.255907 0.958938
O O11 0.870903 0.431737 0.941385
O O12 0.934965 0.910400 0.325371
O O13 0.496129 0.894591 0.804657
O O14 0.817177 0.379140 0.684665
O O15 0.904597 0.491225 0.524905
O O16 0.432324 0.499296 0.015171
#
# Coordination Sequence:
#
# PCOD8124042 Si02
#       8
#     4   4   4   4   4   4   4   4
#     4  12  22  35  56  83 110 153 182 218 278 340
#     4  12  21  36  54  84 108 153 181 220 278 337
#     4  12  21  33  57  79 114 144 186 224 265 329
#     4  12  24  36  56  78 108 149 191 225 273 330
#     4  12  25  39  51  79 115 146 192 237 265 317
#     4  10  20  32  55  80 116 140 176 223 279 339
#     4  10  19  34  52  84 112 144 173 224 280 337
#     4  12  24  37  55  79 108 151 189 228 274 330
#
# _framework density 18.351241000000002
#
# number of rings (size 3 to 8) (size 9 to 14) (size 15 to 20)
#    0.000    0.500    6.250    3.750    1.750    0.000 
#    0.000    0.000    0.000    0.000    0.000    5.250 
#    0.000    0.000    0.000    0.000    0.000    0.000 
#
# Total GULP energy -396438.223087 kJ/mol
# GULP energy per Si atom -12388.694471 kJ/mol
# Density = 1.830947 g / cm^3
# Si number density = 18.351241 Si / 1000 Ang^3
#
#
#
# Elastic Constant Matrix: (Units=GPa)
#
#
# Indices 1 2 3 4 5 6 
#
# 1 116.7036 30.7527 21.6347 0.0000 5.0845 0.0000
# 2 30.7527 65.2965 31.3688 0.0000 1.2050 0.0000
# 3 21.6347 31.3688 133.3483 0.0000 1.1877 0.0000
# 4 0.0000 0.0000 0.0000 33.3217 0.0000 5.5270
# 5 5.0845 1.2050 1.1877 0.0000 29.7290 0.0000
# 6 0.0000 0.0000 0.0000 5.5270 0.0000 31.4849
#
#
#
# Elastic Compliance Matrix: (Units=1/GPa)
#
#
# Indices 1 2 3 4 5 6 
#
# 1 0.009887 -0.004357 -0.000566 0.000000 -0.001492 0.000000
# 2 -0.004357 0.019195 -0.003810 0.000000 0.000119 0.000000
# 3 -0.000566 -0.003810 0.008488 0.000000 -0.000088 0.000000
# 4 0.000000 0.000000 0.000000 0.030910 0.000000 -0.005426
# 5 -0.001492 0.000119 -0.000088 0.000000 0.033891 0.000000
# 6 0.000000 0.000000 0.000000 -0.005426 0.000000 0.032714
#
#
# Mechanical properties :
#
#
# Convention : Reuss Voigt Hill
#
# Bulk Modulus (GPa) = 49.73982 53.65119 51.69551
# Shear Modulus (GPa) = 31.39704 34.34662 32.87183
#
# Velocity S-wave (km/s) = 4.14078 4.33092 4.23692
# Velocity P-wave (km/s) = 7.07281 7.36942 7.22264
#
# Compressibility (1/GPa) = 0.02010462
#
# Stress axis : x y z
#
# Youngs Moduli (GPa) = 101.14586 52.09778 117.81487
#
# Poissons Ratio (x) = 0.22699 0.06666
# Poissons Ratio (y) = 0.44069 0.44882
# Poissons Ratio (z) = 0.05723 0.19847
#
# Static dielectric constant tensor:
#      x y z
#    x 3.730330 0.000000 -0.001980 
#    y 0.000000 3.339890 0.000000 
#    z -0.001980 0.000000 3.444750 
# 
# 
# High freq. dielectric constant tensor:
#      x y z
#    x 1.698840 0.000000 0.001240 
#    y 0.000000 1.680850 0.000000 
#    z 0.001240 0.000000 1.742010 
# 
# From -- ./inp_files/78326.got.cif
#   From: 2010.03.12/outbox.cif.g09.slc.cpg/sg14_40_cif.got.tgz:78326.got - 2010.03.31 13:35:05.
