data_PCOD8124329
_publ_section_title
;
Structure prediction by ZEFSAII (Michael W. Deem and Ramdas Pophale) SiO2 
 PCOD8124329
Probable space group: P 21/C
;
_chemical_formula_sum "Si O2"
_cell_formula_units_Z 28
_cell_length_a 20.772940
_cell_length_b 8.691389
_cell_length_c 24.189123
_cell_angle_alpha 90.000000
_cell_angle_beta 19.159545
_cell_angle_gamma 90.000000
_cell_volume 1433.327868
_symmetry_space_group_name_H-M "P 21/C"
_symmetry_group_IT_number 14
_symmetry_cell_setting 'monoclinic'
loop_
_space_group_symop_operation_xyz
x,y,z
-x,1/2+y,1/2-z
-x,-y,-z
x,1/2-y,1/2+z
loop_
_atom_site_type_symbol
_atom_site_label
_atom_site_fract_x
_atom_site_fract_y
_atom_site_fract_z
Si Si1 0.618634 0.822261 0.254053
Si Si2 0.989558 0.353862 0.047135
Si Si3 0.633197 0.701777 0.617518
Si Si4 0.728079 0.413940 0.474084
Si Si5 0.173323 0.901532 0.883231
Si Si6 0.800149 0.271081 0.523914
Si Si7 0.963037 0.562080 0.869836
O O1 0.654259 0.868801 0.161500
O O2 0.419269 0.724909 0.424082
O O3 0.629383 0.990568 0.275766
O O4 0.796437 0.720793 0.132383
O O5 0.941876 0.383223 0.149813
O O6 0.810123 0.246755 0.170141
O O7 0.000000 0.500000 0.000000
O O8 0.620180 0.569407 0.581423
O O9 0.431896 0.795421 0.777598
O O10 0.814424 0.818004 0.461665
O O11 0.861535 0.358912 0.417720
O O12 0.859254 0.461896 0.316187
O O13 0.098854 0.843948 0.004253
O O14 0.000000 0.000000 0.000000
O O15 0.847469 0.092842 0.477048
#
# Coordination Sequence:
#
# PCOD8124329 Si02
#       7
#     4   4   4   4   4   4   4
#     4   9  20  36  58  85 111 154 200 245 292 366
#     4  10  19  36  61  82 110 153 212 243 284 363
#     4  10  20  36  59  88 114 151 201 244 296 374
#     4  11  22  37  58  88 127 151 187 258 321 358
#     4  10  20  36  61  86 111 155 216 247 281 355
#     4  11  20  37  64  87 115 160 203 244 300 366
#     4  11  23  37  57  92 122 152 192 258 317 354
#
# _framework density 19.534958
#
# number of rings (size 3 to 8) (size 9 to 14) (size 15 to 20)
#    0.000    1.714    2.857    3.429    2.000    0.000 
#    0.000    1.429    0.000    0.000    0.000    0.000 
#    0.000    0.000    0.000    0.000    0.000    0.000 
#
# Total GULP energy -346947.462144 kJ/mol
# GULP energy per Si atom -12390.980791 kJ/mol
# Density = 1.949050 g / cm^3
# Si number density = 19.534958 Si / 1000 Ang^3
#
#
#
# Elastic Constant Matrix: (Units=GPa)
#
#
# Indices 1 2 3 4 5 6 
#
# 1 115.9533 51.1138 37.0474 0.0000 4.6107 0.0000
# 2 51.1138 103.3457 27.5957 0.0000 1.5299 0.0000
# 3 37.0474 27.5957 71.3027 0.0000 8.6509 0.0000
# 4 0.0000 0.0000 0.0000 19.1834 0.0000 -4.1658
# 5 4.6107 1.5299 8.6509 0.0000 21.2456 0.0000
# 6 0.0000 0.0000 0.0000 -4.1658 0.0000 47.3540
#
#
#
# Elastic Compliance Matrix: (Units=1/GPa)
#
#
# Indices 1 2 3 4 5 6 
#
# 1 0.012184 -0.004845 -0.004394 0.000000 -0.000506 0.000000
# 2 -0.004845 0.012737 -0.002555 0.000000 0.001175 0.000000
# 3 -0.004394 -0.002555 0.018050 0.000000 -0.006212 0.000000
# 4 0.000000 0.000000 0.000000 0.053144 0.000000 0.004675
# 5 -0.000506 0.001175 -0.006212 0.000000 0.049623 0.000000
# 6 0.000000 0.000000 0.000000 0.004675 0.000000 0.021529
#
#
# Mechanical properties :
#
#
# Convention : Reuss Voigt Hill
#
# Bulk Modulus (GPa) = 51.58939 58.01284 54.80112
# Shear Modulus (GPa) = 25.34002 29.21293 27.27647
#
# Velocity S-wave (km/s) = 3.60552 3.87126 3.74075
# Velocity P-wave (km/s) = 6.61809 7.05291 6.83896
#
# Compressibility (1/GPa) = 0.01938383
#
# Stress axis : x y z
#
# Youngs Moduli (GPa) = 82.07449 78.50842 55.40127
#
# Poissons Ratio (x) = 0.38040 0.24343
# Poissons Ratio (y) = 0.39768 0.14153
# Poissons Ratio (z) = 0.36063 0.20056
#
# Static dielectric constant tensor:
#      x y z
#    x 5.626320 0.000000 -0.374910 
#    y 0.000000 3.198460 0.000000 
#    z -0.374910 0.000000 3.099650 
# 
# 
# High freq. dielectric constant tensor:
#      x y z
#    x 1.773920 0.000000 -0.010620 
#    y 0.000000 1.786290 0.000000 
#    z -0.010620 0.000000 1.704990 
# 
# From -- ./inp_files/74616.got.cif
#   From: 2010.03.12/outbox.cif.g09.slc.cpg/sg14_38_cif.got.tgz:74616.got - 2010.03.31 13:35:05.
