data_PCOD8124796
_publ_section_title
;
Structure prediction by ZEFSAII (Michael W. Deem and Ramdas Pophale) SiO2 
 PCOD8124796
Probable space group: P 21/C
;
_chemical_formula_sum "Si O2"
_cell_formula_units_Z 32
_cell_length_a 24.323256
_cell_length_b 11.711904
_cell_length_c 16.325852
_cell_angle_alpha 90.000000
_cell_angle_beta 21.027524
_cell_angle_gamma 90.000000
_cell_volume 1668.773279
_symmetry_space_group_name_H-M "P 21/C"
_symmetry_group_IT_number 14
_symmetry_cell_setting 'monoclinic'
loop_
_space_group_symop_operation_xyz
x,y,z
-x,1/2+y,1/2-z
-x,-y,-z
x,1/2-y,1/2+z
loop_
_atom_site_type_symbol
_atom_site_label
_atom_site_fract_x
_atom_site_fract_y
_atom_site_fract_z
Si Si1 0.106019 0.173463 0.893830
Si Si2 0.386161 0.394269 0.243375
Si Si3 0.380958 0.243901 0.399147
Si Si4 0.061603 0.571683 0.507516
Si Si5 0.685579 0.123883 0.229382
Si Si6 0.251117 0.303568 0.824171
Si Si7 0.263455 0.050977 0.460182
Si Si8 0.444362 0.681665 0.696004
O O1 0.230632 0.227219 0.661073
O O2 0.950230 0.154848 0.056865
O O3 0.103578 0.263969 0.973391
O O4 0.151785 0.046033 0.861920
O O5 0.369539 0.359078 0.361203
O O6 0.314005 0.519533 0.335039
O O7 0.295104 0.310341 0.310864
O O8 0.564127 0.396969 0.970804
O O9 0.389995 0.136941 0.323774
O O10 0.527341 0.256362 0.255579
O O11 0.149565 0.637932 0.456683
O O12 0.888747 0.540364 0.774161
O O13 0.656601 0.238635 0.220896
O O14 0.211816 0.405134 0.941643
O O15 0.391985 0.346456 0.572353
O O16 0.345504 0.930843 0.342947
#
# Coordination Sequence:
#
# PCOD8124796 Si02
#       8
#     4   4   4   4   4   4   4   4
#     4   9  18  34  54  81 104 146 186 221 277 324
#     4   9  18  33  57  80 104 138 187 237 275 329
#     4   9  20  34  55  82 107 141 184 234 279 325
#     4  10  20  34  55  84 114 148 185 228 273 341
#     4  10  20  34  55  82 110 145 183 236 278 324
#     4   9  17  36  57  76 106 144 187 228 285 325
#     4  10  21  35  53  83 112 146 186 226 283 343
#     4  10  21  34  55  82 107 145 185 241 276 324
#
# _framework density 19.175763
#
# number of rings (size 3 to 8) (size 9 to 14) (size 15 to 20)
#    0.000    2.500    1.250    0.375    3.500    3.000 
#    2.250    0.000    0.000    0.750    0.000    0.000 
#    0.000    0.000    0.000    0.000    0.000    0.000 
#
# Total GULP energy -396529.317905 kJ/mol
# GULP energy per Si atom -12391.541185 kJ/mol
# Density = 1.913212 g / cm^3
# Si number density = 19.175763 Si / 1000 Ang^3
#
#
#
# Elastic Constant Matrix: (Units=GPa)
#
#
# Indices 1 2 3 4 5 6 
#
# 1 136.4820 52.9089 38.8502 0.0000 -18.9622 0.0000
# 2 52.9089 83.6144 28.1991 0.0000 -10.6064 0.0000
# 3 38.8502 28.1991 35.7712 0.0000 -6.5917 0.0000
# 4 0.0000 0.0000 0.0000 25.6052 0.0000 2.5897
# 5 -18.9622 -10.6064 -6.5917 0.0000 29.0722 0.0000
# 6 0.0000 0.0000 0.0000 2.5897 0.0000 36.9599
#
#
#
# Elastic Compliance Matrix: (Units=1/GPa)
#
#
# Indices 1 2 3 4 5 6 
#
# 1 0.012097 -0.004008 -0.009178 0.000000 0.004347 0.000000
# 2 -0.004008 0.017902 -0.009432 0.000000 0.001778 0.000000
# 3 -0.009178 -0.009432 0.045523 0.000000 0.000895 0.000000
# 4 0.000000 0.000000 0.000000 0.039333 0.000000 -0.002756
# 5 0.004347 0.001778 0.000895 0.000000 0.038084 0.000000
# 6 0.000000 0.000000 0.000000 -0.002756 0.000000 0.027249
#
#
# Mechanical properties :
#
#
# Convention : Reuss Voigt Hill
#
# Bulk Modulus (GPa) = 33.01707 55.08709 44.05208
# Shear Modulus (GPa) = 21.22951 27.38810 24.30881
#
# Velocity S-wave (km/s) = 3.33092 3.78334 3.56432
# Velocity P-wave (km/s) = 5.66117 6.91916 6.32154
#
# Compressibility (1/GPa) = 0.03028737
#
# Stress axis : x y z
#
# Youngs Moduli (GPa) = 82.66356 55.85831 21.96681
#
# Poissons Ratio (x) = 0.22389 0.20160
# Poissons Ratio (y) = 0.33133 0.20719
# Poissons Ratio (z) = 0.75866 0.52685
#
# Static dielectric constant tensor:
#      x y z
#    x 3.968640 0.000000 -0.051640 
#    y 0.000000 3.459040 0.000000 
#    z -0.051640 0.000000 3.212760 
# 
# 
# High freq. dielectric constant tensor:
#      x y z
#    x 1.768150 0.000000 -0.003280 
#    y 0.000000 1.732740 0.000000 
#    z -0.003280 0.000000 1.709670 
# 
# From -- ./inp_files/61977.got.cif
#   From: 2010.03.12/outbox.cif.g09.slc.cpg/sg14_31_cif.got.tgz:61977.got - 2010.03.31 13:35:05.
