data_PCOD8124039
_publ_section_title
;
Structure prediction by ZEFSAII (Michael W. Deem and Ramdas Pophale) SiO2 
 PCOD8124039
Probable space group: P 21/C
;
_chemical_formula_sum "Si O2"
_cell_formula_units_Z 28
_cell_length_a 12.183401
_cell_length_b 13.080520
_cell_length_c 9.369759
_cell_angle_alpha 90.000000
_cell_angle_beta 66.364783
_cell_angle_gamma 90.000000
_cell_volume 1367.957688
_symmetry_space_group_name_H-M "P 21/C"
_symmetry_group_IT_number 14
_symmetry_cell_setting 'monoclinic'
loop_
_space_group_symop_operation_xyz
x,y,z
-x,1/2+y,1/2-z
-x,-y,-z
x,1/2-y,1/2+z
loop_
_atom_site_type_symbol
_atom_site_label
_atom_site_fract_x
_atom_site_fract_y
_atom_site_fract_z
Si Si1 0.530373 0.872196 0.317956
Si Si2 0.938808 0.646388 0.622477
Si Si3 0.180072 0.556437 0.435315
Si Si4 0.653627 0.921634 0.980308
Si Si5 0.594064 0.649554 0.224618
Si Si6 0.379516 0.922309 0.637262
Si Si7 0.813202 0.771063 0.459500
O O1 0.578718 0.758187 0.314968
O O2 0.398877 0.885555 0.461913
O O3 0.615627 0.953382 0.357653
O O4 0.540305 0.899102 0.144820
O O5 0.881689 0.542472 0.597389
O O6 0.904221 0.738813 0.536805
O O7 0.893049 0.670332 0.803506
O O8 0.083232 0.634309 0.550364
O O9 0.276203 0.523883 0.507127
O O10 0.252325 0.613154 0.268187
O O11 0.601621 0.934811 0.847544
O O12 0.746833 0.827675 0.930281
O O13 0.484522 0.626441 0.178620
O O14 0.716466 0.649173 0.071582
#
# Coordination Sequence:
#
# PCOD8124039 Si02
#       7
#     4   4   4   4   4   4   4
#     4   9  19  33  53  81 113 147 191 220 275 351
#     4  10  20  39  62  78 109 146 201 236 269 335
#     4   9  21  38  57  79 115 154 181 228 296 344
#     4   9  18  33  56  84 109 138 190 231 276 326
#     4  11  20  33  58  89 114 143 191 242 273 335
#     4  10  21  34  57  83 119 150 181 228 296 342
#     4  10  19  33  62  85 100 144 198 236 267 328
#
# _framework density 20.46847
#
# number of rings (size 3 to 8) (size 9 to 14) (size 15 to 20)
#    0.000    2.286    1.429    2.571    8.000    2.286 
#    2.571    0.714    0.000    0.000    0.000    0.000 
#    0.000    0.000    0.000    0.000    0.000    0.000 
#
# Total GULP energy -346980.714747 kJ/mol
# GULP energy per Si atom -12392.168384 kJ/mol
# Density = 2.042188 g / cm^3
# Si number density = 20.468470 Si / 1000 Ang^3
#
#
#
# Elastic Constant Matrix: (Units=GPa)
#
#
# Indices 1 2 3 4 5 6 
#
# 1 67.3640 20.4933 45.4421 0.0000 -15.8612 0.0000
# 2 20.4933 46.0581 27.3193 0.0000 -8.8011 0.0000
# 3 45.4421 27.3193 149.2441 0.0000 -35.0788 0.0000
# 4 0.0000 0.0000 0.0000 32.3062 0.0000 -9.3443
# 5 -15.8612 -8.8011 -35.0788 0.0000 37.2744 0.0000
# 6 0.0000 0.0000 0.0000 -9.3443 0.0000 16.9421
#
#
#
# Elastic Compliance Matrix: (Units=1/GPa)
#
#
# Indices 1 2 3 4 5 6 
#
# 1 0.020315 -0.005842 -0.004377 0.000000 0.003146 0.000000
# 2 -0.005842 0.026152 -0.002750 0.000000 0.001102 0.000000
# 3 -0.004377 -0.002750 0.010203 0.000000 0.007090 0.000000
# 4 0.000000 0.000000 0.000000 0.036829 0.000000 0.020313
# 5 0.003146 0.001102 0.007090 0.000000 0.035100 0.000000
# 6 0.000000 0.000000 0.000000 0.020313 0.000000 0.070228
#
#
# Mechanical properties :
#
#
# Convention : Reuss Voigt Hill
#
# Bulk Modulus (GPa) = 32.53705 49.90840 41.22273
# Shear Modulus (GPa) = 21.27585 28.59865 24.93725
#
# Velocity S-wave (km/s) = 3.22754 3.74198 3.49424
# Velocity P-wave (km/s) = 5.46077 6.56550 6.03846
#
# Compressibility (1/GPa) = 0.03073419
#
# Stress axis : x y z
#
# Youngs Moduli (GPa) = 49.22423 38.23739 98.01138
#
# Poissons Ratio (x) = 0.22338 0.42897
# Poissons Ratio (y) = 0.28756 0.26949
# Poissons Ratio (z) = 0.21544 0.10514
#
# Static dielectric constant tensor:
#      x y z
#    x 3.611670 0.000000 -0.294710 
#    y 0.000000 3.650720 0.000000 
#    z -0.294710 0.000000 4.095010 
# 
# 
# High freq. dielectric constant tensor:
#      x y z
#    x 1.762870 0.000000 -0.012240 
#    y 0.000000 1.776300 0.000000 
#    z -0.012240 0.000000 1.820800 
# 
# From -- ./inp_files/13055.got.cif
#   From: 2010.03.12/outbox.cif.g09.slc.cpg/sg14_7_cif.got.tgz:13055.got - 2010.03.31 13:35:05.
