data_PCOD8124186
_publ_section_title
;
Structure prediction by ZEFSAII (Michael W. Deem and Ramdas Pophale) SiO2 
 PCOD8124186
Probable space group: P 21/C
;
_chemical_formula_sum "Si O2"
_cell_formula_units_Z 28
_cell_length_a 17.265693
_cell_length_b 8.879581
_cell_length_c 23.207390
_cell_angle_alpha 90.000000
_cell_angle_beta 158.241806
_cell_angle_gamma 90.000000
_cell_volume 1318.906380
_symmetry_space_group_name_H-M "P 21/C"
_symmetry_group_IT_number 14
_symmetry_cell_setting 'monoclinic'
loop_
_space_group_symop_operation_xyz
x,y,z
-x,1/2+y,1/2-z
-x,-y,-z
x,1/2-y,1/2+z
loop_
_atom_site_type_symbol
_atom_site_label
_atom_site_fract_x
_atom_site_fract_y
_atom_site_fract_z
Si Si1 0.796014 0.690278 0.132635
Si Si2 0.679334 0.235021 0.666487
Si Si3 0.098778 0.838447 0.502009
Si Si4 0.109939 0.570153 0.880830
Si Si5 0.863228 0.574591 0.300993
Si Si6 0.450424 0.748847 0.051257
Si Si7 0.287015 0.507124 0.229393
O O1 0.871160 0.602584 0.127156
O O2 0.876363 0.590556 0.241394
O O3 0.901719 0.854777 0.209372
O O4 0.546960 0.701999 0.962337
O O5 0.675708 0.260055 0.595629
O O6 0.763298 0.388686 0.750645
O O7 0.840444 0.102895 0.797451
O O8 0.102938 0.927431 0.444875
O O9 0.299171 0.888273 0.679461
O O10 0.068997 0.656761 0.471097
O O11 0.900829 0.888114 0.403850
O O12 0.314432 0.662225 0.003786
O O13 0.660653 0.659241 0.184295
O O14 0.499259 0.914313 0.111691
#
# Coordination Sequence:
#
# PCOD8124186 Si02
#       7
#     4   4   4   4   4   4   4
#     4  10  21  33  53  84 114 137 180 231 298 338
#     4  11  19  35  59  86 108 145 195 237 282 346
#     4   9  22  40  54  79 112 155 190 230 284 337
#     4  11  21  35  57  82 117 145 180 242 293 337
#     4   9  17  37  58  78 109 145 183 231 277 345
#     4  10  19  35  58  83 112 146 182 236 293 333
#     4  10  22  38  58  79 112 153 199 227 274 356
#
# _framework density 21.229709
#
# number of rings (size 3 to 8) (size 9 to 14) (size 15 to 20)
#    0.000    2.000    2.857    2.143    4.000    0.571 
#    2.571    0.000    0.000    0.000    0.000    0.000 
#    0.000    0.000    0.000    0.000    0.000    0.000 
#
# Total GULP energy -347000.686544 kJ/mol
# GULP energy per Si atom -12392.881662 kJ/mol
# Density = 2.118139 g / cm^3
# Si number density = 21.229709 Si / 1000 Ang^3
#
#
#
# Elastic Constant Matrix: (Units=GPa)
#
#
# Indices 1 2 3 4 5 6 
#
# 1 67.9977 6.4158 26.6906 0.0000 -10.5062 0.0000
# 2 6.4158 78.0557 38.2373 0.0000 -20.6458 0.0000
# 3 26.6906 38.2373 47.8588 0.0000 -20.0464 0.0000
# 4 0.0000 0.0000 0.0000 33.8434 0.0000 0.9558
# 5 -10.5062 -20.6458 -20.0464 0.0000 23.6520 0.0000
# 6 0.0000 0.0000 0.0000 0.9558 0.0000 31.4138
#
#
#
# Elastic Compliance Matrix: (Units=1/GPa)
#
#
# Indices 1 2 3 4 5 6 
#
# 1 0.020664 0.006591 -0.016335 0.000000 0.001088 0.000000
# 2 0.006591 0.023794 -0.019784 0.000000 0.006930 0.000000
# 3 -0.016335 -0.019784 0.055099 0.000000 0.022174 0.000000
# 4 0.000000 0.000000 0.000000 0.029573 0.000000 -0.000900
# 5 0.001088 0.006930 0.022174 0.000000 0.067606 0.000000
# 6 0.000000 0.000000 0.000000 -0.000900 0.000000 0.031861
#
#
# Mechanical properties :
#
#
# Convention : Reuss Voigt Hill
#
# Bulk Modulus (GPa) = 24.68966 37.39997 31.04482
# Shear Modulus (GPa) = 16.60285 25.95309 21.27797
#
# Velocity S-wave (km/s) = 2.79956 3.50020 3.16930
# Velocity P-wave (km/s) = 4.70160 5.83012 5.29601
#
# Compressibility (1/GPa) = 0.04050278
#
# Stress axis : x y z
#
# Youngs Moduli (GPa) = 48.39251 42.02728 18.14907
#
# Poissons Ratio (x) = -0.27701 0.29646
# Poissons Ratio (y) = -0.31897 0.35906
# Poissons Ratio (z) = 0.79049 0.83146
#
# Static dielectric constant tensor:
#      x y z
#    x 3.771540 0.000000 -0.075600 
#    y 0.000000 3.967060 0.000000 
#    z -0.075600 0.000000 3.801410 
# 
# 
# High freq. dielectric constant tensor:
#      x y z
#    x 1.823100 0.000000 -0.002270 
#    y 0.000000 1.834930 0.000000 
#    z -0.002270 0.000000 1.801430 
# 
# From -- ./inp_files/46695.got.cif
#   From: 2010.03.12/outbox.cif.g09.slc.cpg/sg14_24_cif.got.tgz:46695.got - 2010.03.31 13:35:05.
