data_PCOD8124089
_publ_section_title
;
Structure prediction by ZEFSAII (Michael W. Deem and Ramdas Pophale) SiO2 
 PCOD8124089
Probable space group: P 21/C
;
_chemical_formula_sum "Si O2"
_cell_formula_units_Z 28
_cell_length_a 16.585857
_cell_length_b 18.119326
_cell_length_c 5.216350
_cell_angle_alpha 90.000000
_cell_angle_beta 62.859498
_cell_angle_gamma 90.000000
_cell_volume 1395.029139
_symmetry_space_group_name_H-M "P 21/C"
_symmetry_group_IT_number 14
_symmetry_cell_setting 'monoclinic'
loop_
_space_group_symop_operation_xyz
x,y,z
-x,1/2+y,1/2-z
-x,-y,-z
x,1/2-y,1/2+z
loop_
_atom_site_type_symbol
_atom_site_label
_atom_site_fract_x
_atom_site_fract_y
_atom_site_fract_z
Si Si1 0.961457 0.918333 0.060594
Si Si2 0.512564 0.204576 0.727510
Si Si3 0.100498 0.792483 0.817894
Si Si4 0.721021 0.047517 0.895922
Si Si5 0.455760 0.036162 0.814142
Si Si6 0.902827 0.960154 0.645573
Si Si7 0.706340 0.143514 0.417843
O O1 0.896178 0.908721 0.402381
O O2 0.899305 0.906518 0.898702
O O3 0.048393 0.867230 0.948868
O O4 0.000000 0.000000 0.000000
O O5 0.481016 0.249535 0.522218
O O6 0.466946 0.124056 0.795923
O O7 0.620765 0.196560 0.573043
O O8 0.072119 0.765517 0.577489
O O9 0.207180 0.804738 0.678762
O O10 0.705219 0.081581 0.638897
O O11 0.823694 0.020068 0.769416
O O12 0.703570 0.107570 0.140840
O O13 0.651515 0.980045 0.031210
O O14 0.500000 0.000000 0.500000
O O15 0.500000 0.000000 0.000000
O O16 0.000000 0.000000 0.500000
#
# Coordination Sequence:
#
# PCOD8124089 Si02
#       7
#     4   4   4   4   4   4   4
#     4  10  20  37  58  82 118 161 209 251 294 363
#     4  12  24  40  62  89 130 173 208 261 332 393
#     4  12  24  39  59  92 133 170 202 256 326 398
#     4  12  22  38  67  95 124 167 211 281 312 372
#     4  12  23  44  64  96 125 169 225 274 318 386
#     4  10  19  34  57  91 119 154 206 257 309 358
#     4  12  22  38  60  93 132 164 208 244 334 408
#
# _framework density 20.071266999999999
#
# number of rings (size 3 to 8) (size 9 to 14) (size 15 to 20)
#    0.000    0.571    2.857    8.571    0.000    0.000 
#    0.000    0.000    0.000    5.143    0.000    0.000 
#    0.000    0.000    0.000    0.000    0.000    0.000 
#
# Total GULP energy -347209.348033 kJ/mol
# GULP energy per Si atom -12400.333858 kJ/mol
# Density = 2.002558 g / cm^3
# Si number density = 20.071267 Si / 1000 Ang^3
#
#
#
# Elastic Constant Matrix: (Units=GPa)
#
#
# Indices 1 2 3 4 5 6 
#
# 1 59.9550 28.2287 40.7431 0.0000 8.2589 0.0000
# 2 28.2287 111.9438 42.4753 0.0000 0.3684 0.0000
# 3 40.7431 42.4753 133.2927 0.0000 32.2794 0.0000
# 4 0.0000 0.0000 0.0000 36.2054 0.0000 -1.1590
# 5 8.2589 0.3684 32.2794 0.0000 38.1915 0.0000
# 6 0.0000 0.0000 0.0000 -1.1590 0.0000 42.9797
#
#
#
# Elastic Compliance Matrix: (Units=1/GPa)
#
#
# Indices 1 2 3 4 5 6 
#
# 1 0.022154 -0.003427 -0.005693 0.000000 0.000054 0.000000
# 2 -0.003427 0.011038 -0.003299 0.000000 0.003423 0.000000
# 3 -0.005693 -0.003299 0.012558 0.000000 -0.009351 0.000000
# 4 0.000000 0.000000 0.000000 0.027644 0.000000 0.000745
# 5 0.000054 0.003423 -0.009351 0.000000 0.034043 0.000000
# 6 0.000000 0.000000 0.000000 0.000745 0.000000 0.023287
#
#
# Mechanical properties :
#
#
# Convention : Reuss Voigt Hill
#
# Bulk Modulus (GPa) = 47.81659 58.67619 53.24639
# Shear Modulus (GPa) = 30.76351 36.39161 33.57756
#
# Velocity S-wave (km/s) = 3.91924 4.26269 4.09457
# Velocity P-wave (km/s) = 6.66001 7.31606 6.99573
#
# Compressibility (1/GPa) = 0.02091324
#
# Stress axis : x y z
#
# Youngs Moduli (GPa) = 45.13921 90.60008 79.62985
#
# Poissons Ratio (x) = 0.31045 0.45331
# Poissons Ratio (y) = 0.15468 0.26267
# Poissons Ratio (z) = 0.25697 0.29886
#
# Static dielectric constant tensor:
#      x y z
#    x 3.431340 0.000000 -0.206070 
#    y 0.000000 3.476970 0.000000 
#    z -0.206070 0.000000 3.334910 
# 
# 
# High freq. dielectric constant tensor:
#      x y z
#    x 1.774050 0.000000 0.025040 
#    y 0.000000 1.765520 0.000000 
#    z 0.025040 0.000000 1.811250 
# 
# From -- ./inp_files/4131.got.cif
#   From: 2010.03.12/outbox.cif.g09.slc.cpg/sg14_3_cif.got.tgz:4131.got - 2010.03.31 13:35:05.
