data_PCOD8124251
_publ_section_title
;
Structure prediction by ZEFSAII (Michael W. Deem and Ramdas Pophale) SiO2 
 PCOD8124251
Probable space group: P 21/C
;
_chemical_formula_sum "Si O2"
_cell_formula_units_Z 32
_cell_length_a 8.360515
_cell_length_b 11.540179
_cell_length_c 16.343244
_cell_angle_alpha 90.000000
_cell_angle_beta 108.429104
_cell_angle_gamma 90.000000
_cell_volume 1495.959583
_symmetry_space_group_name_H-M "P 21/C"
_symmetry_group_IT_number 14
_symmetry_cell_setting 'monoclinic'
loop_
_space_group_symop_operation_xyz
x,y,z
-x,1/2+y,1/2-z
-x,-y,-z
x,1/2-y,1/2+z
loop_
_atom_site_type_symbol
_atom_site_label
_atom_site_fract_x
_atom_site_fract_y
_atom_site_fract_z
Si Si1 0.578488 0.250749 0.960194
Si Si2 0.799218 0.573731 0.454729
Si Si3 0.661540 0.591870 0.175142
Si Si4 0.888586 0.168875 0.923289
Si Si5 0.279505 0.825742 0.345232
Si Si6 0.322837 0.443252 0.387350
Si Si7 0.941300 0.771413 0.215405
Si Si8 0.511847 0.141484 0.185248
O O1 0.439914 0.346725 0.914541
O O2 0.742695 0.255169 0.929323
O O3 0.495352 0.123627 0.938308
O O4 0.640359 0.272129 0.061097
O O5 0.818770 0.462869 0.397036
O O6 0.767965 0.525207 0.541963
O O7 0.652801 0.656914 0.398372
O O8 0.965761 0.653975 0.484239
O O9 0.694774 0.461602 0.154658
O O10 0.845279 0.650545 0.217927
O O11 0.543843 0.597589 0.235458
O O12 0.961679 0.229403 0.854990
O O13 0.387525 0.763356 0.289970
O O14 0.080471 0.795786 0.307692
O O15 0.202294 0.368928 0.308911
O O16 0.361220 0.554378 0.339320
#
# Coordination Sequence:
#
# PCOD8124251 Si02
#       8
#     4   4   4   4   4   4   4   4
#     4  11  22  45  68  94 139 181 219 271 341 408
#     4  10  19  35  64 107 132 159 220 285 325 392
#     4  11  28  45  64  97 143 177 223 278 331 412
#     4  10  20  37  66  94 136 171 213 275 340 375
#     4  12  26  43  71  99 130 184 229 268 341 407
#     4  10  21  41  67 100 135 169 218 288 339 381
#     4  10  25  44  64  92 137 175 220 280 331 391
#     4  12  23  39  73  98 132 170 230 276 341 390
#
# _framework density 21.390951000000001
#
# number of rings (size 3 to 8) (size 9 to 14) (size 15 to 20)
#    0.000    1.250    2.500    3.000    7.000    0.000 
#    0.000    0.625    0.000    0.000    0.000    0.000 
#    0.000    0.000    0.000    0.000    0.000    0.000 
#
# Total GULP energy -396794.282042 kJ/mol
# GULP energy per Si atom -12399.821314 kJ/mol
# Density = 2.134226 g / cm^3
# Si number density = 21.390951 Si / 1000 Ang^3
#
#
#
# Elastic Constant Matrix: (Units=GPa)
#
#
# Indices 1 2 3 4 5 6 
#
# 1 110.8309 36.3175 19.5662 0.0000 15.4384 0.0000
# 2 36.3175 99.1456 8.1914 0.0000 7.4371 0.0000
# 3 19.5662 8.1914 69.0399 0.0000 14.0944 0.0000
# 4 0.0000 0.0000 0.0000 15.7439 0.0000 -1.9029
# 5 15.4384 7.4371 14.0944 0.0000 43.1784 0.0000
# 6 0.0000 0.0000 0.0000 -1.9029 0.0000 22.6681
#
#
#
# Elastic Compliance Matrix: (Units=1/GPa)
#
#
# Indices 1 2 3 4 5 6 
#
# 1 0.010955 -0.003642 -0.002144 0.000000 -0.002590 0.000000
# 2 -0.003642 0.011483 -0.000206 0.000000 -0.000608 0.000000
# 3 -0.002144 -0.000206 0.016020 0.000000 -0.004427 0.000000
# 4 0.000000 0.000000 0.000000 0.064168 0.000000 0.005387
# 5 -0.002590 -0.000608 -0.004427 0.000000 0.025636 0.000000
# 6 0.000000 0.000000 0.000000 0.005387 0.000000 0.044567
#
#
# Mechanical properties :
#
#
# Convention : Reuss Voigt Hill
#
# Bulk Modulus (GPa) = 37.77150 45.24073 41.50612
# Shear Modulus (GPa) = 25.82148 30.64749 28.23449
#
# Velocity S-wave (km/s) = 3.47813 3.78925 3.63702
# Velocity P-wave (km/s) = 5.81601 6.35137 6.08958
#
# Compressibility (1/GPa) = 0.02647499
#
# Stress axis : x y z
#
# Youngs Moduli (GPa) = 91.27998 87.08695 62.42091
#
# Poissons Ratio (x) = 0.31713 0.13383
# Poissons Ratio (y) = 0.33240 0.01287
# Poissons Ratio (z) = 0.19570 0.01795
#
# Static dielectric constant tensor:
#      x y z
#    x 4.241550 0.000000 0.243470 
#    y 0.000000 3.685380 0.000000 
#    z 0.243470 0.000000 3.806510 
# 
# 
# High freq. dielectric constant tensor:
#      x y z
#    x 1.861220 0.000000 0.014230 
#    y 0.000000 1.820800 0.000000 
#    z 0.014230 0.000000 1.833700 
# 
# From -- ./inp_files/55482.got.cif
#   From: 2010.03.12/outbox.cif.g09.slc.cpg/sg14_28_cif.got.tgz:55482.got - 2010.03.31 13:35:05.
