data_PCOD8124410
_publ_section_title
;
Structure prediction by ZEFSAII (Michael W. Deem and Ramdas Pophale) SiO2 
 PCOD8124410
Probable space group: P 21/C
;
_chemical_formula_sum "Si O2"
_cell_formula_units_Z 32
_cell_length_a 24.310905
_cell_length_b 8.944217
_cell_length_c 19.041920
_cell_angle_alpha 90.000000
_cell_angle_beta 22.902214
_cell_angle_gamma 90.000000
_cell_volume 1611.320297
_symmetry_space_group_name_H-M "P 21/C"
_symmetry_group_IT_number 14
_symmetry_cell_setting 'monoclinic'
loop_
_space_group_symop_operation_xyz
x,y,z
-x,1/2+y,1/2-z
-x,-y,-z
x,1/2-y,1/2+z
loop_
_atom_site_type_symbol
_atom_site_label
_atom_site_fract_x
_atom_site_fract_y
_atom_site_fract_z
Si Si1 0.697918 0.697582 0.224664
Si Si2 0.024806 0.454502 0.144529
Si Si3 0.728096 0.832856 0.453144
Si Si4 0.285747 0.508198 0.503505
Si Si5 0.301316 0.963935 0.822838
Si Si6 0.025429 0.697503 0.649342
Si Si7 0.548401 0.766868 0.538452
Si Si8 0.449510 0.025166 0.222915
O O1 0.635329 0.682108 0.376040
O O2 0.588841 0.622540 0.299452
O O3 0.714955 0.867870 0.182171
O O4 0.850185 0.616235 0.048818
O O5 0.056802 0.627586 0.121503
O O6 0.871796 0.443460 0.285872
O O7 0.022009 0.365316 0.220047
O O8 0.691142 0.669399 0.526329
O O9 0.658082 0.855959 0.459312
O O10 0.669508 0.956510 0.576830
O O11 0.897718 0.842440 0.246295
O O12 0.310518 0.562169 0.395446
O O13 0.399679 0.580830 0.422606
O O14 0.442708 0.886155 0.626447
O O15 0.163880 0.879689 0.954913
O O16 0.458313 0.647439 0.689491
#
# Coordination Sequence:
#
# PCOD8124410 Si02
#       8
#     4   4   4   4   4   4   4   4
#     4  12  23  41  58  87 130 165 194 246 309 367
#     4  10  19  37  59  88 120 155 199 252 302 357
#     4  10  19  39  60  90 116 149 200 257 294 351
#     4   9  19  35  60  90 113 147 203 254 298 342
#     4  11  21  38  58  87 121 157 202 251 300 353
#     4  10  20  35  63  90 116 154 207 253 299 348
#     4  11  25  39  60  91 124 161 199 248 312 363
#     4  11  20  38  63  87 116 155 209 249 295 359
#
# _framework density 19.859490000000001
#
# number of rings (size 3 to 8) (size 9 to 14) (size 15 to 20)
#    0.000    1.500    3.750    3.000    0.000    0.000 
#    0.000    7.500    0.000    0.000    0.000    0.000 
#    0.000    0.000    0.000    0.000    0.000    0.000 
#
# Total GULP energy -396778.771338 kJ/mol
# GULP energy per Si atom -12399.336604 kJ/mol
# Density = 1.981429 g / cm^3
# Si number density = 19.859490 Si / 1000 Ang^3
#
#
#
# Elastic Constant Matrix: (Units=GPa)
#
#
# Indices 1 2 3 4 5 6 
#
# 1 75.8394 25.5619 41.7408 0.0000 -11.7140 0.0000
# 2 25.5619 99.1409 47.6035 0.0000 -13.4451 0.0000
# 3 41.7408 47.6035 106.2168 0.0000 -24.0212 0.0000
# 4 0.0000 0.0000 0.0000 28.8356 0.0000 -5.2322
# 5 -11.7140 -13.4451 -24.0212 0.0000 34.1043 0.0000
# 6 0.0000 0.0000 0.0000 -5.2322 0.0000 19.5172
#
#
#
# Elastic Compliance Matrix: (Units=1/GPa)
#
#
# Indices 1 2 3 4 5 6 
#
# 1 0.017040 -0.001459 -0.005767 0.000000 0.001215 0.000000
# 2 -0.001459 0.013019 -0.005012 0.000000 0.001101 0.000000
# 3 -0.005767 -0.005012 0.015502 0.000000 0.006962 0.000000
# 4 0.000000 0.000000 0.000000 0.036453 0.000000 0.009772
# 5 0.001215 0.001101 0.006962 0.000000 0.035077 0.000000
# 6 0.000000 0.000000 0.000000 0.009772 0.000000 0.053857
#
#
# Mechanical properties :
#
#
# Convention : Reuss Voigt Hill
#
# Bulk Modulus (GPa) = 47.43263 56.77883 52.10573
# Shear Modulus (GPa) = 24.69725 27.57748 26.13737
#
# Velocity S-wave (km/s) = 3.53030 3.73048 3.63177
# Velocity P-wave (km/s) = 6.36815 6.87078 6.62423
#
# Compressibility (1/GPa) = 0.02108253
#
# Stress axis : x y z
#
# Youngs Moduli (GPa) = 58.68690 76.81138 64.50813
#
# Poissons Ratio (x) = 0.11209 0.37204
# Poissons Ratio (y) = 0.08564 0.32333
# Poissons Ratio (z) = 0.33847 0.38500
#
# Static dielectric constant tensor:
#      x y z
#    x 3.625310 0.000000 -0.377340 
#    y 0.000000 3.572910 0.000000 
#    z -0.377340 0.000000 3.798170 
# 
# 
# High freq. dielectric constant tensor:
#      x y z
#    x 1.758620 0.000000 -0.028150 
#    y 0.000000 1.773470 0.000000 
#    z -0.028150 0.000000 1.775980 
# 
# From -- ./inp_files/70492.got.cif
#   From: 2010.03.12/outbox.cif.g09.slc.cpg/sg14_36_cif.got.tgz:70492.got - 2010.03.31 13:35:05.
