data_PCOD8124656
_publ_section_title
;
Structure prediction by ZEFSAII (Michael W. Deem and Ramdas Pophale) SiO2 
 PCOD8124656
Probable space group: P 21/C
;
_chemical_formula_sum "Si O2"
_cell_formula_units_Z 28
_cell_length_a 13.971822
_cell_length_b 22.369174
_cell_length_c 8.085514
_cell_angle_alpha 90.000000
_cell_angle_beta 145.469876
_cell_angle_gamma 90.000000
_cell_volume 1432.421055
_symmetry_space_group_name_H-M "P 21/C"
_symmetry_group_IT_number 14
_symmetry_cell_setting 'monoclinic'
loop_
_space_group_symop_operation_xyz
x,y,z
-x,1/2+y,1/2-z
-x,-y,-z
x,1/2-y,1/2+z
loop_
_atom_site_type_symbol
_atom_site_label
_atom_site_fract_x
_atom_site_fract_y
_atom_site_fract_z
Si Si1 0.615606 0.322048 0.108719
Si Si2 0.960807 0.332670 0.011575
Si Si3 0.166390 0.009981 0.130250
Si Si4 0.205657 0.729562 0.934211
Si Si5 0.241375 0.922047 0.970520
Si Si6 0.497111 0.007894 0.193136
Si Si7 0.709229 0.610219 0.419456
O O1 0.644662 0.260193 0.247296
O O2 0.692958 0.314856 0.038169
O O3 0.726896 0.372324 0.349675
O O4 0.420392 0.340140 0.832520
O O5 0.156507 0.351190 0.284795
O O6 0.913407 0.312768 0.127791
O O7 0.917263 0.278107 0.826768
O O8 0.862555 0.393821 0.828010
O O9 0.319457 0.986158 0.462505
O O10 0.204480 0.077136 0.116727
O O11 0.138672 0.972967 0.921535
O O12 0.000000 0.000000 0.000000
O O13 0.416403 0.947618 0.150563
O O14 0.385867 0.064832 0.090913
O O15 0.500000 0.000000 0.000000
#
# Coordination Sequence:
#
# PCOD8124656 Si02
#       7
#     4   4   4   4   4   4   4
#     4  10  19  41  62  84 116 167 198 258 304 360
#     4  10  23  39  63  93 118 164 202 261 297 361
#     4  11  24  40  61  93 126 161 197 252 302 376
#     4   9  22  41  63  85 119 158 215 253 309 351
#     4  10  21  40  62  85 130 158 201 243 308 364
#     4  11  24  40  60  94 126 158 202 247 304 383
#     4  11  23  39  63  90 128 157 204 247 307 366
#
# _framework density 19.547326000000002
#
# number of rings (size 3 to 8) (size 9 to 14) (size 15 to 20)
#    0.000    1.714    2.857    0.857    8.000    2.286 
#    0.000    0.000    0.000    0.000    0.000    0.000 
#    0.000    0.000    0.000    0.000    0.000    0.000 
#
# Total GULP energy -347080.059223 kJ/mol
# GULP energy per Si atom -12395.716401 kJ/mol
# Density = 1.950284 g / cm^3
# Si number density = 19.547326 Si / 1000 Ang^3
#
#
#
# Elastic Constant Matrix: (Units=GPa)
#
#
# Indices 1 2 3 4 5 6 
#
# 1 141.8314 48.9472 49.2481 0.0000 3.2519 0.0000
# 2 48.9472 79.1086 44.2718 0.0000 9.1863 0.0000
# 3 49.2481 44.2718 108.5325 0.0000 18.3237 0.0000
# 4 0.0000 0.0000 0.0000 33.7143 0.0000 4.9704
# 5 3.2519 9.1863 18.3237 0.0000 31.8427 0.0000
# 6 0.0000 0.0000 0.0000 4.9704 0.0000 29.7727
#
#
#
# Elastic Compliance Matrix: (Units=1/GPa)
#
#
# Indices 1 2 3 4 5 6 
#
# 1 0.009556 -0.004572 -0.002801 0.000000 0.001955 0.000000
# 2 -0.004572 0.018595 -0.005188 0.000000 -0.001912 0.000000
# 3 -0.002801 -0.005188 0.013624 0.000000 -0.006057 0.000000
# 4 0.000000 0.000000 0.000000 0.030409 0.000000 -0.005077
# 5 0.001955 -0.001912 -0.006057 0.000000 0.035242 0.000000
# 6 0.000000 0.000000 0.000000 -0.005077 0.000000 0.034435
#
#
# Mechanical properties :
#
#
# Convention : Reuss Voigt Hill
#
# Bulk Modulus (GPa) = 60.04983 68.26741 64.15862
# Shear Modulus (GPa) = 28.97961 31.53296 30.25628
#
# Velocity S-wave (km/s) = 3.85455 4.02077 3.93854
# Velocity P-wave (km/s) = 7.11315 7.52034 7.31958
#
# Compressibility (1/GPa) = 0.01665284
#
# Stress axis : x y z
#
# Youngs Moduli (GPa) = 104.64162 53.77783 73.40151
#
# Poissons Ratio (x) = 0.24588 0.20563
# Poissons Ratio (y) = 0.47844 0.38078
# Poissons Ratio (z) = 0.29314 0.27898
#
# Static dielectric constant tensor:
#      x y z
#    x 3.561120 0.000000 -0.167830 
#    y 0.000000 3.791080 0.000000 
#    z -0.167830 0.000000 3.730700 
# 
# 
# High freq. dielectric constant tensor:
#      x y z
#    x 1.757660 0.000000 -0.009150 
#    y 0.000000 1.768280 0.000000 
#    z -0.009150 0.000000 1.761350 
# 
# From -- ./inp_files/16935.got.cif
#   From: 2010.03.12/outbox.cif.g09.slc.cpg/sg14_9_cif.got.tgz:16935.got - 2010.03.31 13:35:05.
