data_PCOD8124734
_publ_section_title
;
Structure prediction by ZEFSAII (Michael W. Deem and Ramdas Pophale) SiO2 
 PCOD8124734
Probable space group: P 21/C
;
_chemical_formula_sum "Si O2"
_cell_formula_units_Z 28
_cell_length_a 9.639351
_cell_length_b 22.904578
_cell_length_c 15.686468
_cell_angle_alpha 90.000000
_cell_angle_beta 25.690073
_cell_angle_gamma 90.000000
_cell_volume 1501.368580
_symmetry_space_group_name_H-M "P 21/C"
_symmetry_group_IT_number 14
_symmetry_cell_setting 'monoclinic'
loop_
_space_group_symop_operation_xyz
x,y,z
-x,1/2+y,1/2-z
-x,-y,-z
x,1/2-y,1/2+z
loop_
_atom_site_type_symbol
_atom_site_label
_atom_site_fract_x
_atom_site_fract_y
_atom_site_fract_z
Si Si1 0.671525 0.955727 0.840738
Si Si2 0.988392 0.324408 0.077168
Si Si3 0.078933 0.830027 0.040747
Si Si4 0.459919 0.231688 0.760389
Si Si5 0.715287 0.514700 0.962492
Si Si6 0.543215 0.574291 0.225643
Si Si7 0.847672 0.376696 0.324931
O O1 0.588458 0.965639 0.785809
O O2 0.523521 0.892424 0.946796
O O3 0.055343 0.959295 0.641801
O O4 0.500000 0.000000 0.000000
O O5 0.685530 0.311321 0.186914
O O6 0.849531 0.330837 0.248237
O O7 0.230816 0.269976 0.947959
O O8 0.149004 0.383633 0.953600
O O9 0.329439 0.776911 0.910690
O O10 0.226697 0.885240 0.907235
O O11 0.981662 0.848001 0.189117
O O12 0.749407 0.810352 0.181860
O O13 0.949473 0.566921 0.810744
O O14 0.500000 0.500000 0.000000
O O15 0.509168 0.532535 0.160871
#
# Coordination Sequence:
#
# PCOD8124734 Si02
#       7
#     4   4   4   4   4   4   4
#     4   9  18  34  51  69  95 128 163 196 239 289
#     4   9  18  32  50  71  97 127 159 195 241 286
#     4   9  18  33  50  72  99 126 159 197 240 285
#     4   9  18  32  50  72  96 126 160 194 237 290
#     4  10  20  33  50  74  98 125 164 205 242 285
#     4   9  18  34  52  69  98 132 159 198 244 287
#     4   9  19  34  49  69  98 128 159 199 240 286
#
# _framework density 18.649652
#
# number of rings (size 3 to 8) (size 9 to 14) (size 15 to 20)
#    0.000    2.857    0.000    0.429    0.000    3.429 
#    0.000    6.429    0.000    0.000    0.000    0.000 
#    0.000    0.000    0.000    0.000    0.000    0.000 
#
# Total GULP energy -346986.210111 kJ/mol
# GULP energy per Si atom -12392.364647 kJ/mol
# Density = 1.860720 g / cm^3
# Si number density = 18.649652 Si / 1000 Ang^3
#
#
#
# Elastic Constant Matrix: (Units=GPa)
#
#
# Indices 1 2 3 4 5 6 
#
# 1 105.4184 34.4078 39.6329 0.0000 13.5976 0.0000
# 2 34.4078 40.5021 13.1577 0.0000 4.5189 0.0000
# 3 39.6329 13.1577 55.9631 0.0000 8.5535 0.0000
# 4 0.0000 0.0000 0.0000 -0.5478 0.0000 -3.7478
# 5 13.5976 4.5189 8.5535 0.0000 40.2349 0.0000
# 6 0.0000 0.0000 0.0000 -3.7478 0.0000 35.6147
#
#
#
# Elastic Compliance Matrix: (Units=1/GPa)
#
#
# Indices 1 2 3 4 5 6 
#
# 1 0.016768 -0.011076 -0.008883 0.000000 -0.002534 0.000000
# 2 -0.011076 0.034164 -0.000180 0.000000 -0.000056 0.000000
# 3 -0.008883 -0.000180 0.024538 0.000000 -0.002194 0.000000
# 4 0.000000 0.000000 0.000000 -1.061340 0.000000 -0.111688
# 5 -0.002534 -0.000056 -0.002194 0.000000 0.026183 0.000000
# 6 0.000000 0.000000 0.000000 -0.111688 0.000000 0.016325
#
#
# Mechanical properties :
#
#
# Convention : Reuss Voigt Hill
#
# Bulk Modulus (GPa) = 28.41640 41.80893 35.11266
# Shear Modulus (GPa) = -5.60946 22.70605 8.54830
#
# Velocity S-wave (km/s) = -1.73618 3.49306 2.14326
# Velocity P-wave (km/s) = 3.35424 6.22378 4.99932
#
# Compressibility (1/GPa) = 0.03519095
#
# Stress axis : x y z
#
# Youngs Moduli (GPa) = 59.63779 29.27032 40.75343
#
# Poissons Ratio (x) = 0.32420 0.36203
# Poissons Ratio (y) = 0.66056 0.00733
# Poissons Ratio (z) = 0.52979 0.00526
#
# Static dielectric constant tensor:
#      x y z
#    x 3.554140 0.000000 0.112760 
#    y 0.000000 3.548700 0.000000 
#    z 0.112760 0.000000 3.648430 
# 
# 
# High freq. dielectric constant tensor:
#      x y z
#    x 1.718060 0.000000 0.009540 
#    y 0.000000 1.711920 0.000000 
#    z 0.009540 0.000000 1.727870 
# 
# From -- ./inp_files/10882.got.cif
#   From: 2010.03.12/outbox.cif.g09.slc.cpg/sg14_6_cif.got.tgz:10882.got - 2010.03.31 13:35:05.
