data_PCOD8124248
_publ_section_title
;
Structure prediction by ZEFSAII (Michael W. Deem and Ramdas Pophale) SiO2 
 PCOD8124248
Probable space group: P 21/C
;
_chemical_formula_sum "Si O2"
_cell_formula_units_Z 24
_cell_length_a 6.343348
_cell_length_b 26.235433
_cell_length_c 5.772192
_cell_angle_alpha 90.000000
_cell_angle_beta 75.287757
_cell_angle_gamma 90.000000
_cell_volume 929.115907
_symmetry_space_group_name_H-M "P 21/C"
_symmetry_group_IT_number 14
_symmetry_cell_setting 'monoclinic'
loop_
_space_group_symop_operation_xyz
x,y,z
-x,1/2+y,1/2-z
-x,-y,-z
x,1/2-y,1/2+z
loop_
_atom_site_type_symbol
_atom_site_label
_atom_site_fract_x
_atom_site_fract_y
_atom_site_fract_z
Si Si1 0.614757 0.380849 0.442517
Si Si2 0.996112 0.377770 0.013025
Si Si3 0.925203 0.766549 0.608701
Si Si4 0.578522 0.230760 0.031211
Si Si5 0.760136 0.451524 0.783552
Si Si6 0.328525 0.436176 0.200280
O O1 0.762593 0.362893 0.186306
O O2 0.537311 0.329387 0.588391
O O3 0.762804 0.418097 0.552580
O O4 0.408474 0.414690 0.423871
O O5 0.069221 0.327395 0.857275
O O6 0.176852 0.391579 0.148899
O O7 0.963685 0.428715 0.868592
O O8 0.811322 0.747757 0.885719
O O9 0.164305 0.741816 0.543570
O O10 0.476438 0.253414 0.302886
O O11 0.802296 0.511130 0.720267
O O12 0.528692 0.444955 0.972067
#
# Coordination Sequence:
#
# PCOD8124248 Si02
#       6
#     4   4   4   4   4   4
#     4  11  22  38  66  88 124 169 211 266 326 389
#     4  11  22  38  66  91 123 169 216 263 328 392
#     4  10  19  36  62  92 127 167 215 266 323 390
#     4  10  19  35  63  92 123 169 217 261 325 394
#     4  10  22  42  64  88 131 168 209 274 329 388
#     4  10  24  41  59  97 127 162 218 272 327 387
#
# _framework density 25.831008000000001
#
# number of rings (size 3 to 8) (size 9 to 14) (size 15 to 20)
#    0.000    1.667    3.333    3.000    2.333    2.000 
#    0.000    1.667    0.000    0.000    0.000    0.000 
#    0.000    0.000    0.000    0.000    0.000    0.000 
#
# Total GULP energy -297540.085372 kJ/mol
# GULP energy per Si atom -12397.503557 kJ/mol
# Density = 2.577222 g / cm^3
# Si number density = 25.831008 Si / 1000 Ang^3
#
#
#
# Elastic Constant Matrix: (Units=GPa)
#
#
# Indices 1 2 3 4 5 6 
#
# 1 35.5863 11.8073 53.9967 0.0000 3.7249 0.0000
# 2 11.8073 166.6123 28.8538 0.0000 6.4772 0.0000
# 3 53.9967 28.8538 129.2493 0.0000 23.3147 0.0000
# 4 0.0000 0.0000 0.0000 40.2084 0.0000 30.5756
# 5 3.7249 6.4772 23.3147 0.0000 38.4552 0.0000
# 6 0.0000 0.0000 0.0000 30.5756 0.0000 -11.8962
#
#
#
# Elastic Compliance Matrix: (Units=1/GPa)
#
#
# Indices 1 2 3 4 5 6 
#
# 1 0.083531 0.000012 -0.037546 0.000000 0.014670 0.000000
# 2 0.000012 0.006245 -0.001358 0.000000 -0.000230 0.000000
# 3 -0.037546 -0.001358 0.025856 0.000000 -0.011811 0.000000
# 4 0.000000 0.000000 0.000000 0.008418 0.000000 0.021636
# 5 0.014670 -0.000230 -0.011811 0.000000 0.031783 0.000000
# 6 0.000000 0.000000 0.000000 0.021636 0.000000 -0.028452
#
#
# Mechanical properties :
#
#
# Convention : Reuss Voigt Hill
#
# Bulk Modulus (GPa) = 26.42043 57.86260 42.14152
# Shear Modulus (GPa) = 22.95887 29.13949 26.04918
#
# Velocity S-wave (km/s) = 2.98453 3.36234 3.17905
# Velocity P-wave (km/s) = 4.70393 6.12559 5.46121
#
# Compressibility (1/GPa) = 0.03784950
#
# Stress axis : x y z
#
# Youngs Moduli (GPa) = 11.97156 160.12362 38.67538
#
# Poissons Ratio (x) = -0.00197 1.45211
# Poissons Ratio (y) = -0.00015 0.05252
# Poissons Ratio (z) = 0.44948 0.21743
#
# Static dielectric constant tensor:
#      x y z
#    x 4.551860 0.000000 0.178580 
#    y 0.000000 4.634380 0.000000 
#    z 0.178580 0.000000 5.077350 
# 
# 
# High freq. dielectric constant tensor:
#      x y z
#    x 2.049220 0.000000 0.004700 
#    y 0.000000 2.036080 0.000000 
#    z 0.004700 0.000000 2.041500 
# 
# From -- ./inp_files/1648.got.cif
#   From: 2010.03.12/outbox.cif.g09.slc.cpg/sg14_1_cif.got.tgz:1648.got - 2010.03.31 13:35:05.
