data_PCOD8124408
_publ_section_title
;
Structure prediction by ZEFSAII (Michael W. Deem and Ramdas Pophale) SiO2 
 PCOD8124408
Probable space group: P 21/C
;
_chemical_formula_sum "Si O2"
_cell_formula_units_Z 32
_cell_length_a 8.933970
_cell_length_b 19.452107
_cell_length_c 13.483764
_cell_angle_alpha 90.000000
_cell_angle_beta 44.224872
_cell_angle_gamma 90.000000
_cell_volume 1634.374976
_symmetry_space_group_name_H-M "P 21/C"
_symmetry_group_IT_number 14
_symmetry_cell_setting 'monoclinic'
loop_
_space_group_symop_operation_xyz
x,y,z
-x,1/2+y,1/2-z
-x,-y,-z
x,1/2-y,1/2+z
loop_
_atom_site_type_symbol
_atom_site_label
_atom_site_fract_x
_atom_site_fract_y
_atom_site_fract_z
Si Si1 0.105210 0.306384 0.035344
Si Si2 0.171683 0.528865 0.045350
Si Si3 0.386030 0.866537 0.957390
Si Si4 0.522436 0.762008 0.050634
Si Si5 0.257533 0.424025 0.839285
Si Si6 0.305151 0.738385 0.856908
Si Si7 0.039484 0.095991 0.740699
Si Si8 0.510374 0.640968 0.906833
O O1 0.946174 0.280706 0.024803
O O2 0.989283 0.348949 0.178000
O O3 0.235554 0.242661 0.020971
O O4 0.274967 0.356020 0.899071
O O5 0.971339 0.575435 0.107389
O O6 0.088682 0.477602 0.169481
O O7 0.274867 0.490852 0.900820
O O8 0.358136 0.576168 0.001713
O O9 0.548413 0.922020 0.832059
O O10 0.329801 0.808649 0.904089
O O11 0.500015 0.831838 0.998457
O O12 0.171597 0.907445 0.090457
O O13 0.353933 0.756590 0.218333
O O14 0.466833 0.695504 0.012875
O O15 0.449977 0.676628 0.831548
O O16 0.241321 0.118481 0.712271
#
# Coordination Sequence:
#
# PCOD8124408 Si02
#       8
#     4   4   4   4   4   4   4   4
#     4  10  19  37  59  86 121 159 201 235 304 364
#     4  10  21  41  65  83 114 167 211 247 289 357
#     4  11  23  38  59  94 126 153 199 253 313 354
#     4  10  22  36  60  93 122 156 189 255 305 360
#     4  10  21  37  63  89 115 160 207 247 295 359
#     4  11  21  36  62  89 126 154 193 250 309 361
#     4  10  22  38  59  90 121 157 201 255 292 354
#     4  10  22  39  63  88 118 163 207 239 303 368
#
# _framework density 19.579350999999999
#
# number of rings (size 3 to 8) (size 9 to 14) (size 15 to 20)
#    0.000    1.750    3.750    0.375    1.750    2.500 
#    0.000    0.625    0.000    0.000    0.000    0.000 
#    0.000    0.000    0.000    0.000    0.000    0.000 
#
# Total GULP energy -396795.759069 kJ/mol
# GULP energy per Si atom -12399.867471 kJ/mol
# Density = 1.953479 g / cm^3
# Si number density = 19.579351 Si / 1000 Ang^3
#
#
#
# Elastic Constant Matrix: (Units=GPa)
#
#
# Indices 1 2 3 4 5 6 
#
# 1 114.2094 37.5490 38.9760 0.0000 -12.8217 0.0000
# 2 37.5490 73.1922 48.6771 0.0000 -9.9852 0.0000
# 3 38.9760 48.6771 142.1908 0.0000 -1.7140 0.0000
# 4 0.0000 0.0000 0.0000 19.5037 0.0000 -5.2922
# 5 -12.8217 -9.9852 -1.7140 0.0000 25.0820 0.0000
# 6 0.0000 0.0000 0.0000 -5.2922 0.0000 20.4466
#
#
#
# Elastic Compliance Matrix: (Units=1/GPa)
#
#
# Indices 1 2 3 4 5 6 
#
# 1 0.011085 -0.004094 -0.001590 0.000000 0.003928 0.000000
# 2 -0.004094 0.020378 -0.005786 0.000000 0.005625 0.000000
# 3 -0.001590 -0.005786 0.009420 0.000000 -0.002473 0.000000
# 4 0.000000 0.000000 0.000000 0.055145 0.000000 0.014273
# 5 0.003928 0.005625 -0.002473 0.000000 0.043947 0.000000
# 6 0.000000 0.000000 0.000000 0.014273 0.000000 0.052602
#
#
# Mechanical properties :
#
#
# Convention : Reuss Voigt Hill
#
# Bulk Modulus (GPa) = 55.73014 64.44407 60.08710
# Shear Modulus (GPa) = 22.57342 26.63249 24.60296
#
# Velocity S-wave (km/s) = 3.39915 3.69214 3.54867
# Velocity P-wave (km/s) = 6.62806 7.15273 6.89539
#
# Compressibility (1/GPa) = 0.01794361
#
# Stress axis : x y z
#
# Youngs Moduli (GPa) = 90.20937 49.07153 106.16092
#
# Poissons Ratio (x) = 0.20089 0.16878
# Poissons Ratio (y) = 0.36929 0.61428
# Poissons Ratio (z) = 0.14342 0.28394
#
# Static dielectric constant tensor:
#      x y z
#    x 3.761920 0.000000 0.044010 
#    y 0.000000 3.449110 0.000000 
#    z 0.044010 0.000000 3.438910 
# 
# 
# High freq. dielectric constant tensor:
#      x y z
#    x 1.774060 0.000000 -0.002230 
#    y 0.000000 1.748330 0.000000 
#    z -0.002230 0.000000 1.753390 
# 
# From -- ./inp_files/42040.got.cif
#   From: 2010.03.12/outbox.cif.g09.slc.cpg/sg14_22_cif.got.tgz:42040.got - 2010.03.31 13:35:05.
