data_PCOD8124331
_publ_section_title
;
Structure prediction by ZEFSAII (Michael W. Deem and Ramdas Pophale) SiO2 
 PCOD8124331
Probable space group: P 21/C
;
_chemical_formula_sum "Si O2"
_cell_formula_units_Z 32
_cell_length_a 25.180087
_cell_length_b 8.905890
_cell_length_c 19.080365
_cell_angle_alpha 90.000000
_cell_angle_beta 159.063637
_cell_angle_gamma 90.000000
_cell_volume 1528.944469
_symmetry_space_group_name_H-M "P 21/C"
_symmetry_group_IT_number 14
_symmetry_cell_setting 'monoclinic'
loop_
_space_group_symop_operation_xyz
x,y,z
-x,1/2+y,1/2-z
-x,-y,-z
x,1/2-y,1/2+z
loop_
_atom_site_type_symbol
_atom_site_label
_atom_site_fract_x
_atom_site_fract_y
_atom_site_fract_z
Si Si1 0.530458 0.094432 0.144331
Si Si2 0.139326 0.879334 0.399456
Si Si3 0.677565 0.371978 0.060617
Si Si4 0.612672 0.638041 0.391209
Si Si5 0.055435 0.877278 0.451187
Si Si6 0.167957 0.876626 0.830257
Si Si7 0.842171 0.880449 0.688304
Si Si8 0.385236 0.684273 0.395596
O O1 0.689451 0.083918 0.376177
O O2 0.416376 0.157196 0.061114
O O3 0.536668 0.205391 0.084089
O O4 0.482793 0.927991 0.062367
O O5 0.043540 0.875948 0.351747
O O6 0.119396 0.718055 0.338281
O O7 0.084979 0.009385 0.279486
O O8 0.781798 0.230375 0.170906
O O9 0.771159 0.524578 0.165504
O O10 0.626468 0.344761 0.078403
O O11 0.538496 0.368814 0.837569
O O12 0.697617 0.483727 0.480097
O O13 0.712996 0.779845 0.492992
O O14 0.222785 0.887515 0.683812
O O15 0.972860 0.727734 0.378410
O O16 0.969151 0.026520 0.369512
#
# Coordination Sequence:
#
# PCOD8124331 Si02
#       8
#     4   4   4   4   4   4   4   4
#     4  10  19  36  61  84 111 149 193 239 282 334
#     4  10  19  36  61  84 115 144 193 245 283 323
#     4  11  20  35  58  85 114 146 189 240 283 331
#     4  11  19  36  61  88 109 143 194 243 282 330
#     4  10  22  37  54  83 121 154 186 229 284 352
#     4  10  20  34  60  87 107 150 191 234 277 337
#     4  10  21  33  57  86 111 151 190 237 285 334
#     4  10  22  37  57  84 118 155 187 230 289 345
#
# _framework density 20.929473000000002
#
# number of rings (size 3 to 8) (size 9 to 14) (size 15 to 20)
#    0.000    1.750    3.750    2.250    0.000    1.000 
#    0.000    0.625    0.000    0.000    0.000    0.000 
#    0.000    0.000    0.000    0.000    0.000    0.000 
#
# Total GULP energy -396754.168529 kJ/mol
# GULP energy per Si atom -12398.567767 kJ/mol
# Density = 2.088184 g / cm^3
# Si number density = 20.929473 Si / 1000 Ang^3
#
#
#
# Elastic Constant Matrix: (Units=GPa)
#
#
# Indices 1 2 3 4 5 6 
#
# 1 30.9981 6.2813 -5.3931 0.0000 2.8708 0.0000
# 2 6.2813 107.4875 20.4729 0.0000 6.9545 0.0000
# 3 -5.3931 20.4729 47.4692 0.0000 2.1465 0.0000
# 4 0.0000 0.0000 0.0000 18.4730 0.0000 5.0669
# 5 2.8708 6.9545 2.1465 0.0000 24.8605 0.0000
# 6 0.0000 0.0000 0.0000 5.0669 0.0000 30.0840
#
#
#
# Elastic Compliance Matrix: (Units=1/GPa)
#
#
# Indices 1 2 3 4 5 6 
#
# 1 0.034060 -0.002751 0.005219 0.000000 -0.003614 0.000000
# 2 -0.002751 0.010511 -0.004746 0.000000 -0.002213 0.000000
# 3 0.005219 -0.004746 0.023766 0.000000 -0.001327 0.000000
# 4 0.000000 0.000000 0.000000 0.056755 0.000000 -0.009559
# 5 -0.003614 -0.002213 -0.001327 0.000000 0.041376 0.000000
# 6 0.000000 0.000000 0.000000 -0.009559 0.000000 0.034850
#
#
# Mechanical properties :
#
#
# Convention : Reuss Voigt Hill
#
# Bulk Modulus (GPa) = 15.67801 25.40855 20.54328
# Shear Modulus (GPa) = 22.01346 25.65640 23.83493
#
# Velocity S-wave (km/s) = 3.24665 3.50501 3.37830
# Velocity P-wave (km/s) = 4.64343 5.34290 5.00540
#
# Compressibility (1/GPa) = 0.06378360
#
# Stress axis : x y z
#
# Youngs Moduli (GPa) = 29.35970 95.13611 42.07670
#
# Poissons Ratio (x) = 0.26169 -0.21962
# Poissons Ratio (y) = 0.08076 0.19969
# Poissons Ratio (z) = -0.15324 0.45150
#
# Static dielectric constant tensor:
#      x y z
#    x 4.050520 0.000000 0.186130 
#    y 0.000000 3.765560 0.000000 
#    z 0.186130 0.000000 3.522340 
# 
# 
# High freq. dielectric constant tensor:
#      x y z
#    x 1.820150 0.000000 0.013380 
#    y 0.000000 1.812490 0.000000 
#    z 0.013380 0.000000 1.806700 
# 
# From -- ./inp_files/70519.got.cif
#   From: 2010.03.12/outbox.cif.g09.slc.cpg/sg14_36_cif.got.tgz:70519.got - 2010.03.31 13:35:05.
