data_PCOD8124430
_publ_section_title
;
Structure prediction by ZEFSAII (Michael W. Deem and Ramdas Pophale) SiO2 
 PCOD8124430
Probable space group: P 21/C
;
_chemical_formula_sum "Si O2"
_cell_formula_units_Z 20
_cell_length_a 20.594548
_cell_length_b 8.517769
_cell_length_c 13.279995
_cell_angle_alpha 90.000000
_cell_angle_beta 159.686912
_cell_angle_gamma 90.000000
_cell_volume 808.710455
_symmetry_space_group_name_H-M "P 21/C"
_symmetry_group_IT_number 14
_symmetry_cell_setting 'monoclinic'
loop_
_space_group_symop_operation_xyz
x,y,z
-x,1/2+y,1/2-z
-x,-y,-z
x,1/2-y,1/2+z
loop_
_atom_site_type_symbol
_atom_site_label
_atom_site_fract_x
_atom_site_fract_y
_atom_site_fract_z
Si Si1 0.349659 0.512613 0.594213
Si Si2 0.111911 0.078936 0.308830
Si Si3 0.176306 0.756273 0.974702
Si Si4 0.297415 0.204762 0.402660
Si Si5 0.411027 0.225204 0.351545
O O1 0.175231 0.616658 0.381589
O O2 0.286317 0.388046 0.418733
O O3 0.434823 0.429946 0.818170
O O4 0.504452 0.629717 0.773867
O O5 0.130777 0.107453 0.215212
O O6 0.310105 0.139960 0.640950
O O7 0.081143 0.899186 0.292280
O O8 0.941540 0.183222 0.101876
O O9 0.386866 0.717872 0.316719
O O10 0.276000 0.191763 0.251460
#
# Coordination Sequence:
#
# PCOD8124430 Si02
#       5
#     4   4   4   4   4
#     4  10  21  38  61  90 121 158 198 245 297 355
#     4  11  23  40  62  90 122 159 201 248 298 355
#     4  11  22  41  62  88 125 158 198 253 299 350
#     4  10  19  37  61  89 120 157 200 242 296 359
#     4  10  22  42  64  89 121 158 198 248 301 353
#
# _framework density 24.730730999999999
#
# number of rings (size 3 to 8) (size 9 to 14) (size 15 to 20)
#    0.000    1.600    0.000    7.800    0.000    1.600 
#    0.000   23.000    0.000    0.000    0.000    0.000 
#    0.000    0.000    0.000    0.000    0.000    0.000 
#
# Total GULP energy -248009.295706 kJ/mol
# GULP energy per Si atom -12400.464785 kJ/mol
# Density = 2.467444 g / cm^3
# Si number density = 24.730731 Si / 1000 Ang^3
#
#
#
# Elastic Constant Matrix: (Units=GPa)
#
#
# Indices 1 2 3 4 5 6 
#
# 1 132.4805 14.5685 12.1364 0.0000 32.2748 0.0000
# 2 14.5685 103.0376 4.5237 0.0000 11.7353 0.0000
# 3 12.1364 4.5237 44.2942 0.0000 11.9985 0.0000
# 4 0.0000 0.0000 0.0000 28.1074 0.0000 13.2845
# 5 32.2748 11.7353 11.9985 0.0000 40.8575 0.0000
# 6 0.0000 0.0000 0.0000 13.2845 0.0000 41.0475
#
#
#
# Elastic Compliance Matrix: (Units=1/GPa)
#
#
# Indices 1 2 3 4 5 6 
#
# 1 0.009386 -0.000493 -0.000599 0.000000 -0.007097 0.000000
# 2 -0.000493 0.010062 -0.000234 0.000000 -0.002432 0.000000
# 3 -0.000599 -0.000234 0.024573 0.000000 -0.006676 0.000000
# 4 0.000000 0.000000 0.000000 0.042003 0.000000 -0.013594
# 5 -0.007097 -0.002432 -0.006676 0.000000 0.032741 0.000000
# 6 0.000000 0.000000 0.000000 -0.013594 0.000000 0.028761
#
#
# Mechanical properties :
#
#
# Convention : Reuss Voigt Hill
#
# Bulk Modulus (GPa) = 24.17177 38.02992 31.10084
# Shear Modulus (GPa) = 30.49400 38.57475 34.53437
#
# Velocity S-wave (km/s) = 3.51528 3.95370 3.74092
# Velocity P-wave (km/s) = 5.12557 6.02107 5.59128
#
# Compressibility (1/GPa) = 0.04137058
#
# Stress axis : x y z
#
# Youngs Moduli (GPa) = 106.53778 99.38255 40.69555
#
# Poissons Ratio (x) = 0.04895 0.02438
# Poissons Ratio (y) = 0.05247 0.00951
# Poissons Ratio (z) = 0.06382 0.02324
#
# Static dielectric constant tensor:
#      x y z
#    x 4.684360 0.000000 0.300550 
#    y 0.000000 4.482130 0.000000 
#    z 0.300550 0.000000 3.950570 
# 
# 
# High freq. dielectric constant tensor:
#      x y z
#    x 1.999640 0.000000 0.023310 
#    y 0.000000 1.990170 0.000000 
#    z 0.023310 0.000000 1.958890 
# 
# From -- ./inp_files/50163.got.cif
#   From: 2010.03.12/outbox.cif.g09.slc.cpg/sg14_26_cif.got.tgz:50163.got - 2010.03.31 13:35:05.
