data_PCOD8124826
_publ_section_title
;
Structure prediction by ZEFSAII (Michael W. Deem and Ramdas Pophale) SiO2 
 PCOD8124826
Probable space group: P 21/C
;
_chemical_formula_sum "Si O2"
_cell_formula_units_Z 32
_cell_length_a 11.006677
_cell_length_b 18.090445
_cell_length_c 20.966072
_cell_angle_alpha 90.000000
_cell_angle_beta 156.232043
_cell_angle_gamma 90.000000
_cell_volume 1682.533541
_symmetry_space_group_name_H-M "P 21/C"
_symmetry_group_IT_number 14
_symmetry_cell_setting 'monoclinic'
loop_
_space_group_symop_operation_xyz
x,y,z
-x,1/2+y,1/2-z
-x,-y,-z
x,1/2-y,1/2+z
loop_
_atom_site_type_symbol
_atom_site_label
_atom_site_fract_x
_atom_site_fract_y
_atom_site_fract_z
Si Si1 0.710038 0.706808 0.815647
Si Si2 0.208989 0.586034 0.408497
Si Si3 0.982917 0.390618 0.134866
Si Si4 0.330287 0.166935 0.304243
Si Si5 0.423503 0.176228 0.087583
Si Si6 0.143616 0.731165 0.619181
Si Si7 0.699723 0.470664 0.683578
Si Si8 0.678758 0.799732 0.108744
O O1 0.772498 0.641799 0.796585
O O2 0.721182 0.786007 0.784532
O O3 0.380365 0.690320 0.686429
O O4 0.964698 0.706687 0.992829
O O5 0.407452 0.521494 0.533844
O O6 0.150626 0.563018 0.307735
O O7 0.372052 0.665517 0.488929
O O8 0.903288 0.598873 0.301268
O O9 0.034375 0.479201 0.158605
O O10 0.048081 0.353280 0.235715
O O11 0.650846 0.372055 0.953019
O O12 0.295484 0.217377 0.350984
O O13 0.667624 0.233308 0.232369
O O14 0.581255 0.096436 0.169863
O O15 0.331096 0.201067 0.972195
O O16 0.110580 0.174779 0.976798
#
# Coordination Sequence:
#
# PCOD8124826 Si02
#       8
#     4   4   4   4   4   4   4   4
#     4  10  20  39  58  87 114 140 201 244 279 318
#     4   9  19  35  55  84 122 155 176 230 292 344
#     4  10  20  34  60  86 115 154 177 242 287 334
#     4  11  20  31  61  92 113 142 194 244 280 327
#     4  10  22  39  59  83 113 150 188 234 289 348
#     4  10  22  38  61  79 111 151 190 244 281 318
#     4   9  20  39  54  80 123 152 183 218 292 362
#     4   9  19  33  56  89 118 142 188 235 296 338
#
# _framework density 19.018936
#
# number of rings (size 3 to 8) (size 9 to 14) (size 15 to 20)
#    0.000    2.250    1.250    2.250    8.750    0.500 
#    0.000    3.750    0.000    0.000    0.000    0.000 
#    0.000    0.000    0.000    0.000    0.000    0.000 
#
# Total GULP energy -396635.051763 kJ/mol
# GULP energy per Si atom -12394.845368 kJ/mol
# Density = 1.897565 g / cm^3
# Si number density = 19.018936 Si / 1000 Ang^3
#
#
#
# Elastic Constant Matrix: (Units=GPa)
#
#
# Indices 1 2 3 4 5 6 
#
# 1 77.2104 21.2330 31.7267 0.0000 3.9795 0.0000
# 2 21.2330 64.8097 9.3563 0.0000 13.1585 0.0000
# 3 31.7267 9.3563 74.1582 0.0000 12.0055 0.0000
# 4 0.0000 0.0000 0.0000 20.4283 0.0000 3.3719
# 5 3.9795 13.1585 12.0055 0.0000 34.8122 0.0000
# 6 0.0000 0.0000 0.0000 3.3719 0.0000 19.7209
#
#
#
# Elastic Compliance Matrix: (Units=1/GPa)
#
#
# Indices 1 2 3 4 5 6 
#
# 1 0.017133 -0.005079 -0.007078 0.000000 0.002402 0.000000
# 2 -0.005079 0.018311 0.000942 0.000000 -0.006665 0.000000
# 3 -0.007078 0.000942 0.017286 0.000000 -0.005508 0.000000
# 4 0.000000 0.000000 0.000000 0.050373 0.000000 -0.008613
# 5 0.002402 -0.006665 -0.005508 0.000000 0.032870 0.000000
# 6 0.000000 0.000000 0.000000 -0.008613 0.000000 0.052180
#
#
# Mechanical properties :
#
#
# Convention : Reuss Voigt Hill
#
# Bulk Modulus (GPa) = 33.00406 37.86780 35.43593
# Shear Modulus (GPa) = 22.65687 25.24977 23.95332
#
# Velocity S-wave (km/s) = 3.45524 3.64759 3.55272
# Velocity P-wave (km/s) = 5.77141 6.13952 5.95831
#
# Compressibility (1/GPa) = 0.03029930
#
# Stress axis : x y z
#
# Youngs Moduli (GPa) = 58.36690 54.61159 57.85118
#
# Poissons Ratio (x) = 0.27737 0.40947
# Poissons Ratio (y) = 0.29645 -0.05448
# Poissons Ratio (z) = 0.41312 -0.05143
#
# Static dielectric constant tensor:
#      x y z
#    x 3.472850 0.000000 -0.047430 
#    y 0.000000 3.320300 0.000000 
#    z -0.047430 0.000000 3.554860 
# 
# 
# High freq. dielectric constant tensor:
#      x y z
#    x 1.733020 0.000000 0.000090 
#    y 0.000000 1.713160 0.000000 
#    z 0.000090 0.000000 1.746140 
# 
# From -- ./inp_files/13742.got.cif
#   From: 2010.03.12/outbox.cif.g09.slc.cpg/sg14_7_cif.got.tgz:13742.got - 2010.03.31 13:35:05.
