data_PCOD8124829
_publ_section_title
;
Structure prediction by ZEFSAII (Michael W. Deem and Ramdas Pophale) SiO2 
 PCOD8124829
Probable space group: P 21/C
;
_chemical_formula_sum "Si O2"
_cell_formula_units_Z 20
_cell_length_a 7.317793
_cell_length_b 13.972554
_cell_length_c 15.202545
_cell_angle_alpha 90.000000
_cell_angle_beta 141.303032
_cell_angle_gamma 90.000000
_cell_volume 971.834083
_symmetry_space_group_name_H-M "P 21/C"
_symmetry_group_IT_number 14
_symmetry_cell_setting 'monoclinic'
loop_
_space_group_symop_operation_xyz
x,y,z
-x,1/2+y,1/2-z
-x,-y,-z
x,1/2-y,1/2+z
loop_
_atom_site_type_symbol
_atom_site_label
_atom_site_fract_x
_atom_site_fract_y
_atom_site_fract_z
Si Si1 0.527315 0.834669 0.381309
Si Si2 0.442598 0.963933 0.679420
Si Si3 0.860075 0.821293 0.770071
Si Si4 0.720896 0.166338 0.527357
Si Si5 0.856293 0.162040 0.302217
O O1 0.321948 0.864361 0.387200
O O2 0.383107 0.746037 0.275722
O O3 0.852735 0.808495 0.535364
O O4 0.527609 0.922594 0.313223
O O5 0.762766 0.912462 0.792788
O O6 0.241401 0.927629 0.520355
O O7 0.283657 0.934252 0.709985
O O8 0.570777 0.777344 0.614665
O O9 0.005551 0.737641 0.882824
O O10 0.084237 0.856620 0.778439
#
# Coordination Sequence:
#
# PCOD8124829 Si02
#       5
#     4   4   4   4   4
#     4  10  20  39  55  80 110 140 176 228 262 313
#     4  10  20  34  61  78 105 144 184 209 267 325
#     4   8  18  33  52  80 108 140 172 221 261 310
#     4   8  17  32  57  77 106 139 175 215 265 307
#     4  10  21  34  57  79 110 138 180 220 268 311
#
# _framework density 20.579644999999999
#
# number of rings (size 3 to 8) (size 9 to 14) (size 15 to 20)
#    1.200    1.600    0.000    1.200    2.800    0.000 
#    0.000    1.000    4.400    4.800    0.000    0.000 
#    0.000    0.000    0.000    0.000    0.000    0.000 
#
# Total GULP energy -247837.962415 kJ/mol
# GULP energy per Si atom -12391.898121 kJ/mol
# Density = 2.053280 g / cm^3
# Si number density = 20.579645 Si / 1000 Ang^3
#
#
#
# Elastic Constant Matrix: (Units=GPa)
#
#
# Indices 1 2 3 4 5 6 
#
# 1 27.9257 3.6404 6.9225 0.0000 7.9466 0.0000
# 2 3.6404 41.0474 16.1675 0.0000 4.9056 0.0000
# 3 6.9225 16.1675 49.5421 0.0000 17.4630 0.0000
# 4 0.0000 0.0000 0.0000 27.3189 0.0000 0.4025
# 5 7.9466 4.9056 17.4630 0.0000 21.1185 0.0000
# 6 0.0000 0.0000 0.0000 0.4025 0.0000 27.7591
#
#
#
# Elastic Compliance Matrix: (Units=1/GPa)
#
#
# Indices 1 2 3 4 5 6 
#
# 1 0.040236 -0.001884 0.000247 0.000000 -0.014907 0.000000
# 2 -0.001884 0.028076 -0.009668 0.000000 0.002182 0.000000
# 3 0.000247 -0.009668 0.031822 0.000000 -0.024161 0.000000
# 4 0.000000 0.000000 0.000000 0.036612 0.000000 -0.000531
# 5 -0.014907 0.002182 -0.024161 0.000000 0.072433 0.000000
# 6 0.000000 0.000000 0.000000 -0.000531 0.000000 0.036032
#
#
# Mechanical properties :
#
#
# Convention : Reuss Voigt Hill
#
# Bulk Modulus (GPa) = 12.89931 19.10843 16.00387
# Shear Modulus (GPa) = 17.02634 21.35830 19.19232
#
# Velocity S-wave (km/s) = 2.87947 3.22504 3.05714
# Velocity P-wave (km/s) = 4.16374 4.81385 4.50055
#
# Compressibility (1/GPa) = 0.07752355
#
# Stress axis : x y z
#
# Youngs Moduli (GPa) = 24.85360 35.61698 31.42507
#
# Poissons Ratio (x) = 0.06711 -0.00777
# Poissons Ratio (y) = 0.04683 0.30382
# Poissons Ratio (z) = -0.00615 0.34435
#
# Static dielectric constant tensor:
#      x y z
#    x 3.767790 0.000000 0.183080 
#    y 0.000000 3.299340 0.000000 
#    z 0.183080 0.000000 3.548000 
# 
# 
# High freq. dielectric constant tensor:
#      x y z
#    x 1.816980 0.000000 0.017330 
#    y 0.000000 1.770260 0.000000 
#    z 0.017330 0.000000 1.778460 
# 
# From -- ./inp_files/23394.got.cif
#   From: 2010.03.12/outbox.cif.g09.slc.cpg/sg14_12_cif.got.tgz:23394.got - 2010.03.31 13:35:05.
