data_PCOD8124951
_publ_section_title
;
Structure prediction by ZEFSAII (Michael W. Deem and Ramdas Pophale) SiO2 
 PCOD8124951
Probable space group: P 21/C
;
_chemical_formula_sum "Si O2"
_cell_formula_units_Z 28
_cell_length_a 14.544022
_cell_length_b 16.348415
_cell_length_c 8.897138
_cell_angle_alpha 90.000000
_cell_angle_beta 142.043964
_cell_angle_gamma 90.000000
_cell_volume 1301.144754
_symmetry_space_group_name_H-M "P 21/C"
_symmetry_group_IT_number 14
_symmetry_cell_setting 'monoclinic'
loop_
_space_group_symop_operation_xyz
x,y,z
-x,1/2+y,1/2-z
-x,-y,-z
x,1/2-y,1/2+z
loop_
_atom_site_type_symbol
_atom_site_label
_atom_site_fract_x
_atom_site_fract_y
_atom_site_fract_z
Si Si1 0.675337 0.233630 0.703587
Si Si2 0.160348 0.565485 0.240550
Si Si3 0.079579 0.290712 0.059655
Si Si4 0.455408 0.652550 0.690023
Si Si5 0.053936 0.495149 0.813846
Si Si6 0.860489 0.168855 0.677873
Si Si7 0.212785 0.342384 0.946322
O O1 0.583884 0.171731 0.688883
O O2 0.556935 0.268642 0.432704
O O3 0.796936 0.182758 0.764802
O O4 0.746814 0.306876 0.897035
O O5 0.334002 0.587644 0.476178
O O6 0.113492 0.523016 0.338939
O O7 0.151625 0.500898 0.093876
O O8 0.048705 0.643010 0.055713
O O9 0.158856 0.240697 0.295333
O O10 0.209070 0.330187 0.122738
O O11 0.999581 0.229241 0.840451
O O12 0.626073 0.624510 0.899374
O O13 0.076555 0.577184 0.748430
O O14 0.104031 0.419500 0.773087
#
# Coordination Sequence:
#
# PCOD8124951 Si02
#       7
#     4   4   4   4   4   4   4
#     4  10  20  35  67  89 109 159 206 246 281 357
#     4  10  20  39  65  84 120 157 209 234 296 358
#     4  11  21  40  64  89 114 158 202 256 280 357
#     4  11  21  39  60  88 119 159 196 244 294 365
#     4  10  22  37  59  93 117 157 195 256 294 348
#     4  11  19  38  64  91 115 150 211 249 292 340
#     4  11  25  38  60  90 127 152 197 244 313 346
#
# _framework density 21.519511999999999
#
# number of rings (size 3 to 8) (size 9 to 14) (size 15 to 20)
#    0.000    1.429    4.286    2.571    2.000    1.143 
#    0.000    0.714    3.143    0.000    0.000    0.000 
#    0.000    0.000    0.000    0.000    0.000    0.000 
#
# Total GULP energy -346899.670027 kJ/mol
# GULP energy per Si atom -12389.273930 kJ/mol
# Density = 2.147053 g / cm^3
# Si number density = 21.519512 Si / 1000 Ang^3
#
#
#
# Elastic Constant Matrix: (Units=GPa)
#
#
# Indices 1 2 3 4 5 6 
#
# 1 116.9208 25.3303 27.1349 0.0000 3.3692 0.0000
# 2 25.3303 81.1276 0.4981 0.0000 -4.8446 0.0000
# 3 27.1349 0.4981 49.1449 0.0000 2.8938 0.0000
# 4 0.0000 0.0000 0.0000 22.5108 0.0000 -8.7232
# 5 3.3692 -4.8446 2.8938 0.0000 31.4942 0.0000
# 6 0.0000 0.0000 0.0000 -8.7232 0.0000 27.2600
#
#
#
# Elastic Compliance Matrix: (Units=1/GPa)
#
#
# Indices 1 2 3 4 5 6 
#
# 1 0.010655 -0.003358 -0.005783 0.000000 -0.001125 0.000000
# 2 -0.003358 0.013502 0.001583 0.000000 0.002291 0.000000
# 3 -0.005783 0.001583 0.023602 0.000000 -0.001307 0.000000
# 4 0.000000 0.000000 0.000000 0.050712 0.000000 0.016228
# 5 -0.001125 0.002291 -0.001307 0.000000 0.032345 0.000000
# 6 0.000000 0.000000 0.000000 0.016228 0.000000 0.041877
#
#
# Mechanical properties :
#
#
# Convention : Reuss Voigt Hill
#
# Bulk Modulus (GPa) = 30.63588 39.23554 34.93571
# Shear Modulus (GPa) = 25.16494 29.20165 27.18330
#
# Velocity S-wave (km/s) = 3.42336 3.68772 3.55800
# Velocity P-wave (km/s) = 5.46746 6.03362 5.75750
#
# Compressibility (1/GPa) = 0.03264146
#
# Stress axis : x y z
#
# Youngs Moduli (GPa) = 93.85397 74.06347 42.36979
#
# Poissons Ratio (x) = 0.24874 0.24501
# Poissons Ratio (y) = 0.31520 -0.06705
# Poissons Ratio (z) = 0.54273 -0.11721
#
# Static dielectric constant tensor:
#      x y z
#    x 4.058830 0.000000 -0.086860 
#    y 0.000000 3.869520 0.000000 
#    z -0.086860 0.000000 3.486190 
# 
# 
# High freq. dielectric constant tensor:
#      x y z
#    x 1.863660 0.000000 -0.015500 
#    y 0.000000 1.834370 0.000000 
#    z -0.015500 0.000000 1.808400 
# 
# From -- ./inp_files/16695.got.cif
#   From: 2010.03.12/outbox.cif.g09.slc.cpg/sg14_9_cif.got.tgz:16695.got - 2010.03.31 13:35:05.
