data_PCOD8124704
_publ_section_title
;
Structure prediction by ZEFSAII (Michael W. Deem and Ramdas Pophale) SiO2 
 PCOD8124704
Probable space group: P 21/C
;
_chemical_formula_sum "Si O2"
_cell_formula_units_Z 24
_cell_length_a 14.049921
_cell_length_b 8.310116
_cell_length_c 19.485131
_cell_angle_alpha 90.000000
_cell_angle_beta 151.273797
_cell_angle_gamma 90.000000
_cell_volume 1093.428240
_symmetry_space_group_name_H-M "P 21/C"
_symmetry_group_IT_number 14
_symmetry_cell_setting 'monoclinic'
loop_
_space_group_symop_operation_xyz
x,y,z
-x,1/2+y,1/2-z
-x,-y,-z
x,1/2-y,1/2+z
loop_
_atom_site_type_symbol
_atom_site_label
_atom_site_fract_x
_atom_site_fract_y
_atom_site_fract_z
Si Si1 0.252300 0.719674 0.248353
Si Si2 0.033912 0.833651 0.983773
Si Si3 0.328412 0.142274 0.804911
Si Si4 0.611358 0.859838 0.531452
Si Si5 0.770864 0.121988 0.037356
Si Si6 0.924072 0.391471 0.231292
O O1 0.245723 0.534751 0.266504
O O2 0.476289 0.791803 0.383652
O O3 0.143535 0.825933 0.237387
O O4 0.151286 0.720855 0.110524
O O5 0.170685 0.861809 0.004655
O O6 0.823925 0.752660 0.833562
O O7 0.000000 0.000000 0.000000
O O8 0.359936 0.210736 0.899999
O O9 0.535921 0.137682 0.895231
O O10 0.500000 0.000000 0.500000
O O11 0.816517 0.941380 0.638559
O O12 0.889020 0.264488 0.149911
O O13 0.846694 0.948382 0.115137
#
# Coordination Sequence:
#
# PCOD8124704 Si02
#       6
#     4   4   4   4   4   4
#     4  11  24  45  73 100 146 193 241 305 368 429
#     4  12  26  50  71 101 158 194 232 311 382 419
#     4  12  25  44  74 110 141 194 252 296 363 445
#     4  10  19  43  71  99 137 191 235 302 366 420
#     4  12  27  44  75 110 144 191 252 300 363 453
#     4  11  25  44  72 106 144 192 246 306 357 434
#
# _framework density 21.949314999999999
#
# number of rings (size 3 to 8) (size 9 to 14) (size 15 to 20)
#    0.000    0.667    6.667    2.000    4.667    1.333 
#    0.000    0.000    0.000    0.000    0.000    0.000 
#    0.000    0.000    0.000    0.000    0.000    0.000 
#
# Total GULP energy -297525.283778 kJ/mol
# GULP energy per Si atom -12396.886824 kJ/mol
# Density = 2.189936 g / cm^3
# Si number density = 21.949315 Si / 1000 Ang^3
#
#
#
# Elastic Constant Matrix: (Units=GPa)
#
#
# Indices 1 2 3 4 5 6 
#
# 1 83.4221 22.0613 38.5810 0.0000 -7.0189 0.0000
# 2 22.0613 91.6300 40.2811 0.0000 9.4763 0.0000
# 3 38.5810 40.2811 145.0401 0.0000 5.0032 0.0000
# 4 0.0000 0.0000 0.0000 46.5018 0.0000 -4.9068
# 5 -7.0189 9.4763 5.0032 0.0000 35.1388 0.0000
# 6 0.0000 0.0000 0.0000 -4.9068 0.0000 31.7356
#
#
#
# Elastic Compliance Matrix: (Units=1/GPa)
#
#
# Indices 1 2 3 4 5 6 
#
# 1 0.014509 -0.002452 -0.003318 0.000000 0.004032 0.000000
# 2 -0.002452 0.013141 -0.002872 0.000000 -0.003625 0.000000
# 3 -0.003318 -0.002872 0.008613 0.000000 -0.001114 0.000000
# 4 0.000000 0.000000 0.000000 0.021861 0.000000 0.003380
# 5 0.004032 -0.003625 -0.001114 0.000000 0.030400 0.000000
# 6 0.000000 0.000000 0.000000 0.003380 0.000000 0.032033
#
#
# Mechanical properties :
#
#
# Convention : Reuss Voigt Hill
#
# Bulk Modulus (GPa) = 52.68675 57.99324 55.33999
# Shear Modulus (GPa) = 34.68158 37.28649 35.98404
#
# Velocity S-wave (km/s) = 3.97933 4.12607 4.05336
# Velocity P-wave (km/s) = 6.72081 7.01270 6.86831
#
# Compressibility (1/GPa) = 0.01898011
#
# Stress axis : x y z
#
# Youngs Moduli (GPa) = 68.92182 76.09547 116.09905
#
# Poissons Ratio (x) = 0.18657 0.38517
# Poissons Ratio (y) = 0.16898 0.33349
# Poissons Ratio (z) = 0.22866 0.21858
#
# Static dielectric constant tensor:
#      x y z
#    x 3.772640 0.000000 0.068460 
#    y 0.000000 4.316070 0.000000 
#    z 0.068460 0.000000 4.645630 
# 
# 
# High freq. dielectric constant tensor:
#      x y z
#    x 1.840760 0.000000 0.007260 
#    y 0.000000 1.889540 0.000000 
#    z 0.007260 0.000000 1.877720 
# 
# From -- ./inp_files/68032.got.cif
#   From: 2010.03.12/outbox.cif.g09.slc.cpg/sg14_35_cif.got.tgz:68032.got - 2010.03.31 13:35:05.
