data_PCOD8124030
_publ_section_title
;
Structure prediction by ZEFSAII (Michael W. Deem and Ramdas Pophale) SiO2 
 PCOD8124030
Probable space group: P 21/C
;
_chemical_formula_sum "Si O2"
_cell_formula_units_Z 28
_cell_length_a 8.772599
_cell_length_b 26.061620
_cell_length_c 5.643583
_cell_angle_alpha 90.000000
_cell_angle_beta 68.334168
_cell_angle_gamma 90.000000
_cell_volume 1199.127222
_symmetry_space_group_name_H-M "P 21/C"
_symmetry_group_IT_number 14
_symmetry_cell_setting 'monoclinic'
loop_
_space_group_symop_operation_xyz
x,y,z
-x,1/2+y,1/2-z
-x,-y,-z
x,1/2-y,1/2+z
loop_
_atom_site_type_symbol
_atom_site_label
_atom_site_fract_x
_atom_site_fract_y
_atom_site_fract_z
Si Si1 0.943242 0.055038 0.944644
Si Si2 0.758670 0.551456 0.046650
Si Si3 0.519931 0.267780 0.038636
Si Si4 0.367491 0.958901 0.164164
Si Si5 0.560165 0.620280 0.840692
Si Si6 0.140517 0.122157 0.132387
Si Si7 0.850306 0.729790 0.212609
O O1 0.754044 0.056383 0.979571
O O2 0.066449 0.067408 0.659241
O O3 0.970512 0.100068 0.123016
O O4 0.000000 0.000000 0.000000
O O5 0.601571 0.576397 0.008007
O O6 0.735874 0.489653 0.073554
O O7 0.762053 0.574445 0.308198
O O8 0.606180 0.254360 0.246435
O O9 0.522693 0.329313 0.000850
O O10 0.342172 0.241552 0.167441
O O11 0.440417 0.905938 0.218210
O O12 0.500000 0.000000 0.000000
O O13 0.732164 0.641823 0.639452
O O14 0.110645 0.169004 0.328634
O O15 0.929105 0.748434 0.421102
#
# Coordination Sequence:
#
# PCOD8124030 Si02
#       7
#     4   4   4   4   4   4   4
#     4  11  24  42  61  88 128 170 215 262 323 391
#     4  11  22  40  62  88 129 169 208 262 325 387
#     4  10  19  34  59  90 127 160 212 274 322 375
#     4  12  23  41  61  90 131 168 214 264 319 394
#     4  11  22  35  60  96 121 162 216 267 321 383
#     4  11  21  37  64  90 122 167 211 265 320 383
#     4  10  19  33  59  94 125 158 216 273 316 374
#
# _framework density 23.350318000000001
#
# number of rings (size 3 to 8) (size 9 to 14) (size 15 to 20)
#    0.000    1.143    5.714    3.429    2.000    0.000 
#    0.000    0.000    0.000    1.714    0.000    0.000 
#    0.000    0.000    0.000    0.000    0.000    0.000 
#
# Total GULP energy -346961.237312 kJ/mol
# GULP energy per Si atom -12391.472761 kJ/mol
# Density = 2.329717 g / cm^3
# Si number density = 23.350318 Si / 1000 Ang^3
#
#
#
# Elastic Constant Matrix: (Units=GPa)
#
#
# Indices 1 2 3 4 5 6 
#
# 1 112.4863 34.0651 16.4765 0.0000 28.1414 0.0000
# 2 34.0651 115.1459 12.1290 0.0000 15.9380 0.0000
# 3 16.4765 12.1290 90.7075 0.0000 30.6134 0.0000
# 4 0.0000 0.0000 0.0000 31.2779 0.0000 18.3903
# 5 28.1414 15.9380 30.6134 0.0000 28.7546 0.0000
# 6 0.0000 0.0000 0.0000 18.3903 0.0000 29.4900
#
#
#
# Elastic Compliance Matrix: (Units=1/GPa)
#
#
# Indices 1 2 3 4 5 6 
#
# 1 0.012662 -0.002074 0.002765 0.000000 -0.014187 0.000000
# 2 -0.002074 0.009782 0.000333 0.000000 -0.003747 0.000000
# 3 0.002765 0.000333 0.017877 0.000000 -0.021923 0.000000
# 4 0.000000 0.000000 0.000000 0.050481 0.000000 -0.031481
# 5 -0.014187 -0.003747 -0.021923 0.000000 0.074078 0.000000
# 6 0.000000 0.000000 0.000000 -0.031481 0.000000 0.053542
#
#
# Mechanical properties :
#
#
# Convention : Reuss Voigt Hill
#
# Bulk Modulus (GPa) = 23.60147 49.29785 36.44966
# Shear Modulus (GPa) = 21.69249 34.94912 28.32080
#
# Velocity S-wave (km/s) = 3.05126 3.87296 3.48640
# Velocity P-wave (km/s) = 4.74796 6.41544 5.64362
#
# Compressibility (1/GPa) = 0.04237024
#
# Stress axis : x y z
#
# Youngs Moduli (GPa) = 78.97615 102.23215 55.93929
#
# Poissons Ratio (x) = 0.21199 -0.15468
# Poissons Ratio (y) = 0.16376 -0.01865
# Poissons Ratio (z) = -0.21838 -0.03408
#
# Static dielectric constant tensor:
#      x y z
#    x 3.949760 0.000000 0.294570 
#    y 0.000000 4.235910 0.000000 
#    z 0.294570 0.000000 4.762800 
# 
# 
# High freq. dielectric constant tensor:
#      x y z
#    x 1.879290 0.000000 0.030630 
#    y 0.000000 1.929160 0.000000 
#    z 0.030630 0.000000 1.923010 
# 
# From -- ./inp_files/1877.got.cif
#   From: 2010.03.12/outbox.cif.g09.slc.cpg/sg14_1_cif.got.tgz:1877.got - 2010.03.31 13:35:05.
