data_PCOD8124623
_publ_section_title
;
Structure prediction by ZEFSAII (Michael W. Deem and Ramdas Pophale) SiO2 
 PCOD8124623
Probable space group: P 21/C
;
_chemical_formula_sum "Si O2"
_cell_formula_units_Z 24
_cell_length_a 9.180698
_cell_length_b 15.914082
_cell_length_c 9.171316
_cell_angle_alpha 90.000000
_cell_angle_beta 107.139125
_cell_angle_gamma 90.000000
_cell_volume 1280.446559
_symmetry_space_group_name_H-M "P 21/C"
_symmetry_group_IT_number 14
_symmetry_cell_setting 'monoclinic'
loop_
_space_group_symop_operation_xyz
x,y,z
-x,1/2+y,1/2-z
-x,-y,-z
x,1/2-y,1/2+z
loop_
_atom_site_type_symbol
_atom_site_label
_atom_site_fract_x
_atom_site_fract_y
_atom_site_fract_z
Si Si1 0.785471 0.068167 0.482157
Si Si2 0.029365 0.508885 0.227831
Si Si3 0.718407 0.989860 0.994624
Si Si4 0.283602 0.436205 0.829751
Si Si5 0.466905 0.806368 0.657953
Si Si6 0.523617 0.141719 0.011513
O O1 0.691117 0.154429 0.449729
O O2 0.939698 0.071428 0.627964
O O3 0.834014 0.041178 0.334341
O O4 0.673360 0.997327 0.521164
O O5 0.105413 0.480146 0.402646
O O6 0.900351 0.581917 0.214521
O O7 0.691305 0.985478 0.814431
O O8 0.626923 0.915127 0.047023
O O9 0.668036 0.081634 0.034059
O O10 0.385029 0.352989 0.866008
O O11 0.477311 0.709831 0.617029
O O12 0.468568 0.810744 0.832346
#
# Coordination Sequence:
#
# PCOD8124623 Si02
#       6
#     4   4   4   4   4   4
#     4   9  19  34  58  84 112 149 182 233 278 336
#     4   9  18  35  60  83 112 149 185 228 279 348
#     4  10  19  40  57  85 111 153 190 230 287 339
#     4   9  20  33  62  85 107 149 184 234 280 337
#     4  11  21  39  53  88 112 145 197 230 285 330
#     4  10  24  35  60  81 118 148 188 242 278 335
#
# _framework density 18.743461
#
# number of rings (size 3 to 8) (size 9 to 14) (size 15 to 20)
#    1.000    1.333    1.667    1.000    2.333    1.333 
#    0.000    1.667    7.333    0.000    0.000    0.000 
#    0.000    0.000    0.000    0.000    0.000    0.000 
#
# Total GULP energy -297322.859903 kJ/mol
# GULP energy per Si atom -12388.452496 kJ/mol
# Density = 1.870080 g / cm^3
# Si number density = 18.743461 Si / 1000 Ang^3
#
#
#
# Elastic Constant Matrix: (Units=GPa)
#
#
# Indices 1 2 3 4 5 6 
#
# 1 85.8427 38.9948 35.5540 0.0000 0.0262 0.0000
# 2 38.9948 108.2031 45.3110 0.0000 -2.2670 0.0000
# 3 35.5540 45.3110 58.6900 0.0000 2.9622 0.0000
# 4 0.0000 0.0000 0.0000 22.3632 0.0000 -7.2853
# 5 0.0262 -2.2670 2.9622 0.0000 34.5910 0.0000
# 6 0.0000 0.0000 0.0000 -7.2853 0.0000 14.0082
#
#
#
# Elastic Compliance Matrix: (Units=1/GPa)
#
#
# Indices 1 2 3 4 5 6 
#
# 1 0.016012 -0.002494 -0.007799 0.000000 0.000492 0.000000
# 2 -0.002494 0.014159 -0.009508 0.000000 0.001744 0.000000
# 3 -0.007799 -0.009508 0.029262 0.000000 -0.003123 0.000000
# 4 0.000000 0.000000 0.000000 0.053838 0.000000 0.028000
# 5 0.000492 0.001744 -0.003123 0.000000 0.029291 0.000000
# 6 0.000000 0.000000 0.000000 0.028000 0.000000 0.085949
#
#
# Mechanical properties :
#
#
# Convention : Reuss Voigt Hill
#
# Bulk Modulus (GPa) = 50.43020 54.71726 52.57373
# Shear Modulus (GPa) = 18.20007 23.05090 20.62549
#
# Velocity S-wave (km/s) = 3.11948 3.51067 3.32084
# Velocity P-wave (km/s) = 6.31971 6.75938 6.54324
#
# Compressibility (1/GPa) = 0.01982939
#
# Stress axis : x y z
#
# Youngs Moduli (GPa) = 62.45155 70.62646 34.17413
#
# Poissons Ratio (x) = 0.17616 0.26654
# Poissons Ratio (y) = 0.15577 0.32494
# Poissons Ratio (z) = 0.48708 0.67154
#
# Static dielectric constant tensor:
#      x y z
#    x 3.552600 0.000000 -0.079320 
#    y 0.000000 2.997390 0.000000 
#    z -0.079320 0.000000 3.393230 
# 
# 
# High freq. dielectric constant tensor:
#      x y z
#    x 1.738060 0.000000 -0.005640 
#    y 0.000000 1.679890 0.000000 
#    z -0.005640 0.000000 1.737780 
# 
# From -- ./inp_files/25012.got.cif
#   From: 2010.03.12/outbox.cif.g09.slc.cpg/sg14_13_cif.got.tgz:25012.got - 2010.03.31 13:35:05.
