data_PCOD8124227
_publ_section_title
;
Structure prediction by ZEFSAII (Michael W. Deem and Ramdas Pophale) SiO2 
 PCOD8124227
Probable space group: P 21/C
;
_chemical_formula_sum "Si O2"
_cell_formula_units_Z 32
_cell_length_a 9.058367
_cell_length_b 14.751122
_cell_length_c 11.061512
_cell_angle_alpha 90.000000
_cell_angle_beta 92.008013
_cell_angle_gamma 90.000000
_cell_volume 1477.143526
_symmetry_space_group_name_H-M "P 21/C"
_symmetry_group_IT_number 14
_symmetry_cell_setting 'monoclinic'
loop_
_space_group_symop_operation_xyz
x,y,z
-x,1/2+y,1/2-z
-x,-y,-z
x,1/2-y,1/2+z
loop_
_atom_site_type_symbol
_atom_site_label
_atom_site_fract_x
_atom_site_fract_y
_atom_site_fract_z
Si Si1 0.798456 0.049337 0.212938
Si Si2 0.135873 0.393320 0.425730
Si Si3 0.057942 0.166721 0.187400
Si Si4 0.673402 0.436124 0.070526
Si Si5 0.875161 0.169175 0.753528
Si Si6 0.321008 0.236133 0.778089
Si Si7 0.357245 0.807001 0.663996
Si Si8 0.345230 0.418804 0.110886
O O1 0.812082 0.999686 0.082645
O O2 0.765661 0.967846 0.301827
O O3 0.672612 0.126841 0.220759
O O4 0.954633 0.095075 0.254101
O O5 0.102227 0.371626 0.560672
O O6 0.269269 0.330937 0.382290
O O7 0.985785 0.382010 0.345314
O O8 0.206726 0.180604 0.268516
O O9 0.967722 0.261226 0.172336
O O10 0.800861 0.406355 0.165600
O O11 0.518551 0.438926 0.137946
O O12 0.666597 0.364084 0.959429
O O13 0.699354 0.539958 0.022182
O O14 0.752879 0.221443 0.831378
O O15 0.477081 0.273413 0.823771
O O16 0.323739 0.187625 0.643761
#
# Coordination Sequence:
#
# PCOD8124227 Si02
#       8
#     4   4   4   4   4   4   4   4
#     4   9  20  40  57  78 119 152 190 245 285 345
#     4  10  21  38  58  82 117 157 192 244 290 350
#     4  10  21  38  60  82 117 157 196 234 298 353
#     4  10  19  35  61  87 117 155 189 242 299 345
#     4  10  20  37  59  89 115 155 197 243 289 352
#     4  10  21  37  57  89 117 148 195 248 289 352
#     4  10  20  36  60  85 118 151 194 244 296 348
#     4   9  19  37  58  84 119 146 190 246 292 337
#
# _framework density 21.663433000000001
#
# number of rings (size 3 to 8) (size 9 to 14) (size 15 to 20)
#    0.000    2.250    1.250    1.125    1.750    1.000 
#    6.750   11.875    0.000    0.000    0.000    0.000 
#    0.000    0.000    0.000    0.000    0.000    0.000 
#
# Total GULP energy -396420.752119 kJ/mol
# GULP energy per Si atom -12388.148504 kJ/mol
# Density = 2.161413 g / cm^3
# Si number density = 21.663433 Si / 1000 Ang^3
#
#
#
# Elastic Constant Matrix: (Units=GPa)
#
#
# Indices 1 2 3 4 5 6 
#
# 1 119.6512 21.6770 19.2149 0.0000 -7.9741 0.0000
# 2 21.6770 42.3374 10.8804 0.0000 0.4342 0.0000
# 3 19.2149 10.8804 33.6244 0.0000 -8.4732 0.0000
# 4 0.0000 0.0000 0.0000 20.3886 0.0000 -6.3744
# 5 -7.9741 0.4342 -8.4732 0.0000 26.0185 0.0000
# 6 0.0000 0.0000 0.0000 -6.3744 0.0000 31.7170
#
#
#
# Elastic Compliance Matrix: (Units=1/GPa)
#
#
# Indices 1 2 3 4 5 6 
#
# 1 0.009833 -0.004066 -0.003842 0.000000 0.001830 0.000000
# 2 -0.004066 0.027727 -0.007712 0.000000 -0.004220 0.000000
# 3 -0.003842 -0.007712 0.037222 0.000000 0.011073 0.000000
# 4 0.000000 0.000000 0.000000 0.052335 0.000000 0.010518
# 5 0.001830 -0.004220 0.011073 0.000000 0.042671 0.000000
# 6 0.000000 0.000000 0.000000 0.010518 0.000000 0.033643
#
#
# Mechanical properties :
#
#
# Convention : Reuss Voigt Hill
#
# Bulk Modulus (GPa) = 22.96679 33.23975 28.10327
# Shear Modulus (GPa) = 20.06534 25.21421 22.63978
#
# Velocity S-wave (km/s) = 3.04671 3.41531 3.23626
# Velocity P-wave (km/s) = 4.79596 5.56143 5.19282
#
# Compressibility (1/GPa) = 0.04354112
#
# Stress axis : x y z
#
# Youngs Moduli (GPa) = 101.69548 36.06620 26.86599
#
# Poissons Ratio (x) = 0.14665 0.10323
# Poissons Ratio (y) = 0.41349 0.20719
# Poissons Ratio (z) = 0.39075 0.27814
#
# Static dielectric constant tensor:
#      x y z
#    x 4.107690 0.000000 -0.496760 
#    y 0.000000 4.277750 0.000000 
#    z -0.496760 0.000000 3.653480 
# 
# 
# High freq. dielectric constant tensor:
#      x y z
#    x 1.862130 0.000000 -0.037510 
#    y 0.000000 1.859910 0.000000 
#    z -0.037510 0.000000 1.816490 
# 
# From -- ./inp_files/25501.got.cif
#   From: 2010.03.12/outbox.cif.g09.slc.cpg/sg14_13_cif.got.tgz:25501.got - 2010.03.31 13:35:05.
