data_PCOD8124757
_publ_section_title
;
Structure prediction by ZEFSAII (Michael W. Deem and Ramdas Pophale) SiO2 
 PCOD8124757
Probable space group: P 21/C
;
_chemical_formula_sum "Si O2"
_cell_formula_units_Z 24
_cell_length_a 10.671629
_cell_length_b 10.934477
_cell_length_c 15.012905
_cell_angle_alpha 90.000000
_cell_angle_beta 139.538671
_cell_angle_gamma 90.000000
_cell_volume 1136.827187
_symmetry_space_group_name_H-M "P 21/C"
_symmetry_group_IT_number 14
_symmetry_cell_setting 'monoclinic'
loop_
_space_group_symop_operation_xyz
x,y,z
-x,1/2+y,1/2-z
-x,-y,-z
x,1/2-y,1/2+z
loop_
_atom_site_type_symbol
_atom_site_label
_atom_site_fract_x
_atom_site_fract_y
_atom_site_fract_z
Si Si1 0.719928 0.947277 0.361826
Si Si2 0.295698 0.568901 0.677654
Si Si3 0.867549 0.640292 0.285978
Si Si4 0.078321 0.696930 0.037772
Si Si5 0.764150 0.456447 0.561569
Si Si6 0.622558 0.851677 0.115437
O O1 0.526851 0.915891 0.312610
O O2 0.690015 0.923037 0.240622
O O3 0.895917 0.861349 0.492922
O O4 0.770948 0.089461 0.404378
O O5 0.193942 0.696268 0.652836
O O6 0.242751 0.529944 0.548810
O O7 0.782643 0.538684 0.304382
O O8 0.686325 0.710126 0.144514
O O9 0.996741 0.743234 0.404039
O O10 0.015373 0.581457 0.293732
O O11 0.610696 0.355660 0.513996
O O12 0.714837 0.585382 0.579048
#
# Coordination Sequence:
#
# PCOD8124757 Si02
#       6
#     4   4   4   4   4   4
#     4   9  19  32  55  83 111 148 180 228 282 321
#     4  10  20  33  58  85 110 143 189 230 278 325
#     4  10  20  34  57  84 108 143 185 236 275 325
#     4   9  18  33  50  82 113 139 181 232 270 324
#     4   9  18  36  55  80 108 148 180 222 275 336
#     4   9  19  36  57  78 109 147 184 219 281 338
#
# _framework density 21.111388999999999
#
# number of rings (size 3 to 8) (size 9 to 14) (size 15 to 20)
#    0.000    2.667    0.000    2.000    9.333    0.000 
#    6.000    0.000    0.000    1.000    0.000    0.000 
#    0.000    0.000    0.000    0.000    0.000    0.000 
#
# Total GULP energy -297400.056589 kJ/mol
# GULP energy per Si atom -12391.669025 kJ/mol
# Density = 2.106334 g / cm^3
# Si number density = 21.111389 Si / 1000 Ang^3
#
#
#
# Elastic Constant Matrix: (Units=GPa)
#
#
# Indices 1 2 3 4 5 6 
#
# 1 127.5971 76.2308 43.7261 0.0000 37.8270 0.0000
# 2 76.2308 148.0104 47.3878 0.0000 23.0143 0.0000
# 3 43.7261 47.3878 47.0989 0.0000 30.0141 0.0000
# 4 0.0000 0.0000 0.0000 38.6933 0.0000 14.5855
# 5 37.8270 23.0143 30.0141 0.0000 29.1066 0.0000
# 6 0.0000 0.0000 0.0000 14.5855 0.0000 13.2872
#
#
#
# Elastic Compliance Matrix: (Units=1/GPa)
#
#
# Indices 1 2 3 4 5 6 
#
# 1 0.016464 -0.006818 0.005175 0.000000 -0.021342 0.000000
# 2 -0.006818 0.013332 -0.017537 0.000000 0.016402 0.000000
# 3 0.005175 -0.017537 0.086098 0.000000 -0.081643 0.000000
# 4 0.000000 0.000000 0.000000 0.044087 0.000000 -0.048394
# 5 -0.021342 0.016402 -0.081643 0.000000 0.133312 0.000000
# 6 0.000000 0.000000 0.000000 -0.048394 0.000000 0.128383
#
#
# Mechanical properties :
#
#
# Convention : Reuss Voigt Hill
#
# Bulk Modulus (GPa) = 12.89721 73.04399 42.97060
# Shear Modulus (GPa) = 10.29062 26.57488 18.43275
#
# Velocity S-wave (km/s) = 2.21021 3.55180 2.95806
# Velocity P-wave (km/s) = 3.55468 7.17599 5.66262
#
# Compressibility (1/GPa) = 0.07753615
#
# Stress axis : x y z
#
# Youngs Moduli (GPa) = 60.73845 75.00790 11.61462
#
# Poissons Ratio (x) = 0.51140 -0.06011
# Poissons Ratio (y) = 0.41411 0.20368
# Poissons Ratio (z) = -0.31435 1.31538
#
# Static dielectric constant tensor:
#      x y z
#    x 3.841960 0.000000 0.664220 
#    y 0.000000 3.991410 0.000000 
#    z 0.664220 0.000000 4.027840 
# 
# 
# High freq. dielectric constant tensor:
#      x y z
#    x 1.815210 0.000000 0.044220 
#    y 0.000000 1.827490 0.000000 
#    z 0.044220 0.000000 1.806790 
# 
# From -- ./inp_files/31236.got.cif
#   From: 2010.03.12/outbox.cif.g09.slc.cpg/sg14_16_cif.got.tgz:31236.got - 2010.03.31 13:35:05.
