data_PCOD8124560
_publ_section_title
;
Structure prediction by ZEFSAII (Michael W. Deem and Ramdas Pophale) SiO2 
 PCOD8124560
Probable space group: P 21/C
;
_chemical_formula_sum "Si O2"
_cell_formula_units_Z 28
_cell_length_a 8.325291
_cell_length_b 12.308257
_cell_length_c 23.187269
_cell_angle_alpha 90.000000
_cell_angle_beta 144.524317
_cell_angle_gamma 90.000000
_cell_volume 1378.926420
_symmetry_space_group_name_H-M "P 21/C"
_symmetry_group_IT_number 14
_symmetry_cell_setting 'monoclinic'
loop_
_space_group_symop_operation_xyz
x,y,z
-x,1/2+y,1/2-z
-x,-y,-z
x,1/2-y,1/2+z
loop_
_atom_site_type_symbol
_atom_site_label
_atom_site_fract_x
_atom_site_fract_y
_atom_site_fract_z
Si Si1 0.624195 0.967117 0.450615
Si Si2 0.039304 0.243486 0.730702
Si Si3 0.406663 0.280496 0.556337
Si Si4 0.395942 0.646775 0.270510
Si Si5 0.648626 0.942968 0.729853
Si Si6 0.053841 0.528768 0.849829
Si Si7 0.018083 0.840681 0.160578
O O1 0.711158 0.841516 0.475143
O O2 0.311911 0.983294 0.382303
O O3 0.620475 0.015089 0.384638
O O4 0.843063 0.030814 0.553827
O O5 0.238761 0.339430 0.770993
O O6 0.099177 0.207828 0.813937
O O7 0.723592 0.279903 0.628605
O O8 0.104918 0.141240 0.708357
O O9 0.387459 0.335554 0.613801
O O10 0.224729 0.346903 0.457496
O O11 0.557403 0.587985 0.266950
O O12 0.146917 0.571911 0.221095
O O13 0.270001 0.762808 0.213514
O O14 0.876697 0.037374 0.799723
#
# Coordination Sequence:
#
# PCOD8124560 Si02
#       7
#     4   4   4   4   4   4   4
#     4  10  19  38  69  92 115 163 228 254 303 362
#     4  10  24  40  65  97 124 160 221 263 309 370
#     4  10  21  41  67  90 123 170 209 266 311 369
#     4  11  24  41  62  89 138 162 207 260 325 372
#     4  12  25  41  64  96 131 169 204 261 323 386
#     4  10  20  39  67  92 122 165 209 270 303 371
#     4  11  23  44  66  90 129 166 213 265 312 368
#
# _framework density 20.305651000000001
#
# number of rings (size 3 to 8) (size 9 to 14) (size 15 to 20)
#    0.000    1.429    5.714    1.714    6.000    1.714 
#    2.571    0.000    0.000    0.000    0.000    0.000 
#    0.000    0.000    0.000    0.000    0.000    0.000 
#
# Total GULP energy -347246.117717 kJ/mol
# GULP energy per Si atom -12401.647061 kJ/mol
# Density = 2.025943 g / cm^3
# Si number density = 20.305651 Si / 1000 Ang^3
#
#
#
# Elastic Constant Matrix: (Units=GPa)
#
#
# Indices 1 2 3 4 5 6 
#
# 1 61.1810 35.6242 25.5672 0.0000 -22.9069 0.0000
# 2 35.6242 106.0458 32.0228 0.0000 -17.1813 0.0000
# 3 25.5672 32.0228 153.3650 0.0000 -34.1563 0.0000
# 4 0.0000 0.0000 0.0000 30.3154 0.0000 -10.4369
# 5 -22.9069 -17.1813 -34.1563 0.0000 23.2547 0.0000
# 6 0.0000 0.0000 0.0000 -10.4369 0.0000 30.7156
#
#
#
# Elastic Compliance Matrix: (Units=1/GPa)
#
#
# Indices 1 2 3 4 5 6 
#
# 1 0.029409 -0.006088 0.002703 0.000000 0.028441 0.000000
# 2 -0.006088 0.012024 -0.001267 0.000000 0.001026 0.000000
# 3 0.002703 -0.001267 0.009985 0.000000 0.016392 0.000000
# 4 0.000000 0.000000 0.000000 0.037357 0.000000 0.012693
# 5 0.028441 0.001026 0.016392 0.000000 0.095851 0.000000
# 6 0.000000 0.000000 0.000000 0.012693 0.000000 0.036870
#
#
# Mechanical properties :
#
#
# Convention : Reuss Voigt Hill
#
# Bulk Modulus (GPa) = 23.74564 56.33557 40.04061
# Shear Modulus (GPa) = 20.42167 32.01564 26.21866
#
# Velocity S-wave (km/s) = 3.17474 3.97506 3.59723
# Velocity P-wave (km/s) = 5.01579 6.99086 6.08401
#
# Compressibility (1/GPa) = 0.04211299
#
# Stress axis : x y z
#
# Youngs Moduli (GPa) = 34.00345 83.16872 100.14862
#
# Poissons Ratio (x) = 0.50629 -0.27065
# Poissons Ratio (y) = 0.20700 0.12692
# Poissons Ratio (z) = -0.09189 0.10540
#
# Static dielectric constant tensor:
#      x y z
#    x 3.375800 0.000000 -0.216920 
#    y 0.000000 3.849890 0.000000 
#    z -0.216920 0.000000 3.763460 
# 
# 
# High freq. dielectric constant tensor:
#      x y z
#    x 1.762930 0.000000 -0.019580 
#    y 0.000000 1.802570 0.000000 
#    z -0.019580 0.000000 1.799900 
# 
# From -- ./inp_files/65630.got.cif
#   From: 2010.03.12/outbox.cif.g09.slc.cpg/sg14_33_cif.got.tgz:65630.got - 2010.03.31 13:35:05.
