data_PCOD8124649
_publ_section_title
;
Structure prediction by ZEFSAII (Michael W. Deem and Ramdas Pophale) SiO2 
 PCOD8124649
Probable space group: P 21/C
;
_chemical_formula_sum "Si O2"
_cell_formula_units_Z 28
_cell_length_a 9.148878
_cell_length_b 13.754890
_cell_length_c 11.598509
_cell_angle_alpha 90.000000
_cell_angle_beta 77.358865
_cell_angle_gamma 90.000000
_cell_volume 1424.197065
_symmetry_space_group_name_H-M "P 21/C"
_symmetry_group_IT_number 14
_symmetry_cell_setting 'monoclinic'
loop_
_space_group_symop_operation_xyz
x,y,z
-x,1/2+y,1/2-z
-x,-y,-z
x,1/2-y,1/2+z
loop_
_atom_site_type_symbol
_atom_site_label
_atom_site_fract_x
_atom_site_fract_y
_atom_site_fract_z
Si Si1 0.021410 0.248429 0.958753
Si Si2 0.326919 0.410893 0.306791
Si Si3 0.695115 0.690461 0.213440
Si Si4 0.014752 0.566146 0.676655
Si Si5 0.436159 0.017420 0.384551
Si Si6 0.788019 0.889300 0.931741
Si Si7 0.885854 0.428239 0.081664
O O1 0.131568 0.308596 0.855424
O O2 0.940478 0.160978 0.905291
O O3 0.122450 0.207579 0.046216
O O4 0.895536 0.320668 0.026390
O O5 0.365711 0.299931 0.263764
O O6 0.164911 0.443788 0.287070
O O7 0.450901 0.479900 0.232161
O O8 0.326027 0.419704 0.446078
O O9 0.594400 0.631049 0.138209
O O10 0.690241 0.633375 0.335797
O O11 0.088915 0.472860 0.605513
O O12 0.078036 0.579303 0.791597
O O13 0.500000 0.000000 0.500000
O O14 0.282633 0.960019 0.404735
O O15 0.000000 0.500000 0.000000
#
# Coordination Sequence:
#
# PCOD8124649 Si02
#       7
#     4   4   4   4   4   4   4
#     4  10  20  36  66  93 122 159 204 259 305 368
#     4  10  24  39  64  95 124 168 200 257 314 372
#     4  10  21  41  64  87 124 174 200 250 315 373
#     4  10  20  40  66  93 122 157 214 251 309 368
#     4  12  26  43  60  92 128 165 213 253 311 371
#     4  10  19  40  68  91 123 161 211 248 314 372
#     4  12  22  40  65  90 121 164 211 256 306 365
#
# _framework density 19.6602
#
# number of rings (size 3 to 8) (size 9 to 14) (size 15 to 20)
#    0.000    1.714    2.857    4.286    4.000    0.571 
#    7.714    0.000    0.000    0.000    0.000    0.000 
#    0.000    0.000    0.000    0.000    0.000    0.000 
#
# Total GULP energy -347198.853675 kJ/mol
# GULP energy per Si atom -12399.959060 kJ/mol
# Density = 1.961545 g / cm^3
# Si number density = 19.660200 Si / 1000 Ang^3
#
#
#
# Elastic Constant Matrix: (Units=GPa)
#
#
# Indices 1 2 3 4 5 6 
#
# 1 75.7760 35.4598 45.8543 0.0000 -0.6432 0.0000
# 2 35.4598 96.6289 40.4831 0.0000 -12.2151 0.0000
# 3 45.8543 40.4831 107.8397 0.0000 11.1747 0.0000
# 4 0.0000 0.0000 0.0000 31.4879 0.0000 -1.8467
# 5 -0.6432 -12.2151 11.1747 0.0000 41.9767 0.0000
# 6 0.0000 0.0000 0.0000 -1.8467 0.0000 23.7528
#
#
#
# Elastic Compliance Matrix: (Units=1/GPa)
#
#
# Indices 1 2 3 4 5 6 
#
# 1 0.019190 -0.004123 -0.006703 0.000000 0.000879 0.000000
# 2 -0.004123 0.014249 -0.004133 0.000000 0.005183 0.000000
# 3 -0.006703 -0.004133 0.014202 0.000000 -0.005086 0.000000
# 4 0.000000 0.000000 0.000000 0.031904 0.000000 0.002480
# 5 0.000879 0.005183 -0.005086 0.000000 0.026699 0.000000
# 6 0.000000 0.000000 0.000000 0.002480 0.000000 0.042293
#
#
# Mechanical properties :
#
#
# Convention : Reuss Voigt Hill
#
# Bulk Modulus (GPa) = 56.42525 58.20433 57.31479
# Shear Modulus (GPa) = 27.12079 30.00663 28.56371
#
# Velocity S-wave (km/s) = 3.71816 3.91098 3.81579
# Velocity P-wave (km/s) = 6.86990 7.07558 6.97350
#
# Compressibility (1/GPa) = 0.01772256
#
# Stress axis : x y z
#
# Youngs Moduli (GPa) = 52.11134 70.18246 70.41366
#
# Poissons Ratio (x) = 0.28934 0.47198
# Poissons Ratio (y) = 0.21484 0.29102
# Poissons Ratio (z) = 0.34930 0.29007
#
# Static dielectric constant tensor:
#      x y z
#    x 4.865530 0.000000 -2.162000 
#    y 0.000000 3.459550 0.000000 
#    z -2.162000 0.000000 7.278880 
# 
# 
# High freq. dielectric constant tensor:
#      x y z
#    x 1.739230 0.000000 0.005830 
#    y 0.000000 1.776890 0.000000 
#    z 0.005830 0.000000 1.783650 
# 
# From -- ./inp_files/24884.got.cif
#   From: 2010.03.12/outbox.cif.g09.slc.cpg/sg14_13_cif.got.tgz:24884.got - 2010.03.31 13:35:05.
