data_PCOD8124684
_publ_section_title
;
Structure prediction by ZEFSAII (Michael W. Deem and Ramdas Pophale) SiO2 
 PCOD8124684
Probable space group: P 21/C
;
_chemical_formula_sum "Si O2"
_cell_formula_units_Z 28
_cell_length_a 10.903975
_cell_length_b 9.298689
_cell_length_c 18.734692
_cell_angle_alpha 90.000000
_cell_angle_beta 136.775418
_cell_angle_gamma 90.000000
_cell_volume 1300.932611
_symmetry_space_group_name_H-M "P 21/C"
_symmetry_group_IT_number 14
_symmetry_cell_setting 'monoclinic'
loop_
_space_group_symop_operation_xyz
x,y,z
-x,1/2+y,1/2-z
-x,-y,-z
x,1/2-y,1/2+z
loop_
_atom_site_type_symbol
_atom_site_label
_atom_site_fract_x
_atom_site_fract_y
_atom_site_fract_z
Si Si1 0.168021 0.206043 0.200671
Si Si2 0.032979 0.451280 0.231242
Si Si3 0.799059 0.945873 0.401472
Si Si4 0.663397 0.600500 0.090180
Si Si5 0.722196 0.341352 0.756662
Si Si6 0.665279 0.755911 0.954735
Si Si7 0.997725 0.085503 0.877188
O O1 0.031754 0.295518 0.192899
O O2 0.230283 0.307469 0.162791
O O3 0.327052 0.148983 0.322050
O O4 0.066698 0.070026 0.122469
O O5 0.178880 0.554532 0.256882
O O6 0.837661 0.514423 0.140280
O O7 0.078624 0.430548 0.332762
O O8 0.702636 0.900373 0.433962
O O9 0.704275 0.083454 0.326284
O O10 0.000000 0.000000 0.500000
O O11 0.500000 0.500000 0.000000
O O12 0.653582 0.739498 0.035239
O O13 0.519507 0.321796 0.648014
O O14 0.827684 0.191853 0.807301
O O15 0.835227 0.856713 0.005202
#
# Coordination Sequence:
#
# PCOD8124684 Si02
#       7
#     4   4   4   4   4   4   4
#     4  10  22  40  67  98 132 177 226 272 337 415
#     4  10  19  42  62  92 140 176 213 276 343 400
#     4  11  24  49  68  89 138 187 225 277 349 402
#     4  11  22  39  68 100 134 178 221 279 345 406
#     4  11  24  42  67  97 134 180 225 283 333 412
#     4  12  23  41  69  98 130 177 225 279 338 401
#     4  11  20  40  66  97 132 171 223 284 328 396
#
# _framework density 21.523022000000001
#
# number of rings (size 3 to 8) (size 9 to 14) (size 15 to 20)
#    0.000    1.143    4.286    3.429    0.000    3.429 
#    7.714    0.000    0.000    0.000    0.000    0.000 
#    0.000    0.000    0.000    0.000    0.000    0.000 
#
# Total GULP energy -347026.279659 kJ/mol
# GULP energy per Si atom -12393.795702 kJ/mol
# Density = 2.147403 g / cm^3
# Si number density = 21.523022 Si / 1000 Ang^3
#
#
#
# Elastic Constant Matrix: (Units=GPa)
#
#
# Indices 1 2 3 4 5 6 
#
# 1 43.8576 13.4103 28.9225 0.0000 0.8682 0.0000
# 2 13.4103 115.2807 43.0388 0.0000 7.6403 0.0000
# 3 28.9225 43.0388 148.0408 0.0000 31.8741 0.0000
# 4 0.0000 0.0000 0.0000 49.2456 0.0000 -0.6135
# 5 0.8682 7.6403 31.8741 0.0000 28.6442 0.0000
# 6 0.0000 0.0000 0.0000 -0.6135 0.0000 22.7221
#
#
#
# Elastic Compliance Matrix: (Units=1/GPa)
#
#
# Indices 1 2 3 4 5 6 
#
# 1 0.027261 -0.001222 -0.006395 0.000000 0.006616 0.000000
# 2 -0.001222 0.009797 -0.002702 0.000000 0.000431 0.000000
# 3 -0.006395 -0.002702 0.011300 0.000000 -0.011660 0.000000
# 4 0.000000 0.000000 0.000000 0.020313 0.000000 0.000548
# 5 0.006616 0.000431 -0.011660 0.000000 0.047570 0.000000
# 6 0.000000 0.000000 0.000000 0.000548 0.000000 0.044025
#
#
# Mechanical properties :
#
#
# Convention : Reuss Voigt Hill
#
# Bulk Modulus (GPa) = 36.07561 53.10247 44.58904
# Shear Modulus (GPa) = 26.29569 34.90957 30.60263
#
# Velocity S-wave (km/s) = 3.49914 4.03173 3.77484
# Velocity P-wave (km/s) = 5.75527 6.81169 6.30564
#
# Compressibility (1/GPa) = 0.02771956
#
# Stress axis : x y z
#
# Youngs Moduli (GPa) = 36.68233 102.07290 88.49314
#
# Poissons Ratio (x) = 0.12475 0.56592
# Poissons Ratio (y) = 0.04483 0.23912
# Poissons Ratio (z) = 0.23459 0.27582
#
# Static dielectric constant tensor:
#      x y z
#    x 3.873350 0.000000 -0.125420 
#    y 0.000000 4.193270 0.000000 
#    z -0.125420 0.000000 3.979440 
# 
# 
# High freq. dielectric constant tensor:
#      x y z
#    x 1.829190 0.000000 -0.010760 
#    y 0.000000 1.855900 0.000000 
#    z -0.010760 0.000000 1.850120 
# 
# From -- ./inp_files/67075.got.cif
#   From: 2010.03.12/outbox.cif.g09.slc.cpg/sg14_34_cif.got.tgz:67075.got - 2010.03.31 13:35:05.
