data_PCOD8124470
_publ_section_title
;
Structure prediction by ZEFSAII (Michael W. Deem and Ramdas Pophale) SiO2 
 PCOD8124470
Probable space group: P 21/C
;
_chemical_formula_sum "Si O2"
_cell_formula_units_Z 24
_cell_length_a 13.188858
_cell_length_b 8.277078
_cell_length_c 9.172379
_cell_angle_alpha 90.000000
_cell_angle_beta 97.299361
_cell_angle_gamma 90.000000
_cell_volume 993.189933
_symmetry_space_group_name_H-M "P 21/C"
_symmetry_group_IT_number 14
_symmetry_cell_setting 'monoclinic'
loop_
_space_group_symop_operation_xyz
x,y,z
-x,1/2+y,1/2-z
-x,-y,-z
x,1/2-y,1/2+z
loop_
_atom_site_type_symbol
_atom_site_label
_atom_site_fract_x
_atom_site_fract_y
_atom_site_fract_z
Si Si1 0.571894 0.893491 0.618055
Si Si2 0.574214 0.372307 0.370150
Si Si3 0.956490 0.414012 0.349236
Si Si4 0.209258 0.996433 0.386804
Si Si5 0.301477 0.670831 0.337243
Si Si6 0.110963 0.546516 0.158321
O O1 0.535058 0.709069 0.613996
O O2 0.500000 0.000000 0.500000
O O3 0.560067 0.963967 0.778655
O O4 0.691014 0.889353 0.593465
O O5 0.638511 0.242588 0.289204
O O6 0.625479 0.418171 0.533682
O O7 0.851944 0.504689 0.278537
O O8 0.935403 0.225590 0.372052
O O9 0.000000 0.500000 0.500000
O O10 0.036653 0.427615 0.231741
O O11 0.246907 0.813389 0.417936
O O12 0.131590 0.036561 0.504997
O O13 0.217402 0.546053 0.265430
#
# Coordination Sequence:
#
# PCOD8124470 Si02
#       6
#     4   4   4   4   4   4
#     4  11  22  41  66  96 132 171 221 271 319 386
#     4  11  21  39  67  95 129 173 222 265 320 385
#     4  11  24  39  67  98 128 166 224 273 324 393
#     4  10  21  39  65  88 131 173 213 254 331 386
#     4  10  19  37  66  95 121 175 228 250 317 401
#     4  11  22  42  68  96 127 173 218 272 327 390
#
# _framework density 24.164560999999999
#
# number of rings (size 3 to 8) (size 9 to 14) (size 15 to 20)
#    0.000    1.333    5.000    2.500    4.667    0.667 
#    0.000    5.000    0.000    0.000    0.000    0.000 
#    0.000    0.000    0.000    0.000    0.000    0.000 
#
# Total GULP energy -297593.036297 kJ/mol
# GULP energy per Si atom -12399.709846 kJ/mol
# Density = 2.410956 g / cm^3
# Si number density = 24.164561 Si / 1000 Ang^3
#
#
#
# Elastic Constant Matrix: (Units=GPa)
#
#
# Indices 1 2 3 4 5 6 
#
# 1 133.9373 33.3816 59.5487 0.0000 6.1516 0.0000
# 2 33.3816 35.8355 29.6551 0.0000 3.4352 0.0000
# 3 59.5487 29.6551 150.7078 0.0000 17.4608 0.0000
# 4 0.0000 0.0000 0.0000 27.8934 0.0000 -6.8380
# 5 6.1516 3.4352 17.4608 0.0000 60.0776 0.0000
# 6 0.0000 0.0000 0.0000 -6.8380 0.0000 18.8672
#
#
#
# Elastic Compliance Matrix: (Units=1/GPa)
#
#
# Indices 1 2 3 4 5 6 
#
# 1 0.010554 -0.007621 -0.002686 0.000000 0.000136 0.000000
# 2 -0.007621 0.038837 -0.004619 0.000000 -0.000098 0.000000
# 3 -0.002686 -0.004619 0.008841 0.000000 -0.002030 0.000000
# 4 0.000000 0.000000 0.000000 0.039347 0.000000 0.014260
# 5 0.000136 -0.000098 -0.002030 0.000000 0.017227 0.000000
# 6 0.000000 0.000000 0.000000 0.014260 0.000000 0.058170
#
#
# Mechanical properties :
#
#
# Convention : Reuss Voigt Hill
#
# Bulk Modulus (GPa) = 35.23864 62.85015 49.04439
# Shear Modulus (GPa) = 23.55295 34.56064 29.05680
#
# Velocity S-wave (km/s) = 3.12539 3.78593 3.47141
# Velocity P-wave (km/s) = 5.25723 6.72136 6.03387
#
# Compressibility (1/GPa) = 0.02837794
#
# Stress axis : x y z
#
# Youngs Moduli (GPa) = 94.75406 25.74894 113.11053
#
# Poissons Ratio (x) = 0.19624 0.30383
# Poissons Ratio (y) = 0.72213 0.52250
# Poissons Ratio (z) = 0.25452 0.11894
#
# Static dielectric constant tensor:
#      x y z
#    x 4.854910 0.000000 0.123880 
#    y 0.000000 3.803280 0.000000 
#    z 0.123880 0.000000 4.496430 
# 
# 
# High freq. dielectric constant tensor:
#      x y z
#    x 1.979150 0.000000 0.007430 
#    y 0.000000 1.911820 0.000000 
#    z 0.007430 0.000000 1.974970 
# 
# From -- ./inp_files/12443.got.cif
#   From: 2010.03.12/outbox.cif.g09.slc.cpg/sg14_7_cif.got.tgz:12443.got - 2010.03.31 13:35:05.
