data_PCOD8124271
_publ_section_title
;
Structure prediction by ZEFSAII (Michael W. Deem and Ramdas Pophale) SiO2 
 PCOD8124271
Probable space group: P 21/C
;
_chemical_formula_sum "Si O2"
_cell_formula_units_Z 28
_cell_length_a 12.186071
_cell_length_b 8.169766
_cell_length_c 14.231014
_cell_angle_alpha 90.000000
_cell_angle_beta 111.542682
_cell_angle_gamma 90.000000
_cell_volume 1317.830307
_symmetry_space_group_name_H-M "P 21/C"
_symmetry_group_IT_number 14
_symmetry_cell_setting 'monoclinic'
loop_
_space_group_symop_operation_xyz
x,y,z
-x,1/2+y,1/2-z
-x,-y,-z
x,1/2-y,1/2+z
loop_
_atom_site_type_symbol
_atom_site_label
_atom_site_fract_x
_atom_site_fract_y
_atom_site_fract_z
Si Si1 0.024940 0.819149 0.887555
Si Si2 0.860912 0.756275 0.679238
Si Si3 0.354376 0.468225 0.884671
Si Si4 0.735468 0.073908 0.106644
Si Si5 0.582766 0.210610 0.437804
Si Si6 0.681950 0.255424 0.266135
Si Si7 0.950278 0.309400 0.395728
O O1 0.153322 0.805302 0.878339
O O2 0.925978 0.717556 0.798723
O O3 0.028187 0.745790 0.992305
O O4 0.992524 0.008899 0.885693
O O5 0.780211 0.913764 0.667095
O O6 0.778161 0.612303 0.612413
O O7 0.966994 0.806702 0.642009
O O8 0.441184 0.310520 0.904173
O O9 0.381599 0.593711 0.807731
O O10 0.363926 0.555706 0.989073
O O11 0.684811 0.102822 0.195106
O O12 0.632812 0.119253 0.998130
O O13 0.610961 0.203651 0.336229
O O14 0.813306 0.301938 0.334115
#
# Coordination Sequence:
#
# PCOD8124271 Si02
#       7
#     4   4   4   4   4   4   4
#     4  10  19  36  56  90 127 159 203 246 313 366
#     4  11  22  37  61  95 128 161 208 255 314 372
#     4  10  24  43  65  87 126 170 201 263 310 369
#     4  10  22  36  61  93 124 165 205 265 305 365
#     4  10  23  44  63  87 121 168 214 253 314 366
#     4  11  20  40  65  87 122 163 209 254 315 370
#     4  10  20  34  61  89 120 168 197 249 310 371
#
# _framework density 21.247046000000001
#
# number of rings (size 3 to 8) (size 9 to 14) (size 15 to 20)
#    0.000    1.714    4.286    0.000    0.000    2.857 
#    0.000    7.143    0.000    0.000    0.000    0.000 
#    0.000    0.000    0.000    0.000    0.000    0.000 
#
# Total GULP energy -347057.962667 kJ/mol
# GULP energy per Si atom -12394.927238 kJ/mol
# Density = 2.119869 g / cm^3
# Si number density = 21.247046 Si / 1000 Ang^3
#
#
#
# Elastic Constant Matrix: (Units=GPa)
#
#
# Indices 1 2 3 4 5 6 
#
# 1 76.3537 19.6755 45.4660 0.0000 -3.4192 0.0000
# 2 19.6755 35.4780 13.2450 0.0000 -4.9627 0.0000
# 3 45.4660 13.2450 127.0712 0.0000 -20.7408 0.0000
# 4 0.0000 0.0000 0.0000 23.3902 0.0000 4.1628
# 5 -3.4192 -4.9627 -20.7408 0.0000 39.1925 0.0000
# 6 0.0000 0.0000 0.0000 4.1628 0.0000 26.4863
#
#
#
# Elastic Compliance Matrix: (Units=1/GPa)
#
#
# Indices 1 2 3 4 5 6 
#
# 1 0.018949 -0.008529 -0.006345 0.000000 -0.002785 0.000000
# 2 -0.008529 0.033357 0.000156 0.000000 0.003562 0.000000
# 3 -0.006345 0.000156 0.010985 0.000000 0.005280 0.000000
# 4 0.000000 0.000000 0.000000 0.043983 0.000000 -0.006913
# 5 -0.002785 0.003562 0.005280 0.000000 0.028517 0.000000
# 6 0.000000 0.000000 0.000000 -0.006913 0.000000 0.038842
#
#
# Mechanical properties :
#
#
# Convention : Reuss Voigt Hill
#
# Bulk Modulus (GPa) = 29.53839 43.96399 36.75119
# Shear Modulus (GPa) = 23.21761 28.51490 25.86626
#
# Velocity S-wave (km/s) = 3.30926 3.66739 3.49292
# Velocity P-wave (km/s) = 5.34173 6.21850 5.79672
#
# Compressibility (1/GPa) = 0.03385425
#
# Stress axis : x y z
#
# Youngs Moduli (GPa) = 52.77457 29.97909 91.02977
#
# Poissons Ratio (x) = 0.25570 0.57761
# Poissons Ratio (y) = 0.45012 -0.01423
# Poissons Ratio (z) = 0.33487 -0.00469
#
# Static dielectric constant tensor:
#      x y z
#    x 4.010530 0.000000 -0.019650 
#    y 0.000000 3.404300 0.000000 
#    z -0.019650 0.000000 4.062020 
# 
# 
# High freq. dielectric constant tensor:
#      x y z
#    x 1.836810 0.000000 0.002980 
#    y 0.000000 1.801030 0.000000 
#    z 0.002980 0.000000 1.844750 
# 
# From -- ./inp_files/43463.got.cif
#   From: 2010.03.12/outbox.cif.g09.slc.cpg/sg14_22_cif.got.tgz:43463.got - 2010.03.31 13:35:05.
