data_PCOD8124786
_publ_section_title
;
Structure prediction by ZEFSAII (Michael W. Deem and Ramdas Pophale) SiO2 
 PCOD8124786
Probable space group: P 21/C
;
_chemical_formula_sum "Si O2"
_cell_formula_units_Z 28
_cell_length_a 8.813047
_cell_length_b 9.220338
_cell_length_c 29.596630
_cell_angle_alpha 90.000000
_cell_angle_beta 142.654068
_cell_angle_gamma 90.000000
_cell_volume 1458.935681
_symmetry_space_group_name_H-M "P 21/C"
_symmetry_group_IT_number 14
_symmetry_cell_setting 'monoclinic'
loop_
_space_group_symop_operation_xyz
x,y,z
-x,1/2+y,1/2-z
-x,-y,-z
x,1/2-y,1/2+z
loop_
_atom_site_type_symbol
_atom_site_label
_atom_site_fract_x
_atom_site_fract_y
_atom_site_fract_z
Si Si1 0.491680 0.871621 0.190567
Si Si2 0.932644 0.668511 0.284577
Si Si3 0.590715 0.424573 0.226695
Si Si4 0.179726 0.571816 0.885344
Si Si5 0.799779 0.132866 0.415490
Si Si6 0.207277 0.622425 0.258273
Si Si7 0.284293 0.523337 0.011848
O O1 0.703971 0.772834 0.217368
O O2 0.516706 0.874500 0.250697
O O3 0.237192 0.791429 0.115875
O O4 0.530768 0.032066 0.179266
O O5 0.822679 0.535436 0.287951
O O6 0.125038 0.762935 0.358825
O O7 0.060602 0.605732 0.270140
O O8 0.367713 0.502037 0.145959
O O9 0.713001 0.287026 0.230779
O O10 0.212833 0.585571 0.946502
O O11 0.965980 0.453009 0.821744
O O12 0.433295 0.531756 0.920001
O O13 0.093362 0.105785 0.478478
O O14 0.739859 0.144429 0.454733
#
# Coordination Sequence:
#
# PCOD8124786 Si02
#       7
#     4   4   4   4   4   4   4
#     4  10  20  34  54  82 111 137 179 232 277 323
#     4  10  20  34  54  82 111 137 179 232 277 323
#     4  11  20  34  59  85 112 140 178 239 288 324
#     4  10  20  36  55  82 107 144 188 219 275 327
#     4  10  20  36  55  82 107 144 188 219 275 327
#     4  11  20  34  59  85 112 140 178 239 288 324
#     4  10  20  34  58  76 110 152 186 222 254 342
#
# _framework density 19.192072
#
# number of rings (size 3 to 8) (size 9 to 14) (size 15 to 20)
#    0.000    1.714    0.000    8.571    0.000    0.000 
#    0.000    0.000    0.000   29.143    0.000    0.000 
#    0.000    0.000    0.000    0.000    0.000    0.000 
#
# Total GULP energy -347020.744278 kJ/mol
# GULP energy per Si atom -12393.598010 kJ/mol
# Density = 1.914839 g / cm^3
# Si number density = 19.192072 Si / 1000 Ang^3
#
#
#
# Elastic Constant Matrix: (Units=GPa)
#
#
# Indices 1 2 3 4 5 6 
#
# 1 82.0420 12.6985 5.2572 0.0000 -4.9079 0.0000
# 2 12.6985 98.9812 28.5600 0.0000 5.9383 0.0000
# 3 5.2572 28.5600 46.8382 0.0000 3.0555 0.0000
# 4 0.0000 0.0000 0.0000 15.0549 0.0000 1.0664
# 5 -4.9079 5.9383 3.0555 0.0000 22.1526 0.0000
# 6 0.0000 0.0000 0.0000 1.0664 0.0000 26.8245
#
#
#
# Elastic Compliance Matrix: (Units=1/GPa)
#
#
# Indices 1 2 3 4 5 6 
#
# 1 0.012684 -0.001643 -0.000640 0.000000 0.003339 0.000000
# 2 -0.001643 0.012588 -0.007313 0.000000 -0.002730 0.000000
# 3 -0.000640 -0.007313 0.025996 0.000000 -0.001767 0.000000
# 4 0.000000 0.000000 0.000000 0.066611 0.000000 -0.002648
# 5 0.003339 -0.002730 -0.001767 0.000000 0.046857 0.000000
# 6 0.000000 0.000000 0.000000 -0.002648 0.000000 0.037385
#
#
# Mechanical properties :
#
#
# Convention : Reuss Voigt Hill
#
# Bulk Modulus (GPa) = 31.17534 35.65477 33.41505
# Shear Modulus (GPa) = 21.55142 24.89611 23.22377
#
# Velocity S-wave (km/s) = 3.35465 3.60559 3.48238
# Velocity P-wave (km/s) = 5.59322 5.99599 5.79810
#
# Compressibility (1/GPa) = 0.03207664
#
# Stress axis : x y z
#
# Youngs Moduli (GPa) = 78.84012 79.44370 38.46709
#
# Poissons Ratio (x) = 0.13052 0.02461
# Poissons Ratio (y) = 0.12953 0.28131
# Poissons Ratio (z) = 0.05043 0.58096
#
# Static dielectric constant tensor:
#      x y z
#    x 3.744530 0.000000 0.093040 
#    y 0.000000 3.608570 0.000000 
#    z 0.093040 0.000000 3.517340 
# 
# 
# High freq. dielectric constant tensor:
#      x y z
#    x 1.772410 0.000000 0.000540 
#    y 0.000000 1.734280 0.000000 
#    z 0.000540 0.000000 1.725460 
# 
# From -- ./inp_files/17605.got.cif
#   From: 2010.03.12/outbox.cif.g09.slc.cpg/sg14_9_cif.got.tgz:17605.got - 2010.03.31 13:35:05.
