data_PCOD8124491
_publ_section_title
;
Structure prediction by ZEFSAII (Michael W. Deem and Ramdas Pophale) SiO2 
 PCOD8124491
Probable space group: P 21/C
;
_chemical_formula_sum "Si O2"
_cell_formula_units_Z 28
_cell_length_a 11.201933
_cell_length_b 9.433987
_cell_length_c 17.482461
_cell_angle_alpha 90.000000
_cell_angle_beta 119.859947
_cell_angle_gamma 90.000000
_cell_volume 1602.258636
_symmetry_space_group_name_H-M "P 21/C"
_symmetry_group_IT_number 14
_symmetry_cell_setting 'monoclinic'
loop_
_space_group_symop_operation_xyz
x,y,z
-x,1/2+y,1/2-z
-x,-y,-z
x,1/2-y,1/2+z
loop_
_atom_site_type_symbol
_atom_site_label
_atom_site_fract_x
_atom_site_fract_y
_atom_site_fract_z
Si Si1 0.675722 0.215626 0.732577
Si Si2 0.486355 0.213819 0.444478
Si Si3 0.707715 0.467898 0.103678
Si Si4 0.864875 0.330526 0.910870
Si Si5 0.400292 0.180898 0.070181
Si Si6 0.164120 0.095019 0.493469
Si Si7 0.341504 0.884175 0.114107
O O1 0.786445 0.326392 0.803378
O O2 0.541788 0.298640 0.661161
O O3 0.627701 0.107487 0.784987
O O4 0.752833 0.129898 0.689280
O O5 0.365740 0.105472 0.382924
O O6 0.433494 0.326957 0.490578
O O7 0.532850 0.300291 0.385214
O O8 0.608927 0.120236 0.517044
O O9 0.832785 0.518688 0.089157
O O10 0.801651 0.204104 0.943733
O O11 0.027956 0.307201 0.952061
O O12 0.837949 0.482671 0.939001
O O13 0.324408 0.038565 0.072447
O O14 0.299595 0.312884 0.051901
#
# Coordination Sequence:
#
# PCOD8124491 Si02
#       7
#     4   4   4   4   4   4   4
#     4   9  21  31  54  84 110 137 178 229 284 304
#     4   9  17  31  54  82 104 138 183 212 269 328
#     4   9  16  32  58  75 104 144 175 224 265 325
#     4   9  21  34  58  78 105 145 182 230 257 330
#     4  10  21  32  57  81 110 143 177 229 272 324
#     4  10  19  38  59  76 105 149 196 206 267 338
#     4  10  20  32  53  80 116 133 175 233 271 317
#
# _framework density 17.47533
#
# number of rings (size 3 to 8) (size 9 to 14) (size 15 to 20)
#    0.857    1.714    1.429    1.286    4.000    0.571 
#    0.000    0.000   18.857    0.000    0.000    0.000 
#    0.000    0.000    0.000    0.000    0.000    0.000 
#
# Total GULP energy -346953.121461 kJ/mol
# GULP energy per Si atom -12391.182909 kJ/mol
# Density = 1.743556 g / cm^3
# Si number density = 17.475330 Si / 1000 Ang^3
#
#
#
# Elastic Constant Matrix: (Units=GPa)
#
#
# Indices 1 2 3 4 5 6 
#
# 1 78.5667 32.2080 36.5667 0.0000 -1.6955 0.0000
# 2 32.2080 75.8777 30.9634 0.0000 -0.8535 0.0000
# 3 36.5667 30.9634 78.2964 0.0000 -1.9128 0.0000
# 4 0.0000 0.0000 0.0000 22.3676 0.0000 -1.4429
# 5 -1.6955 -0.8535 -1.9128 0.0000 26.0498 0.0000
# 6 0.0000 0.0000 0.0000 -1.4429 0.0000 23.1165
#
#
#
# Elastic Compliance Matrix: (Units=1/GPa)
#
#
# Indices 1 2 3 4 5 6 
#
# 1 0.017694 -0.004934 -0.006299 0.000000 0.000527 0.000000
# 2 -0.004934 0.017091 -0.004457 0.000000 -0.000088 0.000000
# 3 -0.006299 -0.004457 0.017494 0.000000 0.000729 0.000000
# 4 0.000000 0.000000 0.000000 0.044888 0.000000 0.002802
# 5 0.000527 -0.000088 0.000729 0.000000 0.038473 0.000000
# 6 0.000000 0.000000 0.000000 0.002802 0.000000 0.043434
#
#
# Mechanical properties :
#
#
# Convention : Reuss Voigt Hill
#
# Bulk Modulus (GPa) = 47.84946 48.02412 47.93679
# Shear Modulus (GPa) = 22.99680 23.17363 23.08521
#
# Velocity S-wave (km/s) = 3.63155 3.64548 3.63852
# Velocity P-wave (km/s) = 6.71005 6.72757 6.71881
#
# Compressibility (1/GPa) = 0.02089888
#
# Stress axis : x y z
#
# Youngs Moduli (GPa) = 56.51619 58.50979 57.16150
#
# Poissons Ratio (x) = 0.28869 0.36009
# Poissons Ratio (y) = 0.27886 0.25475
# Poissons Ratio (z) = 0.35602 0.26076
#
# Static dielectric constant tensor:
#      x y z
#    x 3.362550 0.000000 -0.234900 
#    y 0.000000 3.143620 0.000000 
#    z -0.234900 0.000000 3.043340 
# 
# 
# High freq. dielectric constant tensor:
#      x y z
#    x 1.672840 0.000000 -0.022580 
#    y 0.000000 1.668100 0.000000 
#    z -0.022580 0.000000 1.653770 
# 
# From -- ./inp_files/56849.got.cif
#   From: 2010.03.12/outbox.cif.g09.slc.cpg/sg14_29_cif.got.tgz:56849.got - 2010.03.31 13:35:05.
