data_PCOD8124627
_publ_section_title
;
Structure prediction by ZEFSAII (Michael W. Deem and Ramdas Pophale) SiO2 
 PCOD8124627
Probable space group: P 21/C
;
_chemical_formula_sum "Si O2"
_cell_formula_units_Z 32
_cell_length_a 21.739578
_cell_length_b 9.777174
_cell_length_c 14.165618
_cell_angle_alpha 90.000000
_cell_angle_beta 148.236589
_cell_angle_gamma 90.000000
_cell_volume 1584.990059
_symmetry_space_group_name_H-M "P 21/C"
_symmetry_group_IT_number 14
_symmetry_cell_setting 'monoclinic'
loop_
_space_group_symop_operation_xyz
x,y,z
-x,1/2+y,1/2-z
-x,-y,-z
x,1/2-y,1/2+z
loop_
_atom_site_type_symbol
_atom_site_label
_atom_site_fract_x
_atom_site_fract_y
_atom_site_fract_z
Si Si1 0.085072 0.202335 0.743327
Si Si2 0.379259 0.657667 0.899316
Si Si3 0.290170 0.208665 0.869302
Si Si4 0.903690 0.112661 0.243153
Si Si5 0.120857 0.892342 0.006090
Si Si6 0.496776 0.604017 0.859130
Si Si7 0.112473 0.203269 0.994675
Si Si8 0.331925 0.903565 0.966245
O O1 0.194851 0.243610 0.823896
O O2 0.122233 0.240107 0.897807
O O3 0.971768 0.290248 0.566365
O O4 0.054314 0.043376 0.690814
O O5 0.243628 0.620304 0.718252
O O6 0.432048 0.671729 0.863936
O O7 0.392868 0.800302 0.972773
O O8 0.448497 0.542577 0.046525
O O9 0.239291 0.261466 0.703085
O O10 0.321283 0.049477 0.901507
O O11 0.405131 0.291314 0.047122
O O12 0.796691 0.148732 0.172280
O O13 0.013495 0.205514 0.416685
O O14 0.864487 0.144327 0.085042
O O15 0.075698 0.046405 0.960846
O O16 0.406198 0.579475 0.657682
#
# Coordination Sequence:
#
# PCOD8124627 Si02
#       8
#     4   4   4   4   4   4   4   4
#     4   9  22  37  63  91 126 161 197 256 308 369
#     4  11  24  40  70  88 118 173 204 255 304 367
#     4  11  24  40  65  92 123 165 201 255 313 364
#     4   9  20  39  62  91 127 162 196 257 310 363
#     4  10  19  40  61  92 124 162 209 243 308 368
#     4  11  24  46  63  89 124 163 215 254 304 361
#     4  10  21  38  60  92 127 160 201 252 306 370
#     4  11  24  41  64  94 124 159 210 258 304 367
#
# _framework density 20.189402000000001
#
# number of rings (size 3 to 8) (size 9 to 14) (size 15 to 20)
#    0.000    1.750    2.500    0.750    3.500    4.000 
#    0.000    1.250    0.000    0.000    0.000    0.000 
#    0.000    0.000    0.000    0.000    0.000    0.000 
#
# Total GULP energy -396960.816062 kJ/mol
# GULP energy per Si atom -12405.025502 kJ/mol
# Density = 2.014345 g / cm^3
# Si number density = 20.189402 Si / 1000 Ang^3
#
#
#
# Elastic Constant Matrix: (Units=GPa)
#
#
# Indices 1 2 3 4 5 6 
#
# 1 84.4732 52.3304 30.7021 0.0000 13.5376 0.0000
# 2 52.3304 93.2547 38.8244 0.0000 9.5331 0.0000
# 3 30.7021 38.8244 84.6216 0.0000 6.7788 0.0000
# 4 0.0000 0.0000 0.0000 32.9642 0.0000 4.8419
# 5 13.5376 9.5331 6.7788 0.0000 28.3668 0.0000
# 6 0.0000 0.0000 0.0000 4.8419 0.0000 34.6359
#
#
#
# Elastic Compliance Matrix: (Units=1/GPa)
#
#
# Indices 1 2 3 4 5 6 
#
# 1 0.019341 -0.009332 -0.002291 0.000000 -0.005546 0.000000
# 2 -0.009332 0.018024 -0.004848 0.000000 -0.000445 0.000000
# 3 -0.002291 -0.004848 0.014941 0.000000 -0.000848 0.000000
# 4 0.000000 0.000000 0.000000 0.030972 0.000000 -0.004330
# 5 -0.005546 -0.000445 -0.000848 0.000000 0.038251 0.000000
# 6 0.000000 0.000000 0.000000 -0.004330 0.000000 0.029477
#
#
# Mechanical properties :
#
#
# Convention : Reuss Voigt Hill
#
# Bulk Modulus (GPa) = 51.64539 56.22926 53.93732
# Shear Modulus (GPa) = 26.26002 28.55955 27.40979
#
# Velocity S-wave (km/s) = 3.61041 3.76517 3.68860
# Velocity P-wave (km/s) = 6.55866 6.84203 6.70184
#
# Compressibility (1/GPa) = 0.01936281
#
# Stress axis : x y z
#
# Youngs Moduli (GPa) = 51.70357 55.48140 66.93121
#
# Poissons Ratio (x) = 0.51778 0.15335
# Poissons Ratio (y) = 0.48252 0.32447
# Poissons Ratio (z) = 0.11846 0.26896
#
# Static dielectric constant tensor:
#      x y z
#    x 3.652340 0.000000 0.036360 
#    y 0.000000 3.652610 0.000000 
#    z 0.036360 0.000000 3.748910 
# 
# 
# High freq. dielectric constant tensor:
#      x y z
#    x 1.785010 0.000000 -0.001980 
#    y 0.000000 1.789800 0.000000 
#    z -0.001980 0.000000 1.798990 
# 
# From -- ./inp_files/43771.got.cif
#   From: 2010.03.12/outbox.cif.g09.slc.cpg/sg14_22_cif.got.tgz:43771.got - 2010.03.31 13:35:05.
