data_PCOD8124258
_publ_section_title
;
Structure prediction by ZEFSAII (Michael W. Deem and Ramdas Pophale) SiO2 
 PCOD8124258
Probable space group: P 21/C
;
_chemical_formula_sum "Si O2"
_cell_formula_units_Z 24
_cell_length_a 11.312426
_cell_length_b 9.438396
_cell_length_c 23.003817
_cell_angle_alpha 90.000000
_cell_angle_beta 33.342096
_cell_angle_gamma 90.000000
_cell_volume 1349.987080
_symmetry_space_group_name_H-M "P 21/C"
_symmetry_group_IT_number 14
_symmetry_cell_setting 'monoclinic'
loop_
_space_group_symop_operation_xyz
x,y,z
-x,1/2+y,1/2-z
-x,-y,-z
x,1/2-y,1/2+z
loop_
_atom_site_type_symbol
_atom_site_label
_atom_site_fract_x
_atom_site_fract_y
_atom_site_fract_z
Si Si1 0.300487 0.033357 0.424125
Si Si2 0.805238 0.461205 0.157308
Si Si3 0.813666 0.073848 0.335388
Si Si4 0.508320 0.162086 0.559312
Si Si5 0.370859 0.738354 0.683285
Si Si6 0.712242 0.557698 0.314250
O O1 0.333080 0.999082 0.342710
O O2 0.411579 0.907776 0.414041
O O3 0.403614 0.184729 0.397635
O O4 0.053847 0.045909 0.540938
O O5 0.735849 0.307104 0.211246
O O6 0.762953 0.580441 0.224456
O O7 0.699040 0.162306 0.433848
O O8 0.788211 0.155424 0.284988
O O9 0.064572 0.054019 0.242693
O O10 0.701367 0.919536 0.378924
O O11 0.446251 0.323672 0.596796
O O12 0.405695 0.595559 0.630137
#
# Coordination Sequence:
#
# PCOD8124258 Si02
#       6
#     4   4   4   4   4   4
#     4  10  19  39  59  76 109 152 182 224 275 333
#     4   9  21  36  58  78 108 147 188 219 277 326
#     4  10  19  36  53  82 112 150 180 217 277 335
#     4  10  20  33  59  78 111 147 185 219 274 332
#     4   9  21  34  57  83 109 146 182 231 270 322
#     4  10  20  34  53  85 108 140 184 229 263 324
#
# _framework density 17.777947000000001
#
# number of rings (size 3 to 8) (size 9 to 14) (size 15 to 20)
#    1.000    1.333    1.667    1.000    2.333    0.667 
#    0.000    3.333    0.000    3.000    0.000    0.000 
#    0.000    0.000    0.000    0.000    0.000    0.000 
#
# Total GULP energy -297453.496898 kJ/mol
# GULP energy per Si atom -12393.895704 kJ/mol
# Density = 1.773748 g / cm^3
# Si number density = 17.777947 Si / 1000 Ang^3
#
#
#
# Elastic Constant Matrix: (Units=GPa)
#
#
# Indices 1 2 3 4 5 6 
#
# 1 107.2297 34.3070 25.9113 0.0000 -3.6538 0.0000
# 2 34.3070 89.6593 21.0899 0.0000 -6.7082 0.0000
# 3 25.9113 21.0899 33.6481 0.0000 -0.9963 0.0000
# 4 0.0000 0.0000 0.0000 30.8197 0.0000 5.4648
# 5 -3.6538 -6.7082 -0.9963 0.0000 27.4903 0.0000
# 6 0.0000 0.0000 0.0000 5.4648 0.0000 25.7760
#
#
#
# Elastic Compliance Matrix: (Units=1/GPa)
#
#
# Indices 1 2 3 4 5 6 
#
# 1 0.012059 -0.002798 -0.007513 0.000000 0.000648 0.000000
# 2 -0.002798 0.013966 -0.006516 0.000000 0.002800 0.000000
# 3 -0.007513 -0.006516 0.039554 0.000000 -0.001155 0.000000
# 4 0.000000 0.000000 0.000000 0.033714 0.000000 -0.007148
# 5 0.000648 0.002800 -0.001155 0.000000 0.037104 0.000000
# 6 0.000000 0.000000 0.000000 -0.007148 0.000000 0.040311
#
#
# Mechanical properties :
#
#
# Convention : Reuss Voigt Hill
#
# Bulk Modulus (GPa) = 31.32318 43.68374 37.50346
# Shear Modulus (GPa) = 22.62397 26.76580 24.69489
#
# Velocity S-wave (km/s) = 3.57120 3.88437 3.73107
# Velocity P-wave (km/s) = 5.88745 6.68902 6.30099
#
# Compressibility (1/GPa) = 0.03192524
#
# Stress axis : x y z
#
# Youngs Moduli (GPa) = 82.92862 71.60095 25.28158
#
# Poissons Ratio (x) = 0.20037 0.18993
# Poissons Ratio (y) = 0.23207 0.16473
# Poissons Ratio (z) = 0.62302 0.46654
#
# Static dielectric constant tensor:
#      x y z
#    x 3.572160 0.000000 0.127000 
#    y 0.000000 3.155860 0.000000 
#    z 0.127000 0.000000 3.054270 
# 
# 
# High freq. dielectric constant tensor:
#      x y z
#    x 1.701140 0.000000 0.003010 
#    y 0.000000 1.676220 0.000000 
#    z 0.003010 0.000000 1.670850 
# 
# From -- ./inp_files/42849.got.cif
#   From: 2010.03.12/outbox.cif.g09.slc.cpg/sg14_22_cif.got.tgz:42849.got - 2010.03.31 13:35:05.
