data_PCOD8124210
_publ_section_title
;
Structure prediction by ZEFSAII (Michael W. Deem and Ramdas Pophale) SiO2 
 PCOD8124210
Probable space group: P 21/C
;
_chemical_formula_sum "Si O2"
_cell_formula_units_Z 20
_cell_length_a 9.603601
_cell_length_b 7.527959
_cell_length_c 16.652531
_cell_angle_alpha 90.000000
_cell_angle_beta 49.963499
_cell_angle_gamma 90.000000
_cell_volume 921.750251
_symmetry_space_group_name_H-M "P 21/C"
_symmetry_group_IT_number 14
_symmetry_cell_setting 'monoclinic'
loop_
_space_group_symop_operation_xyz
x,y,z
-x,1/2+y,1/2-z
-x,-y,-z
x,1/2-y,1/2+z
loop_
_atom_site_type_symbol
_atom_site_label
_atom_site_fract_x
_atom_site_fract_y
_atom_site_fract_z
Si Si1 0.275302 0.694914 0.093813
Si Si2 0.106081 0.186239 0.335071
Si Si3 0.377833 0.163926 0.622551
Si Si4 0.355413 0.470294 0.297413
Si Si5 0.706904 0.342827 0.237172
O O1 0.291599 0.481850 0.094886
O O2 0.247142 0.788405 0.189346
O O3 0.103087 0.733502 0.101045
O O4 0.456465 0.767497 0.982021
O O5 0.218457 0.199993 0.208316
O O6 0.186752 0.331327 0.368413
O O7 0.142271 0.983944 0.350741
O O8 0.451502 0.060119 0.674671
O O9 0.507017 0.435804 0.309033
O O10 0.286287 0.673945 0.325675
#
# Coordination Sequence:
#
# PCOD8124210 Si02
#       5
#     4   4   4   4   4
#     4  10  19  35  60  83 113 148 184 233 278 326
#     4  10  20  35  59  80 112 147 188 224 277 331
#     4   8  19  36  55  83 117 139 191 227 277 335
#     4   9  19  36  55  79 114 146 187 224 282 331
#     4  11  19  34  61  80 109 154 183 229 281 327
#
# _framework density 21.697851
#
# number of rings (size 3 to 8) (size 9 to 14) (size 15 to 20)
#    1.200    1.200    2.000    1.200    0.000    0.800 
#    0.000    1.000    4.400    2.400    0.000    0.000 
#    0.000    0.000    0.000    0.000    0.000    0.000 
#
# Total GULP energy -247831.722693 kJ/mol
# GULP energy per Si atom -12391.586135 kJ/mol
# Density = 2.164847 g / cm^3
# Si number density = 21.697851 Si / 1000 Ang^3
#
#
#
# Elastic Constant Matrix: (Units=GPa)
#
#
# Indices 1 2 3 4 5 6 
#
# 1 72.6016 7.9432 -2.8349 0.0000 -28.1855 0.0000
# 2 7.9432 111.7296 1.1221 0.0000 -7.1112 0.0000
# 3 -2.8349 1.1221 47.4103 0.0000 -18.1088 0.0000
# 4 0.0000 0.0000 0.0000 15.9836 0.0000 -6.8687
# 5 -28.1855 -7.1112 -18.1088 0.0000 24.2878 0.0000
# 6 0.0000 0.0000 0.0000 -6.8687 0.0000 30.3914
#
#
#
# Elastic Compliance Matrix: (Units=1/GPa)
#
#
# Indices 1 2 3 4 5 6 
#
# 1 0.043438 0.001293 0.030712 0.000000 0.073686 0.000000
# 2 0.001293 0.009202 0.002044 0.000000 0.005719 0.000000
# 3 0.030712 0.002044 0.051344 0.000000 0.074521 0.000000
# 4 0.000000 0.000000 0.000000 0.069294 0.000000 0.015661
# 5 0.073686 0.005719 0.074521 0.000000 0.183921 0.000000
# 6 0.000000 0.000000 0.000000 0.015661 0.000000 0.036444
#
#
# Mechanical properties :
#
#
# Convention : Reuss Voigt Hill
#
# Bulk Modulus (GPa) = 5.81119 27.13361 16.47240
# Shear Modulus (GPa) = 13.05806 29.16663 21.11235
#
# Velocity S-wave (km/s) = 2.45585 3.67033 3.12270
# Velocity P-wave (km/s) = 3.27500 5.52215 4.53981
#
# Compressibility (1/GPa) = 0.17208189
#
# Stress axis : x y z
#
# Youngs Moduli (GPa) = 23.02135 108.67566 19.47633
#
# Poissons Ratio (x) = -0.14054 -0.59815
# Poissons Ratio (y) = -0.02977 -0.03981
# Poissons Ratio (z) = -0.70703 -0.22212
#
# Static dielectric constant tensor:
#      x y z
#    x 3.632560 0.000000 -0.127520 
#    y 0.000000 3.961560 0.000000 
#    z -0.127520 0.000000 3.364510 
# 
# 
# High freq. dielectric constant tensor:
#      x y z
#    x 1.839970 0.000000 -0.019640 
#    y 0.000000 1.855190 0.000000 
#    z -0.019640 0.000000 1.801940 
# 
# From -- ./inp_files/46212.got.cif
#   From: 2010.03.12/outbox.cif.g09.slc.cpg/sg14_24_cif.got.tgz:46212.got - 2010.03.31 13:35:05.
