data_PCOD8124267
_publ_section_title
;
Structure prediction by ZEFSAII (Michael W. Deem and Ramdas Pophale) SiO2 
 PCOD8124267
Probable space group: P 21/C
;
_chemical_formula_sum "Si O2"
_cell_formula_units_Z 32
_cell_length_a 8.330950
_cell_length_b 9.125872
_cell_length_c 22.345174
_cell_angle_alpha 90.000000
_cell_angle_beta 85.145511
_cell_angle_gamma 90.000000
_cell_volume 1692.746610
_symmetry_space_group_name_H-M "P 21/C"
_symmetry_group_IT_number 14
_symmetry_cell_setting 'monoclinic'
loop_
_space_group_symop_operation_xyz
x,y,z
-x,1/2+y,1/2-z
-x,-y,-z
x,1/2-y,1/2+z
loop_
_atom_site_type_symbol
_atom_site_label
_atom_site_fract_x
_atom_site_fract_y
_atom_site_fract_z
Si Si1 0.706236 0.769976 0.241600
Si Si2 0.220971 0.204570 0.072130
Si Si3 0.774859 0.029867 0.159800
Si Si4 0.479471 0.758569 0.361856
Si Si5 0.004210 0.779784 0.314742
Si Si6 0.959538 0.430849 0.438725
Si Si7 0.073358 0.141141 0.466373
Si Si8 0.245018 0.013866 0.347062
O O1 0.574341 0.753566 0.296763
O O2 0.679871 0.631304 0.200073
O O3 0.886843 0.779848 0.261846
O O4 0.678777 0.917861 0.205086
O O5 0.400893 0.245301 0.085755
O O6 0.090884 0.279221 0.119701
O O7 0.192032 0.270469 0.007215
O O8 0.194650 0.026364 0.078689
O O9 0.643077 0.123702 0.128011
O O10 0.882089 0.138659 0.196778
O O11 0.888091 0.944027 0.110135
O O12 0.385245 0.911002 0.368606
O O13 0.112852 0.924971 0.312936
O O14 0.931653 0.255742 0.449415
O O15 0.000000 0.500000 0.500000
O O16 0.171557 0.095577 0.405701
O O17 0.000000 0.000000 0.500000
#
# Coordination Sequence:
#
# PCOD8124267 Si02
#       8
#     4   4   4   4   4   4   4   4
#     4  11  20  36  56  81 115 145 196 236 271 338
#     4   9  19  38  57  82 115 151 184 229 280 344
#     4  10  19  36  56  80 110 150 187 226 280 338
#     4  10  23  37  55  79 120 157 182 223 290 343
#     4   9  19  34  57  84 110 148 188 237 285 327
#     4   9  19  36  61  81 104 142 190 230 272 328
#     4  11  20  36  63  87 113 139 188 244 286 327
#     4  11  21  36  59  88 113 151 188 235 295 333
#
# _framework density 18.904185999999999
#
# number of rings (size 3 to 8) (size 9 to 14) (size 15 to 20)
#    0.000    2.000    2.500    1.500    1.750    0.500 
#    0.000    3.750    0.000    0.000    0.000    0.000 
#    0.000    0.000    0.000    0.000    0.000    0.000 
#
# Total GULP energy -396704.076718 kJ/mol
# GULP energy per Si atom -12397.002397 kJ/mol
# Density = 1.886116 g / cm^3
# Si number density = 18.904186 Si / 1000 Ang^3
#
#
#
# Elastic Constant Matrix: (Units=GPa)
#
#
# Indices 1 2 3 4 5 6 
#
# 1 66.8221 38.0847 2.0980 0.0000 19.2722 0.0000
# 2 38.0847 140.2797 31.8520 0.0000 8.1048 0.0000
# 3 2.0980 31.8520 60.5531 0.0000 3.9565 0.0000
# 4 0.0000 0.0000 0.0000 29.2381 0.0000 -4.8229
# 5 19.2722 8.1048 3.9565 0.0000 23.8292 0.0000
# 6 0.0000 0.0000 0.0000 -4.8229 0.0000 22.5751
#
#
#
# Elastic Compliance Matrix: (Units=1/GPa)
#
#
# Indices 1 2 3 4 5 6 
#
# 1 0.023379 -0.006150 0.003563 0.000000 -0.017408 0.000000
# 2 -0.006150 0.009816 -0.005112 0.000000 0.002485 0.000000
# 3 0.003563 -0.005112 0.019365 0.000000 -0.004358 0.000000
# 4 0.000000 0.000000 0.000000 0.035451 0.000000 0.007574
# 5 -0.017408 0.002485 -0.004358 0.000000 0.055923 0.000000
# 6 0.000000 0.000000 0.000000 0.007574 0.000000 0.045915
#
#
# Mechanical properties :
#
#
# Convention : Reuss Voigt Hill
#
# Bulk Modulus (GPa) = 26.91114 45.74716 36.32915
# Shear Modulus (GPa) = 22.97421 28.16984 25.57202
#
# Velocity S-wave (km/s) = 3.48989 3.86442 3.68192
# Velocity P-wave (km/s) = 5.52319 6.64557 6.11021
#
# Compressibility (1/GPa) = 0.03715934
#
# Stress axis : x y z
#
# Youngs Moduli (GPa) = 42.77297 101.87758 51.63964
#
# Poissons Ratio (x) = 0.62659 -0.18397
# Poissons Ratio (y) = 0.26307 0.26401
# Poissons Ratio (z) = -0.15238 0.52085
#
# Static dielectric constant tensor:
#      x y z
#    x 3.440100 0.000000 -0.015560 
#    y 0.000000 3.926990 0.000000 
#    z -0.015560 0.000000 3.458170 
# 
# 
# High freq. dielectric constant tensor:
#      x y z
#    x 1.712160 0.000000 -0.004650 
#    y 0.000000 1.750420 0.000000 
#    z -0.004650 0.000000 1.736480 
# 
# From -- ./inp_files/64832.got.cif
#   From: 2010.03.12/outbox.cif.g09.slc.cpg/sg14_33_cif.got.tgz:64832.got - 2010.03.31 13:35:05.
