data_PCOD8124971
_publ_section_title
;
Structure prediction by ZEFSAII (Michael W. Deem and Ramdas Pophale) SiO2 
 PCOD8124971
Probable space group: P 21/C
;
_chemical_formula_sum "Si O2"
_cell_formula_units_Z 32
_cell_length_a 19.397148
_cell_length_b 8.588787
_cell_length_c 14.069550
_cell_angle_alpha 90.000000
_cell_angle_beta 39.976974
_cell_angle_gamma 90.000000
_cell_volume 1505.945758
_symmetry_space_group_name_H-M "P 21/C"
_symmetry_group_IT_number 14
_symmetry_cell_setting 'monoclinic'
loop_
_space_group_symop_operation_xyz
x,y,z
-x,1/2+y,1/2-z
-x,-y,-z
x,1/2-y,1/2+z
loop_
_atom_site_type_symbol
_atom_site_label
_atom_site_fract_x
_atom_site_fract_y
_atom_site_fract_z
Si Si1 0.411843 0.895757 0.540547
Si Si2 0.309102 0.182462 0.582848
Si Si3 0.436207 0.358369 0.607129
Si Si4 0.912789 0.431457 0.904195
Si Si5 0.944786 0.295119 0.195551
Si Si6 0.188492 0.781392 0.831703
Si Si7 0.860855 0.621647 0.589914
Si Si8 0.256813 0.314294 0.934039
O O1 0.479723 0.753614 0.425891
O O2 0.315315 0.823325 0.708247
O O3 0.500000 0.000000 0.500000
O O4 0.354176 0.005082 0.523810
O O5 0.388346 0.281997 0.563035
O O6 0.192314 0.175724 0.755045
O O7 0.301484 0.254158 0.485814
O O8 0.500000 0.500000 0.500000
O O9 0.346824 0.405447 0.778036
O O10 0.939764 0.299873 0.799028
O O11 0.021549 0.524212 0.821186
O O12 0.849733 0.355396 0.058464
O O13 0.836883 0.564856 0.940733
O O14 0.834398 0.281923 0.252026
O O15 0.029180 0.214075 0.035401
O O16 0.120516 0.936409 0.929784
O O17 0.783162 0.666208 0.583825
#
# Coordination Sequence:
#
# PCOD8124971 Si02
#       8
#     4   4   4   4   4   4   4   4
#     4   9  19  37  60  83 114 157 200 247 307 368
#     4   9  19  37  58  81 116 158 198 243 306 375
#     4  10  20  36  56  84 117 149 198 260 310 360
#     4  11  23  39  59  91 123 154 204 256 301 368
#     4  11  23  39  61  88 122 164 203 248 308 369
#     4  11  21  39  62  86 120 160 200 252 309 365
#     4   9  20  37  59  85 115 155 196 242 297 361
#     4  10  21  38  58  84 118 155 199 250 305 368
#
# _framework density 21.249103999999999
#
# number of rings (size 3 to 8) (size 9 to 14) (size 15 to 20)
#    0.000    2.000    0.000    4.500    0.000    3.000 
#    0.000   13.750    0.000    0.000    0.000    0.000 
#    0.000    0.000    0.000    0.000    0.000    0.000 
#
# Total GULP energy -396582.982127 kJ/mol
# GULP energy per Si atom -12393.218191 kJ/mol
# Density = 2.120074 g / cm^3
# Si number density = 21.249104 Si / 1000 Ang^3
#
#
#
# Elastic Constant Matrix: (Units=GPa)
#
#
# Indices 1 2 3 4 5 6 
#
# 1 95.4961 27.7905 51.4821 0.0000 17.4360 0.0000
# 2 27.7905 81.3751 33.4456 0.0000 5.1850 0.0000
# 3 51.4821 33.4456 84.3847 0.0000 1.7172 0.0000
# 4 0.0000 0.0000 0.0000 46.0789 0.0000 -4.1699
# 5 17.4360 5.1850 1.7172 0.0000 33.3696 0.0000
# 6 0.0000 0.0000 0.0000 -4.1699 0.0000 22.0944
#
#
#
# Elastic Compliance Matrix: (Units=1/GPa)
#
#
# Indices 1 2 3 4 5 6 
#
# 1 0.017975 -0.001377 -0.010244 0.000000 -0.008651 0.000000
# 2 -0.001377 0.014918 -0.005045 0.000000 -0.001339 0.000000
# 3 -0.010244 -0.005045 0.019996 0.000000 0.005108 0.000000
# 4 0.000000 0.000000 0.000000 0.022079 0.000000 0.004167
# 5 -0.008651 -0.001339 0.005108 0.000000 0.034433 0.000000
# 6 0.000000 0.000000 0.000000 0.004167 0.000000 0.046047
#
#
# Mechanical properties :
#
#
# Convention : Reuss Voigt Hill
#
# Bulk Modulus (GPa) = 51.13634 54.07692 52.60663
# Shear Modulus (GPa) = 25.60178 30.21109 27.90644
#
# Velocity S-wave (km/s) = 3.47485 3.77471 3.62788
# Velocity P-wave (km/s) = 6.34167 6.67100 6.50842
#
# Compressibility (1/GPa) = 0.01955556
#
# Stress axis : x y z
#
# Youngs Moduli (GPa) = 55.63436 67.03306 50.00943
#
# Poissons Ratio (x) = 0.09229 0.51231
# Poissons Ratio (y) = 0.07660 0.25232
# Poissons Ratio (z) = 0.56993 0.33821
#
# Static dielectric constant tensor:
#      x y z
#    x 4.241420 0.000000 -0.692840 
#    y 0.000000 4.294310 0.000000 
#    z -0.692840 0.000000 4.229210 
# 
# 
# High freq. dielectric constant tensor:
#      x y z
#    x 1.822770 0.000000 -0.015420 
#    y 0.000000 1.834900 0.000000 
#    z -0.015420 0.000000 1.828380 
# 
# From -- ./inp_files/50087.got.cif
#   From: 2010.03.12/outbox.cif.g09.slc.cpg/sg14_26_cif.got.tgz:50087.got - 2010.03.31 13:35:05.
