data_PCOD8124633
_publ_section_title
;
Structure prediction by ZEFSAII (Michael W. Deem and Ramdas Pophale) SiO2 
 PCOD8124633
Probable space group: P 21/C
;
_chemical_formula_sum "Si O2"
_cell_formula_units_Z 28
_cell_length_a 11.973904
_cell_length_b 8.546686
_cell_length_c 15.353045
_cell_angle_alpha 90.000000
_cell_angle_beta 121.403389
_cell_angle_gamma 90.000000
_cell_volume 1341.040008
_symmetry_space_group_name_H-M "P 21/C"
_symmetry_group_IT_number 14
_symmetry_cell_setting 'monoclinic'
loop_
_space_group_symop_operation_xyz
x,y,z
-x,1/2+y,1/2-z
-x,-y,-z
x,1/2-y,1/2+z
loop_
_atom_site_type_symbol
_atom_site_label
_atom_site_fract_x
_atom_site_fract_y
_atom_site_fract_z
Si Si1 0.929568 0.334397 0.974763
Si Si2 0.958936 0.767888 0.146645
Si Si3 0.624432 0.157032 0.320876
Si Si4 0.111426 0.590088 0.858097
Si Si5 0.382705 0.474865 0.015094
Si Si6 0.499765 0.058832 0.864072
Si Si7 0.677042 0.636242 0.553555
O O1 0.781283 0.339279 0.878746
O O2 0.006922 0.212989 0.943014
O O3 0.935228 0.295876 0.080591
O O4 0.000000 0.500000 0.000000
O O5 0.946342 0.584323 0.160752
O O6 0.834460 0.874224 0.123113
O O7 0.078025 0.830419 0.253258
O O8 0.560587 0.324581 0.317420
O O9 0.579513 0.032526 0.374393
O O10 0.564957 0.093753 0.206267
O O11 0.267088 0.579319 0.928043
O O12 0.500000 0.500000 0.000000
O O13 0.347811 0.294073 0.009946
O O14 0.387039 0.142821 0.876176
O O15 0.618468 0.008456 0.975779
#
# Coordination Sequence:
#
# PCOD8124633 Si02
#       7
#     4   4   4   4   4   4   4
#     4   9  21  41  61  89 123 167 203 249 313 378
#     4  10  21  40  62  90 121 165 202 250 312 363
#     4  11  23  40  64  93 124 163 208 257 314 375
#     4   9  21  37  61  90 120 160 205 248 305 366
#     4  10  19  40  63  89 125 160 204 256 306 368
#     4  11  24  41  63  92 124 162 209 258 315 370
#     4  10  23  42  62  89 126 164 205 261 308 370
#
# _framework density 20.879317
#
# number of rings (size 3 to 8) (size 9 to 14) (size 15 to 20)
#    0.000    2.000    1.429    1.714    4.000    4.571 
#    0.000    1.429    0.000    0.000    0.000    0.000 
#    0.000    0.000    0.000    0.000    0.000    0.000 
#
# Total GULP energy -347064.326712 kJ/mol
# GULP energy per Si atom -12395.154525 kJ/mol
# Density = 2.083179 g / cm^3
# Si number density = 20.879317 Si / 1000 Ang^3
#
#
#
# Elastic Constant Matrix: (Units=GPa)
#
#
# Indices 1 2 3 4 5 6 
#
# 1 127.3853 27.6634 38.5388 0.0000 -4.1585 0.0000
# 2 27.6634 50.7645 30.9321 0.0000 -2.5475 0.0000
# 3 38.5388 30.9321 94.6623 0.0000 -0.4346 0.0000
# 4 0.0000 0.0000 0.0000 41.8402 0.0000 -3.6571
# 5 -4.1585 -2.5475 -0.4346 0.0000 23.4059 0.0000
# 6 0.0000 0.0000 0.0000 -3.6571 0.0000 26.4399
#
#
#
# Elastic Compliance Matrix: (Units=1/GPa)
#
#
# Indices 1 2 3 4 5 6 
#
# 1 0.009461 -0.003433 -0.002724 0.000000 0.001257 0.000000
# 2 -0.003433 0.025992 -0.007086 0.000000 0.002088 0.000000
# 3 -0.002724 -0.007086 0.013984 0.000000 -0.000996 0.000000
# 4 0.000000 0.000000 0.000000 0.024193 0.000000 0.003346
# 5 0.001257 0.002088 -0.000996 0.000000 0.043156 0.000000
# 6 0.000000 0.000000 0.000000 0.003346 0.000000 0.038284
#
#
# Mechanical properties :
#
#
# Convention : Reuss Voigt Hill
#
# Bulk Modulus (GPa) = 43.57170 51.89786 47.73478
# Shear Modulus (GPa) = 26.42617 30.04906 28.23761
#
# Velocity S-wave (km/s) = 3.56147 3.79777 3.68152
# Velocity P-wave (km/s) = 6.15027 6.64385 6.40182
#
# Compressibility (1/GPa) = 0.02295068
#
# Stress axis : x y z
#
# Youngs Moduli (GPa) = 105.69887 38.47360 71.51079
#
# Poissons Ratio (x) = 0.13206 0.19482
# Poissons Ratio (y) = 0.36281 0.50674
# Poissons Ratio (z) = 0.28796 0.27263
#
# Static dielectric constant tensor:
#      x y z
#    x 4.330870 0.000000 -0.516240 
#    y 0.000000 3.493160 0.000000 
#    z -0.516240 0.000000 3.961750 
# 
# 
# High freq. dielectric constant tensor:
#      x y z
#    x 1.827970 0.000000 -0.001240 
#    y 0.000000 1.799170 0.000000 
#    z -0.001240 0.000000 1.816710 
# 
# From -- ./inp_files/43555.got.cif
#   From: 2010.03.12/outbox.cif.g09.slc.cpg/sg14_22_cif.got.tgz:43555.got - 2010.03.31 13:35:05.
