data_PCOD8124512
_publ_section_title
;
Structure prediction by ZEFSAII (Michael W. Deem and Ramdas Pophale) SiO2 
 PCOD8124512
Probable space group: P 21/C
;
_chemical_formula_sum "Si O2"
_cell_formula_units_Z 32
_cell_length_a 28.447165
_cell_length_b 9.677373
_cell_length_c 21.658121
_cell_angle_alpha 90.000000
_cell_angle_beta 16.632164
_cell_angle_gamma 90.000000
_cell_volume 1706.580485
_symmetry_space_group_name_H-M "P 21/C"
_symmetry_group_IT_number 14
_symmetry_cell_setting 'monoclinic'
loop_
_space_group_symop_operation_xyz
x,y,z
-x,1/2+y,1/2-z
-x,-y,-z
x,1/2-y,1/2+z
loop_
_atom_site_type_symbol
_atom_site_label
_atom_site_fract_x
_atom_site_fract_y
_atom_site_fract_z
Si Si1 0.007057 0.130176 0.912071
Si Si2 0.333560 0.455945 0.936279
Si Si3 0.478803 0.948474 0.674769
Si Si4 0.708820 0.713445 0.595613
Si Si5 0.807559 0.625938 0.697156
Si Si6 0.775155 0.210661 0.496559
Si Si7 0.963135 0.125966 0.379822
Si Si8 0.098833 0.187331 0.530101
O O1 0.147430 0.062384 0.693421
O O2 0.075453 0.168032 0.893327
O O3 0.934656 0.267449 0.971766
O O4 0.860594 0.020048 0.101183
O O5 0.462918 0.465494 0.828313
O O6 0.382074 0.326849 0.832262
O O7 0.343310 0.597260 0.885250
O O8 0.620077 0.886748 0.454040
O O9 0.323334 0.849649 0.867488
O O10 0.424309 0.098245 0.717687
O O11 0.778823 0.791946 0.566755
O O12 0.851323 0.636558 0.378039
O O13 0.818501 0.748024 0.634197
O O14 0.836332 0.157123 0.485190
O O15 0.926223 0.239314 0.260727
O O16 0.929253 0.973646 0.447883
#
# Coordination Sequence:
#
# PCOD8124512 Si02
#       8
#     4   4   4   4   4   4   4   4
#     4   9  20  39  61  86 114 156 198 231 283 354
#     4  10  19  38  61  85 120 147 192 248 287 344
#     4  11  23  37  58  88 120 152 193 241 297 341
#     4  10  21  36  58  91 114 147 196 246 294 340
#     4  10  22  39  60  85 118 160 194 234 289 352
#     4  11  21  37  61  91 113 151 197 245 292 341
#     4  10  21  37  62  86 115 148 199 248 282 338
#     4  11  21  37  62  86 116 155 196 242 286 352
#
# _framework density 18.750947
#
# number of rings (size 3 to 8) (size 9 to 14) (size 15 to 20)
#    0.000    1.750    3.750    0.750    1.750    1.000 
#    0.000    1.875    0.000    0.000    0.000    0.000 
#    0.000    0.000    0.000    0.000    0.000    0.000 
#
# Total GULP energy -396955.436524 kJ/mol
# GULP energy per Si atom -12404.857391 kJ/mol
# Density = 1.870827 g / cm^3
# Si number density = 18.750947 Si / 1000 Ang^3
#
#
#
# Elastic Constant Matrix: (Units=GPa)
#
#
# Indices 1 2 3 4 5 6 
#
# 1 59.3146 44.4926 16.2401 0.0000 13.7062 0.0000
# 2 44.4926 118.3416 10.5842 0.0000 5.1261 0.0000
# 3 16.2401 10.5842 31.5430 0.0000 -0.7568 0.0000
# 4 0.0000 0.0000 0.0000 26.0946 0.0000 0.5985
# 5 13.7062 5.1261 -0.7568 0.0000 23.1088 0.0000
# 6 0.0000 0.0000 0.0000 0.5985 0.0000 40.2877
#
#
#
# Elastic Compliance Matrix: (Units=1/GPa)
#
#
# Indices 1 2 3 4 5 6 
#
# 1 0.032169 -0.010132 -0.013577 0.000000 -0.017277 0.000000
# 2 -0.010132 0.011999 0.001272 0.000000 0.003389 0.000000
# 3 -0.013577 0.001272 0.038483 0.000000 0.009031 0.000000
# 4 0.000000 0.000000 0.000000 0.038335 0.000000 -0.000569
# 5 -0.017277 0.003389 0.009031 0.000000 0.053065 0.000000
# 6 0.000000 0.000000 0.000000 -0.000569 0.000000 0.024830
#
#
# Mechanical properties :
#
#
# Convention : Reuss Voigt Hill
#
# Bulk Modulus (GPa) = 26.47187 39.09257 32.78222
# Shear Modulus (GPa) = 19.50473 27.09035 23.29754
#
# Velocity S-wave (km/s) = 3.22871 3.80510 3.52870
# Velocity P-wave (km/s) = 5.29601 6.34024 5.84151
#
# Compressibility (1/GPa) = 0.03777595
#
# Stress axis : x y z
#
# Youngs Moduli (GPa) = 31.08578 83.34156 25.98541
#
# Poissons Ratio (x) = 0.84440 0.35281
# Poissons Ratio (y) = 0.31496 -0.03304
# Poissons Ratio (z) = 0.42206 -0.10597
#
# Static dielectric constant tensor:
#      x y z
#    x 3.486250 0.000000 -0.000730 
#    y 0.000000 3.449580 0.000000 
#    z -0.000730 0.000000 3.208730 
# 
# 
# High freq. dielectric constant tensor:
#      x y z
#    x 1.733230 0.000000 -0.006860 
#    y 0.000000 1.738510 0.000000 
#    z -0.006860 0.000000 1.706160 
# 
# From -- ./inp_files/69131.got.cif
#   From: 2010.03.12/outbox.cif.g09.slc.cpg/sg14_35_cif.got.tgz:69131.got - 2010.03.31 13:35:05.
