data_PCOD8124755
_publ_section_title
;
Structure prediction by ZEFSAII (Michael W. Deem and Ramdas Pophale) SiO2 
 PCOD8124755
Probable space group: P 21/C
;
_chemical_formula_sum "Si O2"
_cell_formula_units_Z 32
_cell_length_a 15.697892
_cell_length_b 13.398596
_cell_length_c 9.731170
_cell_angle_alpha 90.000000
_cell_angle_beta 57.747138
_cell_angle_gamma 90.000000
_cell_volume 1730.942407
_symmetry_space_group_name_H-M "P 21/C"
_symmetry_group_IT_number 14
_symmetry_cell_setting 'monoclinic'
loop_
_space_group_symop_operation_xyz
x,y,z
-x,1/2+y,1/2-z
-x,-y,-z
x,1/2-y,1/2+z
loop_
_atom_site_type_symbol
_atom_site_label
_atom_site_fract_x
_atom_site_fract_y
_atom_site_fract_z
Si Si1 0.846693 0.978755 0.346587
Si Si2 0.915687 0.725426 0.653124
Si Si3 0.336385 0.974057 0.677086
Si Si4 0.386230 0.254818 0.826683
Si Si5 0.974844 0.866995 0.835185
Si Si6 0.248800 0.426073 0.506723
Si Si7 0.480818 0.346591 0.000842
Si Si8 0.762518 0.891628 0.683320
O O1 0.862230 0.869568 0.268416
O O2 0.759103 0.036222 0.340289
O O3 0.820606 0.965238 0.529765
O O4 0.944656 0.046559 0.253594
O O5 0.982027 0.786281 0.706353
O O6 0.990032 0.689990 0.467173
O O7 0.828518 0.795404 0.667545
O O8 0.407111 0.059421 0.554601
O O9 0.401641 0.873114 0.619585
O O10 0.303439 0.993171 0.863300
O O11 0.448096 0.271822 0.910667
O O12 0.468518 0.206857 0.656458
O O13 0.340414 0.355403 0.800122
O O14 0.292589 0.183360 0.940032
O O15 0.868228 0.923120 0.931163
O O16 0.263296 0.453462 0.655365
#
# Coordination Sequence:
#
# PCOD8124755 Si02
#       8
#     4   4   4   4   4   4   4   4
#     4  12  22  38  60  88 126 158 197 249 299 350
#     4  11  20  38  56  88 120 154 204 241 289 348
#     4  10  21  38  55  85 117 150 187 241 298 356
#     4  11  17  35  60  89 109 145 191 250 289 347
#     4  11  23  36  61  89 118 161 201 245 294 352
#     4  10  20  33  57  87 114 143 193 242 286 341
#     4  10  21  35  61  85 111 146 194 242 297 346
#     4  11  19  34  60  88 117 149 196 255 288 332
#
# _framework density 18.48704
#
# number of rings (size 3 to 8) (size 9 to 14) (size 15 to 20)
#    0.000    1.250    6.250    1.875    0.000    2.000 
#    0.000    3.125    0.000    0.000    0.000    0.000 
#    0.000    0.000    0.000    0.000    0.000    0.000 
#
# Total GULP energy -396847.115177 kJ/mol
# GULP energy per Si atom -12401.472349 kJ/mol
# Density = 1.844496 g / cm^3
# Si number density = 18.487040 Si / 1000 Ang^3
#
#
#
# Elastic Constant Matrix: (Units=GPa)
#
#
# Indices 1 2 3 4 5 6 
#
# 1 86.0659 27.2378 50.7253 0.0000 -8.7705 0.0000
# 2 27.2378 28.7684 36.2721 0.0000 -13.9315 0.0000
# 3 50.7253 36.2721 146.2183 0.0000 9.0262 0.0000
# 4 0.0000 0.0000 0.0000 31.1354 0.0000 -0.4999
# 5 -8.7705 -13.9315 9.0262 0.0000 30.7302 0.0000
# 6 0.0000 0.0000 0.0000 -0.4999 0.0000 8.0486
#
#
#
# Elastic Compliance Matrix: (Units=1/GPa)
#
#
# Indices 1 2 3 4 5 6 
#
# 1 0.017359 -0.012938 -0.002807 0.000000 -0.000086 0.000000
# 2 -0.012938 0.099699 -0.023227 0.000000 0.048328 0.000000
# 3 -0.002807 -0.023227 0.014538 0.000000 -0.015601 0.000000
# 4 0.000000 0.000000 0.000000 0.032150 0.000000 0.001997
# 5 -0.000086 0.048328 -0.015601 0.000000 0.059009 0.000000
# 6 0.000000 0.000000 0.000000 0.001997 0.000000 0.124370
#
#
# Mechanical properties :
#
#
# Convention : Reuss Voigt Hill
#
# Bulk Modulus (GPa) = 18.63886 54.39145 36.51516
# Shear Modulus (GPa) = 11.28788 23.77066 17.52927
#
# Velocity S-wave (km/s) = 2.47368 3.58970 3.08261
# Velocity P-wave (km/s) = 4.27350 6.83129 5.69778
#
# Compressibility (1/GPa) = 0.05365134
#
# Stress axis : x y z
#
# Youngs Moduli (GPa) = 57.60582 10.03021 68.78516
#
# Poissons Ratio (x) = 0.12977 0.19311
# Poissons Ratio (y) = 0.74530 1.59768
# Poissons Ratio (z) = 0.16172 0.23297
#
# Static dielectric constant tensor:
#      x y z
#    x 3.347150 0.000000 0.201110 
#    y 0.000000 3.135610 0.000000 
#    z 0.201110 0.000000 3.766570 
# 
# 
# High freq. dielectric constant tensor:
#      x y z
#    x 1.705300 0.000000 0.016230 
#    y 0.000000 1.681060 0.000000 
#    z 0.016230 0.000000 1.736130 
# 
# From -- ./inp_files/16236.got.cif
#   From: 2010.03.12/outbox.cif.g09.slc.cpg/sg14_9_cif.got.tgz:16236.got - 2010.03.31 13:35:05.
