data_PCOD8124927
_publ_section_title
;
Structure prediction by ZEFSAII (Michael W. Deem and Ramdas Pophale) SiO2 
 PCOD8124927
Probable space group: P 21/C
;
_chemical_formula_sum "Si O2"
_cell_formula_units_Z 32
_cell_length_a 20.463091
_cell_length_b 9.019846
_cell_length_c 27.464978
_cell_angle_alpha 90.000000
_cell_angle_beta 161.315738
_cell_angle_gamma 90.000000
_cell_volume 1623.970502
_symmetry_space_group_name_H-M "P 21/C"
_symmetry_group_IT_number 14
_symmetry_cell_setting 'monoclinic'
loop_
_space_group_symop_operation_xyz
x,y,z
-x,1/2+y,1/2-z
-x,-y,-z
x,1/2-y,1/2+z
loop_
_atom_site_type_symbol
_atom_site_label
_atom_site_fract_x
_atom_site_fract_y
_atom_site_fract_z
Si Si1 0.137079 0.014938 0.414282
Si Si2 0.516025 0.462446 0.712145
Si Si3 0.901111 0.865450 0.508243
Si Si4 0.646603 0.357667 0.660133
Si Si5 0.305760 0.601592 0.416818
Si Si6 0.682304 0.907511 0.825663
Si Si7 0.534029 0.163760 0.664633
Si Si8 0.344889 0.767987 0.043358
O O1 0.152842 0.112786 0.473555
O O2 0.318925 0.077053 0.508441
O O3 0.914216 0.024926 0.233713
O O4 0.174923 0.838418 0.448334
O O5 0.743177 0.532745 0.866673
O O6 0.464478 0.439420 0.732173
O O7 0.511910 0.309930 0.680993
O O8 0.341972 0.569818 0.566382
O O9 0.881301 0.687344 0.482213
O O10 0.134903 0.915258 0.664906
O O11 0.480179 0.483021 0.553033
O O12 0.658317 0.324511 0.610683
O O13 0.593410 0.206755 0.651342
O O14 0.309904 0.727585 0.460603
O O15 0.567910 0.798368 0.708236
O O16 0.710194 0.061578 0.815301
#
# Coordination Sequence:
#
# PCOD8124927 Si02
#       8
#     4   4   4   4   4   4   4   4
#     4  10  21  37  62  90 120 155 208 258 299 350
#     4  11  18  35  63  91 120 152 197 256 305 363
#     4  10  20  38  60  87 126 160 192 248 314 365
#     4  10  23  40  59  85 124 166 203 247 307 371
#     4  10  22  41  60  84 124 163 211 252 294 364
#     4  10  20  36  60  92 124 148 198 257 302 364
#     4  11  20  36  61  92 119 160 203 251 312 359
#     4  10  20  35  61  92 113 155 204 253 300 353
#
# _framework density 19.704792000000001
#
# number of rings (size 3 to 8) (size 9 to 14) (size 15 to 20)
#    0.000    1.750    5.000    0.750    1.750    1.000 
#    0.000    2.500    0.000    0.000    0.000    0.000 
#    0.000    0.000    0.000    0.000    0.000    0.000 
#
# Total GULP energy -396515.466097 kJ/mol
# GULP energy per Si atom -12391.108316 kJ/mol
# Density = 1.965994 g / cm^3
# Si number density = 19.704792 Si / 1000 Ang^3
#
#
#
# Elastic Constant Matrix: (Units=GPa)
#
#
# Indices 1 2 3 4 5 6 
#
# 1 61.1604 35.0182 44.3014 0.0000 -13.0915 0.0000
# 2 35.0182 121.9541 51.1992 0.0000 -12.5960 0.0000
# 3 44.3014 51.1992 116.2255 0.0000 5.9617 0.0000
# 4 0.0000 0.0000 0.0000 29.6931 0.0000 -9.0789
# 5 -13.0915 -12.5960 5.9617 0.0000 27.2446 0.0000
# 6 0.0000 0.0000 0.0000 -9.0789 0.0000 32.4826
#
#
#
# Elastic Compliance Matrix: (Units=1/GPa)
#
#
# Indices 1 2 3 4 5 6 
#
# 1 0.028572 -0.002146 -0.010719 0.000000 0.015082 0.000000
# 2 -0.002146 0.011175 -0.004366 0.000000 0.005090 0.000000
# 3 -0.010719 -0.004366 0.015151 0.000000 -0.010484 0.000000
# 4 0.000000 0.000000 0.000000 0.036825 0.000000 0.010293
# 5 0.015082 0.005090 -0.010484 0.000000 0.048599 0.000000
# 6 0.000000 0.000000 0.000000 0.010293 0.000000 0.033663
#
#
# Mechanical properties :
#
#
# Convention : Reuss Voigt Hill
#
# Bulk Modulus (GPa) = 48.93444 62.26420 55.59932
# Shear Modulus (GPa) = 23.22800 29.13880 26.18340
#
# Velocity S-wave (km/s) = 3.43709 3.84965 3.64920
# Velocity P-wave (km/s) = 6.37488 7.17125 6.78476
#
# Compressibility (1/GPa) = 0.02043551
#
# Stress axis : x y z
#
# Youngs Moduli (GPa) = 34.99929 89.48833 66.00438
#
# Poissons Ratio (x) = 0.19208 0.70749
# Poissons Ratio (y) = 0.07512 0.28815
# Poissons Ratio (z) = 0.37515 0.39067
#
# Static dielectric constant tensor:
#      x y z
#    x 3.560820 0.000000 -0.122650 
#    y 0.000000 3.734020 0.000000 
#    z -0.122650 0.000000 3.747830 
# 
# 
# High freq. dielectric constant tensor:
#      x y z
#    x 1.753140 0.000000 -0.013470 
#    y 0.000000 1.763050 0.000000 
#    z -0.013470 0.000000 1.766880 
# 
# From -- ./inp_files/78024.got.cif
#   From: 2010.03.12/outbox.cif.g09.slc.cpg/sg14_40_cif.got.tgz:78024.got - 2010.03.31 13:35:05.
