data_PCOD8124309
_publ_section_title
;
Structure prediction by ZEFSAII (Michael W. Deem and Ramdas Pophale) SiO2 
 PCOD8124309
Probable space group: P 21/C
;
_chemical_formula_sum "Si O2"
_cell_formula_units_Z 32
_cell_length_a 12.383928
_cell_length_b 14.627484
_cell_length_c 8.725533
_cell_angle_alpha 90.000000
_cell_angle_beta 111.347253
_cell_angle_gamma 90.000000
_cell_volume 1472.150485
_symmetry_space_group_name_H-M "P 21/C"
_symmetry_group_IT_number 14
_symmetry_cell_setting 'monoclinic'
loop_
_space_group_symop_operation_xyz
x,y,z
-x,1/2+y,1/2-z
-x,-y,-z
x,1/2-y,1/2+z
loop_
_atom_site_type_symbol
_atom_site_label
_atom_site_fract_x
_atom_site_fract_y
_atom_site_fract_z
Si Si1 0.435335 0.996908 0.625654
Si Si2 0.500557 0.652033 0.635454
Si Si3 0.879334 0.201887 0.377780
Si Si4 0.746258 0.721287 0.755653
Si Si5 0.388330 0.690858 0.261366
Si Si6 0.992478 0.464585 0.824143
Si Si7 0.767341 0.623571 0.070883
Si Si8 0.014538 0.339703 0.252985
O O1 0.411929 0.893674 0.661983
O O2 0.500000 0.000000 0.500000
O O3 0.509283 0.051435 0.793009
O O4 0.311987 0.044200 0.536685
O O5 0.632516 0.664896 0.646434
O O6 0.414004 0.661762 0.448867
O O7 0.470827 0.726317 0.751672
O O8 0.743800 0.225320 0.317510
O O9 0.895034 0.115538 0.268408
O O10 0.954141 0.289922 0.364997
O O11 0.926660 0.174025 0.567242
O O12 0.720812 0.828648 0.703356
O O13 0.857293 0.696810 0.710553
O O14 0.775808 0.704364 0.947963
O O15 0.109544 0.418272 0.828394
O O16 0.968372 0.551669 0.702829
O O17 0.000000 0.500000 0.000000
#
# Coordination Sequence:
#
# PCOD8124309 Si02
#       8
#     4   4   4   4   4   4   4   4
#     4  11  24  42  67  96 130 173 224 273 332 393
#     4  11  25  41  66  94 132 177 222 271 329 389
#     4  11  23  39  65  90 126 168 211 262 331 382
#     4  11  20  38  64  91 123 157 214 261 323 376
#     4  12  24  44  63  95 134 175 223 267 328 402
#     4  10  19  36  59  90 117 162 206 247 320 379
#     4  11  21  38  65  92 126 162 211 269 322 395
#     4  11  21  39  65  92 123 163 210 267 318 389
#
# _framework density 21.736908
#
# number of rings (size 3 to 8) (size 9 to 14) (size 15 to 20)
#    0.000    1.000    3.750    5.625    1.750    1.000 
#    0.000    0.625    0.000    0.000    0.000    0.000 
#    0.000    0.000    0.000    0.000    0.000    0.000 
#
# Total GULP energy -396739.119130 kJ/mol
# GULP energy per Si atom -12398.097473 kJ/mol
# Density = 2.168743 g / cm^3
# Si number density = 21.736908 Si / 1000 Ang^3
#
#
#
# Elastic Constant Matrix: (Units=GPa)
#
#
# Indices 1 2 3 4 5 6 
#
# 1 100.8255 10.6413 16.0101 0.0000 1.9820 0.0000
# 2 10.6413 82.5408 -8.5748 0.0000 -10.2681 0.0000
# 3 16.0101 -8.5748 43.7724 0.0000 1.2936 0.0000
# 4 0.0000 0.0000 0.0000 36.7046 0.0000 -6.2332
# 5 1.9820 -10.2681 1.2936 0.0000 31.1333 0.0000
# 6 0.0000 0.0000 0.0000 -6.2332 0.0000 29.2979
#
#
#
# Elastic Compliance Matrix: (Units=1/GPa)
#
#
# Indices 1 2 3 4 5 6 
#
# 1 0.010837 -0.001991 -0.004319 0.000000 -0.001167 0.000000
# 2 -0.001991 0.013246 0.003194 0.000000 0.004363 0.000000
# 3 -0.004319 0.003194 0.025042 0.000000 0.000288 0.000000
# 4 0.000000 0.000000 0.000000 0.028266 0.000000 0.006014
# 5 -0.001167 0.004363 0.000288 0.000000 0.033621 0.000000
# 6 0.000000 0.000000 0.000000 0.006014 0.000000 0.035412
#
#
# Mechanical properties :
#
#
# Convention : Reuss Voigt Hill
#
# Bulk Modulus (GPa) = 23.31338 29.25466 26.28402
# Shear Modulus (GPa) = 29.94824 33.36462 31.65643
#
# Velocity S-wave (km/s) = 3.71585 3.92207 3.82035
# Velocity P-wave (km/s) = 5.39987 5.83077 5.61945
#
# Compressibility (1/GPa) = 0.04289382
#
# Stress axis : x y z
#
# Youngs Moduli (GPa) = 92.27593 75.49166 39.93219
#
# Poissons Ratio (x) = 0.15031 0.17248
# Poissons Ratio (y) = 0.18372 -0.12755
# Poissons Ratio (z) = 0.39857 -0.24114
#
# Static dielectric constant tensor:
#      x y z
#    x 4.003160 0.000000 0.025860 
#    y 0.000000 2.907840 0.000000 
#    z 0.025860 0.000000 3.701020 
# 
# 
# High freq. dielectric constant tensor:
#      x y z
#    x 1.861580 0.000000 0.003170 
#    y 0.000000 1.862290 0.000000 
#    z 0.003170 0.000000 1.833270 
# 
# From -- ./inp_files/13396.got.cif
#   From: 2010.03.12/outbox.cif.g09.slc.cpg/sg14_7_cif.got.tgz:13396.got - 2010.03.31 13:35:05.
