data_PCOD8124441
_publ_section_title
;
Structure prediction by ZEFSAII (Michael W. Deem and Ramdas Pophale) SiO2 
 PCOD8124441
Probable space group: P 21/C
;
_chemical_formula_sum "Si O2"
_cell_formula_units_Z 28
_cell_length_a 9.020138
_cell_length_b 11.899044
_cell_length_c 14.030519
_cell_angle_alpha 90.000000
_cell_angle_beta 116.470005
_cell_angle_gamma 90.000000
_cell_volume 1348.042096
_symmetry_space_group_name_H-M "P 21/C"
_symmetry_group_IT_number 14
_symmetry_cell_setting 'monoclinic'
loop_
_space_group_symop_operation_xyz
x,y,z
-x,1/2+y,1/2-z
-x,-y,-z
x,1/2-y,1/2+z
loop_
_atom_site_type_symbol
_atom_site_label
_atom_site_fract_x
_atom_site_fract_y
_atom_site_fract_z
Si Si1 0.709772 0.681063 0.607138
Si Si2 0.707724 0.152564 0.290164
Si Si3 0.788981 0.870671 0.752955
Si Si4 0.500089 0.973234 0.298134
Si Si5 0.147894 0.937272 0.849831
Si Si6 0.644486 0.347083 0.412169
Si Si7 0.623842 0.765523 0.877967
O O1 0.821839 0.783708 0.676361
O O2 0.781547 0.559700 0.656315
O O3 0.525411 0.703572 0.595041
O O4 0.716292 0.690309 0.496457
O O5 0.840528 0.139412 0.243056
O O6 0.740612 0.255549 0.372697
O O7 0.534196 0.158358 0.185192
O O8 0.676441 0.038430 0.341024
O O9 0.752185 0.785293 0.829444
O O10 0.953905 0.943400 0.819912
O O11 0.637655 0.955061 0.683536
O O12 0.408597 0.950201 0.170330
O O13 0.554076 0.860837 0.367795
O O14 0.241340 0.885238 0.967816
#
# Coordination Sequence:
#
# PCOD8124441 Si02
#       7
#     4   4   4   4   4   4   4
#     4  12  22  41  67  91 122 174 215 256 309 388
#     4  10  19  37  62  91 121 166 210 258 305 375
#     4  11  25  41  60 100 133 159 211 272 321 368
#     4  10  19  40  62  87 127 167 209 263 308 366
#     4  12  24  39  66  95 130 163 208 266 327 366
#     4  11  21  38  68  93 120 168 221 251 303 390
#     4  10  21  37  65  90 120 166 222 256 301 382
#
# _framework density 20.770864
#
# number of rings (size 3 to 8) (size 9 to 14) (size 15 to 20)
#    0.000    1.143    7.143    2.143    0.000    6.286 
#    0.000    0.000    0.000    3.429    0.000    0.000 
#    0.000    0.000    0.000    0.000    0.000    0.000 
#
# Total GULP energy -346988.253792 kJ/mol
# GULP energy per Si atom -12392.437635 kJ/mol
# Density = 2.072359 g / cm^3
# Si number density = 20.770864 Si / 1000 Ang^3
#
#
#
# Elastic Constant Matrix: (Units=GPa)
#
#
# Indices 1 2 3 4 5 6 
#
# 1 75.5173 27.6189 19.2581 0.0000 3.0052 0.0000
# 2 27.6189 98.1957 8.8815 0.0000 -4.0286 0.0000
# 3 19.2581 8.8815 25.5394 0.0000 -3.4189 0.0000
# 4 0.0000 0.0000 0.0000 23.2863 0.0000 -5.0961
# 5 3.0052 -4.0286 -3.4189 0.0000 21.1682 0.0000
# 6 0.0000 0.0000 0.0000 -5.0961 0.0000 24.6503
#
#
#
# Elastic Compliance Matrix: (Units=1/GPa)
#
#
# Indices 1 2 3 4 5 6 
#
# 1 0.018340 -0.004199 -0.013108 0.000000 -0.005520 0.000000
# 2 -0.004199 0.011519 -0.000476 0.000000 0.002711 0.000000
# 3 -0.013108 -0.000476 0.050535 0.000000 0.009932 0.000000
# 4 0.000000 0.000000 0.000000 0.044979 0.000000 0.009299
# 5 -0.005520 0.002711 0.009932 0.000000 0.050144 0.000000
# 6 0.000000 0.000000 0.000000 0.009299 0.000000 0.042490
#
#
# Mechanical properties :
#
#
# Convention : Reuss Voigt Hill
#
# Bulk Modulus (GPa) = 22.30830 34.52993 28.41912
# Shear Modulus (GPa) = 18.62080 23.38723 21.00401
#
# Velocity S-wave (km/s) = 2.99739 3.35918 3.18343
# Velocity P-wave (km/s) = 4.76892 5.63079 5.21768
#
# Compressibility (1/GPa) = 0.04482636
#
# Stress axis : x y z
#
# Youngs Moduli (GPa) = 54.52483 86.81161 19.78840
#
# Poissons Ratio (x) = 0.36455 0.25939
# Poissons Ratio (y) = 0.22897 0.00943
# Poissons Ratio (z) = 0.71472 0.04136
#
# Static dielectric constant tensor:
#      x y z
#    x 3.641900 0.000000 -0.194780 
#    y 0.000000 3.998280 0.000000 
#    z -0.194780 0.000000 3.596790 
# 
# 
# High freq. dielectric constant tensor:
#      x y z
#    x 1.800160 0.000000 -0.017050 
#    y 0.000000 1.826180 0.000000 
#    z -0.017050 0.000000 1.790550 
# 
# From -- ./inp_files/39962.got.cif
#   From: 2010.03.12/outbox.cif.g09.slc.cpg/sg14_20_cif.got.tgz:39962.got - 2010.03.31 13:35:05.
