data_PCOD8124653
_publ_section_title
;
Structure prediction by ZEFSAII (Michael W. Deem and Ramdas Pophale) SiO2 
 PCOD8124653
Probable space group: P 21/C
;
_chemical_formula_sum "Si O2"
_cell_formula_units_Z 32
_cell_length_a 14.281480
_cell_length_b 17.301652
_cell_length_c 11.441319
_cell_angle_alpha 90.000000
_cell_angle_beta 30.986260
_cell_angle_gamma 90.000000
_cell_volume 1455.468604
_symmetry_space_group_name_H-M "P 21/C"
_symmetry_group_IT_number 14
_symmetry_cell_setting 'monoclinic'
loop_
_space_group_symop_operation_xyz
x,y,z
-x,1/2+y,1/2-z
-x,-y,-z
x,1/2-y,1/2+z
loop_
_atom_site_type_symbol
_atom_site_label
_atom_site_fract_x
_atom_site_fract_y
_atom_site_fract_z
Si Si1 0.956643 0.614026 0.736083
Si Si2 0.451615 0.113325 0.329066
Si Si3 0.515046 0.411702 0.011500
Si Si4 0.379609 0.058429 0.891018
Si Si5 0.983382 0.050925 0.271820
Si Si6 0.889626 0.157589 0.166932
Si Si7 0.360400 0.563726 0.701761
Si Si8 0.766752 0.325553 0.365988
O O1 0.004194 0.523769 0.666139
O O2 0.977646 0.655632 0.587737
O O3 0.081481 0.646989 0.705381
O O4 0.750977 0.622547 0.002595
O O5 0.446528 0.134576 0.472097
O O6 0.537407 0.028676 0.209804
O O7 0.574584 0.179594 0.138482
O O8 0.723713 0.397205 0.814201
O O9 0.500000 0.500000 0.000000
O O10 0.392386 0.393938 0.256053
O O11 0.501901 0.105953 0.854293
O O12 0.167069 0.057086 0.154376
O O13 0.972348 0.126225 0.200335
O O14 0.812146 0.033980 0.538905
O O15 0.823705 0.244551 0.252527
O O16 0.500000 0.500000 0.500000
O O17 0.267926 0.616528 0.704126
#
# Coordination Sequence:
#
# PCOD8124653 Si02
#       8
#     4   4   4   4   4   4   4   4
#     4  12  23  47  76 100 138 184 246 291 347 428
#     4  11  21  45  72 101 138 179 226 290 355 410
#     4  10  19  40  71  99 132 172 234 289 338 405
#     4  11  21  41  71 109 129 171 243 292 336 413
#     4  12  23  43  78 104 135 188 239 300 340 423
#     4  12  26  45  73 106 145 183 235 301 367 413
#     4  12  24  44  71 105 140 189 242 283 353 432
#     4  12  28  46  67 104 151 186 224 296 369 425
#
# _framework density 21.986046000000002
#
# number of rings (size 3 to 8) (size 9 to 14) (size 15 to 20)
#    0.000    0.500    6.250    2.625    1.750    3.000 
#    4.500    0.000    2.750    0.000    0.000    0.000 
#    0.000    0.000    0.000    0.000    0.000    0.000 
#
# Total GULP energy -396504.484818 kJ/mol
# GULP energy per Si atom -12390.765151 kJ/mol
# Density = 2.193601 g / cm^3
# Si number density = 21.986046 Si / 1000 Ang^3
#
#
#
# Elastic Constant Matrix: (Units=GPa)
#
#
# Indices 1 2 3 4 5 6 
#
# 1 116.2672 27.6893 80.6074 0.0000 2.4313 0.0000
# 2 27.6893 85.1921 42.0064 0.0000 7.2781 0.0000
# 3 80.6074 42.0064 151.4014 0.0000 -18.9218 0.0000
# 4 0.0000 0.0000 0.0000 26.8091 0.0000 -0.1330
# 5 2.4313 7.2781 -18.9218 0.0000 52.8258 0.0000
# 6 0.0000 0.0000 0.0000 -0.1330 0.0000 21.1615
#
#
#
# Elastic Compliance Matrix: (Units=1/GPa)
#
#
# Indices 1 2 3 4 5 6 
#
# 1 0.014249 -0.000449 -0.007889 0.000000 -0.003420 0.000000
# 2 -0.000449 0.014213 -0.004131 0.000000 -0.003417 0.000000
# 3 -0.007889 -0.004131 0.012633 0.000000 0.005457 0.000000
# 4 0.000000 0.000000 0.000000 0.037302 0.000000 0.000234
# 5 -0.003420 -0.003417 0.005457 0.000000 0.021513 0.000000
# 6 0.000000 0.000000 0.000000 0.000234 0.000000 0.047257
#
#
# Mechanical properties :
#
#
# Convention : Reuss Voigt Hill
#
# Bulk Modulus (GPa) = 61.89510 72.60746 67.25128
# Shear Modulus (GPa) = 28.17029 33.66311 30.91670
#
# Velocity S-wave (km/s) = 3.58338 3.91719 3.75400
# Velocity P-wave (km/s) = 6.73305 7.31814 7.03168
#
# Compressibility (1/GPa) = 0.01615637
#
# Stress axis : x y z
#
# Youngs Moduli (GPa) = 70.18202 70.35696 79.15526
#
# Poissons Ratio (x) = 0.03160 0.62445
# Poissons Ratio (y) = 0.03152 0.32703
# Poissons Ratio (z) = 0.55366 0.29068
#
# Static dielectric constant tensor:
#      x y z
#    x 5.205830 0.000000 0.593620 
#    y 0.000000 3.564640 0.000000 
#    z 0.593620 0.000000 4.676080 
# 
# 
# High freq. dielectric constant tensor:
#      x y z
#    x 1.887750 0.000000 -0.002420 
#    y 0.000000 1.816700 0.000000 
#    z -0.002420 0.000000 1.880880 
# 
# From -- ./inp_files/33035.got.cif
#   From: 2010.03.12/outbox.cif.g09.slc.cpg/sg14_17_cif.got.tgz:33035.got - 2010.03.31 13:35:05.
