data_PCOD8124613
_publ_section_title
;
Structure prediction by ZEFSAII (Michael W. Deem and Ramdas Pophale) SiO2 
 PCOD8124613
Probable space group: P 21/C
;
_chemical_formula_sum "Si O2"
_cell_formula_units_Z 28
_cell_length_a 14.949887
_cell_length_b 5.947915
_cell_length_c 17.797726
_cell_angle_alpha 90.000000
_cell_angle_beta 118.325760
_cell_angle_gamma 90.000000
_cell_volume 1393.093219
_symmetry_space_group_name_H-M "P 21/C"
_symmetry_group_IT_number 14
_symmetry_cell_setting 'monoclinic'
loop_
_space_group_symop_operation_xyz
x,y,z
-x,1/2+y,1/2-z
-x,-y,-z
x,1/2-y,1/2+z
loop_
_atom_site_type_symbol
_atom_site_label
_atom_site_fract_x
_atom_site_fract_y
_atom_site_fract_z
Si Si1 0.225842 0.783970 0.390439
Si Si2 0.655028 0.602048 0.332781
Si Si3 0.991237 0.327692 0.707096
Si Si4 0.486277 0.764074 0.154011
Si Si5 0.796209 0.895363 0.754118
Si Si6 0.641335 0.895270 0.102525
Si Si7 0.352102 0.096091 0.533610
O O1 0.121083 0.661748 0.374372
O O2 0.323011 0.623383 0.421878
O O3 0.210992 0.889076 0.302228
O O4 0.254478 0.953399 0.468287
O O5 0.562949 0.716769 0.251979
O O6 0.615457 0.372238 0.353491
O O7 0.749687 0.546293 0.316726
O O8 0.691925 0.759608 0.415087
O O9 0.002177 0.572656 0.753402
O O10 0.085985 0.324484 0.686977
O O11 0.542385 0.926991 0.116007
O O12 0.452254 0.536843 0.099679
O O13 0.734309 0.694803 0.690156
O O14 0.608790 0.733844 0.022169
#
# Coordination Sequence:
#
# PCOD8124613 Si02
#       7
#     4   4   4   4   4   4   4
#     4  10  21  37  64  90 121 155 206 258 316 364
#     4  11  23  38  58  85 124 160 208 248 314 372
#     4  10  19  39  67  98 125 163 212 268 315 375
#     4  11  23  38  60  83 120 167 205 251 307 370
#     4   9  21  37  61  93 119 157 205 257 310 373
#     4  10  21  38  61  88 120 156 206 255 306 366
#     4  11  23  39  56  87 123 164 202 257 306 371
#
# _framework density 20.099159
#
# number of rings (size 3 to 8) (size 9 to 14) (size 15 to 20)
#    0.000    1.714    2.857    1.286    2.000    3.429 
#    0.000    0.714    0.000    3.429    0.000    0.000 
#    0.000    0.000    0.000    0.000    0.000    0.000 
#
# Total GULP energy -346905.009598 kJ/mol
# GULP energy per Si atom -12389.464629 kJ/mol
# Density = 2.005341 g / cm^3
# Si number density = 20.099159 Si / 1000 Ang^3
#
#
#
# Elastic Constant Matrix: (Units=GPa)
#
#
# Indices 1 2 3 4 5 6 
#
# 1 145.4895 20.7436 29.8082 0.0000 -14.3914 0.0000
# 2 20.7436 75.3181 10.1468 0.0000 -8.1634 0.0000
# 3 29.8082 10.1468 61.8213 0.0000 -19.8487 0.0000
# 4 0.0000 0.0000 0.0000 27.1355 0.0000 2.1672
# 5 -14.3914 -8.1634 -19.8487 0.0000 19.9884 0.0000
# 6 0.0000 0.0000 0.0000 2.1672 0.0000 26.8394
#
#
#
# Elastic Compliance Matrix: (Units=1/GPa)
#
#
# Indices 1 2 3 4 5 6 
#
# 1 0.007896 -0.001550 -0.002835 0.000000 0.002237 0.000000
# 2 -0.001550 0.014215 -0.000117 0.000000 0.004573 0.000000
# 3 -0.002835 -0.000117 0.024797 0.000000 0.022535 0.000000
# 4 0.000000 0.000000 0.000000 0.037091 0.000000 -0.002995
# 5 0.002237 0.004573 0.022535 0.000000 0.075885 0.000000
# 6 0.000000 0.000000 0.000000 -0.002995 0.000000 0.037501
#
#
# Mechanical properties :
#
#
# Convention : Reuss Voigt Hill
#
# Bulk Modulus (GPa) = 26.38263 44.89179 35.63721
# Shear Modulus (GPa) = 22.82845 29.58800 26.20823
#
# Velocity S-wave (km/s) = 3.37381 3.84096 3.61494
# Velocity P-wave (km/s) = 5.32273 6.48493 5.93236
#
# Compressibility (1/GPa) = 0.03790372
#
# Stress axis : x y z
#
# Youngs Moduli (GPa) = 126.63874 70.34586 40.32774
#
# Poissons Ratio (x) = 0.10907 0.11431
# Poissons Ratio (y) = 0.19634 0.00474
# Poissons Ratio (z) = 0.35897 0.00827
#
# Static dielectric constant tensor:
#      x y z
#    x 3.806310 0.000000 0.052750 
#    y 0.000000 3.842480 0.000000 
#    z 0.052750 0.000000 3.606670 
# 
# 
# High freq. dielectric constant tensor:
#      x y z
#    x 1.783270 0.000000 0.006300 
#    y 0.000000 1.790320 0.000000 
#    z 0.006300 0.000000 1.768290 
# 
# From -- ./inp_files/58409.got.cif
#   From: 2010.03.12/outbox.cif.g09.slc.cpg/sg14_30_cif.got.tgz:58409.got - 2010.03.31 13:35:05.
