data_PCOD8124582
_publ_section_title
;
Structure prediction by ZEFSAII (Michael W. Deem and Ramdas Pophale) SiO2 
 PCOD8124582
Probable space group: P 21/C
;
_chemical_formula_sum "Si O2"
_cell_formula_units_Z 32
_cell_length_a 19.404695
_cell_length_b 8.396704
_cell_length_c 25.776762
_cell_angle_alpha 90.000000
_cell_angle_beta 158.115761
_cell_angle_gamma 90.000000
_cell_volume 1565.457685
_symmetry_space_group_name_H-M "P 21/C"
_symmetry_group_IT_number 14
_symmetry_cell_setting 'monoclinic'
loop_
_space_group_symop_operation_xyz
x,y,z
-x,1/2+y,1/2-z
-x,-y,-z
x,1/2-y,1/2+z
loop_
_atom_site_type_symbol
_atom_site_label
_atom_site_fract_x
_atom_site_fract_y
_atom_site_fract_z
Si Si1 0.779819 0.229453 0.117452
Si Si2 0.910570 0.995932 0.633797
Si Si3 0.742535 0.991586 0.777899
Si Si4 0.624011 0.679987 0.987308
Si Si5 0.465642 0.007767 0.914654
Si Si6 0.023422 0.248800 0.009469
Si Si7 0.972039 0.515536 0.899532
Si Si8 0.282159 0.496968 0.853523
O O1 0.841193 0.342070 0.113000
O O2 0.791608 0.330827 0.179019
O O3 0.901624 0.069647 0.208888
O O4 0.569580 0.163328 0.963853
O O5 0.942936 0.043558 0.597287
O O6 0.760848 0.850251 0.534118
O O7 0.530098 0.042719 0.627339
O O8 0.813440 0.957876 0.768215
O O9 0.780743 0.833983 0.838731
O O10 0.858846 0.127466 0.886324
O O11 0.754382 0.639127 0.128693
O O12 0.539816 0.853900 0.934755
O O13 0.249670 0.020581 0.754151
O O14 0.500000 0.000000 0.000000
O O15 0.952283 0.352551 0.008301
O O16 0.048924 0.347911 0.974613
O O17 0.500000 0.500000 0.000000
#
# Coordination Sequence:
#
# PCOD8124582 Si02
#       8
#     4   4   4   4   4   4   4   4
#     4  11  23  38  60  97 133 171 194 257 337 402
#     4  11  24  41  60  93 141 160 204 256 339 380
#     4  10  19  39  62  94 120 161 214 266 304 361
#     4  10  22  38  63  97 131 160 198 263 326 396
#     4  12  22  38  68  95 128 167 210 255 324 376
#     4  10  23  39  65  86 121 170 227 262 292 357
#     4  11  24  42  63  92 126 167 218 265 302 373
#     4   9  19  34  62  96 124 152 206 255 318 375
#
# _framework density 20.441306999999998
#
# number of rings (size 3 to 8) (size 9 to 14) (size 15 to 20)
#    0.000    1.500    2.500    3.000    7.000    1.000 
#    0.000    3.750    0.000    0.000    0.000    0.000 
#    0.000    0.000    0.000    0.000    0.000    0.000 
#
# Total GULP energy -396577.954817 kJ/mol
# GULP energy per Si atom -12393.061088 kJ/mol
# Density = 2.039478 g / cm^3
# Si number density = 20.441307 Si / 1000 Ang^3
#
#
#
# Elastic Constant Matrix: (Units=GPa)
#
#
# Indices 1 2 3 4 5 6 
#
# 1 120.5585 43.5719 49.3333 0.0000 -0.8361 0.0000
# 2 43.5719 76.1933 25.9793 0.0000 -5.9296 0.0000
# 3 49.3333 25.9793 82.4667 0.0000 -11.2952 0.0000
# 4 0.0000 0.0000 0.0000 34.7980 0.0000 5.7280
# 5 -0.8361 -5.9296 -11.2952 0.0000 23.9861 0.0000
# 6 0.0000 0.0000 0.0000 5.7280 0.0000 31.3659
#
#
#
# Elastic Compliance Matrix: (Units=1/GPa)
#
#
# Indices 1 2 3 4 5 6 
#
# 1 0.012926 -0.005467 -0.006557 0.000000 -0.003988 0.000000
# 2 -0.005467 0.017070 -0.001663 0.000000 0.003246 0.000000
# 3 -0.006557 -0.001663 0.017621 0.000000 0.007658 0.000000
# 4 0.000000 0.000000 0.000000 0.029628 0.000000 -0.005411
# 5 -0.003988 0.003246 0.007658 0.000000 0.045961 0.000000
# 6 0.000000 0.000000 0.000000 -0.005411 0.000000 0.032870
#
#
# Mechanical properties :
#
#
# Convention : Reuss Voigt Hill
#
# Bulk Modulus (GPa) = 49.39418 57.44308 53.41863
# Shear Modulus (GPa) = 26.28870 28.71894 27.50382
#
# Velocity S-wave (km/s) = 3.59006 3.75233 3.67209
# Velocity P-wave (km/s) = 6.43436 6.85097 6.64593
#
# Compressibility (1/GPa) = 0.02024530
#
# Stress axis : x y z
#
# Youngs Moduli (GPa) = 77.36473 58.58169 56.74991
#
# Poissons Ratio (x) = 0.32024 0.37209
# Poissons Ratio (y) = 0.42292 0.09436
# Poissons Ratio (z) = 0.50725 0.09741
#
# Static dielectric constant tensor:
#      x y z
#    x 4.239510 0.000000 -0.182330 
#    y 0.000000 3.797410 0.000000 
#    z -0.182330 0.000000 3.854340 
# 
# 
# High freq. dielectric constant tensor:
#      x y z
#    x 1.783080 0.000000 -0.002050 
#    y 0.000000 1.813710 0.000000 
#    z -0.002050 0.000000 1.788580 
# 
# From -- ./inp_files/78023.got.cif
#   From: 2010.03.12/outbox.cif.g09.slc.cpg/sg14_40_cif.got.tgz:78023.got - 2010.03.31 13:35:05.
