data_PCOD8124876
_publ_section_title
;
Structure prediction by ZEFSAII (Michael W. Deem and Ramdas Pophale) SiO2 
 PCOD8124876
Probable space group: P 21/C
;
_chemical_formula_sum "Si O2"
_cell_formula_units_Z 28
_cell_length_a 25.257708
_cell_length_b 9.986393
_cell_length_c 8.256311
_cell_angle_alpha 90.000000
_cell_angle_beta 137.576323
_cell_angle_gamma 90.000000
_cell_volume 1404.881825
_symmetry_space_group_name_H-M "P 21/C"
_symmetry_group_IT_number 14
_symmetry_cell_setting 'monoclinic'
loop_
_space_group_symop_operation_xyz
x,y,z
-x,1/2+y,1/2-z
-x,-y,-z
x,1/2-y,1/2+z
loop_
_atom_site_type_symbol
_atom_site_label
_atom_site_fract_x
_atom_site_fract_y
_atom_site_fract_z
Si Si1 0.920591 0.069079 0.874732
Si Si2 0.178535 0.357606 0.996297
Si Si3 0.553833 0.687272 0.062778
Si Si4 0.109818 0.390214 0.183925
Si Si5 0.067860 0.845703 0.733918
Si Si6 0.641532 0.912215 0.063550
Si Si7 0.470484 0.895729 0.063540
O O1 0.898460 0.196855 0.714011
O O2 0.850760 0.960360 0.707946
O O3 0.929545 0.120128 0.074273
O O4 0.000000 0.000000 0.000000
O O5 0.171496 0.205247 0.917091
O O6 0.121978 0.377373 0.020914
O O7 0.266213 0.395083 0.242424
O O8 0.608587 0.802074 0.112357
O O9 0.605850 0.599982 0.302667
O O10 0.480208 0.750590 0.000450
O O11 0.522211 0.595609 0.845537
O O12 0.120962 0.545360 0.258867
O O13 0.021710 0.346233 0.033573
O O14 0.617603 0.059298 0.082102
O O15 0.500000 0.000000 0.000000
#
# Coordination Sequence:
#
# PCOD8124876 Si02
#       7
#     4   4   4   4   4   4   4
#     4  12  23  39  61  85 116 157 202 250 299 360
#     4  12  23  37  59  90 122 156 197 255 312 354
#     4   9  18  35  59  85 118 154 195 238 288 356
#     4  11  22  37  60  85 114 152 199 249 305 357
#     4  11  23  39  60  83 111 151 206 252 292 356
#     4  10  20  35  56  88 120 150 191 247 297 352
#     4   9  18  34  59  87 114 155 198 234 288 359
#
# _framework density 19.930502000000001
#
# number of rings (size 3 to 8) (size 9 to 14) (size 15 to 20)
#    0.000    1.429    2.857    3.000    2.000    0.000 
#    0.000    4.286    0.000    3.429    0.000    0.000 
#    0.000    0.000    0.000    0.000    0.000    0.000 
#
# Total GULP energy -347101.969566 kJ/mol
# GULP energy per Si atom -12396.498913 kJ/mol
# Density = 1.988514 g / cm^3
# Si number density = 19.930502 Si / 1000 Ang^3
#
#
#
# Elastic Constant Matrix: (Units=GPa)
#
#
# Indices 1 2 3 4 5 6 
#
# 1 60.1118 31.4138 37.9378 0.0000 -13.1959 0.0000
# 2 31.4138 111.3777 49.0180 0.0000 -0.7888 0.0000
# 3 37.9378 49.0180 97.2640 0.0000 -7.8082 0.0000
# 4 0.0000 0.0000 0.0000 34.8452 0.0000 -6.1966
# 5 -13.1959 -0.7888 -7.8082 0.0000 37.5951 0.0000
# 6 0.0000 0.0000 0.0000 -6.1966 0.0000 30.6805
#
#
#
# Elastic Compliance Matrix: (Units=1/GPa)
#
#
# Indices 1 2 3 4 5 6 
#
# 1 0.024677 -0.003758 -0.007162 0.000000 0.007095 0.000000
# 2 -0.003758 0.012145 -0.004821 0.000000 -0.002065 0.000000
# 3 -0.007162 -0.004821 0.015554 0.000000 0.000615 0.000000
# 4 0.000000 0.000000 0.000000 0.029768 0.000000 0.006012
# 5 0.007095 -0.002065 0.000615 0.000000 0.029174 0.000000
# 6 0.000000 0.000000 0.000000 0.006012 0.000000 0.033808
#
#
# Mechanical properties :
#
#
# Convention : Reuss Voigt Hill
#
# Bulk Modulus (GPa) = 47.85846 56.16585 52.01215
# Shear Modulus (GPa) = 27.23715 30.64975 28.94345
#
# Velocity S-wave (km/s) = 3.70077 3.92577 3.81493
# Velocity P-wave (km/s) = 6.50583 6.98505 6.74969
#
# Compressibility (1/GPa) = 0.02089495
#
# Stress axis : x y z
#
# Youngs Moduli (GPa) = 40.52340 82.33511 64.29294
#
# Poissons Ratio (x) = 0.30941 0.46045
# Poissons Ratio (y) = 0.15228 0.30996
# Poissons Ratio (z) = 0.29022 0.39694
#
# Static dielectric constant tensor:
#      x y z
#    x 3.771040 0.000000 -0.239570 
#    y 0.000000 3.952930 0.000000 
#    z -0.239570 0.000000 3.532280 
# 
# 
# High freq. dielectric constant tensor:
#      x y z
#    x 1.774340 0.000000 -0.030700 
#    y 0.000000 1.780340 0.000000 
#    z -0.030700 0.000000 1.761230 
# 
# From -- ./inp_files/19756.got.cif
#   From: 2010.03.12/outbox.cif.g09.slc.cpg/sg14_10_cif.got.tgz:19756.got - 2010.03.31 13:35:05.
