data_PCOD8124890
_publ_section_title
;
Structure prediction by ZEFSAII (Michael W. Deem and Ramdas Pophale) SiO2 
 PCOD8124890
Probable space group: P 21/C
;
_chemical_formula_sum "Si O2"
_cell_formula_units_Z 28
_cell_length_a 22.491077
_cell_length_b 10.786478
_cell_length_c 8.851443
_cell_angle_alpha 90.000000
_cell_angle_beta 41.192738
_cell_angle_gamma 90.000000
_cell_volume 1414.235779
_symmetry_space_group_name_H-M "P 21/C"
_symmetry_group_IT_number 14
_symmetry_cell_setting 'monoclinic'
loop_
_space_group_symop_operation_xyz
x,y,z
-x,1/2+y,1/2-z
-x,-y,-z
x,1/2-y,1/2+z
loop_
_atom_site_type_symbol
_atom_site_label
_atom_site_fract_x
_atom_site_fract_y
_atom_site_fract_z
Si Si1 0.757900 0.897462 0.936205
Si Si2 0.929131 0.604577 0.618576
Si Si3 0.758384 0.860506 0.588213
Si Si4 0.018701 0.739891 0.193654
Si Si5 0.550000 0.885972 0.327018
Si Si6 0.449347 0.118144 0.024799
Si Si7 0.087674 0.583467 0.814875
O O1 0.785746 0.871305 0.710442
O O2 0.819412 0.008645 0.882005
O O3 0.774912 0.780123 0.008000
O O4 0.652912 0.928875 0.147866
O O5 0.000000 0.500000 0.500000
O O6 0.944841 0.658700 0.423503
O O7 0.950864 0.703967 0.703787
O O8 0.826531 0.559124 0.850388
O O9 0.657199 0.906715 0.749925
O O10 0.075708 0.832674 0.189012
O O11 0.094419 0.662597 0.956938
O O12 0.526923 0.751728 0.445510
O O13 0.500000 0.000000 0.500000
O O14 0.523149 0.873963 0.202960
O O15 0.500000 0.000000 0.000000
O O16 0.000000 0.500000 0.000000
#
# Coordination Sequence:
#
# PCOD8124890 Si02
#       7
#     4   4   4   4   4   4   4
#     4  10  21  37  59  83 111 146 185 233 283 338
#     4  11  20  34  53  77 108 144 180 224 271 320
#     4  10  20  35  58  85 110 142 191 233 277 341
#     4  10  22  34  51  78 111 147 189 230 276 331
#     4  10  21  40  63  89 118 151 194 243 298 363
#     4  10  21  39  63  89 118 152 192 246 302 354
#     4  11  21  37  55  77 113 152 191 239 286 337
#
# _framework density 19.798677999999999
#
# number of rings (size 3 to 8) (size 9 to 14) (size 15 to 20)
#    0.000    1.714    0.000    6.000    0.000    2.286 
#    0.000    7.143    0.000    0.000    0.000    0.000 
#    0.000    0.000    0.000    0.000    0.000    0.000 
#
# Total GULP energy -347003.761382 kJ/mol
# GULP energy per Si atom -12392.991478 kJ/mol
# Density = 1.975362 g / cm^3
# Si number density = 19.798678 Si / 1000 Ang^3
#
#
#
# Elastic Constant Matrix: (Units=GPa)
#
#
# Indices 1 2 3 4 5 6 
#
# 1 65.5054 26.2886 16.8986 0.0000 5.5554 0.0000
# 2 26.2886 93.3879 36.4728 0.0000 -7.9422 0.0000
# 3 16.8986 36.4728 90.7535 0.0000 -3.7004 0.0000
# 4 0.0000 0.0000 0.0000 26.5085 0.0000 -26.6951
# 5 5.5554 -7.9422 -3.7004 0.0000 27.8181 0.0000
# 6 0.0000 0.0000 0.0000 -26.6951 0.0000 -8.7614
#
#
#
# Elastic Compliance Matrix: (Units=1/GPa)
#
#
# Indices 1 2 3 4 5 6 
#
# 1 0.018095 -0.004910 -0.001609 0.000000 -0.005230 0.000000
# 2 -0.004910 0.014282 -0.004644 0.000000 0.004440 0.000000
# 3 -0.001609 -0.004644 0.013216 0.000000 0.000753 0.000000
# 4 0.000000 0.000000 0.000000 0.009273 0.000000 -0.028252
# 5 -0.005230 0.004440 0.000753 0.000000 0.038360 0.000000
# 6 0.000000 0.000000 0.000000 -0.028252 0.000000 -0.028055
#
#
# Mechanical properties :
#
#
# Convention : Reuss Voigt Hill
#
# Bulk Modulus (GPa) = 42.98264 45.44073 44.21169
# Shear Modulus (GPa) = 52.49209 20.44549 36.46879
#
# Velocity S-wave (km/s) = 5.15466 3.21700 4.29649
# Velocity P-wave (km/s) = 7.56203 6.06630 6.85508
#
# Compressibility (1/GPa) = 0.02326521
#
# Stress axis : x y z
#
# Youngs Moduli (GPa) = 55.26377 70.01996 75.66732
#
# Poissons Ratio (x) = 0.34379 0.12177
# Poissons Ratio (y) = 0.27134 0.35142
# Poissons Ratio (z) = 0.08894 0.32520
#
# Static dielectric constant tensor:
#      x y z
#    x 3.659030 0.000000 0.154890 
#    y 0.000000 3.618100 0.000000 
#    z 0.154890 0.000000 4.131470 
# 
# 
# High freq. dielectric constant tensor:
#      x y z
#    x 1.778330 0.000000 0.015530 
#    y 0.000000 1.765570 0.000000 
#    z 0.015530 0.000000 1.781990 
# 
# From -- ./inp_files/18917.got.cif
#   From: 2010.03.12/outbox.cif.g09.slc.cpg/sg14_10_cif.got.tgz:18917.got - 2010.03.31 13:35:05.
