data_PCOD8124519
_publ_section_title
;
Structure prediction by ZEFSAII (Michael W. Deem and Ramdas Pophale) SiO2 
 PCOD8124519
Probable space group: P 21/C
;
_chemical_formula_sum "Si O2"
_cell_formula_units_Z 28
_cell_length_a 8.765107
_cell_length_b 16.377263
_cell_length_c 9.853377
_cell_angle_alpha 90.000000
_cell_angle_beta 78.397846
_cell_angle_gamma 90.000000
_cell_volume 1385.536901
_symmetry_space_group_name_H-M "P 21/C"
_symmetry_group_IT_number 14
_symmetry_cell_setting 'monoclinic'
loop_
_space_group_symop_operation_xyz
x,y,z
-x,1/2+y,1/2-z
-x,-y,-z
x,1/2-y,1/2+z
loop_
_atom_site_type_symbol
_atom_site_label
_atom_site_fract_x
_atom_site_fract_y
_atom_site_fract_z
Si Si1 0.236618 0.911617 0.348912
Si Si2 0.218313 0.081357 0.978490
Si Si3 0.237450 0.908549 0.664060
Si Si4 0.554115 0.825985 0.917376
Si Si5 0.478772 0.511685 0.292078
Si Si6 0.011906 0.529043 0.682769
Si Si7 0.394329 0.746544 0.707027
O O1 0.201499 0.913861 0.512987
O O2 0.306486 0.825422 0.297242
O O3 0.351129 0.984079 0.284078
O O4 0.069759 0.925278 0.306792
O O5 0.381556 0.062515 0.873784
O O6 0.264698 0.160013 0.064698
O O7 0.163079 0.002839 0.074624
O O8 0.083569 0.096295 0.889889
O O9 0.394191 0.958272 0.669994
O O10 0.263422 0.816121 0.709981
O O11 0.093645 0.949372 0.769599
O O12 0.486126 0.916634 0.902864
O O13 0.537681 0.775511 0.779547
O O14 0.458581 0.778506 0.049320
#
# Coordination Sequence:
#
# PCOD8124519 Si02
#       7
#     4   4   4   4   4   4   4
#     4  12  20  39  66  94 121 170 215 260 311 369
#     4  10  19  38  61  92 116 156 210 256 305 372
#     4  10  23  40  57  95 132 165 200 264 320 378
#     4  11  20  39  61  94 121 160 207 266 314 365
#     4  10  20  35  69  93 118 156 221 267 300 360
#     4  10  22  37  64  89 126 164 206 257 311 380
#     4  11  23  37  66  91 126 160 211 266 318 365
#
# _framework density 20.208772
#
# number of rings (size 3 to 8) (size 9 to 14) (size 15 to 20)
#    0.000    1.429    4.286    2.143    0.000    1.143 
#    0.000    1.429    0.000    0.000    0.000    0.000 
#    0.000    0.000    0.000    0.000    0.000    0.000 
#
# Total GULP energy -347054.132886 kJ/mol
# GULP energy per Si atom -12394.790460 kJ/mol
# Density = 2.016278 g / cm^3
# Si number density = 20.208772 Si / 1000 Ang^3
#
#
#
# Elastic Constant Matrix: (Units=GPa)
#
#
# Indices 1 2 3 4 5 6 
#
# 1 79.8219 31.1842 28.8489 0.0000 31.4918 0.0000
# 2 31.1842 78.5560 20.2551 0.0000 17.5487 0.0000
# 3 28.8489 20.2551 101.5283 0.0000 33.1900 0.0000
# 4 0.0000 0.0000 0.0000 22.2697 0.0000 1.7138
# 5 31.4918 17.5487 33.1900 0.0000 43.6242 0.0000
# 6 0.0000 0.0000 0.0000 1.7138 0.0000 36.4517
#
#
#
# Elastic Compliance Matrix: (Units=1/GPa)
#
#
# Indices 1 2 3 4 5 6 
#
# 1 0.019170 -0.004889 -0.000786 0.000000 -0.011274 0.000000
# 2 -0.004889 0.015357 -0.001077 0.000000 -0.001829 0.000000
# 3 -0.000786 -0.001077 0.013258 0.000000 -0.009086 0.000000
# 4 0.000000 0.000000 0.000000 0.045067 0.000000 -0.002119
# 5 -0.011274 -0.001829 -0.009086 0.000000 0.038710 0.000000
# 6 0.000000 0.000000 0.000000 -0.002119 0.000000 0.027533
#
#
# Mechanical properties :
#
#
# Convention : Reuss Voigt Hill
#
# Bulk Modulus (GPa) = 29.17038 46.72028 37.94533
# Shear Modulus (GPa) = 27.17027 32.44365 29.80696
#
# Velocity S-wave (km/s) = 3.67069 4.01112 3.84468
# Velocity P-wave (km/s) = 5.69484 6.67990 6.20694
#
# Compressibility (1/GPa) = 0.03428135
#
# Stress axis : x y z
#
# Youngs Moduli (GPa) = 52.16589 65.11845 75.42625
#
# Poissons Ratio (x) = 0.31834 0.05931
# Poissons Ratio (y) = 0.25502 0.08120
# Poissons Ratio (z) = 0.04102 0.07010
#
# Static dielectric constant tensor:
#      x y z
#    x 3.804150 0.000000 0.422350 
#    y 0.000000 3.571470 0.000000 
#    z 0.422350 0.000000 3.734440 
# 
# 
# High freq. dielectric constant tensor:
#      x y z
#    x 1.785220 0.000000 0.031010 
#    y 0.000000 1.768570 0.000000 
#    z 0.031010 0.000000 1.799870 
# 
# From -- ./inp_files/9362.got.cif
#   From: 2010.03.12/outbox.cif.g09.slc.cpg/sg14_5_cif.got.tgz:9362.got - 2010.03.31 13:35:05.
