data_PCOD8124130
_publ_section_title
;
Structure prediction by ZEFSAII (Michael W. Deem and Ramdas Pophale) SiO2 
 PCOD8124130
Probable space group: P 21/C
;
_chemical_formula_sum "Si O2"
_cell_formula_units_Z 28
_cell_length_a 19.309069
_cell_length_b 19.029977
_cell_length_c 14.173126
_cell_angle_alpha 90.000000
_cell_angle_beta 161.667691
_cell_angle_gamma 90.000000
_cell_volume 1638.039096
_symmetry_space_group_name_H-M "P 21/C"
_symmetry_group_IT_number 14
_symmetry_cell_setting 'monoclinic'
loop_
_space_group_symop_operation_xyz
x,y,z
-x,1/2+y,1/2-z
-x,-y,-z
x,1/2-y,1/2+z
loop_
_atom_site_type_symbol
_atom_site_label
_atom_site_fract_x
_atom_site_fract_y
_atom_site_fract_z
Si Si1 0.456234 0.283390 0.177617
Si Si2 0.883425 0.819353 0.191238
Si Si3 0.866640 0.293872 0.811790
Si Si4 0.877725 0.298528 0.620778
Si Si5 0.234824 0.578198 0.657527
Si Si6 0.738009 0.917276 0.844497
Si Si7 0.062150 0.141898 0.083471
O O1 0.601955 0.304870 0.458428
O O2 0.626492 0.270491 0.310816
O O3 0.334716 0.210326 0.040520
O O4 0.288390 0.345930 0.934231
O O5 0.050258 0.840216 0.492237
O O6 0.981480 0.759110 0.251252
O O7 0.824440 0.888209 0.056056
O O8 0.982360 0.313323 0.860690
O O9 0.918730 0.212505 0.900386
O O10 0.876641 0.370963 0.562842
O O11 0.229356 0.500333 0.609270
O O12 0.085310 0.581698 0.558232
O O13 0.483040 0.602340 0.000921
O O14 0.884928 0.882517 0.953226
#
# Coordination Sequence:
#
# PCOD8124130 Si02
#       7
#     4   4   4   4   4   4   4
#     4   9  19  31  54  77 104 138 175 224 265 311
#     4  11  20  34  56  78 108 143 177 227 267 315
#     4   9  19  33  51  82 102 130 185 222 259 318
#     4  10  19  35  53  76 107 139 182 218 271 320
#     4  11  22  35  56  83 112 145 178 219 280 328
#     4  11  22  35  55  83 114 143 179 226 269 325
#     4  11  18  35  55  81 108 139 177 224 273 315
#
# _framework density 17.093610999999999
#
# number of rings (size 3 to 8) (size 9 to 14) (size 15 to 20)
#    0.857    0.857    5.714    1.286    0.000    0.000 
#    0.000    0.714    0.000    0.857    0.000    0.000 
#    0.000    0.000    0.000    0.000    0.000    0.000 
#
# Total GULP energy -346993.864931 kJ/mol
# GULP energy per Si atom -12392.638033 kJ/mol
# Density = 1.705470 g / cm^3
# Si number density = 17.093611 Si / 1000 Ang^3
#
#
#
# Elastic Constant Matrix: (Units=GPa)
#
#
# Indices 1 2 3 4 5 6 
#
# 1 72.0168 13.8326 15.9049 0.0000 -6.3585 0.0000
# 2 13.8326 52.4188 17.4972 0.0000 -4.6289 0.0000
# 3 15.9049 17.4972 58.5377 0.0000 -15.9375 0.0000
# 4 0.0000 0.0000 0.0000 22.6196 0.0000 -5.8015
# 5 -6.3585 -4.6289 -15.9375 0.0000 38.4230 0.0000
# 6 0.0000 0.0000 0.0000 -5.8015 0.0000 23.5589
#
#
#
# Elastic Compliance Matrix: (Units=1/GPa)
#
#
# Indices 1 2 3 4 5 6 
#
# 1 0.015192 -0.002925 -0.003004 0.000000 0.000916 0.000000
# 2 -0.002925 0.021755 -0.005779 0.000000 -0.000260 0.000000
# 3 -0.003004 -0.005779 0.021759 0.000000 0.007832 0.000000
# 4 0.000000 0.000000 0.000000 0.047190 0.000000 0.011621
# 5 0.000916 -0.000260 0.007832 0.000000 0.029395 0.000000
# 6 0.000000 0.000000 0.000000 0.011621 0.000000 0.045308
#
#
# Mechanical properties :
#
#
# Convention : Reuss Voigt Hill
#
# Bulk Modulus (GPa) = 28.33693 30.82696 29.58195
# Shear Modulus (GPa) = 23.17194 25.96955 24.57074
#
# Velocity S-wave (km/s) = 3.68583 3.90199 3.79545
# Velocity P-wave (km/s) = 5.89298 6.19468 6.04571
#
# Compressibility (1/GPa) = 0.03528963
#
# Stress axis : x y z
#
# Youngs Moduli (GPa) = 65.82496 45.96642 45.95823
#
# Poissons Ratio (x) = 0.13447 0.13806
# Poissons Ratio (y) = 0.19256 0.26558
# Poissons Ratio (z) = 0.19774 0.26563
#
# Static dielectric constant tensor:
#      x y z
#    x 3.354130 0.000000 -0.025140 
#    y 0.000000 2.935840 0.000000 
#    z -0.025140 0.000000 3.337450 
# 
# 
# High freq. dielectric constant tensor:
#      x y z
#    x 1.670240 0.000000 0.003830 
#    y 0.000000 1.624780 0.000000 
#    z 0.003830 0.000000 1.660000 
# 
# From -- ./inp_files/41523.got.cif
#   From: 2010.03.12/outbox.cif.g09.slc.cpg/sg14_21_cif.got.tgz:41523.got - 2010.03.31 13:35:05.
