data_PCOD8124365
_publ_section_title
;
Structure prediction by ZEFSAII (Michael W. Deem and Ramdas Pophale) SiO2 
 PCOD8124365
Probable space group: P 21/C
;
_chemical_formula_sum "Si O2"
_cell_formula_units_Z 32
_cell_length_a 12.572984
_cell_length_b 17.405854
_cell_length_c 5.443403
_cell_angle_alpha 90.000000
_cell_angle_beta 94.236700
_cell_angle_gamma 90.000000
_cell_volume 1187.998228
_symmetry_space_group_name_H-M "P 21/C"
_symmetry_group_IT_number 14
_symmetry_cell_setting 'monoclinic'
loop_
_space_group_symop_operation_xyz
x,y,z
-x,1/2+y,1/2-z
-x,-y,-z
x,1/2-y,1/2+z
loop_
_atom_site_type_symbol
_atom_site_label
_atom_site_fract_x
_atom_site_fract_y
_atom_site_fract_z
Si Si1 0.508526 0.282840 0.727123
Si Si2 0.023252 0.206983 0.975533
Si Si3 0.268728 0.282100 0.221674
Si Si4 0.251002 0.442645 0.028827
Si Si5 0.302643 0.543704 0.430258
Si Si6 0.102868 0.045419 0.101126
Si Si7 0.774712 0.206664 0.983913
Si Si8 0.551586 0.546987 0.230804
O O1 0.565376 0.247809 0.489475
O O2 0.389505 0.248551 0.726079
O O3 0.516593 0.376383 0.711077
O O4 0.050734 0.264652 0.203913
O O5 0.093287 0.131445 0.007784
O O6 0.899055 0.185769 0.989177
O O7 0.211423 0.249311 0.460711
O O8 0.260429 0.374356 0.230400
O O9 0.294648 0.525463 0.137229
O O10 0.130409 0.452719 0.899954
O O11 0.333005 0.419172 0.827480
O O12 0.202195 0.495007 0.497480
O O13 0.294633 0.630045 0.515656
O O14 0.418318 0.510180 0.534721
O O15 0.000000 0.000000 0.000000
O O16 0.743133 0.252243 0.733935
O O17 0.500000 0.500000 0.000000
#
# Coordination Sequence:
#
# PCOD8124365 Si02
#       8
#     4   4   4   4   4   4   4   4
#     4  10  19  39  67  95 137 178 220 275 355 419
#     4  10  23  43  64 100 141 185 236 284 344 415
#     4  10  19  36  64  93 136 178 219 271 344 421
#     4  11  25  40  69 101 136 186 230 286 355 419
#     4  11  25  45  70 101 138 180 237 288 355 419
#     4  11  25  43  65 101 141 184 230 287 347 415
#     4  10  23  44  73  94 134 189 237 291 342 402
#     4  11  25  45  69 103 138 183 234 296 355 424
#
# _framework density 26.936067000000001
#
# number of rings (size 3 to 8) (size 9 to 14) (size 15 to 20)
#    0.000    1.500    3.750    1.500    7.000    3.000 
#    0.000    1.250    0.000    0.000    0.000    0.000 
#    0.000    0.000    0.000    0.000    0.000    0.000 
#
# Total GULP energy -396647.167261 kJ/mol
# GULP energy per Si atom -12395.223977 kJ/mol
# Density = 2.687476 g / cm^3
# Si number density = 26.936067 Si / 1000 Ang^3
#
#
#
# Elastic Constant Matrix: (Units=GPa)
#
#
# Indices 1 2 3 4 5 6 
#
# 1 84.8593 38.6060 45.1924 0.0000 -1.9526 0.0000
# 2 38.6060 161.7463 52.4303 0.0000 6.6195 0.0000
# 3 45.1924 52.4303 166.7875 0.0000 10.7692 0.0000
# 4 0.0000 0.0000 0.0000 45.1643 0.0000 7.8201
# 5 -1.9526 6.6195 10.7692 0.0000 52.2102 0.0000
# 6 0.0000 0.0000 0.0000 7.8201 0.0000 27.1271
#
#
#
# Elastic Compliance Matrix: (Units=1/GPa)
#
#
# Indices 1 2 3 4 5 6 
#
# 1 0.014718 -0.002507 -0.003300 0.000000 0.001549 0.000000
# 2 -0.002507 0.007321 -0.001577 0.000000 -0.000697 0.000000
# 3 -0.003300 -0.001577 0.007480 0.000000 -0.001466 0.000000
# 4 0.000000 0.000000 0.000000 0.023305 0.000000 -0.006718
# 5 0.001549 -0.000697 -0.001466 0.000000 0.019602 0.000000
# 6 0.000000 0.000000 0.000000 -0.006718 0.000000 0.038800
#
#
# Mechanical properties :
#
#
# Convention : Reuss Voigt Hill
#
# Bulk Modulus (GPa) = 67.79091 76.20561 71.99826
# Shear Modulus (GPa) = 38.19436 43.37794 40.78615
#
# Velocity S-wave (km/s) = 3.76967 4.01734 3.89547
# Velocity P-wave (km/s) = 6.64599 7.06197 6.85713
#
# Compressibility (1/GPa) = 0.01475124
#
# Stress axis : x y z
#
# Youngs Moduli (GPa) = 67.94600 136.60255 133.68563
#
# Poissons Ratio (x) = 0.34240 0.44115
# Poissons Ratio (y) = 0.17031 0.21083
# Poissons Ratio (z) = 0.22422 0.21543
#
# Static dielectric constant tensor:
#      x y z
#    x 5.224980 0.000000 -0.139080 
#    y 0.000000 2.726640 0.000000 
#    z -0.139080 0.000000 5.207400 
# 
# 
# High freq. dielectric constant tensor:
#      x y z
#    x 2.123810 0.000000 0.003140 
#    y 0.000000 2.078980 0.000000 
#    z 0.003140 0.000000 2.102460 
# 
# From -- ./inp_files/3812.got.cif
#   From: 2010.03.12/outbox.cif.g09.slc.cpg/sg14_2_cif.got.tgz:3812.got - 2010.03.31 13:35:05.
