data_PCOD8124999
_publ_section_title
;
Structure prediction by ZEFSAII (Michael W. Deem and Ramdas Pophale) SiO2 
 PCOD8124999
Probable space group: P 21/C
;
_chemical_formula_sum "Si O2"
_cell_formula_units_Z 20
_cell_length_a 19.370089
_cell_length_b 9.618440
_cell_length_c 13.536548
_cell_angle_alpha 90.000000
_cell_angle_beta 159.631486
_cell_angle_gamma 90.000000
_cell_volume 877.797752
_symmetry_space_group_name_H-M "P 21/C"
_symmetry_group_IT_number 14
_symmetry_cell_setting 'monoclinic'
loop_
_space_group_symop_operation_xyz
x,y,z
-x,1/2+y,1/2-z
-x,-y,-z
x,1/2-y,1/2+z
loop_
_atom_site_type_symbol
_atom_site_label
_atom_site_fract_x
_atom_site_fract_y
_atom_site_fract_z
Si Si1 0.206815 0.999561 0.030666
Si Si2 0.693985 0.218707 0.406988
Si Si3 0.317012 0.230917 0.028717
Si Si4 0.236911 0.061449 0.582069
Si Si5 0.135013 0.282358 0.585483
O O1 0.348814 0.865116 0.206280
O O2 0.220220 0.097741 0.952234
O O3 0.250751 0.088189 0.188627
O O4 0.991377 0.934634 0.755323
O O5 0.527263 0.190112 0.264538
O O6 0.684035 0.097036 0.309912
O O7 0.904254 0.217023 0.746035
O O8 0.356225 0.353549 0.159010
O O9 0.161146 0.287739 0.737857
O O10 0.248358 0.140160 0.702734
#
# Coordination Sequence:
#
# PCOD8124999 Si02
#       5
#     4   4   4   4   4
#     4   9  20  39  56  80 116 144 179 229 273 323
#     4  10  20  36  58  84 112 142 184 230 266 322
#     4  11  21  37  60  82 108 147 187 223 272 326
#     4   9  20  39  56  80 116 144 179 229 273 323
#     4   9  21  39  58  80 112 149 179 221 278 326
#
# _framework density 22.784291
#
# number of rings (size 3 to 8) (size 9 to 14) (size 15 to 20)
#    0.000    2.400    0.000    2.400    0.000    8.000 
#    0.000   18.000    0.000    0.000    0.000    0.000 
#    0.000    0.000    0.000    0.000    0.000    0.000 
#
# Total GULP energy -247882.920044 kJ/mol
# GULP energy per Si atom -12394.146002 kJ/mol
# Density = 2.273243 g / cm^3
# Si number density = 22.784291 Si / 1000 Ang^3
#
#
#
# Elastic Constant Matrix: (Units=GPa)
#
#
# Indices 1 2 3 4 5 6 
#
# 1 74.8138 18.9922 -2.3447 0.0000 12.3289 0.0000
# 2 18.9922 123.3743 -13.5608 0.0000 0.4254 0.0000
# 3 -2.3447 -13.5608 27.2087 0.0000 14.8845 0.0000
# 4 0.0000 0.0000 0.0000 5.9056 0.0000 14.4811
# 5 12.3289 0.4254 14.8845 0.0000 29.4458 0.0000
# 6 0.0000 0.0000 0.0000 14.4811 0.0000 26.1801
#
#
#
# Elastic Compliance Matrix: (Units=1/GPa)
#
#
# Indices 1 2 3 4 5 6 
#
# 1 0.015511 -0.001747 0.005535 0.000000 -0.009267 0.000000
# 2 -0.001747 0.008990 0.005530 0.000000 -0.002194 0.000000
# 3 0.005535 0.005530 0.057083 0.000000 -0.031252 0.000000
# 4 0.000000 0.000000 0.000000 -0.475189 0.000000 0.262844
# 5 -0.009267 -0.002194 -0.031252 0.000000 0.053670 0.000000
# 6 0.000000 0.000000 0.000000 0.262844 0.000000 -0.107191
#
#
# Mechanical properties :
#
#
# Convention : Reuss Voigt Hill
#
# Bulk Modulus (GPa) = 9.97814 25.73001 17.85407
# Shear Modulus (GPa) = -11.56454 27.12696 7.78121
#
# Velocity S-wave (km/s) = -2.25537 3.45425 1.85002
# Velocity P-wave (km/s) = 1.54704 5.21790 3.52372
#
# Compressibility (1/GPa) = 0.10021913
#
# Stress axis : x y z
#
# Youngs Moduli (GPa) = 64.47147 111.23720 17.51846
#
# Poissons Ratio (x) = 0.19437 -0.09697
# Poissons Ratio (y) = 0.11265 -0.09688
# Poissons Ratio (z) = -0.35687 -0.61514
#
# Static dielectric constant tensor:
#      x y z
#    x 4.024960 0.000000 0.281620 
#    y 0.000000 4.560990 0.000000 
#    z 0.281620 0.000000 3.674940 
# 
# 
# High freq. dielectric constant tensor:
#      x y z
#    x 1.894990 0.000000 0.024090 
#    y 0.000000 1.915500 0.000000 
#    z 0.024090 0.000000 1.878150 
# 
# From -- ./inp_files/36844.got.cif
#   From: 2010.03.12/outbox.cif.g09.slc.cpg/sg14_19_cif.got.tgz:36844.got - 2010.03.31 13:35:05.
