data_PCOD8124335
_publ_section_title
;
Structure prediction by ZEFSAII (Michael W. Deem and Ramdas Pophale) SiO2 
 PCOD8124335
Probable space group: P 21/C
;
_chemical_formula_sum "Si O2"
_cell_formula_units_Z 24
_cell_length_a 8.869623
_cell_length_b 7.709245
_cell_length_c 32.419770
_cell_angle_alpha 90.000000
_cell_angle_beta 35.677130
_cell_angle_gamma 90.000000
_cell_volume 1292.876747
_symmetry_space_group_name_H-M "P 21/C"
_symmetry_group_IT_number 14
_symmetry_cell_setting 'monoclinic'
loop_
_space_group_symop_operation_xyz
x,y,z
-x,1/2+y,1/2-z
-x,-y,-z
x,1/2-y,1/2+z
loop_
_atom_site_type_symbol
_atom_site_label
_atom_site_fract_x
_atom_site_fract_y
_atom_site_fract_z
Si Si1 0.144010 0.691354 0.822301
Si Si2 0.855950 0.808761 0.677711
Si Si3 0.429493 0.804710 0.833680
Si Si4 0.299265 0.999954 0.423370
Si Si5 0.653096 0.500037 0.923829
Si Si6 0.429543 0.304595 0.333667
O O1 0.259505 0.500062 0.807104
O O2 0.200721 0.806101 0.850076
O O3 0.300333 0.758523 0.747416
O O4 0.836802 0.672900 0.881168
O O5 0.699606 0.741583 0.752596
O O6 0.799242 0.694029 0.649932
O O7 0.163154 0.827196 0.618850
O O8 0.367870 0.674863 0.884132
O O9 0.451369 0.000057 0.846829
O O10 0.454964 0.999940 0.430969
O O11 0.367970 0.174748 0.384110
O O12 0.000000 0.000000 0.500000
O O13 0.500000 0.500000 0.000000
#
# Coordination Sequence:
#
# PCOD8124335 Si02
#       6
#     4   4   4   4   4   4
#     4   8  17  35  57  88 111 152 191 223 289 339
#     4   8  17  35  57  88 111 152 191 223 289 339
#     4  10  19  36  61  88 116 148 197 235 284 351
#     4  12  24  38  60  84 119 158 191 242 296 338
#     4  10  20  38  60  82 119 156 195 236 290 348
#     4  10  19  36  61  88 116 148 197 235 284 351
#
# _framework density 18.563255000000002
#
# number of rings (size 3 to 8) (size 9 to 14) (size 15 to 20)
#    1.000    1.333    1.667    2.000    2.333    2.000 
#    0.000    1.667    0.000    4.000    0.000    0.000 
#    0.000    0.000    0.000    0.000    0.000    0.000 
#
# Total GULP energy -297347.827169 kJ/mol
# GULP energy per Si atom -12389.492799 kJ/mol
# Density = 1.852100 g / cm^3
# Si number density = 18.563255 Si / 1000 Ang^3
#
#
#
# Elastic Constant Matrix: (Units=GPa)
#
#
# Indices 1 2 3 4 5 6 
#
# 1 143.6311 38.5147 87.8833 0.0000 -5.4507 0.0000
# 2 38.5147 84.4818 49.1433 0.0000 14.9531 0.0000
# 3 87.8833 49.1433 149.8372 0.0000 -0.7705 0.0000
# 4 0.0000 0.0000 0.0000 29.5993 0.0000 4.5453
# 5 -5.4507 14.9531 -0.7705 0.0000 35.1369 0.0000
# 6 0.0000 0.0000 0.0000 4.5453 0.0000 26.8844
#
#
#
# Elastic Compliance Matrix: (Units=1/GPa)
#
#
# Indices 1 2 3 4 5 6 
#
# 1 0.011223 -0.002153 -0.005864 0.000000 0.002529 0.000000
# 2 -0.002153 0.016599 -0.004220 0.000000 -0.007491 0.000000
# 3 -0.005864 -0.004220 0.011503 0.000000 0.001138 0.000000
# 4 0.000000 0.000000 0.000000 0.034685 0.000000 -0.005864
# 5 0.002529 -0.007491 0.001138 0.000000 0.032065 0.000000
# 6 0.000000 0.000000 0.000000 -0.005864 0.000000 0.038188
#
#
# Mechanical properties :
#
#
# Convention : Reuss Voigt Hill
#
# Bulk Modulus (GPa) = 67.33063 81.00363 74.16713
# Shear Modulus (GPa) = 28.78745 31.81804 30.30275
#
# Velocity S-wave (km/s) = 3.94226 4.14458 4.04469
# Velocity P-wave (km/s) = 7.55457 8.16301 7.86468
#
# Compressibility (1/GPa) = 0.01485208
#
# Stress axis : x y z
#
# Youngs Moduli (GPa) = 89.09945 60.24476 86.93548
#
# Poissons Ratio (x) = 0.12974 0.50975
# Poissons Ratio (y) = 0.19187 0.36683
# Poissons Ratio (z) = 0.52244 0.25421
#
# Static dielectric constant tensor:
#      x y z
#    x 3.237430 0.000000 -0.078110 
#    y 0.000000 3.321030 0.000000 
#    z -0.078110 0.000000 3.433690 
# 
# 
# High freq. dielectric constant tensor:
#      x y z
#    x 1.699240 0.000000 -0.000200 
#    y 0.000000 1.703780 0.000000 
#    z -0.000200 0.000000 1.723030 
# 
# From -- ./inp_files/79339.got.cif
#   From: 2010.03.12/outbox.cif.g09.slc.cpg/sg14_40_cif.got.tgz:79339.got - 2010.03.31 13:35:05.
