data_PCOD8124543
_publ_section_title
;
Structure prediction by ZEFSAII (Michael W. Deem and Ramdas Pophale) SiO2 
 PCOD8124543
Probable space group: P 21/C
;
_chemical_formula_sum "Si O2"
_cell_formula_units_Z 24
_cell_length_a 11.961281
_cell_length_b 10.841587
_cell_length_c 12.543490
_cell_angle_alpha 90.000000
_cell_angle_beta 134.968035
_cell_angle_gamma 90.000000
_cell_volume 1150.843046
_symmetry_space_group_name_H-M "P 21/C"
_symmetry_group_IT_number 14
_symmetry_cell_setting 'monoclinic'
loop_
_space_group_symop_operation_xyz
x,y,z
-x,1/2+y,1/2-z
-x,-y,-z
x,1/2-y,1/2+z
loop_
_atom_site_type_symbol
_atom_site_label
_atom_site_fract_x
_atom_site_fract_y
_atom_site_fract_z
Si Si1 0.309836 0.347328 0.581932
Si Si2 0.066379 0.259024 0.266914
Si Si3 0.175890 0.149389 0.626957
Si Si4 0.400396 0.559741 0.337443
Si Si5 0.898376 0.426292 0.514198
Si Si6 0.871571 0.267344 0.822534
O O1 0.232824 0.255266 0.442241
O O2 0.276613 0.276670 0.671729
O O3 0.492446 0.367186 0.676036
O O4 0.235227 0.484789 0.528438
O O5 0.099558 0.351682 0.192849
O O6 0.930201 0.310445 0.257539
O O7 0.007436 0.126320 0.183194
O O8 0.022931 0.141565 0.446492
O O9 0.297806 0.036926 0.699185
O O10 0.500000 0.500000 0.500000
O O11 0.282037 0.655855 0.313071
O O12 0.827356 0.313486 0.396522
O O13 0.000000 0.500000 0.500000
#
# Coordination Sequence:
#
# PCOD8124543 Si02
#       6
#     4   4   4   4   4   4
#     4  11  23  41  64  94 130 168 204 275 321 372
#     4  10  19  38  64  92 120 162 214 255 308 378
#     4  10  22  42  63  93 127 166 217 258 315 382
#     4  12  24  40  66  91 133 165 209 265 324 374
#     4  11  20  41  66  93 124 167 216 262 312 377
#     4  10  23  39  66  96 121 167 222 252 318 383
#
# _framework density 20.854275999999999
#
# number of rings (size 3 to 8) (size 9 to 14) (size 15 to 20)
#    0.000    1.333    6.667    1.500    2.333    0.000 
#    3.000    0.000    0.000    6.000    0.000    0.000 
#    0.000    0.000    0.000    0.000    0.000    0.000 
#
# Total GULP energy -297315.603265 kJ/mol
# GULP energy per Si atom -12388.150136 kJ/mol
# Density = 2.080681 g / cm^3
# Si number density = 20.854276 Si / 1000 Ang^3
#
#
#
# Elastic Constant Matrix: (Units=GPa)
#
#
# Indices 1 2 3 4 5 6 
#
# 1 142.2924 40.4227 51.7901 0.0000 11.6050 0.0000
# 2 40.4227 74.1211 39.6690 0.0000 10.1948 0.0000
# 3 51.7901 39.6690 77.1133 0.0000 2.9946 0.0000
# 4 0.0000 0.0000 0.0000 32.9045 0.0000 12.6550
# 5 11.6050 10.1948 2.9946 0.0000 37.0152 0.0000
# 6 0.0000 0.0000 0.0000 12.6550 0.0000 44.4146
#
#
#
# Elastic Compliance Matrix: (Units=1/GPa)
#
#
# Indices 1 2 3 4 5 6 
#
# 1 0.009762 -0.002178 -0.005357 0.000000 -0.002027 0.000000
# 2 -0.002178 0.019834 -0.008582 0.000000 -0.004086 0.000000
# 3 -0.005357 -0.008582 0.020889 0.000000 0.002353 0.000000
# 4 0.000000 0.000000 0.000000 0.034131 0.000000 -0.009725
# 5 -0.002027 -0.004086 0.002353 0.000000 0.028586 0.000000
# 6 0.000000 0.000000 0.000000 -0.009725 0.000000 0.025286
#
#
# Mechanical properties :
#
#
# Convention : Reuss Voigt Hill
#
# Bulk Modulus (GPa) = 54.78996 61.92115 58.35556
# Shear Modulus (GPa) = 28.27973 33.64319 30.96146
#
# Velocity S-wave (km/s) = 3.68647 4.02089 3.85731
# Velocity P-wave (km/s) = 6.66708 7.16334 6.91966
#
# Compressibility (1/GPa) = 0.01825152
#
# Stress axis : x y z
#
# Youngs Moduli (GPa) = 102.44285 50.41859 47.87192
#
# Poissons Ratio (x) = 0.10980 0.25645
# Poissons Ratio (y) = 0.22309 0.41083
# Poissons Ratio (z) = 0.54878 0.43268
#
# Static dielectric constant tensor:
#      x y z
#    x 4.521680 0.000000 -0.293120 
#    y 0.000000 5.088380 0.000000 
#    z -0.293120 0.000000 3.833780 
# 
# 
# High freq. dielectric constant tensor:
#      x y z
#    x 1.829810 0.000000 -0.011940 
#    y 0.000000 1.800090 0.000000 
#    z -0.011940 0.000000 1.797250 
# 
# From -- ./inp_files/28749.got.cif
#   From: 2010.03.12/outbox.cif.g09.slc.cpg/sg14_15_cif.got.tgz:28749.got - 2010.03.31 13:35:05.
