data_PCOD8124342
_publ_section_title
;
Structure prediction by ZEFSAII (Michael W. Deem and Ramdas Pophale) SiO2 
 PCOD8124342
Probable space group: P 21/C
;
_chemical_formula_sum "Si O2"
_cell_formula_units_Z 32
_cell_length_a 13.215555
_cell_length_b 12.190514
_cell_length_c 10.184122
_cell_angle_alpha 90.000000
_cell_angle_beta 57.798080
_cell_angle_gamma 90.000000
_cell_volume 1388.325709
_symmetry_space_group_name_H-M "P 21/C"
_symmetry_group_IT_number 14
_symmetry_cell_setting 'monoclinic'
loop_
_space_group_symop_operation_xyz
x,y,z
-x,1/2+y,1/2-z
-x,-y,-z
x,1/2-y,1/2+z
loop_
_atom_site_type_symbol
_atom_site_label
_atom_site_fract_x
_atom_site_fract_y
_atom_site_fract_z
Si Si1 0.318742 0.392099 0.314355
Si Si2 0.942806 0.204285 0.117423
Si Si3 0.612122 0.930431 0.788165
Si Si4 0.166025 0.197171 0.351589
Si Si5 0.107314 0.432844 0.647095
Si Si6 0.174310 0.833693 0.082470
Si Si7 0.513567 0.159151 0.880157
Si Si8 0.604671 0.377166 0.730924
O O1 0.249677 0.306215 0.267058
O O2 0.235770 0.414273 0.495382
O O3 0.441304 0.342188 0.290998
O O4 0.342664 0.513246 0.231696
O O5 0.993728 0.086178 0.129558
O O6 0.846244 0.242494 0.292363
O O7 0.062390 0.280187 0.029651
O O8 0.882655 0.196030 0.018541
O O9 0.747332 0.899016 0.654314
O O10 0.526875 0.908300 0.725306
O O11 0.608916 0.059582 0.824402
O O12 0.577569 0.854150 0.936350
O O13 0.097044 0.155288 0.270971
O O14 0.108686 0.559603 0.688920
O O15 0.315240 0.847723 0.953446
O O16 0.589417 0.272631 0.837764
#
# Coordination Sequence:
#
# PCOD8124342 Si02
#       8
#     4   4   4   4   4   4   4   4
#     4   9  19  36  61  91 128 170 218 262 337 401
#     4  11  24  45  66  96 128 179 224 291 331 401
#     4  10  21  35  64  96 126 174 218 270 330 411
#     4  11  20  39  68  96 129 170 231 279 329 406
#     4  10  21  41  68  93 126 179 219 276 343 400
#     4  11  25  43  67  95 136 173 232 271 349 405
#     4  10  19  36  61  91 132 172 212 261 339 396
#     4  10  22  39  62  92 132 181 210 276 336 407
#
# _framework density 23.049347000000001
#
# number of rings (size 3 to 8) (size 9 to 14) (size 15 to 20)
#    0.000    1.750    3.750    0.375    3.500    0.500 
#    2.250    0.625    5.500    0.000    0.000    0.000 
#    0.000    0.000    0.000    0.000    0.000    0.000 
#
# Total GULP energy -396513.804734 kJ/mol
# GULP energy per Si atom -12391.056398 kJ/mol
# Density = 2.299689 g / cm^3
# Si number density = 23.049347 Si / 1000 Ang^3
#
#
#
# Elastic Constant Matrix: (Units=GPa)
#
#
# Indices 1 2 3 4 5 6 
#
# 1 57.8166 4.5367 9.6189 0.0000 4.3008 0.0000
# 2 4.5367 90.6809 13.2020 0.0000 14.9247 0.0000
# 3 9.6189 13.2020 30.2259 0.0000 8.9089 0.0000
# 4 0.0000 0.0000 0.0000 31.3207 0.0000 2.1844
# 5 4.3008 14.9247 8.9089 0.0000 22.5495 0.0000
# 6 0.0000 0.0000 0.0000 2.1844 0.0000 27.4328
#
#
#
# Elastic Compliance Matrix: (Units=1/GPa)
#
#
# Indices 1 2 3 4 5 6 
#
# 1 0.018300 0.000111 -0.005457 0.000000 -0.001407 0.000000
# 2 0.000111 0.012690 -0.003504 0.000000 -0.007036 0.000000
# 3 -0.005457 -0.003504 0.040021 0.000000 -0.012451 0.000000
# 4 0.000000 0.000000 0.000000 0.032106 0.000000 -0.002557
# 5 -0.001407 -0.007036 -0.012451 0.000000 0.054191 0.000000
# 6 0.000000 0.000000 0.000000 -0.002557 0.000000 0.036656
#
#
# Mechanical properties :
#
#
# Convention : Reuss Voigt Hill
#
# Bulk Modulus (GPa) = 18.75815 25.93760 22.34788
# Shear Modulus (GPa) = 21.79248 26.35167 24.07207
#
# Velocity S-wave (km/s) = 3.07819 3.38490 3.23518
# Velocity P-wave (km/s) = 4.55956 5.15308 4.86538
#
# Compressibility (1/GPa) = 0.05331016
#
# Stress axis : x y z
#
# Youngs Moduli (GPa) = 54.64490 78.80015 24.98666
#
# Poissons Ratio (x) = -0.00872 0.13635
# Poissons Ratio (y) = -0.00604 0.08756
# Poissons Ratio (z) = 0.29820 0.27614
#
# Static dielectric constant tensor:
#      x y z
#    x 4.102800 0.000000 -0.244560 
#    y 0.000000 4.531620 0.000000 
#    z -0.244560 0.000000 3.739350 
# 
# 
# High freq. dielectric constant tensor:
#      x y z
#    x 1.912660 0.000000 -0.014870 
#    y 0.000000 1.915280 0.000000 
#    z -0.014870 0.000000 1.869290 
# 
# From -- ./inp_files/32192.got.cif
#   From: 2010.03.12/outbox.cif.g09.slc.cpg/sg14_17_cif.got.tgz:32192.got - 2010.03.31 13:35:05.
