data_PCOD8124507
_publ_section_title
;
Structure prediction by ZEFSAII (Michael W. Deem and Ramdas Pophale) SiO2 
 PCOD8124507
Probable space group: P 21/C
;
_chemical_formula_sum "Si O2"
_cell_formula_units_Z 32
_cell_length_a 12.501065
_cell_length_b 8.252481
_cell_length_c 32.800009
_cell_angle_alpha 90.000000
_cell_angle_beta 24.746255
_cell_angle_gamma 90.000000
_cell_volume 1416.462644
_symmetry_space_group_name_H-M "P 21/C"
_symmetry_group_IT_number 14
_symmetry_cell_setting 'monoclinic'
loop_
_space_group_symop_operation_xyz
x,y,z
-x,1/2+y,1/2-z
-x,-y,-z
x,1/2-y,1/2+z
loop_
_atom_site_type_symbol
_atom_site_label
_atom_site_fract_x
_atom_site_fract_y
_atom_site_fract_z
Si Si1 0.202618 0.857287 0.006611
Si Si2 0.065785 0.246825 0.472670
Si Si3 0.262399 0.945647 0.356692
Si Si4 0.580300 0.693177 0.578373
Si Si5 0.977133 0.819436 0.383108
Si Si6 0.050760 0.937863 0.270988
Si Si7 0.812122 0.538921 0.699614
Si Si8 0.717543 0.703903 0.817406
O O1 0.043207 0.886148 0.019482
O O2 0.009179 0.831853 0.111340
O O3 0.412175 0.714867 0.930946
O O4 0.352909 0.020464 0.963276
O O5 0.323179 0.287184 0.408276
O O6 0.839987 0.209128 0.582736
O O7 0.113578 0.101815 0.424379
O O8 0.197094 0.915292 0.331886
O O9 0.563836 0.963431 0.256925
O O10 0.273432 0.697428 0.686382
O O11 0.713898 0.821886 0.501373
O O12 0.929641 0.914806 0.357662
O O13 0.066757 0.638475 0.341840
O O14 0.831855 0.901536 0.314307
O O15 0.151270 0.121092 0.232188
O O16 0.748859 0.595848 0.766584
#
# Coordination Sequence:
#
# PCOD8124507 Si02
#       8
#     4   4   4   4   4   4   4   4
#     4  10  22  39  64  92 132 169 211 264 317 381
#     4  10  19  38  60  94 133 165 204 263 309 376
#     4  10  22  35  61  96 132 163 206 257 315 375
#     4   9  21  40  63  92 127 172 209 255 324 383
#     4  10  23  41  61  95 127 166 214 258 319 382
#     4  11  24  43  68  87 125 170 213 273 316 381
#     4  11  23  40  64  93 131 173 209 262 318 386
#     4  11  25  46  64  95 122 167 224 263 326 380
#
# _framework density 22.591487999999998
#
# number of rings (size 3 to 8) (size 9 to 14) (size 15 to 20)
#    0.000    1.750    1.250    1.875    5.250    1.000 
#    2.250    5.000    0.000    0.000    0.000    0.000 
#    0.000    0.000    0.000    0.000    0.000    0.000 
#
# Total GULP energy -396738.687225 kJ/mol
# GULP energy per Si atom -12398.083976 kJ/mol
# Density = 2.254007 g / cm^3
# Si number density = 22.591488 Si / 1000 Ang^3
#
#
#
# Elastic Constant Matrix: (Units=GPa)
#
#
# Indices 1 2 3 4 5 6 
#
# 1 108.7714 -0.9223 23.6505 0.0001 11.2107 0.0000
# 2 -0.9223 29.3946 -2.4055 0.0001 6.1811 0.0000
# 3 23.6505 -2.4055 75.1871 0.0007 9.2954 -0.0002
# 4 0.0001 0.0001 0.0007 24.8495 -0.0001 5.6573
# 5 11.2107 6.1811 9.2954 -0.0001 31.1036 0.0000
# 6 0.0000 0.0000 -0.0002 5.6573 0.0000 35.0257
#
#
#
# Elastic Compliance Matrix: (Units=1/GPa)
#
#
# Indices 1 2 3 4 5 6 
#
# 1 0.010111 0.000709 -0.002793 0.000000 -0.002951 0.000000
# 2 0.000709 0.035871 0.001908 0.000000 -0.007954 0.000000
# 3 -0.002793 0.001908 0.014705 0.000000 -0.003767 0.000000
# 4 0.000000 0.000000 0.000000 0.041778 0.000000 -0.006748
# 5 -0.002951 -0.007954 -0.003767 0.000000 0.035921 0.000000
# 6 0.000000 0.000000 0.000000 -0.006748 0.000000 0.029640
#
#
# Mechanical properties :
#
#
# Convention : Reuss Voigt Hill
#
# Bulk Modulus (GPa) = 16.57401 28.22207 22.39804
# Shear Modulus (GPa) = 26.52654 31.06447 28.79551
#
# Velocity S-wave (km/s) = 3.43035 3.71219 3.57405
# Velocity P-wave (km/s) = 4.80022 5.55817 5.19304
#
# Compressibility (1/GPa) = 0.06033543
#
# Stress axis : x y z
#
# Youngs Moduli (GPa) = 98.90222 27.87783 68.00182
#
# Poissons Ratio (x) = -0.01977 0.18993
# Poissons Ratio (y) = -0.07013 -0.12974
# Poissons Ratio (z) = 0.27623 -0.05319
#
# Static dielectric constant tensor:
#      x y z
#    x 3.981240 0.000000 0.032460 
#    y 0.000000 3.949000 0.000000 
#    z 0.032460 0.000000 4.353980 
# 
# 
# High freq. dielectric constant tensor:
#      x y z
#    x 1.884350 0.000000 0.005230 
#    y 0.000000 1.884240 0.000000 
#    z 0.005230 0.000000 1.895020 
# 
# From -- ./inp_files/80007.got.cif
#   From: 2010.03.12/outbox.cif.g09.slc.cpg/sg14_41_cif.got.tgz:80007.got - 2010.03.31 13:35:05.
