data_PCOD8124851
_publ_section_title
;
Structure prediction by ZEFSAII (Michael W. Deem and Ramdas Pophale) SiO2 
 PCOD8124851
Probable space group: P 21/C
;
_chemical_formula_sum "Si O2"
_cell_formula_units_Z 28
_cell_length_a 5.474837
_cell_length_b 20.995230
_cell_length_c 12.333656
_cell_angle_alpha 90.000000
_cell_angle_beta 111.126113
_cell_angle_gamma 90.000000
_cell_volume 1322.413421
_symmetry_space_group_name_H-M "P 21/C"
_symmetry_group_IT_number 14
_symmetry_cell_setting 'monoclinic'
loop_
_space_group_symop_operation_xyz
x,y,z
-x,1/2+y,1/2-z
-x,-y,-z
x,1/2-y,1/2+z
loop_
_atom_site_type_symbol
_atom_site_label
_atom_site_fract_x
_atom_site_fract_y
_atom_site_fract_z
Si Si1 0.688928 0.254568 0.373297
Si Si2 0.946170 0.690549 0.407393
Si Si3 0.003445 0.568007 0.132494
Si Si4 0.571102 0.845919 0.510757
Si Si5 0.899288 0.428967 0.103858
Si Si6 0.246411 0.315949 0.193289
Si Si7 0.358341 0.847615 0.810134
O O1 0.590725 0.207173 0.451895
O O2 0.491442 0.312692 0.314372
O O3 0.730389 0.214695 0.270935
O O4 0.957916 0.286308 0.457937
O O5 0.910417 0.749745 0.318677
O O6 0.672688 0.651869 0.380070
O O7 0.185596 0.649776 0.393010
O O8 0.787627 0.622734 0.126383
O O9 0.923699 0.498169 0.164366
O O10 0.280558 0.589309 0.228205
O O11 0.004946 0.566617 0.003557
O O12 0.396986 0.905062 0.439924
O O13 0.685392 0.812771 0.423304
O O14 0.079577 0.378247 0.197330
#
# Coordination Sequence:
#
# PCOD8124851 Si02
#       7
#     4   4   4   4   4   4   4
#     4  11  20  37  59  82 120 152 185 244 294 345
#     4  11  23  38  57  87 119 153 196 237 287 362
#     4  10  20  35  58  82 117 156 190 247 293 341
#     4  11  19  38  54  90 119 150 197 237 298 355
#     4  10  20  35  55  87 116 149 199 237 297 349
#     4  10  22  35  55  85 120 152 191 239 296 351
#     4  11  23  38  59  86 115 154 195 237 294 345
#
# _framework density 21.173407999999998
#
# number of rings (size 3 to 8) (size 9 to 14) (size 15 to 20)
#    0.000    1.429    2.857    4.714    0.000    2.286 
#    0.000    0.000    0.000    1.714    0.000    0.000 
#    0.000    0.000    0.000    0.000    0.000    0.000 
#
# Total GULP energy -347061.851685 kJ/mol
# GULP energy per Si atom -12395.066132 kJ/mol
# Density = 2.112522 g / cm^3
# Si number density = 21.173408 Si / 1000 Ang^3
#
#
#
# Elastic Constant Matrix: (Units=GPa)
#
#
# Indices 1 2 3 4 5 6 
#
# 1 104.3190 21.2873 17.6069 0.0000 15.7497 0.0000
# 2 21.2873 82.3523 9.0881 0.0000 18.6044 0.0000
# 3 17.6069 9.0881 42.7964 0.0000 27.3498 0.0000
# 4 0.0000 0.0000 0.0000 24.9922 0.0000 11.9473
# 5 15.7497 18.6044 27.3498 0.0000 36.6348 0.0000
# 6 0.0000 0.0000 0.0000 11.9473 0.0000 28.3230
#
#
#
# Elastic Compliance Matrix: (Units=1/GPa)
#
#
# Indices 1 2 3 4 5 6 
#
# 1 0.010744 -0.002174 -0.003275 0.000000 -0.001070 0.000000
# 2 -0.002174 0.014353 0.003648 0.000000 -0.009077 0.000000
# 3 -0.003275 0.003648 0.046325 0.000000 -0.035028 0.000000
# 4 0.000000 0.000000 0.000000 0.050119 0.000000 -0.021141
# 5 -0.001070 -0.009077 -0.035028 0.000000 0.058517 0.000000
# 6 0.000000 0.000000 0.000000 -0.021141 0.000000 0.044225
#
#
# Mechanical properties :
#
#
# Convention : Reuss Voigt Hill
#
# Bulk Modulus (GPa) = 14.74502 36.15916 25.45209
# Shear Modulus (GPa) = 19.96081 30.08902 25.02491
#
# Velocity S-wave (km/s) = 3.07372 3.77381 3.44161
# Velocity P-wave (km/s) = 4.42449 6.00862 5.27634
#
# Compressibility (1/GPa) = 0.06781953
#
# Stress axis : x y z
#
# Youngs Moduli (GPa) = 93.07628 69.67135 21.58683
#
# Poissons Ratio (x) = 0.15147 0.07069
# Poissons Ratio (y) = 0.20235 -0.07874
# Poissons Ratio (z) = 0.30478 -0.25413
#
# Static dielectric constant tensor:
#      x y z
#    x 3.893220 0.000000 0.276040 
#    y 0.000000 3.897130 0.000000 
#    z 0.276040 0.000000 3.637420 
# 
# 
# High freq. dielectric constant tensor:
#      x y z
#    x 1.836560 0.000000 0.018180 
#    y 0.000000 1.803300 0.000000 
#    z 0.018180 0.000000 1.800990 
# 
# From -- ./inp_files/21611.got.cif
#   From: 2010.03.12/outbox.cif.g09.slc.cpg/sg14_11_cif.got.tgz:21611.got - 2010.03.31 13:35:05.
