data_PCOD8124121
_publ_section_title
;
Structure prediction by ZEFSAII (Michael W. Deem and Ramdas Pophale) SiO2 
 PCOD8124121
Probable space group: P 21/C
;
_chemical_formula_sum "Si O2"
_cell_formula_units_Z 28
_cell_length_a 8.706578
_cell_length_b 5.321212
_cell_length_c 33.663580
_cell_angle_alpha 90.000000
_cell_angle_beta 124.194306
_cell_angle_gamma 90.000000
_cell_volume 1290.017214
_symmetry_space_group_name_H-M "P 21/C"
_symmetry_group_IT_number 14
_symmetry_cell_setting 'monoclinic'
loop_
_space_group_symop_operation_xyz
x,y,z
-x,1/2+y,1/2-z
-x,-y,-z
x,1/2-y,1/2+z
loop_
_atom_site_type_symbol
_atom_site_label
_atom_site_fract_x
_atom_site_fract_y
_atom_site_fract_z
Si Si1 0.138690 0.941360 0.645358
Si Si2 0.544750 0.147404 0.846791
Si Si3 0.207978 0.229144 0.080186
Si Si4 0.812082 0.082139 0.020700
Si Si5 0.247149 0.091902 0.438706
Si Si6 0.410038 0.623865 0.067390
Si Si7 0.394769 0.122814 0.746232
O O1 0.280432 0.715822 0.656456
O O2 0.199278 0.076245 0.695393
O O3 0.923930 0.855016 0.616770
O O4 0.136635 0.120703 0.607586
O O5 0.503384 0.348759 0.875479
O O6 0.600009 0.898215 0.878254
O O7 0.371161 0.113908 0.791201
O O8 0.255393 0.402673 0.048806
O O9 0.032888 0.048074 0.044230
O O10 0.770461 0.342159 0.037749
O O11 0.731185 0.839289 0.030961
O O12 0.698886 0.120579 0.962507
O O13 0.431374 0.050213 0.440049
O O14 0.537074 0.900728 0.755445
#
# Coordination Sequence:
#
# PCOD8124121 Si02
#       7
#     4   4   4   4   4   4   4
#     4   9  19  38  60  87 115 154 196 248 290 357
#     4  10  20  36  60  86 119 149 199 244 301 349
#     4  10  20  38  59  90 117 156 198 250 297 348
#     4  11  24  42  61  87 119 166 208 242 295 370
#     4  11  24  41  62  87 121 162 206 243 303 369
#     4  11  25  37  60  88 127 160 196 256 304 358
#     4  10  19  34  63  90 113 149 199 246 296 350
#
# _framework density 21.705138000000002
#
# number of rings (size 3 to 8) (size 9 to 14) (size 15 to 20)
#    0.000    1.714    2.857    1.286    4.000    0.571 
#    0.000    0.000    3.143    0.000    0.000    0.000 
#    0.000    0.000    0.000    0.000    0.000    0.000 
#
# Total GULP energy -346943.915828 kJ/mol
# GULP energy per Si atom -12390.854137 kJ/mol
# Density = 2.165574 g / cm^3
# Si number density = 21.705138 Si / 1000 Ang^3
#
#
#
# Elastic Constant Matrix: (Units=GPa)
#
#
# Indices 1 2 3 4 5 6 
#
# 1 73.3529 16.8384 38.7402 0.0000 -8.2209 0.0000
# 2 16.8384 80.6305 5.6793 0.0000 -12.8916 0.0000
# 3 38.7402 5.6793 133.3983 0.0000 -8.5309 0.0000
# 4 0.0000 0.0000 0.0000 30.3137 0.0000 3.7843
# 5 -8.2209 -12.8916 -8.5309 0.0000 22.8106 0.0000
# 6 0.0000 0.0000 0.0000 3.7843 0.0000 18.3282
#
#
#
# Elastic Compliance Matrix: (Units=1/GPa)
#
#
# Indices 1 2 3 4 5 6 
#
# 1 0.017044 -0.002779 -0.004650 0.000000 0.002833 0.000000
# 2 -0.002779 0.014088 0.000668 0.000000 0.007211 0.000000
# 3 -0.004650 0.000668 0.008949 0.000000 0.002049 0.000000
# 4 0.000000 0.000000 0.000000 0.033861 0.000000 -0.006991
# 5 0.002833 0.007211 0.002049 0.000000 0.049702 0.000000
# 6 0.000000 0.000000 0.000000 -0.006991 0.000000 0.056004
#
#
# Mechanical properties :
#
#
# Convention : Reuss Voigt Hill
#
# Bulk Modulus (GPa) = 37.65030 45.54416 41.59723
# Shear Modulus (GPa) = 24.74952 29.36542 27.05747
#
# Velocity S-wave (km/s) = 3.38044 3.68220 3.53454
# Velocity P-wave (km/s) = 5.71143 6.25355 5.98862
#
# Compressibility (1/GPa) = 0.02656021
#
# Stress axis : x y z
#
# Youngs Moduli (GPa) = 58.67131 70.98044 111.73933
#
# Poissons Ratio (x) = 0.19725 0.51962
# Poissons Ratio (y) = 0.16304 -0.07468
# Poissons Ratio (z) = 0.27284 -0.04744
#
# Static dielectric constant tensor:
#      x y z
#    x 3.631070 0.000000 0.095700 
#    y 0.000000 3.932310 0.000000 
#    z 0.095700 0.000000 4.620090 
# 
# 
# High freq. dielectric constant tensor:
#      x y z
#    x 1.805570 0.000000 -0.002850 
#    y 0.000000 1.861250 0.000000 
#    z -0.002850 0.000000 1.873170 
# 
# From -- ./inp_files/76078.got.cif
#   From: 2010.03.12/outbox.cif.g09.slc.cpg/sg14_39_cif.got.tgz:76078.got - 2010.03.31 13:35:05.
