data_PCOD8124899
_publ_section_title
;
Structure prediction by ZEFSAII (Michael W. Deem and Ramdas Pophale) SiO2 
 PCOD8124899
Probable space group: P 21/C
;
_chemical_formula_sum "Si O2"
_cell_formula_units_Z 32
_cell_length_a 23.833830
_cell_length_b 9.553881
_cell_length_c 19.000131
_cell_angle_alpha 90.000000
_cell_angle_beta 156.732668
_cell_angle_gamma 90.000000
_cell_volume 1709.036327
_symmetry_space_group_name_H-M "P 21/C"
_symmetry_group_IT_number 14
_symmetry_cell_setting 'monoclinic'
loop_
_space_group_symop_operation_xyz
x,y,z
-x,1/2+y,1/2-z
-x,-y,-z
x,1/2-y,1/2+z
loop_
_atom_site_type_symbol
_atom_site_label
_atom_site_fract_x
_atom_site_fract_y
_atom_site_fract_z
Si Si1 0.489721 0.683365 0.556597
Si Si2 0.956446 0.393403 0.293596
Si Si3 0.506659 0.368368 0.601686
Si Si4 0.761220 0.373505 0.197576
Si Si5 0.805546 0.689275 0.906321
Si Si6 0.958190 0.180376 0.051821
Si Si7 0.182305 0.603132 0.012800
Si Si8 0.760523 0.701438 0.200679
O O1 0.455067 0.529014 0.546040
O O2 0.465284 0.683398 0.445103
O O3 0.389725 0.796447 0.478448
O O4 0.651395 0.729662 0.760334
O O5 0.834490 0.345907 0.207121
O O6 0.884304 0.440590 0.138128
O O7 0.068863 0.269728 0.408816
O O8 0.045406 0.519399 0.429459
O O9 0.384846 0.271126 0.495770
O O10 0.654890 0.350109 0.813641
O O11 0.858102 0.302658 0.368892
O O12 0.736937 0.536740 0.186078
O O13 0.810338 0.721975 0.829135
O O14 0.826377 0.523837 0.941797
O O15 0.905608 0.269817 0.056530
O O16 0.118298 0.226686 0.217620
#
# Coordination Sequence:
#
# PCOD8124899 Si02
#       8
#     4   4   4   4   4   4   4   4
#     4   9  19  34  58  84 112 142 187 239 275 327
#     4  11  22  40  55  82 119 150 185 232 285 337
#     4   9  19  36  53  84 115 144 183 229 287 330
#     4  11  20  37  59  87 109 148 193 233 276 328
#     4  10  20  37  57  86 113 146 187 235 283 328
#     4  11  21  38  59  86 111 148 192 231 278 333
#     4  11  23  37  58  81 117 154 183 228 289 344
#     4  10  20  35  59  85 114 140 189 243 272 327
#
# _framework density 18.724001999999999
#
# number of rings (size 3 to 8) (size 9 to 14) (size 15 to 20)
#    0.000    1.750    3.750    2.250    0.000    4.500 
#    0.000    6.250    0.000    0.000    0.000    0.000 
#    0.000    0.000    0.000    0.000    0.000    0.000 
#
# Total GULP energy -396873.054342 kJ/mol
# GULP energy per Si atom -12402.282948 kJ/mol
# Density = 1.868139 g / cm^3
# Si number density = 18.724002 Si / 1000 Ang^3
#
#
#
# Elastic Constant Matrix: (Units=GPa)
#
#
# Indices 1 2 3 4 5 6 
#
# 1 56.6178 22.7585 25.9252 0.0000 2.8894 0.0000
# 2 22.7585 49.1493 33.7163 0.0000 11.7872 0.0000
# 3 25.9252 33.7163 92.0796 0.0000 14.3081 0.0000
# 4 0.0000 0.0000 0.0000 34.2529 0.0000 11.9226
# 5 2.8894 11.7872 14.3081 0.0000 26.4737 0.0000
# 6 0.0000 0.0000 0.0000 11.9226 0.0000 15.0164
#
#
#
# Elastic Compliance Matrix: (Units=1/GPa)
#
#
# Indices 1 2 3 4 5 6 
#
# 1 0.022724 -0.008804 -0.003710 0.000000 0.003444 0.000000
# 2 -0.008804 0.031953 -0.007816 0.000000 -0.009041 0.000000
# 3 -0.003710 -0.007816 0.015462 0.000000 -0.004471 0.000000
# 4 0.000000 0.000000 0.000000 0.040344 0.000000 -0.032032
# 5 0.003444 -0.009041 -0.004471 0.000000 0.043840 0.000000
# 6 0.000000 0.000000 0.000000 -0.032032 0.000000 0.092027
#
#
# Mechanical properties :
#
#
# Convention : Reuss Voigt Hill
#
# Bulk Modulus (GPa) = 33.92228 40.29409 37.10818
# Shear Modulus (GPa) = 16.84440 22.84504 19.84472
#
# Velocity S-wave (km/s) = 3.00261 3.49677 3.25907
# Velocity P-wave (km/s) = 5.49338 6.15386 5.83298
#
# Compressibility (1/GPa) = 0.02947915
#
# Stress axis : x y z
#
# Youngs Moduli (GPa) = 44.00660 31.29593 64.67665
#
# Poissons Ratio (x) = 0.27551 0.23993
# Poissons Ratio (y) = 0.38741 0.50554
# Poissons Ratio (z) = 0.16325 0.24462
#
# Static dielectric constant tensor:
#      x y z
#    x 3.195840 0.000000 0.198850 
#    y 0.000000 3.401050 0.000000 
#    z 0.198850 0.000000 3.576830 
# 
# 
# High freq. dielectric constant tensor:
#      x y z
#    x 1.703340 0.000000 0.015700 
#    y 0.000000 1.727280 0.000000 
#    z 0.015700 0.000000 1.733260 
# 
# From -- ./inp_files/70527.got.cif
#   From: 2010.03.12/outbox.cif.g09.slc.cpg/sg14_36_cif.got.tgz:70527.got - 2010.03.31 13:35:05.
