data_PCOD8124565
_publ_section_title
;
Structure prediction by ZEFSAII (Michael W. Deem and Ramdas Pophale) SiO2 
 PCOD8124565
Probable space group: P 21/C
;
_chemical_formula_sum "Si O2"
_cell_formula_units_Z 28
_cell_length_a 20.060958
_cell_length_b 6.267862
_cell_length_c 17.211791
_cell_angle_alpha 90.000000
_cell_angle_beta 40.730714
_cell_angle_gamma 90.000000
_cell_volume 1412.149945
_symmetry_space_group_name_H-M "P 21/C"
_symmetry_group_IT_number 14
_symmetry_cell_setting 'monoclinic'
loop_
_space_group_symop_operation_xyz
x,y,z
-x,1/2+y,1/2-z
-x,-y,-z
x,1/2-y,1/2+z
loop_
_atom_site_type_symbol
_atom_site_label
_atom_site_fract_x
_atom_site_fract_y
_atom_site_fract_z
Si Si1 0.615353 0.788713 0.578828
Si Si2 0.597400 0.096902 0.736629
Si Si3 0.746015 0.430456 0.238560
Si Si4 0.742544 0.098617 0.019293
Si Si5 0.120396 0.324267 0.336103
Si Si6 0.735597 0.116022 0.380504
Si Si7 0.895450 0.364890 0.513994
O O1 0.516220 0.662041 0.637129
O O2 0.707625 0.627130 0.515396
O O3 0.588792 0.911668 0.681150
O O4 0.646662 0.948767 0.481722
O O5 0.654235 0.001254 0.762246
O O6 0.654949 0.305294 0.652703
O O7 0.799830 0.630210 0.232344
O O8 0.696704 0.277863 0.348074
O O9 0.831576 0.317480 0.112071
O O10 0.847127 0.069697 0.974320
O O11 0.769587 0.259415 0.926818
O O12 0.164048 0.499651 0.239056
O O13 0.104529 0.418004 0.436292
O O14 0.008501 0.265415 0.402031
#
# Coordination Sequence:
#
# PCOD8124565 Si02
#       7
#     4   4   4   4   4   4   4
#     4  11  20  38  60  83 117 152 192 252 283 345
#     4  10  21  35  63  87 107 152 201 235 297 335
#     4  10  20  38  59  87 118 153 190 241 285 350
#     4  10  20  39  56  85 116 149 192 246 282 348
#     4  10  19  39  58  87 116 152 190 242 284 348
#     4  10  23  37  53  84 125 152 190 232 298 340
#     4   9  20  36  64  86 110 151 200 232 291 341
#
# _framework density 19.827922999999998
#
# number of rings (size 3 to 8) (size 9 to 14) (size 15 to 20)
#    0.000    2.000    1.429    2.143    0.000    0.571 
#    5.143    2.857    0.000    0.000    0.000    0.000 
#    0.000    0.000    0.000    0.000    0.000    0.000 
#
# Total GULP energy -347260.363166 kJ/mol
# GULP energy per Si atom -12402.155827 kJ/mol
# Density = 1.978279 g / cm^3
# Si number density = 19.827923 Si / 1000 Ang^3
#
#
#
# Elastic Constant Matrix: (Units=GPa)
#
#
# Indices 1 2 3 4 5 6 
#
# 1 128.7496 37.4977 60.9832 0.0000 -22.2902 0.0000
# 2 37.4977 88.8818 32.9863 0.0000 -8.0308 0.0000
# 3 60.9832 32.9863 86.7473 0.0000 0.2568 0.0000
# 4 0.0000 0.0000 0.0000 24.1704 0.0000 0.3407
# 5 -22.2902 -8.0308 0.2568 0.0000 25.5161 0.0000
# 6 0.0000 0.0000 0.0000 0.3407 0.0000 24.2023
#
#
#
# Elastic Compliance Matrix: (Units=1/GPa)
#
#
# Indices 1 2 3 4 5 6 
#
# 1 0.015291 -0.001482 -0.010225 0.000000 0.012995 0.000000
# 2 -0.001482 0.013703 -0.004178 0.000000 0.003060 0.000000
# 3 -0.010225 -0.004178 0.020335 0.000000 -0.010451 0.000000
# 4 0.000000 0.000000 0.000000 0.041381 0.000000 -0.000583
# 5 0.012995 0.003060 -0.010451 0.000000 0.051611 0.000000
# 6 0.000000 0.000000 0.000000 -0.000583 0.000000 0.041327
#
#
# Mechanical properties :
#
#
# Convention : Reuss Voigt Hill
#
# Bulk Modulus (GPa) = 56.94641 63.03481 59.99061
# Shear Modulus (GPa) = 22.59668 26.30519 24.45093
#
# Velocity S-wave (km/s) = 3.37952 3.64630 3.51544
# Velocity P-wave (km/s) = 6.63407 7.04183 6.84099
#
# Compressibility (1/GPa) = 0.01756037
#
# Stress axis : x y z
#
# Youngs Moduli (GPa) = 65.39581 72.97550 49.17592
#
# Poissons Ratio (x) = 0.10819 0.50281
# Poissons Ratio (y) = 0.09695 0.20544
# Poissons Ratio (z) = 0.66865 0.30486
#
# Static dielectric constant tensor:
#      x y z
#    x 3.667650 0.000000 0.056060 
#    y 0.000000 3.613320 0.000000 
#    z 0.056060 0.000000 3.523390 
# 
# 
# High freq. dielectric constant tensor:
#      x y z
#    x 1.770440 0.000000 0.002330 
#    y 0.000000 1.773450 0.000000 
#    z 0.002330 0.000000 1.767200 
# 
# From -- ./inp_files/60917.got.cif
#   From: 2010.03.12/outbox.cif.g09.slc.cpg/sg14_31_cif.got.tgz:60917.got - 2010.03.31 13:35:05.
