data_PCOD8124972
_publ_section_title
;
Structure prediction by ZEFSAII (Michael W. Deem and Ramdas Pophale) SiO2 
 PCOD8124972
Probable space group: P 21/C
;
_chemical_formula_sum "Si O2"
_cell_formula_units_Z 32
_cell_length_a 21.386536
_cell_length_b 16.986516
_cell_length_c 10.186176
_cell_angle_alpha 90.000000
_cell_angle_beta 154.431831
_cell_angle_gamma 90.000000
_cell_volume 1597.062599
_symmetry_space_group_name_H-M "P 21/C"
_symmetry_group_IT_number 14
_symmetry_cell_setting 'monoclinic'
loop_
_space_group_symop_operation_xyz
x,y,z
-x,1/2+y,1/2-z
-x,-y,-z
x,1/2-y,1/2+z
loop_
_atom_site_type_symbol
_atom_site_label
_atom_site_fract_x
_atom_site_fract_y
_atom_site_fract_z
Si Si1 0.649345 0.622067 0.184184
Si Si2 0.814336 0.072137 0.684660
Si Si3 0.907539 0.245599 0.795109
Si Si4 0.658495 0.368628 0.304936
Si Si5 0.063677 0.184783 0.841489
Si Si6 0.426890 0.967412 0.603500
Si Si7 0.034412 0.511117 0.775537
Si Si8 0.732807 0.976611 0.089839
O O1 0.760389 0.686963 0.335787
O O2 0.616322 0.556529 0.012773
O O3 0.727809 0.581782 0.457697
O O4 0.497458 0.662728 0.937115
O O5 0.845891 0.162530 0.722370
O O6 0.644247 0.057361 0.392326
O O7 0.854778 0.020871 0.635121
O O8 0.900644 0.042314 0.977289
O O9 0.768063 0.297022 0.495075
O O10 0.011325 0.237212 0.864915
O O11 0.998300 0.282577 0.083963
O O12 0.635874 0.408046 0.122647
O O13 0.722959 0.432590 0.527145
O O14 0.019922 0.094418 0.775821
O O15 0.599957 0.958889 0.937335
O O16 0.116745 0.464778 0.047928
#
# Coordination Sequence:
#
# PCOD8124972 Si02
#       8
#     4   4   4   4   4   4   4   4
#     4   9  19  35  60  86 115 144 192 253 294 332
#     4  10  21  35  54  83 120 158 190 246 298 350
#     4  11  23  38  59  84 121 161 199 239 306 365
#     4   9  18  36  58  85 111 150 196 239 292 356
#     4  11  22  39  59  86 119 158 197 249 297 356
#     4   9  17  34  59  86 113 145 194 246 290 341
#     4  10  20  36  56  84 118 151 199 242 294 345
#     4   9  18  33  60  88 107 145 199 245 285 347
#
# _framework density 20.036784000000001
#
# number of rings (size 3 to 8) (size 9 to 14) (size 15 to 20)
#    0.000    2.250    2.500    2.250    0.000    3.000 
#    0.000    5.000    0.000    0.000    0.000    0.000 
#    0.000    0.000    0.000    0.000    0.000    0.000 
#
# Total GULP energy -396752.683129 kJ/mol
# GULP energy per Si atom -12398.521348 kJ/mol
# Density = 1.999118 g / cm^3
# Si number density = 20.036784 Si / 1000 Ang^3
#
#
#
# Elastic Constant Matrix: (Units=GPa)
#
#
# Indices 1 2 3 4 5 6 
#
# 1 85.1615 24.8705 35.2897 0.0000 28.4481 0.0000
# 2 24.8705 69.4165 23.4418 0.0000 9.6409 0.0000
# 3 35.2897 23.4418 50.5737 0.0000 9.3564 0.0000
# 4 0.0000 0.0000 0.0000 18.3508 0.0000 8.2204
# 5 28.4481 9.6409 9.3564 0.0000 42.2035 0.0000
# 6 0.0000 0.0000 0.0000 8.2204 0.0000 23.9893
#
#
#
# Elastic Compliance Matrix: (Units=1/GPa)
#
#
# Indices 1 2 3 4 5 6 
#
# 1 0.020783 -0.002026 -0.011530 0.000000 -0.010990 0.000000
# 2 -0.002026 0.017482 -0.006468 0.000000 -0.001194 0.000000
# 3 -0.011530 -0.006468 0.030350 0.000000 0.002521 0.000000
# 4 0.000000 0.000000 0.000000 0.064375 0.000000 -0.022060
# 5 -0.010990 -0.001194 0.002521 0.000000 0.030817 0.000000
# 6 0.000000 0.000000 0.000000 -0.022060 0.000000 0.049245
#
#
# Mechanical properties :
#
#
# Convention : Reuss Voigt Hill
#
# Bulk Modulus (GPa) = 35.00602 41.37284 38.18943
# Shear Modulus (GPa) = 19.03868 25.01204 22.02536
#
# Velocity S-wave (km/s) = 3.08585 3.53697 3.31909
# Velocity P-wave (km/s) = 5.49595 6.11339 5.81287
#
# Compressibility (1/GPa) = 0.02856651
#
# Stress axis : x y z
#
# Youngs Moduli (GPa) = 48.11570 57.20197 32.94856
#
# Poissons Ratio (x) = 0.11590 0.37989
# Poissons Ratio (y) = 0.09749 0.21313
# Poissons Ratio (z) = 0.55477 0.37001
#
# Static dielectric constant tensor:
#      x y z
#    x 3.815240 0.000000 0.234240 
#    y 0.000000 3.425180 0.000000 
#    z 0.234240 0.000000 3.613220 
# 
# 
# High freq. dielectric constant tensor:
#      x y z
#    x 1.791150 0.000000 0.018530 
#    y 0.000000 1.757760 0.000000 
#    z 0.018530 0.000000 1.778230 
# 
# From -- ./inp_files/35983.got.cif
#   From: 2010.03.12/outbox.cif.g09.slc.cpg/sg14_18_cif.got.tgz:35983.got - 2010.03.31 13:35:05.
