data_PCOD8124713
_publ_section_title
;
Structure prediction by ZEFSAII (Michael W. Deem and Ramdas Pophale) SiO2 
 PCOD8124713
Probable space group: P 21/C
;
_chemical_formula_sum "Si O2"
_cell_formula_units_Z 32
_cell_length_a 27.928140
_cell_length_b 8.787252
_cell_length_c 22.764490
_cell_angle_alpha 90.000000
_cell_angle_beta 162.241646
_cell_angle_gamma 90.000000
_cell_volume 1703.952004
_symmetry_space_group_name_H-M "P 21/C"
_symmetry_group_IT_number 14
_symmetry_cell_setting 'monoclinic'
loop_
_space_group_symop_operation_xyz
x,y,z
-x,1/2+y,1/2-z
-x,-y,-z
x,1/2-y,1/2+z
loop_
_atom_site_type_symbol
_atom_site_label
_atom_site_fract_x
_atom_site_fract_y
_atom_site_fract_z
Si Si1 0.731688 0.180839 0.802860
Si Si2 0.731685 0.819159 0.802855
Si Si3 0.410651 0.319156 0.981821
Si Si4 0.354702 0.180768 0.546291
Si Si5 0.028470 0.180765 0.220058
Si Si6 0.028466 0.680777 0.720051
Si Si7 0.354697 0.680785 0.046282
Si Si8 0.589351 0.319150 0.018184
O O1 0.586787 0.239376 0.673576
O O2 0.707874 0.238793 0.707877
O O3 0.733485 0.999999 0.805281
O O4 0.894139 0.243716 0.019077
O O5 0.707874 0.761210 0.707874
O O6 0.586786 0.760620 0.673572
O O7 0.894134 0.756277 0.019070
O O8 0.410101 0.500003 0.981895
O O9 0.355731 0.256302 0.980668
O O10 0.194951 0.237538 0.389903
O O11 0.500004 0.249987 0.750007
O O12 0.368339 0.999991 0.563485
O O13 0.000003 0.249992 0.250005
O O14 0.021956 0.999994 0.217110
O O15 0.194943 0.737553 0.889891
O O16 0.355724 0.743708 0.980656
#
# Coordination Sequence:
#
# PCOD8124713 Si02
#       8
#     4   4   4   4   4   4   4   4
#     4   8  14  26  45  68  93 121 153 190 232 276
#     4   8  14  26  45  68  93 121 153 190 232 276
#     4   8  14  26  45  68  93 121 153 190 232 276
#     4  10  20  32  48  71  97 126 159 194 234 279
#     4  10  20  32  48  71  97 126 159 194 234 279
#     4  10  20  32  48  71  97 126 159 194 234 279
#     4  10  20  32  48  71  97 126 159 194 234 279
#     4   8  14  26  45  68  93 121 153 190 232 276
#
# _framework density 18.779872999999998
#
# number of rings (size 3 to 8) (size 9 to 14) (size 15 to 20)
#    0.000    3.000    0.000    3.000    0.000    4.000 
#    0.000    5.000    0.000    1.500    0.000   10.500 
#    0.000    0.000    0.000    0.000    0.000    0.000 
#
# Total GULP energy -396632.311184 kJ/mol
# GULP energy per Si atom -12394.759725 kJ/mol
# Density = 1.873713 g / cm^3
# Si number density = 18.779873 Si / 1000 Ang^3
#
#
#
# Elastic Constant Matrix: (Units=GPa)
#
#
# Indices 1 2 3 4 5 6 
#
# 1 202.3344 18.3427 111.2634 0.0000 -6.2013 0.0000
# 2 18.3427 7.6310 18.2623 0.0000 0.6405 0.0000
# 3 111.2634 18.2623 203.7886 0.0000 -4.1530 0.0000
# 4 0.0000 0.0000 0.0000 21.9470 0.0000 -2.8325
# 5 -6.2013 0.6405 -4.1530 0.0000 31.5201 0.0000
# 6 0.0000 0.0000 0.0000 -2.8325 0.0000 21.5346
#
#
#
# Elastic Compliance Matrix: (Units=1/GPa)
#
#
# Indices 1 2 3 4 5 6 
#
# 1 0.007753 -0.011052 -0.003216 0.000000 0.001326 0.000000
# 2 -0.011052 0.183488 -0.010558 0.000000 -0.007294 0.000000
# 3 -0.003216 -0.010558 0.007621 0.000000 0.000586 0.000000
# 4 0.000000 0.000000 0.000000 0.046351 0.000000 0.006097
# 5 0.001326 -0.007294 0.000586 0.000000 0.032212 0.000000
# 6 0.000000 0.000000 0.000000 0.006097 0.000000 0.047239
#
#
# Mechanical properties :
#
#
# Convention : Reuss Voigt Hill
#
# Bulk Modulus (GPa) = 6.70190 78.83232 42.76711
# Shear Modulus (GPa) = 11.79101 32.72606 22.25854
#
# Velocity S-wave (km/s) = 2.50842 4.17899 3.44646
# Velocity P-wave (km/s) = 3.45919 8.08415 6.21769
#
# Compressibility (1/GPa) = 0.14921149
#
# Stress axis : x y z
#
# Youngs Moduli (GPa) = 128.98016 5.44994 131.22156
#
# Poissons Ratio (x) = 0.06023 0.42195
# Poissons Ratio (y) = 1.42552 1.38538
# Poissons Ratio (z) = 0.41474 0.05754
#
# Static dielectric constant tensor:
#      x y z
#    x 3.820610 0.000000 -0.096920 
#    y 0.000000 2.864420 0.000000 
#    z -0.096920 0.000000 3.834440 
# 
# 
# High freq. dielectric constant tensor:
#      x y z
#    x 1.741720 0.000000 -0.007710 
#    y 0.000000 1.665220 0.000000 
#    z -0.007710 0.000000 1.742790 
# 
# From -- ./inp_files/50814.got.cif
#   From: 2010.03.12/outbox.cif.g09.slc.cpg/sg14_26_cif.got.tgz:50814.got - 2010.03.31 13:35:05.
