data_PCOD8124720
_publ_section_title
;
Structure prediction by ZEFSAII (Michael W. Deem and Ramdas Pophale) SiO2 
 PCOD8124720
Probable space group: P 21/C
;
_chemical_formula_sum "Si O2"
_cell_formula_units_Z 28
_cell_length_a 12.507057
_cell_length_b 8.821473
_cell_length_c 28.530073
_cell_angle_alpha 90.000000
_cell_angle_beta 151.254618
_cell_angle_gamma 90.000000
_cell_volume 1513.806087
_symmetry_space_group_name_H-M "P 21/C"
_symmetry_group_IT_number 14
_symmetry_cell_setting 'monoclinic'
loop_
_space_group_symop_operation_xyz
x,y,z
-x,1/2+y,1/2-z
-x,-y,-z
x,1/2-y,1/2+z
loop_
_atom_site_type_symbol
_atom_site_label
_atom_site_fract_x
_atom_site_fract_y
_atom_site_fract_z
Si Si1 0.894777 0.531786 0.888283
Si Si2 0.532664 0.323910 0.110416
Si Si3 0.973780 0.024238 0.796872
Si Si4 0.341505 0.967998 0.611636
Si Si5 0.213509 0.975590 0.796804
Si Si6 0.908803 0.823809 0.610340
Si Si7 0.741363 0.749912 0.749959
O O1 0.694297 0.499804 0.847157
O O2 0.825966 0.670098 0.829138
O O3 0.942898 0.379757 0.876704
O O4 0.112138 0.584725 0.999939
O O5 0.754611 0.419693 0.184284
O O6 0.436084 0.379933 0.123315
O O7 0.591457 0.146638 0.136533
O O8 0.351938 0.351946 0.000039
O O9 0.045693 0.146522 0.863604
O O10 0.930511 0.868180 0.807122
O O11 0.171179 0.999775 0.835605
O O12 0.509057 0.829590 0.670623
O O13 0.982313 0.919593 0.684202
O O14 0.297628 0.131788 0.807066
#
# Coordination Sequence:
#
# PCOD8124720 Si02
#       7
#     4   4   4   4   4   4   4
#     4   9  19  36  55  76 104 135 168 210 257 303
#     4   9  19  35  53  73 101 136 171 208 253 303
#     4  10  20  35  52  75 106 135 169 212 252 297
#     4   9  19  36  55  76 104 135 168 210 257 303
#     4  10  20  35  52  75 106 135 169 212 252 297
#     4   9  19  35  53  73 101 136 171 208 253 303
#     4  10  20  32  54  80 102 134 172 210 254 302
#
# _framework density 18.496424000000001
#
# number of rings (size 3 to 8) (size 9 to 14) (size 15 to 20)
#    0.000    2.571    0.000    1.714    0.000    6.857 
#    0.000    5.714    0.000    6.000    0.000    0.000 
#    0.000    0.000    0.000    0.000    0.000    0.000 
#
# Total GULP energy -347205.525274 kJ/mol
# GULP energy per Si atom -12400.197331 kJ/mol
# Density = 1.845433 g / cm^3
# Si number density = 18.496424 Si / 1000 Ang^3
#
#
#
# Elastic Constant Matrix: (Units=GPa)
#
#
# Indices 1 2 3 4 5 6 
#
# 1 133.6535 71.9297 36.1482 0.0000 -1.1557 0.0000
# 2 71.9297 137.1743 38.0926 0.0000 -0.7785 0.0000
# 3 36.1482 38.0926 80.9372 0.0000 -0.0945 0.0000
# 4 0.0000 0.0000 0.0000 23.1024 0.0000 -0.0461
# 5 -1.1557 -0.7785 -0.0945 0.0000 24.3405 0.0000
# 6 0.0000 0.0000 0.0000 -0.0461 0.0000 24.5609
#
#
#
# Elastic Compliance Matrix: (Units=1/GPa)
#
#
# Indices 1 2 3 4 5 6 
#
# 1 0.010847 -0.004993 -0.002494 0.000000 0.000346 0.000000
# 2 -0.004993 0.010686 -0.002799 0.000000 0.000094 0.000000
# 3 -0.002494 -0.002799 0.014786 0.000000 -0.000151 0.000000
# 4 0.000000 0.000000 0.000000 0.043286 0.000000 0.000081
# 5 0.000346 0.000094 -0.000151 0.000000 0.041103 0.000000
# 6 0.000000 0.000000 0.000000 0.000081 0.000000 0.040715
#
#
# Mechanical properties :
#
#
# Convention : Reuss Voigt Hill
#
# Bulk Modulus (GPa) = 63.50591 71.56733 67.53662
# Shear Modulus (GPa) = 26.70306 28.10705 27.40506
#
# Velocity S-wave (km/s) = 3.80371 3.90243 3.85338
# Velocity P-wave (km/s) = 7.32800 7.68647 7.50937
#
# Compressibility (1/GPa) = 0.01574657
#
# Stress axis : x y z
#
# Youngs Moduli (GPa) = 92.19328 93.57953 67.62988
#
# Poissons Ratio (x) = 0.46726 0.16867
# Poissons Ratio (y) = 0.46034 0.18931
# Poissons Ratio (z) = 0.22993 0.26195
#
# Static dielectric constant tensor:
#      x y z
#    x 3.414610 0.000000 -0.000110 
#    y 0.000000 3.401210 0.000000 
#    z -0.000110 0.000000 3.402360 
# 
# 
# High freq. dielectric constant tensor:
#      x y z
#    x 1.715170 0.000000 -0.000090 
#    y 0.000000 1.718250 0.000000 
#    z -0.000090 0.000000 1.710820 
# 
# From -- ./inp_files/43188.got.cif
#   From: 2010.03.12/outbox.cif.g09.slc.cpg/sg14_22_cif.got.tgz:43188.got - 2010.03.31 13:35:05.
