data_PCOD8124483
_publ_section_title
;
Structure prediction by ZEFSAII (Michael W. Deem and Ramdas Pophale) SiO2 
 PCOD8124483
Probable space group: P 21/C
;
_chemical_formula_sum "Si O2"
_cell_formula_units_Z 32
_cell_length_a 9.830367
_cell_length_b 20.850447
_cell_length_c 17.364448
_cell_angle_alpha 90.000000
_cell_angle_beta 27.263206
_cell_angle_gamma 90.000000
_cell_volume 1630.370419
_symmetry_space_group_name_H-M "P 21/C"
_symmetry_group_IT_number 14
_symmetry_cell_setting 'monoclinic'
loop_
_space_group_symop_operation_xyz
x,y,z
-x,1/2+y,1/2-z
-x,-y,-z
x,1/2-y,1/2+z
loop_
_atom_site_type_symbol
_atom_site_label
_atom_site_fract_x
_atom_site_fract_y
_atom_site_fract_z
Si Si1 0.880653 0.235104 0.321949
Si Si2 0.845256 0.045045 0.138339
Si Si3 0.334707 0.172523 0.678046
Si Si4 0.331233 0.959530 0.145384
Si Si5 0.314671 0.140576 0.857172
Si Si6 0.427245 0.318767 0.459854
Si Si7 0.781460 0.531132 0.821409
Si Si8 0.662469 0.012072 0.686153
O O1 0.665940 0.194900 0.486978
O O2 0.668234 0.268191 0.366927
O O3 0.070646 0.287214 0.272701
O O4 0.108103 0.189534 0.161771
O O5 0.903807 0.018328 0.195002
O O6 0.501730 0.042182 0.283766
O O7 0.997433 0.114094 0.049777
O O8 0.000000 0.000000 0.000000
O O9 0.287324 0.181592 0.793319
O O10 0.297775 0.098116 0.677879
O O11 0.381103 0.996175 0.200692
O O12 0.992829 0.956898 0.287865
O O13 0.466293 0.889581 0.076279
O O14 0.500000 0.000000 0.000000
O O15 0.551664 0.083653 0.720568
O O16 0.417777 0.189499 0.872037
O O17 0.500000 0.500000 0.000000
O O18 0.000000 0.000000 0.500000
#
# Coordination Sequence:
#
# PCOD8124483 Si02
#       8
#     4   4   4   4   4   4   4   4
#     4  10  24  43  65  82 120 158 210 255 301 344
#     4  10  19  38  57  86 125 160 182 238 306 364
#     4  11  23  43  63  89 119 161 205 257 297 366
#     4  11  23  35  59  90 123 154 194 240 303 362
#     4  10  22  38  63  85 121 158 200 238 306 365
#     4  10  22  43  60  88 116 159 200 252 299 360
#     4  12  23  36  62  95 125 155 204 249 309 370
#     4  10  20  35  52  84 127 156 185 233 291 361
#
# _framework density 19.627441000000001
#
# number of rings (size 3 to 8) (size 9 to 14) (size 15 to 20)
#    0.000    1.500    3.750    3.000    3.500    1.000 
#    0.000    1.250    0.000    0.000    0.000    0.000 
#    0.000    0.000    0.000    0.000    0.000    0.000 
#
# Total GULP energy -396624.441306 kJ/mol
# GULP energy per Si atom -12394.513791 kJ/mol
# Density = 1.958277 g / cm^3
# Si number density = 19.627441 Si / 1000 Ang^3
#
#
#
# Elastic Constant Matrix: (Units=GPa)
#
#
# Indices 1 2 3 4 5 6 
#
# 1 127.6120 37.6460 31.7023 0.0000 1.7141 0.0000
# 2 37.6460 56.7991 36.9262 0.0000 2.1860 0.0000
# 3 31.7023 36.9262 82.4687 0.0000 -18.2830 0.0000
# 4 0.0000 0.0000 0.0000 31.8635 0.0000 5.1348
# 5 1.7141 2.1860 -18.2830 0.0000 36.9898 0.0000
# 6 0.0000 0.0000 0.0000 5.1348 0.0000 23.0212
#
#
#
# Elastic Compliance Matrix: (Units=1/GPa)
#
#
# Indices 1 2 3 4 5 6 
#
# 1 0.009850 -0.005510 -0.001514 0.000000 -0.000879 0.000000
# 2 -0.005510 0.030111 -0.013142 0.000000 -0.008020 0.000000
# 3 -0.001514 -0.013142 0.021091 0.000000 0.011272 0.000000
# 4 0.000000 0.000000 0.000000 0.032554 0.000000 -0.007261
# 5 -0.000879 -0.008020 0.011272 0.000000 0.033120 0.000000
# 6 0.000000 0.000000 0.000000 -0.007261 0.000000 0.045058
#
#
# Mechanical properties :
#
#
# Convention : Reuss Voigt Hill
#
# Bulk Modulus (GPa) = 48.26516 53.26986 50.76751
# Shear Modulus (GPa) = 22.82869 29.08192 25.95530
#
# Velocity S-wave (km/s) = 3.41413 3.85346 3.64043
# Velocity P-wave (km/s) = 6.33922 6.85553 6.60242
#
# Compressibility (1/GPa) = 0.02071888
#
# Stress axis : x y z
#
# Youngs Moduli (GPa) = 101.52585 33.21093 47.41309
#
# Poissons Ratio (x) = 0.18300 0.07179
# Poissons Ratio (y) = 0.55942 0.62311
# Poissons Ratio (z) = 0.15372 0.43646
#
# Static dielectric constant tensor:
#      x y z
#    x 3.438040 0.000000 -0.812050 
#    y 0.000000 3.576540 0.000000 
#    z -0.812050 0.000000 4.332990 
# 
# 
# High freq. dielectric constant tensor:
#      x y z
#    x 1.789330 0.000000 -0.001870 
#    y 0.000000 1.740940 0.000000 
#    z -0.001870 0.000000 1.772100 
# 
# From -- ./inp_files/42235.got.cif
#   From: 2010.03.12/outbox.cif.g09.slc.cpg/sg14_22_cif.got.tgz:42235.got - 2010.03.31 13:35:05.
