data_PCOD8124937
_publ_section_title
;
Structure prediction by ZEFSAII (Michael W. Deem and Ramdas Pophale) SiO2 
 PCOD8124937
Probable space group: P 21/C
;
_chemical_formula_sum "Si O2"
_cell_formula_units_Z 32
_cell_length_a 14.636467
_cell_length_b 9.346925
_cell_length_c 24.879945
_cell_angle_alpha 90.000000
_cell_angle_beta 29.059935
_cell_angle_gamma 90.000000
_cell_volume 1653.271690
_symmetry_space_group_name_H-M "P 21/C"
_symmetry_group_IT_number 14
_symmetry_cell_setting 'monoclinic'
loop_
_space_group_symop_operation_xyz
x,y,z
-x,1/2+y,1/2-z
-x,-y,-z
x,1/2-y,1/2+z
loop_
_atom_site_type_symbol
_atom_site_label
_atom_site_fract_x
_atom_site_fract_y
_atom_site_fract_z
Si Si1 0.490250 0.452094 0.421512
Si Si2 0.305403 0.223523 0.219024
Si Si3 0.557052 0.732133 0.143926
Si Si4 0.784901 0.404967 0.358514
Si Si5 0.028556 0.853193 0.681069
Si Si6 0.818347 0.684580 0.102261
Si Si7 0.752434 0.354914 0.124452
Si Si8 0.366055 0.585845 0.930089
O O1 0.614116 0.563403 0.324119
O O2 0.408436 0.333635 0.424210
O O3 0.621866 0.377917 0.398580
O O4 0.309417 0.528293 0.540094
O O5 0.136350 0.237005 0.263391
O O6 0.232396 0.260620 0.315918
O O7 0.471043 0.335185 0.119526
O O8 0.719216 0.765226 0.103907
O O9 0.358485 0.762332 0.274645
O O10 0.564237 0.572586 0.117997
O O11 0.945954 0.511100 0.254788
O O12 0.874181 0.251935 0.326378
O O13 0.173918 0.915406 0.562675
O O14 0.746819 0.521883 0.141456
O O15 0.037490 0.701864 0.979860
O O16 0.669875 0.329267 0.107205
#
# Coordination Sequence:
#
# PCOD8124937 Si02
#       8
#     4   4   4   4   4   4   4   4
#     4  10  22  43  65  85 121 171 211 252 313 376
#     4  11  20  40  65  88 122 169 202 245 319 375
#     4  11  23  37  63  96 128 161 205 258 306 373
#     4  10  24  43  66  89 118 166 219 261 313 367
#     4  11  24  43  66  91 122 163 211 268 313 373
#     4  10  20  35  62  90 124 166 203 238 300 382
#     4  10  20  38  59  90 127 167 201 241 300 378
#     4  11  23  39  62  94 129 162 204 262 314 364
#
# _framework density 19.355561999999999
#
# number of rings (size 3 to 8) (size 9 to 14) (size 15 to 20)
#    0.000    1.500    5.000    0.000    1.750    1.000 
#    2.250    1.875    0.000    0.000    0.000    0.000 
#    0.000    0.000    0.000    0.000    0.000    0.000 
#
# Total GULP energy -396915.101451 kJ/mol
# GULP energy per Si atom -12403.596920 kJ/mol
# Density = 1.931151 g / cm^3
# Si number density = 19.355562 Si / 1000 Ang^3
#
#
#
# Elastic Constant Matrix: (Units=GPa)
#
#
# Indices 1 2 3 4 5 6 
#
# 1 75.4103 35.6534 32.5771 0.0000 3.8132 0.0000
# 2 35.6534 63.6149 28.5826 0.0000 -0.8426 0.0000
# 3 32.5771 28.5826 110.6623 0.0000 -0.1390 0.0000
# 4 0.0000 0.0000 0.0000 52.2509 0.0000 -3.4438
# 5 3.8132 -0.8426 -0.1390 0.0000 30.6210 0.0000
# 6 0.0000 0.0000 0.0000 -3.4438 0.0000 38.9682
#
#
#
# Elastic Compliance Matrix: (Units=1/GPa)
#
#
# Indices 1 2 3 4 5 6 
#
# 1 0.019217 -0.009347 -0.003246 0.000000 -0.002665 0.000000
# 2 -0.009347 0.022336 -0.003015 0.000000 0.001765 0.000000
# 3 -0.003246 -0.003015 0.010771 0.000000 0.000370 0.000000
# 4 0.000000 0.000000 0.000000 0.019251 0.000000 0.001701
# 5 -0.002665 0.001765 0.000370 0.000000 0.033039 0.000000
# 6 0.000000 0.000000 0.000000 0.001701 0.000000 0.025812
#
#
# Mechanical properties :
#
#
# Convention : Reuss Voigt Hill
#
# Bulk Modulus (GPa) = 47.37654 49.25709 48.31682
# Shear Modulus (GPa) = 29.64179 34.55965 32.10072
#
# Velocity S-wave (km/s) = 3.91760 4.23012 4.07686
# Velocity P-wave (km/s) = 6.70772 7.02583 6.86862
#
# Compressibility (1/GPa) = 0.02110749
#
# Stress axis : x y z
#
# Youngs Moduli (GPa) = 52.03670 44.76992 92.83791
#
# Poissons Ratio (x) = 0.41847 0.30138
# Poissons Ratio (y) = 0.48639 0.27994
# Poissons Ratio (z) = 0.16893 0.13500
#
# Static dielectric constant tensor:
#      x y z
#    x 3.630040 0.000000 -0.007580 
#    y 0.000000 3.247100 0.000000 
#    z -0.007580 0.000000 3.598860 
# 
# 
# High freq. dielectric constant tensor:
#      x y z
#    x 1.758720 0.000000 0.000070 
#    y 0.000000 1.732290 0.000000 
#    z 0.000070 0.000000 1.768220 
# 
# From -- ./inp_files/46302.got.cif
#   From: 2010.03.12/outbox.cif.g09.slc.cpg/sg14_24_cif.got.tgz:46302.got - 2010.03.31 13:35:05.
