data_PCOD8124563
_publ_section_title
;
Structure prediction by ZEFSAII (Michael W. Deem and Ramdas Pophale) SiO2 
 PCOD8124563
Probable space group: P 21/C
;
_chemical_formula_sum "Si O2"
_cell_formula_units_Z 24
_cell_length_a 18.958085
_cell_length_b 15.540841
_cell_length_c 9.740721
_cell_angle_alpha 90.000000
_cell_angle_beta 26.132402
_cell_angle_gamma 90.000000
_cell_volume 1264.019279
_symmetry_space_group_name_H-M "P 21/C"
_symmetry_group_IT_number 14
_symmetry_cell_setting 'monoclinic'
loop_
_space_group_symop_operation_xyz
x,y,z
-x,1/2+y,1/2-z
-x,-y,-z
x,1/2-y,1/2+z
loop_
_atom_site_type_symbol
_atom_site_label
_atom_site_fract_x
_atom_site_fract_y
_atom_site_fract_z
Si Si1 0.740342 0.331157 0.639680
Si Si2 0.606825 0.022423 0.684694
Si Si3 0.553805 0.926662 0.304382
Si Si4 0.907883 0.928827 0.076647
Si Si5 0.833228 0.183654 0.277877
Si Si6 0.127655 0.018028 0.160529
O O1 0.781432 0.270788 0.442024
O O2 0.823364 0.296557 0.633240
O O3 0.798184 0.427987 0.515695
O O4 0.546286 0.338303 0.994090
O O5 0.477364 0.041944 0.794931
O O6 0.715804 0.105771 0.525700
O O7 0.718930 0.941369 0.441477
O O8 0.500000 0.000000 0.000000
O O9 0.500000 0.000000 0.500000
O O10 0.743543 0.915513 0.997871
O O11 0.943728 0.937602 0.851186
O O12 0.983444 0.838378 0.996786
O O13 0.000000 0.000000 0.000000
O O14 0.000000 0.000000 0.500000
#
# Coordination Sequence:
#
# PCOD8124563 Si02
#       6
#     4   4   4   4   4   4
#     4  10  21  40  57  86 120 155 198 245 301 357
#     4  10  20  35  62  86 110 158 198 245 296 349
#     4   9  18  37  56  84 116 144 200 243 282 356
#     4  10  19  39  56  86 120 151 202 245 289 360
#     4  10  22  37  60  83 121 157 194 248 301 356
#     4  11  22  36  65  90 114 159 200 254 297 355
#
# _framework density 18.987051999999998
#
# number of rings (size 3 to 8) (size 9 to 14) (size 15 to 20)
#    0.000    2.000    6.667    0.000    7.000    1.333 
#    0.000    1.667    3.667    0.000    0.000    0.000 
#    0.000    0.000    0.000    0.000    0.000    0.000 
#
# Total GULP energy -297414.783512 kJ/mol
# GULP energy per Si atom -12392.282646 kJ/mol
# Density = 1.894384 g / cm^3
# Si number density = 18.987052 Si / 1000 Ang^3
#
#
#
# Elastic Constant Matrix: (Units=GPa)
#
#
# Indices 1 2 3 4 5 6 
#
# 1 144.3366 28.0495 43.8796 0.0000 1.5380 0.0000
# 2 28.0495 49.2060 3.4201 0.0000 -1.0612 0.0000
# 3 43.8796 3.4201 82.3750 0.0000 7.8851 0.0000
# 4 0.0000 0.0000 0.0000 29.3484 0.0000 6.6859
# 5 1.5380 -1.0612 7.8851 0.0000 34.8576 0.0000
# 6 0.0000 0.0000 0.0000 6.6859 0.0000 20.3065
#
#
#
# Elastic Compliance Matrix: (Units=1/GPa)
#
#
# Indices 1 2 3 4 5 6 
#
# 1 0.009360 -0.004989 -0.004829 0.000000 0.000528 0.000000
# 2 -0.004989 0.023064 0.001647 0.000000 0.000550 0.000000
# 3 -0.004829 0.001647 0.014942 0.000000 -0.003117 0.000000
# 4 0.000000 0.000000 0.000000 0.036836 0.000000 -0.012128
# 5 0.000528 0.000550 -0.003117 0.000000 0.029387 0.000000
# 6 0.000000 0.000000 0.000000 -0.012128 0.000000 0.053239
#
#
# Mechanical properties :
#
#
# Convention : Reuss Voigt Hill
#
# Bulk Modulus (GPa) = 32.23272 47.40178 39.81725
# Shear Modulus (GPa) = 25.83831 30.27374 28.05602
#
# Velocity S-wave (km/s) = 3.69296 3.99738 3.84818
# Velocity P-wave (km/s) = 5.93270 6.80624 6.38443
#
# Compressibility (1/GPa) = 0.03102438
#
# Stress axis : x y z
#
# Youngs Moduli (GPa) = 106.83428 43.35783 66.92502
#
# Poissons Ratio (x) = 0.21630 0.32321
# Poissons Ratio (y) = 0.53297 -0.11024
# Poissons Ratio (z) = 0.51595 -0.07142
#
# Static dielectric constant tensor:
#      x y z
#    x 3.925640 0.000000 -0.257650 
#    y 0.000000 3.075020 0.000000 
#    z -0.257650 0.000000 4.052760 
# 
# 
# High freq. dielectric constant tensor:
#      x y z
#    x 1.762210 0.000000 0.001210 
#    y 0.000000 1.700120 0.000000 
#    z 0.001210 0.000000 1.732300 
# 
# From -- ./inp_files/18092.got.cif
#   From: 2010.03.12/outbox.cif.g09.slc.cpg/sg14_10_cif.got.tgz:18092.got - 2010.03.31 13:35:05.
