data_PCOD8124103
_publ_section_title
;
Structure prediction by ZEFSAII (Michael W. Deem and Ramdas Pophale) SiO2 
 PCOD8124103
Probable space group: P 21/C
;
_chemical_formula_sum "Si O2"
_cell_formula_units_Z 32
_cell_length_a 15.528600
_cell_length_b 10.648336
_cell_length_c 14.612108
_cell_angle_alpha 90.000000
_cell_angle_beta 39.316576
_cell_angle_gamma 90.000000
_cell_volume 1530.894732
_symmetry_space_group_name_H-M "P 21/C"
_symmetry_group_IT_number 14
_symmetry_cell_setting 'monoclinic'
loop_
_space_group_symop_operation_xyz
x,y,z
-x,1/2+y,1/2-z
-x,-y,-z
x,1/2-y,1/2+z
loop_
_atom_site_type_symbol
_atom_site_label
_atom_site_fract_x
_atom_site_fract_y
_atom_site_fract_z
Si Si1 0.117525 0.779462 0.628016
Si Si2 0.454610 0.950792 0.167644
Si Si3 0.733595 0.225820 0.166786
Si Si4 0.105311 0.009471 0.182712
Si Si5 0.700734 0.593204 0.337235
Si Si6 0.656191 0.524763 0.649585
Si Si7 0.629576 0.861662 0.365588
Si Si8 0.317393 0.874828 0.608750
O O1 0.145008 0.782552 0.495458
O O2 0.066375 0.638257 0.698764
O O3 0.257225 0.815242 0.565866
O O4 0.017360 0.893785 0.734663
O O5 0.384162 0.819700 0.209942
O O6 0.505647 0.959224 0.230209
O O7 0.341358 0.055431 0.232222
O O8 0.586428 0.965060 0.996571
O O9 0.781153 0.168572 0.225598
O O10 0.662086 0.121514 0.164572
O O11 0.158862 0.029354 0.243223
O O12 0.220945 0.059943 0.018856
O O13 0.715475 0.743136 0.330331
O O14 0.671238 0.607245 0.727770
O O15 0.470490 0.825729 0.499668
O O16 0.670718 0.973484 0.401406
#
# Coordination Sequence:
#
# PCOD8124103 Si02
#       8
#     4   4   4   4   4   4   4   4
#     4  11  24  44  67  84 125 169 212 259 307 362
#     4  10  19  34  59  88 120 157 193 251 311 371
#     4  10  20  39  59  89 120 157 204 244 312 372
#     4  10  24  44  60  86 120 168 218 254 306 362
#     4  10  21  36  62  86 126 158 198 256 310 363
#     4   9  21  36  58  90 121 159 197 248 311 375
#     4  10  20  37  62  97 125 154 197 252 321 377
#     4  10  21  38  64  92 126 159 199 254 314 374
#
# _framework density 20.902809999999999
#
# number of rings (size 3 to 8) (size 9 to 14) (size 15 to 20)
#    0.000    2.000    1.250    1.500    8.750    0.000 
#    4.500    3.125    0.000    0.000    0.000    0.000 
#    0.000    0.000    0.000    0.000    0.000    0.000 
#
# Total GULP energy -396517.815715 kJ/mol
# GULP energy per Si atom -12391.181741 kJ/mol
# Density = 2.085523 g / cm^3
# Si number density = 20.902810 Si / 1000 Ang^3
#
#
#
# Elastic Constant Matrix: (Units=GPa)
#
#
# Indices 1 2 3 4 5 6 
#
# 1 53.5030 26.8022 17.1236 0.0000 -2.2724 0.0000
# 2 26.8022 92.3265 27.1622 0.0000 -13.4116 0.0000
# 3 17.1236 27.1622 58.1687 0.0000 1.7952 0.0000
# 4 0.0000 0.0000 0.0000 30.8552 0.0000 2.2846
# 5 -2.2724 -13.4116 1.7952 0.0000 21.1874 0.0000
# 6 0.0000 0.0000 0.0000 2.2846 0.0000 22.1852
#
#
#
# Elastic Compliance Matrix: (Units=1/GPa)
#
#
# Indices 1 2 3 4 5 6 
#
# 1 0.022725 -0.005490 -0.004105 0.000000 -0.000690 0.000000
# 2 -0.005490 0.015605 -0.005973 0.000000 0.009795 0.000000
# 3 -0.004105 -0.005973 0.021375 0.000000 -0.006032 0.000000
# 4 0.000000 0.000000 0.000000 0.032659 0.000000 -0.003363
# 5 -0.000690 0.009795 -0.006032 0.000000 0.053835 0.000000
# 6 0.000000 0.000000 0.000000 -0.003363 0.000000 0.045421
#
#
# Mechanical properties :
#
#
# Convention : Reuss Voigt Hill
#
# Bulk Modulus (GPa) = 35.00217 38.46379 36.73298
# Shear Modulus (GPa) = 21.52585 23.70624 22.61604
#
# Velocity S-wave (km/s) = 3.21254 3.37132 3.29289
# Velocity P-wave (km/s) = 5.52649 5.79617 5.66294
#
# Compressibility (1/GPa) = 0.02856966
#
# Stress axis : x y z
#
# Youngs Moduli (GPa) = 44.00436 64.08262 46.78323
#
# Poissons Ratio (x) = 0.35178 0.19205
# Poissons Ratio (y) = 0.24156 0.27944
# Poissons Ratio (z) = 0.18064 0.38277
#
# Static dielectric constant tensor:
#      x y z
#    x 3.943310 0.000000 0.303500 
#    y 0.000000 3.794130 0.000000 
#    z 0.303500 0.000000 3.734760 
# 
# 
# High freq. dielectric constant tensor:
#      x y z
#    x 1.811290 0.000000 0.017360 
#    y 0.000000 1.827780 0.000000 
#    z 0.017360 0.000000 1.789790 
# 
# From -- ./inp_files/47114.got.cif
#   From: 2010.03.12/outbox.cif.g09.slc.cpg/sg14_24_cif.got.tgz:47114.got - 2010.03.31 13:35:05.
