data_PCOD8124363
_publ_section_title
;
Structure prediction by ZEFSAII (Michael W. Deem and Ramdas Pophale) SiO2 
 PCOD8124363
Probable space group: P 21/C
;
_chemical_formula_sum "Si O2"
_cell_formula_units_Z 32
_cell_length_a 17.113249
_cell_length_b 8.810556
_cell_length_c 19.659649
_cell_angle_alpha 90.000000
_cell_angle_beta 148.792563
_cell_angle_gamma 90.000000
_cell_volume 1535.879048
_symmetry_space_group_name_H-M "P 21/C"
_symmetry_group_IT_number 14
_symmetry_cell_setting 'monoclinic'
loop_
_space_group_symop_operation_xyz
x,y,z
-x,1/2+y,1/2-z
-x,-y,-z
x,1/2-y,1/2+z
loop_
_atom_site_type_symbol
_atom_site_label
_atom_site_fract_x
_atom_site_fract_y
_atom_site_fract_z
Si Si1 0.686191 0.225970 0.562280
Si Si2 0.951102 0.212382 0.577296
Si Si3 0.215086 0.518975 0.282766
Si Si4 0.589637 0.755626 0.548915
Si Si5 0.819450 0.211976 0.843777
Si Si6 0.617151 0.128297 0.371790
Si Si7 0.150676 0.479231 0.748503
Si Si8 0.503554 0.314391 0.168569
O O1 0.775333 0.382968 0.640143
O O2 0.574782 0.205368 0.544246
O O3 0.591413 0.224714 0.422057
O O4 0.804711 0.084242 0.653243
O O5 0.947544 0.252723 0.494718
O O6 0.791202 0.155787 0.484165
O O7 0.010659 0.365617 0.660161
O O8 0.061664 0.073168 0.672246
O O9 0.360029 0.409407 0.387061
O O10 0.222706 0.628707 0.223273
O O11 0.705564 0.877956 0.664830
O O12 0.589453 0.758544 0.466394
O O13 0.672891 0.141955 0.772161
O O14 0.889403 0.090955 0.843724
O O15 0.509212 0.184178 0.230726
O O16 0.580838 0.954302 0.359183
#
# Coordination Sequence:
#
# PCOD8124363 Si02
#       8
#     4   4   4   4   4   4   4   4
#     4  11  21  37  63  94 121 159 213 256 299 364
#     4  10  23  40  56  89 133 165 196 251 314 379
#     4  10  22  36  64  93 122 167 204 254 307 361
#     4  11  20  38  67  93 123 156 214 263 301 350
#     4  10  20  39  65  92 125 157 214 261 304 361
#     4  11  26  41  61  90 130 161 201 254 320 380
#     4  10  19  36  64  90 115 165 206 255 299 359
#     4  11  23  42  63  91 127 161 204 259 312 366
#
# _framework density 20.834975
#
# number of rings (size 3 to 8) (size 9 to 14) (size 15 to 20)
#    0.000    1.500    3.750    2.250    1.750    2.000 
#    0.000    6.250    0.000    0.000    0.000    0.000 
#    0.000    0.000    0.000    0.000    0.000    0.000 
#
# Total GULP energy -396712.271887 kJ/mol
# GULP energy per Si atom -12397.258496 kJ/mol
# Density = 2.078755 g / cm^3
# Si number density = 20.834975 Si / 1000 Ang^3
#
#
#
# Elastic Constant Matrix: (Units=GPa)
#
#
# Indices 1 2 3 4 5 6 
#
# 1 77.1993 39.6326 32.0596 0.0000 -14.0956 0.0000
# 2 39.6326 122.5142 54.1926 0.0000 4.4846 0.0000
# 3 32.0596 54.1926 87.0556 0.0000 -10.9078 0.0000
# 4 0.0000 0.0000 0.0000 38.4022 0.0000 -3.8501
# 5 -14.0956 4.4846 -10.9078 0.0000 36.8801 0.0000
# 6 0.0000 0.0000 0.0000 -3.8501 0.0000 26.2675
#
#
#
# Elastic Compliance Matrix: (Units=1/GPa)
#
#
# Indices 1 2 3 4 5 6 
#
# 1 0.017733 -0.004761 -0.002747 0.000000 0.006544 0.000000
# 2 -0.004761 0.013015 -0.007036 0.000000 -0.005483 0.000000
# 3 -0.002747 -0.007036 0.017503 0.000000 0.004982 0.000000
# 4 0.000000 0.000000 0.000000 0.026429 0.000000 0.003874
# 5 0.006544 -0.005483 0.004982 0.000000 0.031757 0.000000
# 6 0.000000 0.000000 0.000000 0.003874 0.000000 0.038638
#
#
# Mechanical properties :
#
#
# Convention : Reuss Voigt Hill
#
# Bulk Modulus (GPa) = 52.18170 59.83764 56.00967
# Shear Modulus (GPa) = 27.69321 31.03558 29.36439
#
# Velocity S-wave (km/s) = 3.64973 3.86371 3.75824
# Velocity P-wave (km/s) = 6.54678 6.97757 6.76560
#
# Compressibility (1/GPa) = 0.01916381
#
# Stress axis : x y z
#
# Youngs Moduli (GPa) = 56.39085 76.83162 57.13447
#
# Poissons Ratio (x) = 0.36581 0.15693
# Poissons Ratio (y) = 0.26849 0.40199
# Poissons Ratio (z) = 0.15489 0.54058
#
# Static dielectric constant tensor:
#      x y z
#    x 3.511060 0.000000 -0.308100 
#    y 0.000000 3.932920 0.000000 
#    z -0.308100 0.000000 4.023410 
# 
# 
# High freq. dielectric constant tensor:
#      x y z
#    x 1.785060 0.000000 -0.018190 
#    y 0.000000 1.825980 0.000000 
#    z -0.018190 0.000000 1.828100 
# 
# From -- ./inp_files/69179.got.cif
#   From: 2010.03.12/outbox.cif.g09.slc.cpg/sg14_35_cif.got.tgz:69179.got - 2010.03.31 13:35:05.
