data_PCOD8124731
_publ_section_title
;
Structure prediction by ZEFSAII (Michael W. Deem and Ramdas Pophale) SiO2 
 PCOD8124731
Probable space group: P 21/C
;
_chemical_formula_sum "Si O2"
_cell_formula_units_Z 24
_cell_length_a 23.169153
_cell_length_b 9.521160
_cell_length_c 8.661764
_cell_angle_alpha 90.000000
_cell_angle_beta 137.166324
_cell_angle_gamma 90.000000
_cell_volume 1299.073744
_symmetry_space_group_name_H-M "P 21/C"
_symmetry_group_IT_number 14
_symmetry_cell_setting 'monoclinic'
loop_
_space_group_symop_operation_xyz
x,y,z
-x,1/2+y,1/2-z
-x,-y,-z
x,1/2-y,1/2+z
loop_
_atom_site_type_symbol
_atom_site_label
_atom_site_fract_x
_atom_site_fract_y
_atom_site_fract_z
Si Si1 0.741818 0.930408 0.294426
Si Si2 0.426897 0.071188 0.156366
Si Si3 0.928280 0.564551 0.157225
Si Si4 0.579354 0.622905 0.995025
Si Si5 0.068917 0.141564 0.986006
Si Si6 0.744234 0.633982 0.153545
O O1 0.833678 0.005763 0.458407
O O2 0.744340 0.798392 0.185530
O O3 0.724767 0.885634 0.435948
O O4 0.658598 0.013532 0.068960
O O5 0.421187 0.109003 0.323670
O O6 0.436018 0.214986 0.077985
O O7 0.505856 0.971179 0.274423
O O8 0.943428 0.627063 0.356102
O O9 0.939978 0.693269 0.063407
O O10 0.996919 0.444933 0.252957
O O11 0.669398 0.562773 0.107034
O O12 0.161211 0.078821 0.116752
#
# Coordination Sequence:
#
# PCOD8124731 Si02
#       6
#     4   4   4   4   4   4
#     4   9  16  28  48  69  92 124 158 192 230 275
#     4  10  20  33  50  72  96 123 157 195 234 279
#     4   9  18  32  49  71  97 124 157 194 232 277
#     4  10  20  33  50  72  96 123 157 195 234 279
#     4   9  18  32  49  71  97 124 157 194 232 277
#     4   9  16  28  48  69  92 124 158 192 230 275
#
# _framework density 18.474702000000001
#
# number of rings (size 3 to 8) (size 9 to 14) (size 15 to 20)
#    0.000    2.667    0.000    4.000    0.000    4.667 
#    0.000    1.667    0.000    8.000    0.000    0.000 
#    0.000    0.000    0.000    0.000    0.000    0.000 
#
# Total GULP energy -297353.187067 kJ/mol
# GULP energy per Si atom -12389.716128 kJ/mol
# Density = 1.843265 g / cm^3
# Si number density = 18.474702 Si / 1000 Ang^3
#
#
#
# Elastic Constant Matrix: (Units=GPa)
#
#
# Indices 1 2 3 4 5 6 
#
# 1 60.8658 14.6089 34.4478 0.0000 29.5270 0.0000
# 2 14.6089 32.6172 24.3236 0.0000 15.6723 0.0000
# 3 34.4478 24.3236 116.7264 0.0000 34.2566 0.0000
# 4 0.0000 0.0000 0.0000 28.0610 0.0000 6.7789
# 5 29.5270 15.6723 34.2566 0.0000 36.9945 0.0000
# 6 0.0000 0.0000 0.0000 6.7789 0.0000 15.8590
#
#
#
# Elastic Compliance Matrix: (Units=1/GPa)
#
#
# Indices 1 2 3 4 5 6 
#
# 1 0.027293 -0.001406 -0.002119 0.000000 -0.019226 0.000000
# 2 -0.001406 0.040321 -0.004536 0.000000 -0.011759 0.000000
# 3 -0.002119 -0.004536 0.012465 0.000000 -0.007929 0.000000
# 4 0.000000 0.000000 0.000000 0.039740 0.000000 -0.016987
# 5 -0.019226 -0.011759 -0.007929 0.000000 0.054700 0.000000
# 6 0.000000 0.000000 0.000000 -0.016987 0.000000 0.070317
#
#
# Mechanical properties :
#
#
# Convention : Reuss Voigt Hill
#
# Bulk Modulus (GPa) = 15.63577 39.66334 27.64955
# Shear Modulus (GPa) = 17.71302 25.30484 21.50893
#
# Velocity S-wave (km/s) = 3.09976 3.70496 3.41579
# Velocity P-wave (km/s) = 4.61444 6.31015 5.52770
#
# Compressibility (1/GPa) = 0.06395592
#
# Stress axis : x y z
#
# Youngs Moduli (GPa) = 36.63900 24.80082 80.22625
#
# Poissons Ratio (x) = 0.03487 0.17002
# Poissons Ratio (y) = 0.05152 0.36393
# Poissons Ratio (z) = 0.07765 0.11250
#
# Static dielectric constant tensor:
#      x y z
#    x 3.690540 0.000000 0.498890 
#    y 0.000000 2.987340 0.000000 
#    z 0.498890 0.000000 4.047080 
# 
# 
# High freq. dielectric constant tensor:
#      x y z
#    x 1.727420 0.000000 0.011520 
#    y 0.000000 1.655420 0.000000 
#    z 0.011520 0.000000 1.743530 
# 
# From -- ./inp_files/19415.got.cif
#   From: 2010.03.12/outbox.cif.g09.slc.cpg/sg14_10_cif.got.tgz:19415.got - 2010.03.31 13:35:05.
