data_PCOD8124257
_publ_section_title
;
Structure prediction by ZEFSAII (Michael W. Deem and Ramdas Pophale) SiO2 
 PCOD8124257
Probable space group: P 21/C
;
_chemical_formula_sum "Si O2"
_cell_formula_units_Z 24
_cell_length_a 5.171833
_cell_length_b 13.359294
_cell_length_c 21.193739
_cell_angle_alpha 90.000000
_cell_angle_beta 118.866681
_cell_angle_gamma 90.000000
_cell_volume 1282.370318
_symmetry_space_group_name_H-M "P 21/C"
_symmetry_group_IT_number 14
_symmetry_cell_setting 'monoclinic'
loop_
_space_group_symop_operation_xyz
x,y,z
-x,1/2+y,1/2-z
-x,-y,-z
x,1/2-y,1/2+z
loop_
_atom_site_type_symbol
_atom_site_label
_atom_site_fract_x
_atom_site_fract_y
_atom_site_fract_z
Si Si1 0.712938 0.713188 0.266324
Si Si2 0.292276 0.563464 0.519466
Si Si3 0.825146 0.256273 0.584946
Si Si4 0.333161 0.090475 0.812697
Si Si5 0.411699 0.327851 0.131935
Si Si6 0.687968 0.006626 0.739058
O O1 0.747380 0.796267 0.216056
O O2 0.498597 0.754106 0.298083
O O3 0.610871 0.610706 0.221442
O O4 0.029210 0.690249 0.336633
O O5 0.500000 0.500000 0.500000
O O6 0.217507 0.666820 0.476404
O O7 0.473398 0.592794 0.602109
O O8 0.000000 0.500000 0.500000
O O9 0.523381 0.208901 0.576381
O O10 0.052708 0.169759 0.587078
O O11 0.534745 0.039434 0.784767
O O12 0.035610 0.027143 0.785708
O O13 0.547256 0.437022 0.162068
#
# Coordination Sequence:
#
# PCOD8124257 Si02
#       6
#     4   4   4   4   4   4
#     4   9  21  33  59  76 113 145 188 239 278 319
#     4  12  24  37  56  86 118 154 183 228 300 352
#     4  10  19  36  52  75 115 145 178 231 280 334
#     4  11  23  37  54  91 114 143 197 232 284 349
#     4   9  19  34  51  81 103 148 189 222 282 329
#     4  11  20  35  58  82 115 143 193 241 278 337
#
# _framework density 18.715344000000002
#
# number of rings (size 3 to 8) (size 9 to 14) (size 15 to 20)
#    1.000    0.667    1.667    4.000    4.667    0.000 
#    0.000    0.000    0.000    2.000    0.000    0.000 
#    0.000    0.000    0.000    0.000    0.000    0.000 
#
# Total GULP energy -297355.184617 kJ/mol
# GULP energy per Si atom -12389.799359 kJ/mol
# Density = 1.867275 g / cm^3
# Si number density = 18.715344 Si / 1000 Ang^3
#
#
#
# Elastic Constant Matrix: (Units=GPa)
#
#
# Indices 1 2 3 4 5 6 
#
# 1 130.8701 20.3182 12.9032 0.0000 -3.1410 0.0000
# 2 20.3182 98.9072 7.1764 0.0000 -0.1570 0.0000
# 3 12.9032 7.1764 58.7436 0.0000 -3.9302 0.0000
# 4 0.0000 0.0000 0.0000 15.3186 0.0000 -3.3075
# 5 -3.1410 -0.1570 -3.9302 0.0000 27.2165 0.0000
# 6 0.0000 0.0000 0.0000 -3.3075 0.0000 27.2694
#
#
#
# Elastic Compliance Matrix: (Units=1/GPa)
#
#
# Indices 1 2 3 4 5 6 
#
# 1 0.008048 -0.001541 -0.001533 0.000000 0.000699 0.000000
# 2 -0.001541 0.010496 -0.000961 0.000000 -0.000256 0.000000
# 3 -0.001533 -0.000961 0.017635 0.000000 0.002364 0.000000
# 4 0.000000 0.000000 0.000000 0.067036 0.000000 0.008131
# 5 0.000699 -0.000256 0.002364 0.000000 0.037163 0.000000
# 6 0.000000 0.000000 0.000000 0.008131 0.000000 0.037657
#
#
# Mechanical properties :
#
#
# Convention : Reuss Voigt Hill
#
# Bulk Modulus (GPa) = 35.57388 41.03516 38.30452
# Shear Modulus (GPa) = 25.57860 30.50244 28.04052
#
# Velocity S-wave (km/s) = 3.70093 4.04147 3.87494
# Velocity P-wave (km/s) = 6.10832 6.61449 6.36644
#
# Compressibility (1/GPa) = 0.02811052
#
# Stress axis : x y z
#
# Youngs Moduli (GPa) = 124.24967 95.27108 56.70418
#
# Poissons Ratio (x) = 0.14681 0.08692
# Poissons Ratio (y) = 0.19147 0.05449
# Poissons Ratio (z) = 0.19045 0.09155
#
# Static dielectric constant tensor:
#      x y z
#    x 3.549870 0.000000 -0.008620 
#    y 0.000000 3.384960 0.000000 
#    z -0.008620 0.000000 3.289700 
# 
# 
# High freq. dielectric constant tensor:
#      x y z
#    x 1.743460 0.000000 -0.005060 
#    y 0.000000 1.713920 0.000000 
#    z -0.005060 0.000000 1.695690 
# 
# From -- ./inp_files/71184.got.cif
#   From: 2010.03.12/outbox.cif.g09.slc.cpg/sg14_36_cif.got.tgz:71184.got - 2010.03.31 13:35:05.
