data_PCOD8124948
_publ_section_title
;
Structure prediction by ZEFSAII (Michael W. Deem and Ramdas Pophale) SiO2 
 PCOD8124948
Probable space group: P 21/C
;
_chemical_formula_sum "Si O2"
_cell_formula_units_Z 32
_cell_length_a 17.547543
_cell_length_b 13.502816
_cell_length_c 24.085715
_cell_angle_alpha 90.000000
_cell_angle_beta 15.911847
_cell_angle_gamma 90.000000
_cell_volume 1564.592501
_symmetry_space_group_name_H-M "P 21/C"
_symmetry_group_IT_number 14
_symmetry_cell_setting 'monoclinic'
loop_
_space_group_symop_operation_xyz
x,y,z
-x,1/2+y,1/2-z
-x,-y,-z
x,1/2-y,1/2+z
loop_
_atom_site_type_symbol
_atom_site_label
_atom_site_fract_x
_atom_site_fract_y
_atom_site_fract_z
Si Si1 0.852522 0.326345 0.304782
Si Si2 0.169892 0.827279 0.052166
Si Si3 0.085320 0.973088 0.606271
Si Si4 0.651664 0.690171 0.418525
Si Si5 0.415074 0.962393 0.685485
Si Si6 0.546880 0.159965 0.714865
Si Si7 0.892905 0.501206 0.488889
Si Si8 0.410814 0.244714 0.923199
O O1 0.770199 0.354968 0.425728
O O2 0.568544 0.293667 0.475505
O O3 0.991850 0.413228 0.169760
O O4 0.076323 0.236467 0.146509
O O5 0.865584 0.780122 0.260704
O O6 0.396842 0.747634 0.869604
O O7 0.176913 0.930726 0.014096
O O8 0.232976 0.930801 0.446735
O O9 0.805492 0.914100 0.810832
O O10 0.326047 0.960994 0.485951
O O11 0.503459 0.683524 0.582467
O O12 0.543610 0.855560 0.587671
O O13 0.228665 0.951995 0.870954
O O14 0.227311 0.990735 0.763635
O O15 0.238640 0.111664 0.926622
O O16 0.588611 0.207403 0.746486
#
# Coordination Sequence:
#
# PCOD8124948 Si02
#       8
#     4   4   4   4   4   4   4   4
#     4  10  22  40  61  84 124 164 207 257 305 373
#     4  10  22  41  62  93 124 162 210 259 304 371
#     4   9  20  40  58  84 121 162 201 260 299 360
#     4  10  22  38  61  84 120 169 207 247 315 367
#     4   9  19  37  59  86 122 148 200 257 305 352
#     4  10  21  39  61  88 128 159 199 257 321 357
#     4  10  20  35  64  90 116 161 198 253 310 364
#     4  10  21  38  57  87 122 154 198 262 305 366
#
# _framework density 20.452611000000001
#
# number of rings (size 3 to 8) (size 9 to 14) (size 15 to 20)
#    0.000    2.250    1.250    0.375    3.500    5.000 
#    0.000    6.250    0.000    0.000    0.000    0.000 
#    0.000    0.000    0.000    0.000    0.000    0.000 
#
# Total GULP energy -396460.428001 kJ/mol
# GULP energy per Si atom -12389.388375 kJ/mol
# Density = 2.040606 g / cm^3
# Si number density = 20.452611 Si / 1000 Ang^3
#
#
#
# Elastic Constant Matrix: (Units=GPa)
#
#
# Indices 1 2 3 4 5 6 
#
# 1 128.3309 40.8859 53.0274 0.0000 -2.7346 0.0000
# 2 40.8859 59.9185 26.8005 0.0000 -3.2102 0.0000
# 3 53.0274 26.8005 71.1965 0.0000 -9.7896 0.0000
# 4 0.0000 0.0000 0.0000 25.6333 0.0000 1.4995
# 5 -2.7346 -3.2102 -9.7896 0.0000 40.3445 0.0000
# 6 0.0000 0.0000 0.0000 1.4995 0.0000 20.8759
#
#
#
# Elastic Compliance Matrix: (Units=1/GPa)
#
#
# Indices 1 2 3 4 5 6 
#
# 1 0.012569 -0.005265 -0.007573 0.000000 -0.001404 0.000000
# 2 -0.005265 0.022276 -0.004417 0.000000 0.000344 0.000000
# 3 -0.007573 -0.004417 0.021962 0.000000 0.004464 0.000000
# 4 0.000000 0.000000 0.000000 0.039176 0.000000 -0.002814
# 5 -0.001404 0.000344 0.004464 0.000000 0.025802 0.000000
# 6 0.000000 0.000000 0.000000 -0.002814 0.000000 0.048104
#
#
# Mechanical properties :
#
#
# Convention : Reuss Voigt Hill
#
# Bulk Modulus (GPa) = 44.84596 55.65261 50.24928
# Shear Modulus (GPa) = 23.60379 26.61955 25.11167
#
# Velocity S-wave (km/s) = 3.40085 3.61158 3.50780
# Velocity P-wave (km/s) = 6.11518 6.68288 6.40532
#
# Compressibility (1/GPa) = 0.02229855
#
# Stress axis : x y z
#
# Youngs Moduli (GPa) = 79.56221 44.89198 45.53263
#
# Poissons Ratio (x) = 0.23634 0.34480
# Poissons Ratio (y) = 0.41886 0.20111
# Poissons Ratio (z) = 0.60250 0.19828
#
# Static dielectric constant tensor:
#      x y z
#    x 3.643990 0.000000 -0.031280 
#    y 0.000000 3.642200 0.000000 
#    z -0.031280 0.000000 3.888640 
# 
# 
# High freq. dielectric constant tensor:
#      x y z
#    x 1.783980 0.000000 0.003510 
#    y 0.000000 1.790820 0.000000 
#    z 0.003510 0.000000 1.800480 
# 
# From -- ./inp_files/68710.got.cif
#   From: 2010.03.12/outbox.cif.g09.slc.cpg/sg14_35_cif.got.tgz:68710.got - 2010.03.31 13:35:05.
