data_PCOD8124370
_publ_section_title
;
Structure prediction by ZEFSAII (Michael W. Deem and Ramdas Pophale) SiO2 
 PCOD8124370
Probable space group: P 21/C
;
_chemical_formula_sum "Si O2"
_cell_formula_units_Z 24
_cell_length_a 11.870045
_cell_length_b 14.909980
_cell_length_c 9.353710
_cell_angle_alpha 90.000000
_cell_angle_beta 48.174935
_cell_angle_gamma 90.000000
_cell_volume 1233.607634
_symmetry_space_group_name_H-M "P 21/C"
_symmetry_group_IT_number 14
_symmetry_cell_setting 'monoclinic'
loop_
_space_group_symop_operation_xyz
x,y,z
-x,1/2+y,1/2-z
-x,-y,-z
x,1/2-y,1/2+z
loop_
_atom_site_type_symbol
_atom_site_label
_atom_site_fract_x
_atom_site_fract_y
_atom_site_fract_z
Si Si1 0.350212 0.125644 0.788560
Si Si2 0.873331 0.693158 0.300729
Si Si3 0.560394 0.073550 0.842528
Si Si4 0.773450 0.607922 0.914038
Si Si5 0.614390 0.681410 0.303304
Si Si6 0.102513 0.950643 0.528641
O O1 0.473516 0.063243 0.763824
O O2 0.307228 0.089562 0.668929
O O3 0.432049 0.221830 0.714624
O O4 0.198011 0.136122 0.009659
O O5 0.876168 0.800672 0.331252
O O6 0.779174 0.682054 0.236087
O O7 0.034859 0.644929 0.138883
O O8 0.738620 0.073134 0.677102
O O9 0.512039 0.162562 0.970092
O O10 0.500000 0.000000 0.000000
O O11 0.876540 0.521062 0.858439
O O12 0.638426 0.613515 0.148468
O O13 0.000000 0.000000 0.500000
#
# Coordination Sequence:
#
# PCOD8124370 Si02
#       6
#     4   4   4   4   4   4
#     4   9  20  37  63  86 116 158 205 249 299 353
#     4   9  19  37  60  87 121 163 203 242 307 373
#     4  11  21  39  63  89 120 155 205 250 300 360
#     4  10  19  36  65  86 120 162 205 248 302 359
#     4   9  17  39  63  86 113 162 204 245 303 361
#     4  12  22  38  63  90 124 163 203 241 308 370
#
# _framework density 19.455133
#
# number of rings (size 3 to 8) (size 9 to 14) (size 15 to 20)
#    0.000    2.000    3.333    2.000    0.000    1.333 
#    3.000    0.000    0.000    0.000    0.000    0.000 
#    0.000    0.000    0.000    0.000    0.000    0.000 
#
# Total GULP energy -297379.106094 kJ/mol
# GULP energy per Si atom -12390.796087 kJ/mol
# Density = 1.941085 g / cm^3
# Si number density = 19.455133 Si / 1000 Ang^3
#
#
#
# Elastic Constant Matrix: (Units=GPa)
#
#
# Indices 1 2 3 4 5 6 
#
# 1 117.6849 45.5173 64.1412 0.0000 9.1413 0.0000
# 2 45.5173 74.3957 33.0283 0.0000 -10.2310 0.0000
# 3 64.1412 33.0283 111.2647 0.0000 -7.8729 0.0000
# 4 0.0000 0.0000 0.0000 28.8015 0.0000 8.2455
# 5 9.1413 -10.2310 -7.8729 0.0000 44.9384 0.0000
# 6 0.0000 0.0000 0.0000 8.2455 0.0000 30.6388
#
#
#
# Elastic Compliance Matrix: (Units=1/GPa)
#
#
# Indices 1 2 3 4 5 6 
#
# 1 0.015807 -0.007232 -0.007401 0.000000 -0.006158 0.000000
# 2 -0.007232 0.019135 -0.001112 0.000000 0.005633 0.000000
# 3 -0.007401 -0.001112 0.013845 0.000000 0.003678 0.000000
# 4 0.000000 0.000000 0.000000 0.037619 0.000000 -0.010124
# 5 -0.006158 0.005633 0.003678 0.000000 0.025432 0.000000
# 6 0.000000 0.000000 0.000000 -0.010124 0.000000 0.035363
#
#
# Mechanical properties :
#
#
# Convention : Reuss Voigt Hill
#
# Bulk Modulus (GPa) = 57.82049 65.41323 61.61686
# Shear Modulus (GPa) = 27.10676 31.58630 29.34653
#
# Velocity S-wave (km/s) = 3.73674 4.03370 3.88805
# Velocity P-wave (km/s) = 6.95716 7.44244 7.20389
#
# Compressibility (1/GPa) = 0.01729491
#
# Stress axis : x y z
#
# Youngs Moduli (GPa) = 63.26489 52.26052 72.23071
#
# Poissons Ratio (x) = 0.37795 0.53458
# Poissons Ratio (y) = 0.45754 0.08035
# Poissons Ratio (z) = 0.46823 0.05814
#
# Static dielectric constant tensor:
#      x y z
#    x 3.388650 0.000000 0.341840 
#    y 0.000000 3.550480 0.000000 
#    z 0.341840 0.000000 0.249660 
# 
# 
# High freq. dielectric constant tensor:
#      x y z
#    x 1.738380 0.000000 0.026080 
#    y 0.000000 1.756180 0.000000 
#    z 0.026080 0.000000 1.758390 
# 
# From -- ./inp_files/13674.got.cif
#   From: 2010.03.12/outbox.cif.g09.slc.cpg/sg14_7_cif.got.tgz:13674.got - 2010.03.31 13:35:05.
