data_PCOD8124574
_publ_section_title
;
Structure prediction by ZEFSAII (Michael W. Deem and Ramdas Pophale) SiO2 
 PCOD8124574
Probable space group: P 21/C
;
_chemical_formula_sum "Si O2"
_cell_formula_units_Z 32
_cell_length_a 19.069483
_cell_length_b 9.991504
_cell_length_c 12.827887
_cell_angle_alpha 90.000000
_cell_angle_beta 139.381387
_cell_angle_gamma 90.000000
_cell_volume 1591.181794
_symmetry_space_group_name_H-M "P 21/C"
_symmetry_group_IT_number 14
_symmetry_cell_setting 'monoclinic'
loop_
_space_group_symop_operation_xyz
x,y,z
-x,1/2+y,1/2-z
-x,-y,-z
x,1/2-y,1/2+z
loop_
_atom_site_type_symbol
_atom_site_label
_atom_site_fract_x
_atom_site_fract_y
_atom_site_fract_z
Si Si1 0.314485 0.820152 0.291696
Si Si2 0.891552 0.669953 0.349282
Si Si3 0.939490 0.408286 0.287191
Si Si4 0.572436 0.196466 0.780819
Si Si5 0.887404 0.588102 0.691282
Si Si6 0.786914 0.178542 0.145740
Si Si7 0.500498 0.909415 0.650847
Si Si8 0.268099 0.401347 0.667029
O O1 0.384466 0.747371 0.281358
O O2 0.234111 0.715612 0.256107
O O3 0.393109 0.887944 0.464382
O O4 0.245332 0.940067 0.161205
O O5 0.885375 0.546267 0.262492
O O6 0.909660 0.803349 0.304615
O O7 0.780710 0.680947 0.290813
O O8 0.989232 0.653555 0.539848
O O9 0.845155 0.303097 0.154537
O O10 0.006424 0.435243 0.258057
O O11 0.500510 0.312603 0.749974
O O12 0.500728 0.063600 0.686023
O O13 0.672469 0.151169 0.964185
O O14 0.860632 0.451917 0.722129
O O15 0.789969 0.636090 0.506877
O O16 0.604806 0.873118 0.698778
#
# Coordination Sequence:
#
# PCOD8124574 Si02
#       8
#     4   4   4   4   4   4   4   4
#     4  10  20  38  63  87 113 170 201 231 307 369
#     4  10  22  39  60  92 115 160 207 243 302 360
#     4  10  22  40  63  84 122 164 201 243 302 375
#     4  10  21  40  59  90 118 156 201 248 297 361
#     4  11  22  37  63  92 120 153 202 259 297 340
#     4  11  21  39  62  90 122 160 201 249 302 359
#     4  10  21  38  62  89 116 159 204 242 301 361
#     4  10  19  39  61  83 124 160 196 242 299 364
#
# _framework density 20.110838999999999
#
# number of rings (size 3 to 8) (size 9 to 14) (size 15 to 20)
#    0.000    1.750    3.750    2.250    0.000    3.500 
#    2.250    2.500    0.000    0.000    0.000    0.000 
#    0.000    0.000    0.000    0.000    0.000    0.000 
#
# Total GULP energy -396844.738916 kJ/mol
# GULP energy per Si atom -12401.398091 kJ/mol
# Density = 2.006507 g / cm^3
# Si number density = 20.110839 Si / 1000 Ang^3
#
#
#
# Elastic Constant Matrix: (Units=GPa)
#
#
# Indices 1 2 3 4 5 6 
#
# 1 153.5633 76.6655 16.4915 0.0000 -10.4851 0.0000
# 2 76.6655 107.9296 16.2660 0.0000 -6.8812 0.0000
# 3 16.4915 16.2660 25.8761 0.0000 -3.8802 0.0000
# 4 0.0000 0.0000 0.0000 24.4879 0.0000 -4.1142
# 5 -10.4851 -6.8812 -3.8802 0.0000 26.5591 0.0000
# 6 0.0000 0.0000 0.0000 -4.1142 0.0000 37.5200
#
#
#
# Elastic Compliance Matrix: (Units=1/GPa)
#
#
# Indices 1 2 3 4 5 6 
#
# 1 0.010299 -0.006898 -0.001928 0.000000 0.001997 0.000000
# 2 -0.006898 0.014935 -0.004928 0.000000 0.000426 0.000000
# 3 -0.001928 -0.004928 0.043623 0.000000 0.004335 0.000000
# 4 0.000000 0.000000 0.000000 0.041603 0.000000 0.004562
# 5 0.001997 0.000426 0.004335 0.000000 0.039184 0.000000
# 6 0.000000 0.000000 0.000000 0.004562 0.000000 0.027153
#
#
# Mechanical properties :
#
#
# Convention : Reuss Voigt Hill
#
# Bulk Modulus (GPa) = 24.18499 56.24611 40.21555
# Shear Modulus (GPa) = 22.92655 29.57646 26.25150
#
# Velocity S-wave (km/s) = 3.38007 3.83910 3.61687
# Velocity P-wave (km/s) = 5.22351 6.90509 6.12231
#
# Compressibility (1/GPa) = 0.04134797
#
# Stress axis : x y z
#
# Youngs Moduli (GPa) = 97.09592 66.95724 22.92385
#
# Poissons Ratio (x) = 0.46186 0.04421
# Poissons Ratio (y) = 0.66975 0.11297
# Poissons Ratio (z) = 0.18724 0.32998
#
# Static dielectric constant tensor:
#      x y z
#    x 4.060710 0.000000 -0.068850 
#    y 0.000000 3.537500 0.000000 
#    z -0.068850 0.000000 3.461950 
# 
# 
# High freq. dielectric constant tensor:
#      x y z
#    x 1.803950 0.000000 0.001230 
#    y 0.000000 1.766470 0.000000 
#    z 0.001230 0.000000 1.772950 
# 
# From -- ./inp_files/49940.got.cif
#   From: 2010.03.12/outbox.cif.g09.slc.cpg/sg14_25_cif.got.tgz:49940.got - 2010.03.31 13:35:05.
