data_PCOD8124683
_publ_section_title
;
Structure prediction by ZEFSAII (Michael W. Deem and Ramdas Pophale) SiO2 
 PCOD8124683
Probable space group: P 21/C
;
_chemical_formula_sum "Si O2"
_cell_formula_units_Z 24
_cell_length_a 6.294294
_cell_length_b 14.926744
_cell_length_c 13.107654
_cell_angle_alpha 90.000000
_cell_angle_beta 62.970208
_cell_angle_gamma 90.000000
_cell_volume 1096.990401
_symmetry_space_group_name_H-M "P 21/C"
_symmetry_group_IT_number 14
_symmetry_cell_setting 'monoclinic'
loop_
_space_group_symop_operation_xyz
x,y,z
-x,1/2+y,1/2-z
-x,-y,-z
x,1/2-y,1/2+z
loop_
_atom_site_type_symbol
_atom_site_label
_atom_site_fract_x
_atom_site_fract_y
_atom_site_fract_z
Si Si1 0.399587 0.655816 0.352800
Si Si2 0.860013 0.851384 0.019540
Si Si3 0.046766 0.138225 0.780922
Si Si4 0.617428 0.798924 0.448261
Si Si5 0.202518 0.042763 0.163846
Si Si6 0.207621 0.827761 0.677882
O O1 0.557634 0.732309 0.369325
O O2 0.546628 0.563072 0.335477
O O3 0.375233 0.677305 0.239711
O O4 0.145878 0.651557 0.462139
O O5 0.754745 0.755737 0.007142
O O6 0.777646 0.928961 0.959800
O O7 0.790296 0.873255 0.152082
O O8 0.917492 0.233307 0.811714
O O9 0.209949 0.128640 0.643588
O O10 0.843325 0.062627 0.819328
O O11 0.383254 0.847610 0.544268
O O12 0.986872 0.094677 0.267491
#
# Coordination Sequence:
#
# PCOD8124683 Si02
#       6
#     4   4   4   4   4   4
#     4  10  19  42  62  88 129 162 208 265 305 368
#     4  10  21  41  65  97 125 162 218 265 308 372
#     4  12  22  42  68  93 128 174 211 257 331 373
#     4  11  22  39  68  91 125 175 209 254 323 380
#     4  10  24  42  63 100 131 162 214 266 313 380
#     4  11  23  42  64  93 132 167 212 267 312 379
#
# _framework density 21.878043000000002
#
# number of rings (size 3 to 8) (size 9 to 14) (size 15 to 20)
#    0.000    1.333    6.667    1.500    0.000    1.333 
#   12.000    0.833    0.000    0.000    0.000    0.000 
#    0.000    0.000    0.000    0.000    0.000    0.000 
#
# Total GULP energy -297588.543842 kJ/mol
# GULP energy per Si atom -12399.522660 kJ/mol
# Density = 2.182825 g / cm^3
# Si number density = 21.878043 Si / 1000 Ang^3
#
#
#
# Elastic Constant Matrix: (Units=GPa)
#
#
# Indices 1 2 3 4 5 6 
#
# 1 76.9394 -6.3885 12.5896 0.0000 1.0518 0.0000
# 2 -6.3885 39.7639 7.1066 0.0000 9.2779 0.0000
# 3 12.5896 7.1066 120.8827 0.0000 -2.1302 0.0000
# 4 0.0000 0.0000 0.0000 15.6955 0.0000 4.1563
# 5 1.0518 9.2779 -2.1302 0.0000 26.6750 0.0000
# 6 0.0000 0.0000 0.0000 4.1563 0.0000 15.7693
#
#
#
# Elastic Compliance Matrix: (Units=1/GPa)
#
#
# Indices 1 2 3 4 5 6 
#
# 1 0.013518 0.002844 -0.001604 0.000000 -0.001650 0.000000
# 2 0.002844 0.028355 -0.002142 0.000000 -0.010146 0.000000
# 3 -0.001604 -0.002142 0.008592 0.000000 0.001494 0.000000
# 4 0.000000 0.000000 0.000000 0.068493 0.000000 -0.018052
# 5 -0.001650 -0.010146 0.001494 0.000000 0.041201 0.000000
# 6 0.000000 0.000000 0.000000 -0.018052 0.000000 0.068172
#
#
# Mechanical properties :
#
#
# Convention : Reuss Voigt Hill
#
# Bulk Modulus (GPa) = 20.55050 29.35569 24.95309
# Shear Modulus (GPa) = 20.29574 26.57986 23.43780
#
# Velocity S-wave (km/s) = 3.04908 3.48934 3.27661
# Velocity P-wave (km/s) = 4.67006 5.44803 5.07397
#
# Compressibility (1/GPa) = 0.04866063
#
# Stress axis : x y z
#
# Youngs Moduli (GPa) = 73.97319 35.26673 116.38995
#
# Poissons Ratio (x) = -0.10029 0.18671
# Poissons Ratio (y) = -0.21035 0.24930
# Poissons Ratio (z) = 0.11866 0.07554
#
# Static dielectric constant tensor:
#      x y z
#    x 4.054010 0.000000 0.039180 
#    y 0.000000 3.654100 0.000000 
#    z 0.039180 0.000000 4.183550 
# 
# 
# High freq. dielectric constant tensor:
#      x y z
#    x 1.866260 0.000000 -0.003400 
#    y 0.000000 1.831430 0.000000 
#    z -0.003400 0.000000 1.866500 
# 
# From -- ./inp_files/21149.got.cif
#   From: 2010.03.12/outbox.cif.g09.slc.cpg/sg14_11_cif.got.tgz:21149.got - 2010.03.31 13:35:05.
