data_PCOD8124195
_publ_section_title
;
Structure prediction by ZEFSAII (Michael W. Deem and Ramdas Pophale) SiO2 
 PCOD8124195
Probable space group: P 21/C
;
_chemical_formula_sum "Si O2"
_cell_formula_units_Z 32
_cell_length_a 10.144828
_cell_length_b 10.765112
_cell_length_c 24.032406
_cell_angle_alpha 90.000000
_cell_angle_beta 43.120262
_cell_angle_gamma 90.000000
_cell_volume 1793.987072
_symmetry_space_group_name_H-M "P 21/C"
_symmetry_group_IT_number 14
_symmetry_cell_setting 'monoclinic'
loop_
_space_group_symop_operation_xyz
x,y,z
-x,1/2+y,1/2-z
-x,-y,-z
x,1/2-y,1/2+z
loop_
_atom_site_type_symbol
_atom_site_label
_atom_site_fract_x
_atom_site_fract_y
_atom_site_fract_z
Si Si1 0.228929 0.634906 0.920614
Si Si2 0.346136 0.297412 0.175137
Si Si3 0.343715 0.393989 0.052735
Si Si4 0.995832 0.729790 0.641167
Si Si5 0.513143 0.947858 0.908805
Si Si6 0.884410 0.393977 0.506529
Si Si7 0.016962 0.510484 0.084879
Si Si8 0.600176 0.320784 0.442895
O O1 0.457758 0.657737 0.854841
O O2 0.116290 0.765633 0.958692
O O3 0.164923 0.568299 0.882845
O O4 0.167964 0.546286 0.990183
O O5 0.317536 0.366571 0.125837
O O6 0.170306 0.329590 0.269767
O O7 0.339597 0.149032 0.164894
O O8 0.134806 0.428634 0.092956
O O9 0.500000 0.500000 0.000000
O O10 0.428305 0.278929 0.990743
O O11 0.029225 0.633128 0.580989
O O12 0.932333 0.865434 0.639120
O O13 0.192328 0.746069 0.616362
O O14 0.326779 0.954175 0.927716
O O15 0.603740 0.085124 0.888947
O O16 0.436492 0.897384 0.990550
O O17 0.000000 0.500000 0.500000
#
# Coordination Sequence:
#
# PCOD8124195 Si02
#       8
#     4   4   4   4   4   4   4   4
#     4   9  19  36  56  77 105 143 185 224 274 329
#     4  10  20  36  54  77 111 148 180 227 283 326
#     4  11  18  33  60  82 106 144 193 229 261 330
#     4  10  20  35  54  76 113 145 176 226 284 327
#     4   8  17  33  52  72 103 138 172 217 269 314
#     4   9  18  34  55  79 101 141 186 218 261 331
#     4  10  19  35  59  80 106 143 187 232 273 324
#     4   9  17  32  53  79 102 135 179 220 267 324
#
# _framework density 17.837363
#
# number of rings (size 3 to 8) (size 9 to 14) (size 15 to 20)
#    0.000    2.500    2.500    1.500    1.750    1.000 
#    4.500    0.000    0.000    0.000    0.000    0.000 
#    0.000    0.000    0.000    0.000    0.000    0.000 
#
# Total GULP energy -396624.721434 kJ/mol
# GULP energy per Si atom -12394.522545 kJ/mol
# Density = 1.779676 g / cm^3
# Si number density = 17.837363 Si / 1000 Ang^3
#
#
#
# Elastic Constant Matrix: (Units=GPa)
#
#
# Indices 1 2 3 4 5 6 
#
# 1 105.7525 53.5400 30.2058 0.0000 2.7812 0.0000
# 2 53.5400 90.0562 24.8070 0.0000 7.4621 0.0000
# 3 30.2058 24.8070 81.3891 0.0000 -4.7462 0.0000
# 4 0.0000 0.0000 0.0000 15.7652 0.0000 2.9301
# 5 2.7812 7.4621 -4.7462 0.0000 14.2730 0.0000
# 6 0.0000 0.0000 0.0000 2.9301 0.0000 43.1724
#
#
#
# Elastic Compliance Matrix: (Units=1/GPa)
#
#
# Indices 1 2 3 4 5 6 
#
# 1 0.014142 -0.007629 -0.002908 0.000000 0.000266 0.000000
# 2 -0.007629 0.017132 -0.002882 0.000000 -0.008429 0.000000
# 3 -0.002908 -0.002882 0.014649 0.000000 0.006945 0.000000
# 4 0.000000 0.000000 0.000000 0.064241 0.000000 -0.004360
# 5 0.000266 -0.008429 0.006945 0.000000 0.076727 0.000000
# 6 0.000000 0.000000 0.000000 -0.004360 0.000000 0.023459
#
#
# Mechanical properties :
#
#
# Convention : Reuss Voigt Hill
#
# Bulk Modulus (GPa) = 52.39427 54.92260 53.65843
# Shear Modulus (GPa) = 20.52981 25.88510 23.20745
#
# Velocity S-wave (km/s) = 3.39624 3.81356 3.61093
# Velocity P-wave (km/s) = 6.69450 7.08862 6.89438
#
# Compressibility (1/GPa) = 0.01908606
#
# Stress axis : x y z
#
# Youngs Moduli (GPa) = 70.71257 58.37101 68.26306
#
# Poissons Ratio (x) = 0.44529 0.19849
# Poissons Ratio (y) = 0.53944 0.19674
# Poissons Ratio (z) = 0.20561 0.16823
#
# Static dielectric constant tensor:
#      x y z
#    x 10.193690 0.000000 3.514350 
#    y 0.000000 3.210160 0.000000 
#    z 3.514350 0.000000 4.839210 
# 
# 
# High freq. dielectric constant tensor:
#      x y z
#    x 1.689890 0.000000 -0.004640 
#    y 0.000000 1.694130 0.000000 
#    z -0.004640 0.000000 1.656950 
# 
# From -- ./inp_files/65585.got.cif
#   From: 2010.03.12/outbox.cif.g09.slc.cpg/sg14_33_cif.got.tgz:65585.got - 2010.03.31 13:35:05.
