data_PCOD8124087
_publ_section_title
;
Structure prediction by ZEFSAII (Michael W. Deem and Ramdas Pophale) SiO2 
 PCOD8124087
Probable space group: P 21/C
;
_chemical_formula_sum "Si O2"
_cell_formula_units_Z 32
_cell_length_a 16.711547
_cell_length_b 17.965427
_cell_length_c 10.076429
_cell_angle_alpha 90.000000
_cell_angle_beta 34.156874
_cell_angle_gamma 90.000000
_cell_volume 1698.557281
_symmetry_space_group_name_H-M "P 21/C"
_symmetry_group_IT_number 14
_symmetry_cell_setting 'monoclinic'
loop_
_space_group_symop_operation_xyz
x,y,z
-x,1/2+y,1/2-z
-x,-y,-z
x,1/2-y,1/2+z
loop_
_atom_site_type_symbol
_atom_site_label
_atom_site_fract_x
_atom_site_fract_y
_atom_site_fract_z
Si Si1 0.627364 0.547203 0.941316
Si Si2 0.515775 0.607651 0.854401
Si Si3 0.219148 0.819487 0.124314
Si Si4 0.085983 0.534032 0.499951
Si Si5 0.769010 0.186897 0.199016
Si Si6 0.354939 0.079161 0.088753
Si Si7 0.527407 0.084630 0.102659
Si Si8 0.028051 0.437667 0.068016
O O1 0.595052 0.616935 0.886947
O O2 0.772977 0.514220 0.689178
O O3 0.513189 0.480648 0.102080
O O4 0.613742 0.577955 0.109900
O O5 0.611178 0.623218 0.594006
O O6 0.380677 0.660886 0.034619
O O7 0.177597 0.754259 0.283140
O O8 0.082628 0.872234 0.308794
O O9 0.246183 0.791242 0.935910
O O10 0.361570 0.858195 0.984633
O O11 0.117119 0.621155 0.437010
O O12 0.000000 0.500000 0.500000
O O13 0.998963 0.523127 0.753967
O O14 0.459975 0.113724 0.057000
O O15 0.188957 0.093226 0.346114
O O16 0.385475 0.991305 0.039198
O O17 0.000000 0.500000 0.000000
#
# Coordination Sequence:
#
# PCOD8124087 Si02
#       8
#     4   4   4   4   4   4   4   4
#     4   9  16  31  56  82 108 140 183 245 286 329
#     4   9  17  32  56  80 109 139 187 236 289 338
#     4  11  23  40  62  82 120 162 201 244 300 366
#     4  10  21  36  60  90 117 153 199 249 295 358
#     4  10  23  39  60  85 114 157 203 244 299 363
#     4  10  20  32  58  91 117 145 191 245 298 345
#     4  10  19  34  57  88 116 148 191 248 293 342
#     4  11  21  37  59  91 124 159 197 246 301 359
#
# _framework density 18.839518000000002
#
# number of rings (size 3 to 8) (size 9 to 14) (size 15 to 20)
#    0.000    2.000    2.500    1.500    5.250    2.000 
#    0.000    0.000   11.000    0.000    0.000    0.000 
#    0.000    0.000    0.000    0.000    0.000    0.000 
#
# Total GULP energy -396547.031090 kJ/mol
# GULP energy per Si atom -12392.094722 kJ/mol
# Density = 1.879664 g / cm^3
# Si number density = 18.839518 Si / 1000 Ang^3
#
#
#
# Elastic Constant Matrix: (Units=GPa)
#
#
# Indices 1 2 3 4 5 6 
#
# 1 122.5035 44.8729 59.2101 0.0000 19.9124 0.0000
# 2 44.8729 54.4725 27.4132 0.0000 13.0833 0.0000
# 3 59.2101 27.4132 145.3765 0.0000 16.4185 0.0000
# 4 0.0000 0.0000 0.0000 14.4874 0.0000 6.0617
# 5 19.9124 13.0833 16.4185 0.0000 34.3682 0.0000
# 6 0.0000 0.0000 0.0000 6.0617 0.0000 31.1075
#
#
#
# Elastic Compliance Matrix: (Units=1/GPa)
#
#
# Indices 1 2 3 4 5 6 
#
# 1 0.013513 -0.008665 -0.003550 0.000000 -0.002835 0.000000
# 2 -0.008665 0.027184 -0.001052 0.000000 -0.004826 0.000000
# 3 -0.003550 -0.001052 0.008716 0.000000 -0.001706 0.000000
# 4 0.000000 0.000000 0.000000 0.075153 0.000000 -0.014645
# 5 -0.002835 -0.004826 -0.001706 0.000000 0.033392 0.000000
# 6 0.000000 0.000000 0.000000 -0.014645 0.000000 0.035000
#
#
# Mechanical properties :
#
#
# Convention : Reuss Voigt Hill
#
# Bulk Modulus (GPa) = 43.70585 65.03831 54.37208
# Shear Modulus (GPa) = 22.01502 28.71637 25.36570
#
# Velocity S-wave (km/s) = 3.42212 3.90842 3.67333
# Velocity P-wave (km/s) = 6.23410 7.41383 6.84941
#
# Compressibility (1/GPa) = 0.02288023
#
# Stress axis : x y z
#
# Youngs Moduli (GPa) = 74.00023 36.78630 114.73700
#
# Poissons Ratio (x) = 0.31874 0.40730
# Poissons Ratio (y) = 0.64118 0.12070
# Poissons Ratio (z) = 0.26269 0.03870
#
# Static dielectric constant tensor:
#      x y z
#    x 3.602020 0.000000 0.292580 
#    y 0.000000 3.116570 0.000000 
#    z 0.292580 0.000000 3.567100 
# 
# 
# High freq. dielectric constant tensor:
#      x y z
#    x 1.741630 0.000000 0.017100 
#    y 0.000000 1.691510 0.000000 
#    z 0.017100 0.000000 1.744320 
# 
# From -- ./inp_files/16795.got.cif
#   From: 2010.03.12/outbox.cif.g09.slc.cpg/sg14_9_cif.got.tgz:16795.got - 2010.03.31 13:35:05.
