data_PCOD8124779
_publ_section_title
;
Structure prediction by ZEFSAII (Michael W. Deem and Ramdas Pophale) SiO2 
 PCOD8124779
Probable space group: P 21/C
;
_chemical_formula_sum "Si O2"
_cell_formula_units_Z 28
_cell_length_a 7.085132
_cell_length_b 12.556276
_cell_length_c 21.478932
_cell_angle_alpha 90.000000
_cell_angle_beta 128.946112
_cell_angle_gamma 90.000000
_cell_volume 1486.122216
_symmetry_space_group_name_H-M "P 21/C"
_symmetry_group_IT_number 14
_symmetry_cell_setting 'monoclinic'
loop_
_space_group_symop_operation_xyz
x,y,z
-x,1/2+y,1/2-z
-x,-y,-z
x,1/2-y,1/2+z
loop_
_atom_site_type_symbol
_atom_site_label
_atom_site_fract_x
_atom_site_fract_y
_atom_site_fract_z
Si Si1 0.655180 0.374645 0.824590
Si Si2 0.307796 0.379534 0.152405
Si Si3 0.043338 0.768253 0.510293
Si Si4 0.533946 0.369938 0.438123
Si Si5 0.233831 0.218909 0.767167
Si Si6 0.291577 0.712765 0.297148
Si Si7 0.642784 0.607839 0.463574
O O1 0.630131 0.496987 0.837622
O O2 0.875017 0.320500 0.907979
O O3 0.397783 0.322332 0.788178
O O4 0.716914 0.363181 0.764756
O O5 0.203462 0.347798 0.197852
O O6 0.555154 0.318063 0.187413
O O7 0.099425 0.355779 0.058907
O O8 0.275367 0.726964 0.520149
O O9 0.881905 0.664312 0.488336
O O10 0.354462 0.358169 0.342792
O O11 0.673508 0.481869 0.460524
O O12 0.379406 0.364117 0.468652
O O13 0.975971 0.255680 0.738469
O O14 0.406606 0.648061 0.377950
#
# Coordination Sequence:
#
# PCOD8124779 Si02
#       7
#     4   4   4   4   4   4   4
#     4  10  21  36  56  80 106 140 178 217 265 316
#     4  10  21  36  56  80 106 140 178 217 265 316
#     4  10  20  36  54  76 108 138 174 220 262 310
#     4  10  20  34  54  78 104 138 177 217 263 311
#     4  10  21  37  55  79 110 140 176 220 263 314
#     4  10  21  37  55  79 110 140 176 220 263 314
#     4  10  20  34  54  78 104 138 177 217 263 311
#
# _framework density 18.840982
#
# number of rings (size 3 to 8) (size 9 to 14) (size 15 to 20)
#    0.000    2.000    0.000    3.429    0.000    2.286 
#    0.000    7.143    0.000    9.429    0.000    0.000 
#    0.000    0.000    0.000    0.000    0.000    0.000 
#
# Total GULP energy -347316.477163 kJ/mol
# GULP energy per Si atom -12404.159899 kJ/mol
# Density = 1.879810 g / cm^3
# Si number density = 18.840982 Si / 1000 Ang^3
#
#
#
# Elastic Constant Matrix: (Units=GPa)
#
#
# Indices 1 2 3 4 5 6 
#
# 1 84.0805 13.3184 28.7146 0.0000 2.4390 0.0000
# 2 13.3184 80.7012 19.7670 0.0000 -2.4510 0.0000
# 3 28.7146 19.7670 89.9615 0.0000 -4.0152 0.0000
# 4 0.0000 0.0000 0.0000 21.5110 0.0000 1.7587
# 5 2.4390 -2.4510 -4.0152 0.0000 31.3170 0.0000
# 6 0.0000 0.0000 0.0000 1.7587 0.0000 8.7590
#
#
#
# Elastic Compliance Matrix: (Units=1/GPa)
#
#
# Indices 1 2 3 4 5 6 
#
# 1 0.013552 -0.001279 -0.004120 0.000000 -0.001684 0.000000
# 2 -0.001279 0.013230 -0.002462 0.000000 0.000819 0.000000
# 3 -0.004120 -0.002462 0.013052 0.000000 0.001802 0.000000
# 4 0.000000 0.000000 0.000000 0.047264 0.000000 -0.009490
# 5 -0.001684 0.000819 0.001802 0.000000 0.032358 0.000000
# 6 0.000000 0.000000 0.000000 -0.009490 0.000000 0.116073
#
#
# Mechanical properties :
#
#
# Convention : Reuss Voigt Hill
#
# Bulk Modulus (GPa) = 41.47141 42.03815 41.75478
# Shear Modulus (GPa) = 19.28354 25.18028 22.23191
#
# Velocity S-wave (km/s) = 3.20267 3.65973 3.43880
# Velocity P-wave (km/s) = 5.97789 6.34182 6.16255
#
# Compressibility (1/GPa) = 0.02411300
#
# Stress axis : x y z
#
# Youngs Moduli (GPa) = 73.79161 75.58338 76.61476
#
# Poissons Ratio (x) = 0.09664 0.31563
# Poissons Ratio (y) = 0.09434 0.18866
# Poissons Ratio (z) = 0.30400 0.18612
#
# Static dielectric constant tensor:
#      x y z
#    x 3.298680 0.000000 -0.098430 
#    y 0.000000 3.403910 0.000000 
#    z -0.098430 0.000000 3.723550 
# 
# 
# High freq. dielectric constant tensor:
#      x y z
#    x 1.729340 0.000000 -0.005250 
#    y 0.000000 1.732210 0.000000 
#    z -0.005250 0.000000 1.749520 
# 
# From -- ./inp_files/61274.got.cif
#   From: 2010.03.12/outbox.cif.g09.slc.cpg/sg14_31_cif.got.tgz:61274.got - 2010.03.31 13:35:05.
