data_PCOD8124043
_publ_section_title
;
Structure prediction by ZEFSAII (Michael W. Deem and Ramdas Pophale) SiO2 
 PCOD8124043
Probable space group: P 21/C
;
_chemical_formula_sum "Si O2"
_cell_formula_units_Z 28
_cell_length_a 7.491687
_cell_length_b 29.361011
_cell_length_c 7.770101
_cell_angle_alpha 90.000000
_cell_angle_beta 59.550853
_cell_angle_gamma 90.000000
_cell_volume 1473.413026
_symmetry_space_group_name_H-M "P 21/C"
_symmetry_group_IT_number 14
_symmetry_cell_setting 'monoclinic'
loop_
_space_group_symop_operation_xyz
x,y,z
-x,1/2+y,1/2-z
-x,-y,-z
x,1/2-y,1/2+z
loop_
_atom_site_type_symbol
_atom_site_label
_atom_site_fract_x
_atom_site_fract_y
_atom_site_fract_z
Si Si1 0.913055 0.041731 0.744570
Si Si2 0.993308 0.236815 0.297286
Si Si3 0.721787 0.092435 0.149395
Si Si4 0.737087 0.700739 0.044070
Si Si5 0.727573 0.302566 0.634603
Si Si6 0.267222 0.402897 0.955654
Si Si7 0.019370 0.940477 0.660019
O O1 0.836086 0.050510 0.582788
O O2 0.138892 0.066117 0.653949
O O3 0.761219 0.061971 0.961878
O O4 0.932141 0.988348 0.771783
O O5 0.814096 0.272297 0.437306
O O6 0.886058 0.203531 0.214528
O O7 0.082035 0.204706 0.402185
O O8 0.195877 0.264551 0.137215
O O9 0.728303 0.144529 0.082961
O O10 0.499737 0.078912 0.333583
O O11 0.875073 0.084580 0.233088
O O12 0.506082 0.714094 0.215320
O O13 0.739598 0.649041 0.975578
O O14 0.169494 0.408226 0.811117
#
# Coordination Sequence:
#
# PCOD8124043 Si02
#       7
#     4   4   4   4   4   4   4
#     4   9  20  39  53  81 113 138 182 224 261 325
#     4  10  20  34  54  74 104 142 164 218 268 302
#     4  11  20  36  59  78 109 144 177 222 270 315
#     4  10  19  34  53  73 108 131 173 221 251 317
#     4  10  21  34  53  81 100 137 181 207 265 321
#     4   9  20  36  53  80 107 140 179 222 264 319
#     4   9  20  39  53  81 113 138 182 224 261 325
#
# _framework density 19.003498
#
# number of rings (size 3 to 8) (size 9 to 14) (size 15 to 20)
#    0.857    1.429    0.000    3.000    0.000    1.143 
#    2.571    0.000   12.571    0.000    0.000    0.000 
#    0.000    0.000    0.000    0.000    0.000    0.000 
#
# Total GULP energy -346988.630759 kJ/mol
# GULP energy per Si atom -12392.451099 kJ/mol
# Density = 1.896024 g / cm^3
# Si number density = 19.003498 Si / 1000 Ang^3
#
#
#
# Elastic Constant Matrix: (Units=GPa)
#
#
# Indices 1 2 3 4 5 6 
#
# 1 41.1909 2.8914 -1.6234 0.0000 -4.3456 0.0000
# 2 2.8914 53.1941 13.3420 0.0000 -12.5531 0.0000
# 3 -1.6234 13.3420 46.7163 0.0000 -10.0684 0.0000
# 4 0.0000 0.0000 0.0000 15.9836 0.0000 -0.5782
# 5 -4.3456 -12.5531 -10.0684 0.0000 29.8367 0.0000
# 6 0.0000 0.0000 0.0000 -0.5782 0.0000 3.3037
#
#
#
# Elastic Compliance Matrix: (Units=1/GPa)
#
#
# Indices 1 2 3 4 5 6 
#
# 1 0.024830 -0.000924 0.001965 0.000000 0.003891 0.000000
# 2 -0.000924 0.021774 -0.004643 0.000000 0.007460 0.000000
# 3 0.001965 -0.004643 0.024201 0.000000 0.006499 0.000000
# 4 0.000000 0.000000 0.000000 0.062963 0.000000 0.011020
# 5 0.003891 0.007460 0.006499 0.000000 0.039414 0.000000
# 6 0.000000 0.000000 0.000000 0.011020 0.000000 0.304622
#
#
# Mechanical properties :
#
#
# Convention : Reuss Voigt Hill
#
# Bulk Modulus (GPa) = 15.72304 18.92459 17.32381
# Shear Modulus (GPa) = 9.87735 18.25754 14.06744
#
# Velocity S-wave (km/s) = 2.28231 3.10295 2.72372
# Velocity P-wave (km/s) = 3.90345 4.77680 4.36204
#
# Compressibility (1/GPa) = 0.06360095
#
# Stress axis : x y z
#
# Youngs Moduli (GPa) = 40.27380 45.92581 41.32073
#
# Poissons Ratio (x) = 0.04246 -0.08121
# Poissons Ratio (y) = 0.03723 0.19186
# Poissons Ratio (z) = -0.07915 0.21324
#
# Static dielectric constant tensor:
#      x y z
#    x 3.285150 0.000000 -0.061500 
#    y 0.000000 3.441400 0.000000 
#    z -0.061500 0.000000 3.369360 
# 
# 
# High freq. dielectric constant tensor:
#      x y z
#    x 1.725340 0.000000 -0.004360 
#    y 0.000000 1.746190 0.000000 
#    z -0.004360 0.000000 1.728770 
# 
# From -- ./inp_files/6899.got.cif
#   From: 2010.03.12/outbox.cif.g09.slc.cpg/sg14_4_cif.got.tgz:6899.got - 2010.03.31 13:35:05.
