data_PCOD8124228
_publ_section_title
;
Structure prediction by ZEFSAII (Michael W. Deem and Ramdas Pophale) SiO2 
 PCOD8124228
Probable space group: P 21/C
;
_chemical_formula_sum "Si O2"
_cell_formula_units_Z 28
_cell_length_a 5.006205
_cell_length_b 17.476077
_cell_length_c 17.349894
_cell_angle_alpha 90.000000
_cell_angle_beta 124.485436
_cell_angle_gamma 90.000000
_cell_volume 1251.177629
_symmetry_space_group_name_H-M "P 21/C"
_symmetry_group_IT_number 14
_symmetry_cell_setting 'monoclinic'
loop_
_space_group_symop_operation_xyz
x,y,z
-x,1/2+y,1/2-z
-x,-y,-z
x,1/2-y,1/2+z
loop_
_atom_site_type_symbol
_atom_site_label
_atom_site_fract_x
_atom_site_fract_y
_atom_site_fract_z
Si Si1 0.021505 0.355259 0.111991
Si Si2 0.277457 0.614912 0.237665
Si Si3 0.648858 0.479063 0.345906
Si Si4 0.235876 0.566739 0.066169
Si Si5 0.669703 0.062102 0.682844
Si Si6 0.983923 0.817470 0.834738
Si Si7 0.734879 0.432780 0.513869
O O1 0.958217 0.408179 0.176295
O O2 0.001764 0.269995 0.138691
O O3 0.368313 0.378075 0.132272
O O4 0.749994 0.371303 0.001145
O O5 0.315590 0.527318 0.276713
O O6 0.123088 0.609036 0.126552
O O7 0.053003 0.667235 0.255468
O O8 0.626846 0.653521 0.291893
O O9 0.790210 0.442993 0.290624
O O10 0.622950 0.412552 0.407229
O O11 0.895024 0.539945 0.422659
O O12 0.578576 0.523987 0.138500
O O13 0.000000 0.500000 0.000000
O O14 0.269985 0.858911 0.931257
O O15 0.500000 0.500000 0.500000
#
# Coordination Sequence:
#
# PCOD8124228 Si02
#       7
#     4   4   4   4   4   4   4
#     4  11  23  41  58  89 125 161 197 252 307 366
#     4  10  21  39  63  88 118 159 198 249 304 353
#     4   9  20  35  59  91 112 151 203 254 290 349
#     4   9  21  40  69  93 116 158 213 261 297 355
#     4  10  22  39  65  87 120 154 211 257 301 352
#     4  11  23  40  58  85 131 164 191 245 311 367
#     4  10  19  35  61  87 119 155 206 245 291 354
#
# _framework density 22.378914999999999
#
# number of rings (size 3 to 8) (size 9 to 14) (size 15 to 20)
#    0.000    2.000    1.429    1.286    2.000    9.143 
#    5.143    0.000    0.000    0.000    0.000    0.000 
#    0.000    0.000    0.000    0.000    0.000    0.000 
#
# Total GULP energy -346966.295888 kJ/mol
# GULP energy per Si atom -12391.653425 kJ/mol
# Density = 2.232798 g / cm^3
# Si number density = 22.378915 Si / 1000 Ang^3
#
#
#
# Elastic Constant Matrix: (Units=GPa)
#
#
# Indices 1 2 3 4 5 6 
#
# 1 34.0696 5.5081 -8.2310 0.0000 -18.0897 0.0000
# 2 5.5081 108.1742 48.5664 0.0000 -18.1836 0.0000
# 3 -8.2310 48.5664 152.4237 0.0000 -36.9054 0.0000
# 4 0.0000 0.0000 0.0000 32.6253 0.0000 -5.6410
# 5 -18.0897 -18.1836 -36.9054 0.0000 33.1708 0.0000
# 6 0.0000 0.0000 0.0000 -5.6410 0.0000 22.8471
#
#
#
# Elastic Compliance Matrix: (Units=1/GPa)
#
#
# Indices 1 2 3 4 5 6 
#
# 1 0.059183 -0.001826 0.015535 0.000000 0.048558 0.000000
# 2 -0.001826 0.011046 -0.003275 0.000000 0.001415 0.000000
# 3 0.015535 -0.003275 0.013769 0.000000 0.021995 0.000000
# 4 0.000000 0.000000 0.000000 0.032018 0.000000 0.007905
# 5 0.048558 0.001415 0.021995 0.000000 0.081876 0.000000
# 6 0.000000 0.000000 0.000000 0.007905 0.000000 0.045721
#
#
# Mechanical properties :
#
#
# Convention : Reuss Voigt Hill
#
# Bulk Modulus (GPa) = 9.53610 42.92826 26.23218
# Shear Modulus (GPa) = 19.40246 34.31693 26.85969
#
# Velocity S-wave (km/s) = 2.94768 3.92018 3.46818
# Velocity P-wave (km/s) = 3.98190 6.30194 5.27115
#
# Compressibility (1/GPa) = 0.10486470
#
# Stress axis : x y z
#
# Youngs Moduli (GPa) = 16.89685 90.53261 72.62823
#
# Poissons Ratio (x) = 0.16527 -1.12826
# Poissons Ratio (y) = 0.03085 0.23788
# Poissons Ratio (z) = -0.26249 0.29653
#
# Static dielectric constant tensor:
#      x y z
#    x 3.837220 0.000000 -0.159000 
#    y 0.000000 4.104550 0.000000 
#    z -0.159000 0.000000 4.952120 
# 
# 
# High freq. dielectric constant tensor:
#      x y z
#    x 1.873570 0.000000 -0.012480 
#    y 0.000000 1.842770 0.000000 
#    z -0.012480 0.000000 1.904320 
# 
# From -- ./inp_files/37914.got.cif
#   From: 2010.03.12/outbox.cif.g09.slc.cpg/sg14_19_cif.got.tgz:37914.got - 2010.03.31 13:35:05.
