data_PCOD8124776
_publ_section_title
;
Structure prediction by ZEFSAII (Michael W. Deem and Ramdas Pophale) SiO2 
 PCOD8124776
Probable space group: P 21/C
;
_chemical_formula_sum "Si O2"
_cell_formula_units_Z 32
_cell_length_a 19.206228
_cell_length_b 13.468220
_cell_length_c 17.759363
_cell_angle_alpha 90.000000
_cell_angle_beta 21.400667
_cell_angle_gamma 90.000000
_cell_volume 1676.250030
_symmetry_space_group_name_H-M "P 21/C"
_symmetry_group_IT_number 14
_symmetry_cell_setting 'monoclinic'
loop_
_space_group_symop_operation_xyz
x,y,z
-x,1/2+y,1/2-z
-x,-y,-z
x,1/2-y,1/2+z
loop_
_atom_site_type_symbol
_atom_site_label
_atom_site_fract_x
_atom_site_fract_y
_atom_site_fract_z
Si Si1 0.778809 0.851872 0.561022
Si Si2 0.332467 0.839624 0.008251
Si Si3 0.210296 0.365308 0.590665
Si Si4 0.273541 0.354764 0.053221
Si Si5 0.343025 0.965928 0.854806
Si Si6 0.050535 0.679013 0.275910
Si Si7 0.938026 0.019918 0.645946
Si Si8 0.004911 0.517188 0.583775
O O1 0.822035 0.876041 0.430771
O O2 0.888041 0.751211 0.475953
O O3 0.862271 0.947555 0.518096
O O4 0.555185 0.840090 0.802313
O O5 0.259391 0.727989 0.070530
O O6 0.219965 0.892570 0.190042
O O7 0.269457 0.893046 0.994308
O O8 0.317654 0.264247 0.510086
O O9 0.345598 0.425926 0.394684
O O10 0.011704 0.342486 0.747421
O O11 0.154795 0.423637 0.721920
O O12 0.125773 0.386715 0.266815
O O13 0.456733 0.425505 0.877214
O O14 0.212810 0.965633 0.911150
O O15 0.082124 0.579990 0.290897
O O16 0.000000 0.000000 0.500000
O O17 0.000000 0.500000 0.500000
#
# Coordination Sequence:
#
# PCOD8124776 Si02
#       8
#     4   4   4   4   4   4   4   4
#     4   9  18  35  57  79 103 135 181 230 269 315
#     4   9  18  35  58  81 103 136 186 232 270 316
#     4   9  18  36  59  81 107 143 183 227 277 321
#     4  10  20  35  57  80 106 140 184 231 269 314
#     4   9  19  37  58  82 108 136 181 231 271 317
#     4   9  18  34  56  75 100 139 181 227 270 317
#     4  10  20  34  53  81 117 147 174 216 272 332
#     4  11  23  36  51  77 114 149 178 215 271 331
#
# _framework density 19.090230999999999
#
# number of rings (size 3 to 8) (size 9 to 14) (size 15 to 20)
#    0.000    2.500    0.000    3.750    0.000    7.000 
#    0.000    8.750    0.000    1.500    0.000    0.000 
#    0.000    0.000    0.000    0.000    0.000    0.000 
#
# Total GULP energy -396499.150825 kJ/mol
# GULP energy per Si atom -12390.598463 kJ/mol
# Density = 1.904678 g / cm^3
# Si number density = 19.090231 Si / 1000 Ang^3
#
#
#
# Elastic Constant Matrix: (Units=GPa)
#
#
# Indices 1 2 3 4 5 6 
#
# 1 72.5118 33.3842 34.9569 0.0000 3.7655 0.0000
# 2 33.3842 107.4516 34.5978 0.0000 -8.0815 0.0000
# 3 34.9569 34.5978 89.2573 0.0000 -9.2998 0.0000
# 4 0.0000 0.0000 0.0000 26.0500 0.0000 -6.7410
# 5 3.7655 -8.0815 -9.2998 0.0000 32.1562 0.0000
# 6 0.0000 0.0000 0.0000 -6.7410 0.0000 20.8561
#
#
#
# Elastic Compliance Matrix: (Units=1/GPa)
#
#
# Indices 1 2 3 4 5 6 
#
# 1 0.019089 -0.004271 -0.006357 0.000000 -0.005147 0.000000
# 2 -0.004271 0.011662 -0.002568 0.000000 0.002689 0.000000
# 3 -0.006357 -0.002568 0.015155 0.000000 0.004482 0.000000
# 4 0.000000 0.000000 0.000000 0.041891 0.000000 0.013540
# 5 -0.005147 0.002689 0.004482 0.000000 0.033673 0.000000
# 6 0.000000 0.000000 0.000000 0.013540 0.000000 0.052324
#
#
# Mechanical properties :
#
#
# Convention : Reuss Voigt Hill
#
# Bulk Modulus (GPa) = 51.24075 52.78871 52.01473
# Shear Modulus (GPa) = 24.19061 26.89792 25.54427
#
# Velocity S-wave (km/s) = 3.56360 3.75772 3.66195
# Velocity P-wave (km/s) = 6.62057 6.82199 6.72203
#
# Compressibility (1/GPa) = 0.01951572
#
# Stress axis : x y z
#
# Youngs Moduli (GPa) = 52.38588 85.74498 65.98278
#
# Poissons Ratio (x) = 0.36623 0.41944
# Poissons Ratio (y) = 0.22375 0.16942
# Poissons Ratio (z) = 0.33301 0.22017
#
# Static dielectric constant tensor:
#      x y z
#    x 3.317540 0.000000 -0.071830 
#    y 0.000000 3.768570 0.000000 
#    z -0.071830 0.000000 3.327970 
# 
# 
# High freq. dielectric constant tensor:
#      x y z
#    x 1.717080 0.000000 -0.010100 
#    y 0.000000 1.755150 0.000000 
#    z -0.010100 0.000000 1.729920 
# 
# From -- ./inp_files/61442.got.cif
#   From: 2010.03.12/outbox.cif.g09.slc.cpg/sg14_31_cif.got.tgz:61442.got - 2010.03.31 13:35:05.
