data_PCOD8124487
_publ_section_title
;
Structure prediction by ZEFSAII (Michael W. Deem and Ramdas Pophale) SiO2 
 PCOD8124487
Probable space group: P 21/C
;
_chemical_formula_sum "Si O2"
_cell_formula_units_Z 24
_cell_length_a 21.172813
_cell_length_b 10.927521
_cell_length_c 7.855872
_cell_angle_alpha 90.000000
_cell_angle_beta 40.690434
_cell_angle_gamma 90.000000
_cell_volume 1185.013870
_symmetry_space_group_name_H-M "P 21/C"
_symmetry_group_IT_number 14
_symmetry_cell_setting 'monoclinic'
loop_
_space_group_symop_operation_xyz
x,y,z
-x,1/2+y,1/2-z
-x,-y,-z
x,1/2-y,1/2+z
loop_
_atom_site_type_symbol
_atom_site_label
_atom_site_fract_x
_atom_site_fract_y
_atom_site_fract_z
Si Si1 0.229782 0.921145 0.404689
Si Si2 0.190985 0.144011 0.267199
Si Si3 0.986459 0.139298 0.555940
Si Si4 0.144964 0.713492 0.391391
Si Si5 0.323451 0.189429 0.699988
Si Si6 0.599801 0.928121 0.788327
O O1 0.234286 0.802395 0.269486
O O2 0.173296 0.882864 0.689958
O O3 0.170819 0.024576 0.422796
O O4 0.331457 0.975338 0.256355
O O5 0.230159 0.253815 0.300798
O O6 0.089530 0.194682 0.402916
O O7 0.275647 0.114345 0.954162
O O8 0.950984 0.209260 0.461134
O O9 0.893292 0.140568 0.869486
O O10 0.000000 0.000000 0.500000
O O11 0.396334 0.297327 0.619474
O O12 0.376302 0.097218 0.460283
O O13 0.500000 0.000000 0.000000
#
# Coordination Sequence:
#
# PCOD8124487 Si02
#       6
#     4   4   4   4   4   4
#     4  10  22  38  58  80 119 154 192 243 297 339
#     4  10  19  38  58  85 115 160 192 238 282 334
#     4  11  21  36  58  83 119 155 206 234 280 338
#     4  10  23  39  52  86 119 157 197 242 287 342
#     4   9  21  39  63  87 120 147 194 235 289 348
#     4  10  22  41  64  91 113 149 193 239 294 353
#
# _framework density 20.252925999999999
#
# number of rings (size 3 to 8) (size 9 to 14) (size 15 to 20)
#    0.000    2.000    1.667    1.000    2.333    2.000 
#    3.000    7.500    0.000    0.000    0.000    0.000 
#    0.000    0.000    0.000    0.000    0.000    0.000 
#
# Total GULP energy -297345.671616 kJ/mol
# GULP energy per Si atom -12389.402984 kJ/mol
# Density = 2.020683 g / cm^3
# Si number density = 20.252926 Si / 1000 Ang^3
#
#
#
# Elastic Constant Matrix: (Units=GPa)
#
#
# Indices 1 2 3 4 5 6 
#
# 1 92.9928 37.8479 40.7890 0.0000 -6.5453 0.0000
# 2 37.8479 94.5207 51.2307 0.0000 -1.0759 0.0000
# 3 40.7890 51.2307 82.0089 0.0000 2.7162 0.0000
# 4 0.0000 0.0000 0.0000 38.1491 0.0000 7.5910
# 5 -6.5453 -1.0759 2.7162 0.0000 36.8581 0.0000
# 6 0.0000 0.0000 0.0000 7.5910 0.0000 20.7406
#
#
#
# Elastic Compliance Matrix: (Units=1/GPa)
#
#
# Indices 1 2 3 4 5 6 
#
# 1 0.014538 -0.002747 -0.005611 0.000000 0.002915 0.000000
# 2 -0.002747 0.016568 -0.009006 0.000000 0.000660 0.000000
# 3 -0.005611 -0.009006 0.020703 0.000000 -0.002785 0.000000
# 4 0.000000 0.000000 0.000000 0.028272 0.000000 -0.010347
# 5 0.002915 0.000660 -0.002785 0.000000 0.027873 0.000000
# 6 0.000000 0.000000 0.000000 -0.010347 0.000000 0.052002
#
#
# Mechanical properties :
#
#
# Convention : Reuss Voigt Hill
#
# Bulk Modulus (GPa) = 58.54410 58.80641 58.67525
# Shear Modulus (GPa) = 24.95290 28.45990 26.70640
#
# Velocity S-wave (km/s) = 3.51388 3.75270 3.63525
# Velocity P-wave (km/s) = 6.74036 6.91925 6.83039
#
# Compressibility (1/GPa) = 0.01708114
#
# Stress axis : x y z
#
# Youngs Moduli (GPa) = 68.78573 60.35645 48.30221
#
# Poissons Ratio (x) = 0.16578 0.27105
# Poissons Ratio (y) = 0.18893 0.43500
# Poissons Ratio (z) = 0.38599 0.54356
#
# Static dielectric constant tensor:
#      x y z
#    x 4.464060 0.000000 0.024470 
#    y 0.000000 3.517870 0.000000 
#    z 0.024470 0.000000 3.535490 
# 
# 
# High freq. dielectric constant tensor:
#      x y z
#    x 1.808990 0.000000 0.017410 
#    y 0.000000 1.786860 0.000000 
#    z 0.017410 0.000000 1.767660 
# 
# From -- ./inp_files/12353.got.cif
#   From: 2010.03.12/outbox.cif.g09.slc.cpg/sg14_7_cif.got.tgz:12353.got - 2010.03.31 13:35:05.
