data_PCOD8124590
_publ_section_title
;
Structure prediction by ZEFSAII (Michael W. Deem and Ramdas Pophale) SiO2 
 PCOD8124590
Probable space group: P 21/C
;
_chemical_formula_sum "Si O2"
_cell_formula_units_Z 28
_cell_length_a 13.143923
_cell_length_b 8.016979
_cell_length_c 16.808370
_cell_angle_alpha 90.000000
_cell_angle_beta 49.658540
_cell_angle_gamma 90.000000
_cell_volume 1349.989391
_symmetry_space_group_name_H-M "P 21/C"
_symmetry_group_IT_number 14
_symmetry_cell_setting 'monoclinic'
loop_
_space_group_symop_operation_xyz
x,y,z
-x,1/2+y,1/2-z
-x,-y,-z
x,1/2-y,1/2+z
loop_
_atom_site_type_symbol
_atom_site_label
_atom_site_fract_x
_atom_site_fract_y
_atom_site_fract_z
Si Si1 0.086887 0.907324 0.106329
Si Si2 0.333709 0.225092 0.297868
Si Si3 0.242902 0.572386 0.057297
Si Si4 0.614255 0.383244 0.165593
Si Si5 0.859943 0.335103 0.593321
Si Si6 0.880459 0.757742 0.457376
Si Si7 0.790703 0.577233 0.764545
O O1 0.180539 0.760045 0.092108
O O2 0.940367 0.878241 0.218016
O O3 0.135848 0.099931 0.096886
O O4 0.066072 0.914460 0.020829
O O5 0.469131 0.314511 0.256078
O O6 0.221229 0.272487 0.418802
O O7 0.290054 0.263187 0.228391
O O8 0.365206 0.030945 0.282738
O O9 0.140062 0.434326 0.075561
O O10 0.285070 0.515719 0.124655
O O11 0.373360 0.567022 0.934566
O O12 0.738255 0.264085 0.117222
O O13 0.789203 0.462116 0.687790
O O14 0.968298 0.226156 0.586318
#
# Coordination Sequence:
#
# PCOD8124590 Si02
#       7
#     4   4   4   4   4   4   4
#     4  10  20  37  61  87 121 161 192 258 298 361
#     4  11  21  39  65  86 117 162 210 246 301 358
#     4  10  25  37  57  94 127 158 195 254 309 357
#     4  10  24  39  64  89 118 162 206 256 292 369
#     4  10  19  39  63  91 113 156 204 254 301 358
#     4  10  20  39  63  88 121 153 207 251 299 367
#     4  11  21  37  60  91 123 159 195 253 308 359
#
# _framework density 20.740905000000001
#
# number of rings (size 3 to 8) (size 9 to 14) (size 15 to 20)
#    0.000    1.714    2.857    1.714    8.000    2.286 
#    2.571    0.000    0.000    2.571    0.000    0.000 
#    0.000    0.000    0.000    0.000    0.000    0.000 
#
# Total GULP energy -346979.162690 kJ/mol
# GULP energy per Si atom -12392.112953 kJ/mol
# Density = 2.069370 g / cm^3
# Si number density = 20.740905 Si / 1000 Ang^3
#
#
#
# Elastic Constant Matrix: (Units=GPa)
#
#
# Indices 1 2 3 4 5 6 
#
# 1 41.5398 -2.7715 21.8562 0.0000 -8.9117 0.0000
# 2 -2.7715 38.3303 2.4457 0.0000 3.2496 0.0000
# 3 21.8562 2.4457 68.9523 0.0000 14.1154 0.0000
# 4 0.0000 0.0000 0.0000 29.5915 0.0000 -8.3603
# 5 -8.9117 3.2496 14.1154 0.0000 30.8415 0.0000
# 6 0.0000 0.0000 0.0000 -8.3603 0.0000 34.3948
#
#
#
# Elastic Compliance Matrix: (Units=1/GPa)
#
#
# Indices 1 2 3 4 5 6 
#
# 1 0.035625 0.002092 -0.014817 0.000000 0.016855 0.000000
# 2 0.002092 0.026457 -0.001274 0.000000 -0.001600 0.000000
# 3 -0.014817 -0.001274 0.022171 0.000000 -0.014294 0.000000
# 4 0.000000 0.000000 0.000000 0.036285 0.000000 0.008820
# 5 0.016855 -0.001600 -0.014294 0.000000 0.044005 0.000000
# 6 0.000000 0.000000 0.000000 0.008820 0.000000 0.031218
#
#
# Mechanical properties :
#
#
# Convention : Reuss Voigt Hill
#
# Bulk Modulus (GPa) = 17.77599 21.32034 19.54817
# Shear Modulus (GPa) = 20.61776 27.45169 24.03472
#
# Velocity S-wave (km/s) = 3.15630 3.64201 3.40782
# Velocity P-wave (km/s) = 4.67676 5.29031 4.99297
#
# Compressibility (1/GPa) = 0.05625566
#
# Stress axis : x y z
#
# Youngs Moduli (GPa) = 28.07047 37.79678 45.10458
#
# Poissons Ratio (x) = -0.07909 0.66830
# Poissons Ratio (y) = -0.05873 0.05747
# Poissons Ratio (z) = 0.41591 0.04816
#
# Static dielectric constant tensor:
#      x y z
#    x 3.397090 0.000000 0.060260 
#    y 0.000000 3.859210 0.000000 
#    z 0.060260 0.000000 3.710780 
# 
# 
# High freq. dielectric constant tensor:
#      x y z
#    x 1.784650 0.000000 -0.004930 
#    y 0.000000 1.818400 0.000000 
#    z -0.004930 0.000000 1.811220 
# 
# From -- ./inp_files/43622.got.cif
#   From: 2010.03.12/outbox.cif.g09.slc.cpg/sg14_22_cif.got.tgz:43622.got - 2010.03.31 13:35:05.
