data_PCOD8124492
_publ_section_title
;
Structure prediction by ZEFSAII (Michael W. Deem and Ramdas Pophale) SiO2 
 PCOD8124492
Probable space group: P 21/C
;
_chemical_formula_sum "Si O2"
_cell_formula_units_Z 28
_cell_length_a 28.462968
_cell_length_b 11.440196
_cell_length_c 23.130317
_cell_angle_alpha 90.000000
_cell_angle_beta 169.100860
_cell_angle_gamma 90.000000
_cell_volume 1424.106422
_symmetry_space_group_name_H-M "P 21/C"
_symmetry_group_IT_number 14
_symmetry_cell_setting 'monoclinic'
loop_
_space_group_symop_operation_xyz
x,y,z
-x,1/2+y,1/2-z
-x,-y,-z
x,1/2-y,1/2+z
loop_
_atom_site_type_symbol
_atom_site_label
_atom_site_fract_x
_atom_site_fract_y
_atom_site_fract_z
Si Si1 0.449270 0.800212 0.716666
Si Si2 0.344811 0.151352 0.319812
Si Si3 0.659421 0.874082 0.549837
Si Si4 0.191862 0.223321 0.437564
Si Si5 0.053184 0.187419 0.393902
Si Si6 0.879911 0.085697 0.971632
Si Si7 0.720970 0.976414 0.978980
O O1 0.155058 0.788185 0.366335
O O2 0.528831 0.933269 0.797639
O O3 0.584712 0.756548 0.938741
O O4 0.549766 0.711716 0.786489
O O5 0.307443 0.128205 0.342121
O O6 0.634950 0.154546 0.653717
O O7 0.203262 0.047031 0.114711
O O8 0.228332 0.274722 0.158668
O O9 0.438731 0.962916 0.264743
O O10 0.920151 0.913327 0.837887
O O11 0.216334 0.177466 0.532508
O O12 0.129397 0.362992 0.363707
O O13 0.975800 0.148617 0.145634
O O14 0.923035 0.064126 0.250309
#
# Coordination Sequence:
#
# PCOD8124492 Si02
#       7
#     4   4   4   4   4   4   4
#     4   8  19  37  60  80 113 149 195 239 284 334
#     4  11  24  32  58  90 116 151 192 226 304 344
#     4  10  19  38  59  83 118 145 186 250 283 332
#     4   9  21  37  60  81 115 149 199 237 286 334
#     4  11  21  36  58  87 118 149 195 243 280 351
#     4  10  21  37  57  81 117 154 181 245 287 334
#     4   9  20  39  61  85 108 152 203 234 282 342
#
# _framework density 19.661453000000002
#
# number of rings (size 3 to 8) (size 9 to 14) (size 15 to 20)
#    0.857    1.429    0.000    3.000    6.000    1.143 
#    0.000    1.429    0.000    0.000    0.000    0.000 
#    0.000    0.000    0.000    0.000    0.000    0.000 
#
# Total GULP energy -346969.569160 kJ/mol
# GULP energy per Si atom -12391.770327 kJ/mol
# Density = 1.961670 g / cm^3
# Si number density = 19.661453 Si / 1000 Ang^3
#
#
#
# Elastic Constant Matrix: (Units=GPa)
#
#
# Indices 1 2 3 4 5 6 
#
# 1 79.7648 31.5694 30.6457 0.0000 -9.1376 0.0000
# 2 31.5694 65.4745 8.1707 0.0000 -19.1518 0.0000
# 3 30.6457 8.1707 67.4743 0.0000 -3.1884 0.0000
# 4 0.0000 0.0000 0.0000 34.1508 0.0000 -3.1421
# 5 -9.1376 -19.1518 -3.1884 0.0000 28.2336 0.0000
# 6 0.0000 0.0000 0.0000 -3.1421 0.0000 21.4191
#
#
#
# Elastic Compliance Matrix: (Units=1/GPa)
#
#
# Indices 1 2 3 4 5 6 
#
# 1 0.018586 -0.008129 -0.007473 0.000000 -0.000343 0.000000
# 2 -0.008129 0.022807 0.001545 0.000000 0.013014 0.000000
# 3 -0.007473 0.001545 0.018059 0.000000 0.000669 0.000000
# 4 0.000000 0.000000 0.000000 0.029683 0.000000 0.004354
# 5 -0.000343 0.013014 0.000669 0.000000 0.044211 0.000000
# 6 0.000000 0.000000 0.000000 0.004354 0.000000 0.047326
#
#
# Mechanical properties :
#
#
# Convention : Reuss Voigt Hill
#
# Bulk Modulus (GPa) = 31.91061 39.27612 35.59336
# Shear Modulus (GPa) = 22.80688 26.24923 24.52806
#
# Velocity S-wave (km/s) = 3.40954 3.65781 3.53586
# Velocity P-wave (km/s) = 5.63607 6.15297 5.90018
#
# Compressibility (1/GPa) = 0.03133754
#
# Stress axis : x y z
#
# Youngs Moduli (GPa) = 53.80314 43.84693 55.37339
#
# Poissons Ratio (x) = 0.35645 0.41383
# Poissons Ratio (y) = 0.43738 -0.08558
# Poissons Ratio (z) = 0.40209 -0.06776
#
# Static dielectric constant tensor:
#      x y z
#    x 3.379540 0.000000 0.158670 
#    y 0.000000 3.568890 0.000000 
#    z 0.158670 0.000000 3.547830 
# 
# 
# High freq. dielectric constant tensor:
#      x y z
#    x 1.756820 0.000000 0.018230 
#    y 0.000000 1.752630 0.000000 
#    z 0.018230 0.000000 1.757980 
# 
# From -- ./inp_files/75316.got.cif
#   From: 2010.03.12/outbox.cif.g09.slc.cpg/sg14_38_cif.got.tgz:75316.got - 2010.03.31 13:35:05.
