data_PCOD8124231
_publ_section_title
;
Structure prediction by ZEFSAII (Michael W. Deem and Ramdas Pophale) SiO2 
 PCOD8124231
Probable space group: P 21/C
;
_chemical_formula_sum "Si O2"
_cell_formula_units_Z 28
_cell_length_a 14.035411
_cell_length_b 14.308741
_cell_length_c 10.579554
_cell_angle_alpha 90.000000
_cell_angle_beta 139.467208
_cell_angle_gamma 90.000000
_cell_volume 1380.794949
_symmetry_space_group_name_H-M "P 21/C"
_symmetry_group_IT_number 14
_symmetry_cell_setting 'monoclinic'
loop_
_space_group_symop_operation_xyz
x,y,z
-x,1/2+y,1/2-z
-x,-y,-z
x,1/2-y,1/2+z
loop_
_atom_site_type_symbol
_atom_site_label
_atom_site_fract_x
_atom_site_fract_y
_atom_site_fract_z
Si Si1 0.633697 0.931106 0.655697
Si Si2 0.794602 0.975979 0.062622
Si Si3 0.490213 0.085412 0.127149
Si Si4 0.334012 0.077969 0.592303
Si Si5 0.914062 0.037971 0.531578
Si Si6 0.501353 0.235685 0.332504
Si Si7 0.709167 0.368062 0.653441
O O1 0.712593 0.914199 0.601403
O O2 0.580203 0.831648 0.652745
O O3 0.500000 0.000000 0.500000
O O4 0.750473 0.974807 0.871496
O O5 0.781024 0.080805 0.105328
O O6 0.961367 0.935887 0.239756
O O7 0.687366 0.914261 0.045846
O O8 0.542538 0.183054 0.243948
O O9 0.558410 0.079996 0.054022
O O10 0.538373 0.999725 0.265982
O O11 0.394145 0.176945 0.700753
O O12 0.191787 0.043977 0.525575
O O13 0.819478 0.127966 0.386401
O O14 0.000000 0.000000 0.500000
O O15 0.656658 0.266659 0.553598
#
# Coordination Sequence:
#
# PCOD8124231 Si02
#       7
#     4   4   4   4   4   4   4
#     4  11  21  39  64  93 129 155 208 265 319 366
#     4  10  19  36  62  88 123 166 201 258 317 367
#     4  10  20  35  63  89 123 158 211 261 312 360
#     4  11  21  40  62  93 122 166 206 258 318 365
#     4   9  22  37  63  88 126 165 209 252 311 372
#     4  11  21  34  64  96 122 159 214 263 314 369
#     4  10  19  35  61  90 116 161 211 259 299 369
#
# _framework density 20.278174
#
# number of rings (size 3 to 8) (size 9 to 14) (size 15 to 20)
#    0.000    1.714    4.286    1.286    4.000    0.571 
#    0.000    0.000   31.429    0.000    0.000    0.000 
#    0.000    0.000    0.000    0.000    0.000    0.000 
#
# Total GULP energy -346917.006272 kJ/mol
# GULP energy per Si atom -12389.893081 kJ/mol
# Density = 2.023202 g / cm^3
# Si number density = 20.278174 Si / 1000 Ang^3
#
#
#
# Elastic Constant Matrix: (Units=GPa)
#
#
# Indices 1 2 3 4 5 6 
#
# 1 87.8141 25.4485 39.1732 0.0000 -5.9625 0.0000
# 2 25.4485 99.6862 56.1027 0.0000 -0.1418 0.0000
# 3 39.1732 56.1027 153.5946 0.0000 -0.8041 0.0000
# 4 0.0000 0.0000 0.0000 25.2703 0.0000 -3.5627
# 5 -5.9625 -0.1418 -0.8041 0.0000 36.2728 0.0000
# 6 0.0000 0.0000 0.0000 -3.5627 0.0000 22.0586
#
#
#
# Elastic Compliance Matrix: (Units=1/GPa)
#
#
# Indices 1 2 3 4 5 6 
#
# 1 0.013274 -0.001871 -0.002691 0.000000 0.002115 0.000000
# 2 -0.001871 0.012891 -0.004233 0.000000 -0.000351 0.000000
# 3 -0.002691 -0.004233 0.008742 0.000000 -0.000265 0.000000
# 4 0.000000 0.000000 0.000000 0.040494 0.000000 0.006540
# 5 0.002115 -0.000351 -0.000265 0.000000 0.027909 0.000000
# 6 0.000000 0.000000 0.000000 0.006540 0.000000 0.046390
#
#
# Mechanical properties :
#
#
# Convention : Reuss Voigt Hill
#
# Bulk Modulus (GPa) = 57.74954 64.72707 61.23831
# Shear Modulus (GPa) = 28.89116 31.41170 30.15143
#
# Velocity S-wave (km/s) = 3.77867 3.94005 3.86021
# Velocity P-wave (km/s) = 6.89770 7.25862 7.08046
#
# Compressibility (1/GPa) = 0.01731615
#
# Stress axis : x y z
#
# Youngs Moduli (GPa) = 75.33549 77.57262 114.39284
#
# Poissons Ratio (x) = 0.14516 0.30781
# Poissons Ratio (y) = 0.14097 0.48426
# Poissons Ratio (z) = 0.20272 0.32839
#
# Static dielectric constant tensor:
#      x y z
#    x 3.768800 0.000000 0.004360 
#    y 0.000000 3.551580 0.000000 
#    z 0.004360 0.000000 4.548250 
# 
# 
# High freq. dielectric constant tensor:
#      x y z
#    x 1.788190 0.000000 -0.016640 
#    y 0.000000 1.765890 0.000000 
#    z -0.016640 0.000000 1.796640 
# 
# From -- ./inp_files/32619.got.cif
#   From: 2010.03.12/outbox.cif.g09.slc.cpg/sg14_17_cif.got.tgz:32619.got - 2010.03.31 13:35:05.
