data_PCOD8124004
_publ_section_title
;
Structure prediction by ZEFSAII (Michael W. Deem and Ramdas Pophale) SiO2 
 PCOD8124004
Probable space group: P 21/C
;
_chemical_formula_sum "Si O2"
_cell_formula_units_Z 32
_cell_length_a 4.953465
_cell_length_b 16.395787
_cell_length_c 21.295637
_cell_angle_alpha 90.000000
_cell_angle_beta 93.079975
_cell_angle_gamma 90.000000
_cell_volume 1727.047229
_symmetry_space_group_name_H-M "P 21/C"
_symmetry_group_IT_number 14
_symmetry_cell_setting 'monoclinic'
loop_
_space_group_symop_operation_xyz
x,y,z
-x,1/2+y,1/2-z
-x,-y,-z
x,1/2-y,1/2+z
loop_
_atom_site_type_symbol
_atom_site_label
_atom_site_fract_x
_atom_site_fract_y
_atom_site_fract_z
Si Si1 0.226970 0.554482 0.846616
Si Si2 0.261953 0.789232 0.426107
Si Si3 0.273030 0.554482 0.153384
Si Si4 0.465771 0.823692 0.747811
Si Si5 0.761953 0.289232 0.926107
Si Si6 0.034230 0.676308 0.752189
Si Si7 0.237880 0.261726 0.643308
Si Si8 0.262120 0.238274 0.856692
O O1 0.177770 0.621540 0.900371
O O2 0.529550 0.521343 0.854940
O O3 0.183654 0.594169 0.776684
O O4 0.029550 0.478657 0.854940
O O5 0.250000 0.786274 0.500000
O O6 0.563322 0.770203 0.407915
O O7 0.050627 0.722170 0.394243
O O8 0.316347 0.594169 0.223316
O O9 0.322229 0.621540 0.099629
O O10 0.250000 0.750000 0.750000
O O11 0.620243 0.837148 0.816974
O O12 0.694122 0.805311 0.697739
O O13 0.550627 0.222170 0.894243
O O14 0.063322 0.270203 0.907915
O O15 0.805879 0.694689 0.802261
O O16 0.879757 0.662852 0.683026
#
# Coordination Sequence:
#
# PCOD8124004 Si02
#       8
#     4   4   4   4   4   4   4   4
#     4  11  23  34  51  80 113 145 181 217 266 319
#     4  11  22  36  52  76 113 152 186 215 248 316
#     4  11  23  34  51  80 113 145 181 217 266 319
#     4  10  19  35  59  74 101 141 185 232 278 308
#     4  11  22  36  52  76 113 152 186 215 248 316
#     4  10  19  35  59  74 101 141 185 232 278 308
#     4  10  19  33  56  78  95 139 188 230 268 297
#     4  10  19  33  56  78  95 139 188 230 268 297
#
# _framework density 18.528735000000001
#
# number of rings (size 3 to 8) (size 9 to 14) (size 15 to 20)
#    0.000    1.500    5.000    3.750    3.500    1.000 
#    0.000    0.000    0.000    0.000    0.000    0.000 
#    0.000   20.000    0.000    0.000    0.000    0.000 
#
# Total GULP energy -396444.625531 kJ/mol
# GULP energy per Si atom -12388.894548 kJ/mol
# Density = 1.848656 g / cm^3
# Si number density = 18.528735 Si / 1000 Ang^3
#
#
#
# Elastic Constant Matrix: (Units=GPa)
#
#
# Indices 1 2 3 4 5 6 
#
# 1 91.3023 9.6905 25.7668 0.0000 -7.5058 0.0000
# 2 9.6905 3.4135 28.4566 0.0000 -0.2531 0.0000
# 3 25.7668 28.4566 115.6251 0.0000 -0.4679 0.0000
# 4 0.0000 0.0000 0.0000 23.3334 0.0000 8.4233
# 5 -7.5058 -0.2531 -0.4679 0.0000 38.8636 0.0000
# 6 0.0000 0.0000 0.0000 8.4233 0.0000 17.8973
#
#
#
# Elastic Compliance Matrix: (Units=1/GPa)
#
#
# Indices 1 2 3 4 5 6 
#
# 1 0.011465 0.010610 -0.005157 0.000000 0.002221 0.000000
# 2 0.010610 -0.268696 0.063769 0.000000 0.001067 0.000000
# 3 -0.005157 0.063769 -0.005899 0.000000 -0.000652 0.000000
# 4 0.000000 0.000000 0.000000 0.051629 0.000000 -0.024299
# 5 0.002221 0.001067 -0.000652 0.000000 0.026159 0.000000
# 6 0.000000 0.000000 0.000000 -0.024299 0.000000 0.067311
#
#
# Mechanical properties :
#
#
# Convention : Reuss Voigt Hill
#
# Bulk Modulus (GPa) = -8.02007 37.57429 14.77711
# Shear Modulus (GPa) = -16.77640 25.78066 4.50213
#
# Velocity S-wave (km/s) = -3.01229 3.73418 1.56048
# Velocity P-wave (km/s) = 4.05418 6.23819 3.35251
#
# Compressibility (1/GPa) = -0.12468715
#
# Stress axis : x y z
#
# Youngs Moduli (GPa) = 87.22551 -3.72168 -169.51953
#
# Poissons Ratio (x) = 0.03949 -0.87421
# Poissons Ratio (y) = -0.92543 10.81009
# Poissons Ratio (z) = 0.44982 0.23733
#
# Static dielectric constant tensor:
#      x y z
#    x 3.802820 0.000000 0.197920 
#    y 0.000000 3.048780 0.000000 
#    z 0.197920 0.000000 3.550740 
# 
# 
# High freq. dielectric constant tensor:
#      x y z
#    x 1.752760 0.000000 0.004680 
#    y 0.000000 1.649010 0.000000 
#    z 0.004680 0.000000 1.712150 
# 
# From -- ./inp_files/63697.got.cif
#   From: 2010.03.12/outbox.cif.g09.slc.cpg/sg14_32_cif.got.tgz:63697.got - 2010.03.31 13:35:05.
