data_PCOD8124102
_publ_section_title
;
Structure prediction by ZEFSAII (Michael W. Deem and Ramdas Pophale) SiO2 
 PCOD8124102
Probable space group: P 21/C
;
_chemical_formula_sum "Si O2"
_cell_formula_units_Z 32
_cell_length_a 9.880928
_cell_length_b 15.872134
_cell_length_c 10.309957
_cell_angle_alpha 90.000000
_cell_angle_beta 79.067592
_cell_angle_gamma 90.000000
_cell_volume 1587.580520
_symmetry_space_group_name_H-M "P 21/C"
_symmetry_group_IT_number 14
_symmetry_cell_setting 'monoclinic'
loop_
_space_group_symop_operation_xyz
x,y,z
-x,1/2+y,1/2-z
-x,-y,-z
x,1/2-y,1/2+z
loop_
_atom_site_type_symbol
_atom_site_label
_atom_site_fract_x
_atom_site_fract_y
_atom_site_fract_z
Si Si1 0.116532 0.290495 0.632300
Si Si2 0.893498 0.322570 0.487548
Si Si3 0.180226 0.014063 0.393565
Si Si4 0.661232 0.581333 0.384683
Si Si5 0.963786 0.151061 0.395880
Si Si6 0.779077 0.017390 0.333618
Si Si7 0.997631 0.881889 0.300415
Si Si8 0.349249 0.558283 0.398155
O O1 0.271588 0.327850 0.590056
O O2 0.094944 0.190425 0.607209
O O3 0.022275 0.348842 0.555517
O O4 0.073962 0.299212 0.789267
O O5 0.886636 0.220027 0.501096
O O6 0.754705 0.364365 0.565149
O O7 0.916219 0.346464 0.334936
O O8 0.272575 0.045227 0.258572
O O9 0.052972 0.077181 0.451301
O O10 0.270411 0.006045 0.510147
O O11 0.115502 0.921794 0.373668
O O12 0.500062 0.596015 0.393298
O O13 0.687703 0.515569 0.495091
O O14 0.848938 0.109240 0.325302
O O15 0.659117 0.020902 0.247368
O O16 0.894271 0.951761 0.263624
#
# Coordination Sequence:
#
# PCOD8124102 Si02
#       8
#     4   4   4   4   4   4   4   4
#     4  10  19  34  59  87 119 149 195 250 293 341
#     4  11  19  34  61  90 116 150 202 246 290 352
#     4  10  19  36  60  90 123 150 189 249 302 348
#     4  10  23  41  59  85 124 162 195 240 296 344
#     4   9  19  32  56  91 118 149 187 249 300 340
#     4  11  20  35  60  89 118 150 200 243 292 356
#     4  10  20  33  62  93 116 149 196 251 302 345
#     4  11  23  39  62  86 119 164 203 238 288 356
#
# _framework density 20.156458000000001
#
# number of rings (size 3 to 8) (size 9 to 14) (size 15 to 20)
#    0.000    1.750    2.500    3.750    0.000    1.500 
#    0.000    0.000   22.000    0.000    0.000    0.000 
#    0.000    0.000    0.000    0.000    0.000    0.000 
#
# Total GULP energy -396498.614697 kJ/mol
# GULP energy per Si atom -12390.581709 kJ/mol
# Density = 2.011058 g / cm^3
# Si number density = 20.156458 Si / 1000 Ang^3
#
#
#
# Elastic Constant Matrix: (Units=GPa)
#
#
# Indices 1 2 3 4 5 6 
#
# 1 101.3297 49.3347 43.4486 0.0000 9.4314 0.0000
# 2 49.3347 114.7155 38.2876 0.0000 4.9894 0.0000
# 3 43.4486 38.2876 119.7847 0.0000 14.4535 0.0000
# 4 0.0000 0.0000 0.0000 23.8195 0.0000 -4.6246
# 5 9.4314 4.9894 14.4535 0.0000 27.1927 0.0000
# 6 0.0000 0.0000 0.0000 -4.6246 0.0000 23.9086
#
#
#
# Elastic Compliance Matrix: (Units=1/GPa)
#
#
# Indices 1 2 3 4 5 6 
#
# 1 0.013763 -0.004753 -0.003208 0.000000 -0.002196 0.000000
# 2 -0.004753 0.011400 -0.001994 0.000000 0.000617 0.000000
# 3 -0.003208 -0.001994 0.010654 0.000000 -0.004184 0.000000
# 4 0.000000 0.000000 0.000000 0.043621 0.000000 0.008438
# 5 -0.002196 0.000617 -0.004184 0.000000 0.039647 0.000000
# 6 0.000000 0.000000 0.000000 0.008438 0.000000 0.043458
#
#
# Mechanical properties :
#
#
# Convention : Reuss Voigt Hill
#
# Bulk Modulus (GPa) = 62.86503 66.44129 64.65316
# Shear Modulus (GPa) = 26.63049 28.63477 27.63263
#
# Velocity S-wave (km/s) = 3.63876 3.77321 3.70659
# Velocity P-wave (km/s) = 6.99359 7.21229 7.10378
#
# Compressibility (1/GPa) = 0.01590710
#
# Stress axis : x y z
#
# Youngs Moduli (GPa) = 72.66077 87.71981 93.85901
#
# Poissons Ratio (x) = 0.41689 0.30109
# Poissons Ratio (y) = 0.34532 0.18719
# Poissons Ratio (z) = 0.23309 0.17495
#
# Static dielectric constant tensor:
#      x y z
#    x 3.316640 0.000000 0.119880 
#    y 0.000000 3.949440 0.000000 
#    z 0.119880 0.000000 3.847440 
# 
# 
# High freq. dielectric constant tensor:
#      x y z
#    x 1.738280 0.000000 0.012360 
#    y 0.000000 1.795420 0.000000 
#    z 0.012360 0.000000 1.815580 
# 
# From -- ./inp_files/25504.got.cif
#   From: 2010.03.12/outbox.cif.g09.slc.cpg/sg14_13_cif.got.tgz:25504.got - 2010.03.31 13:35:05.
