data_PCOD8124593
_publ_section_title
;
Structure prediction by ZEFSAII (Michael W. Deem and Ramdas Pophale) SiO2 
 PCOD8124593
Probable space group: P 21/C
;
_chemical_formula_sum "Si O2"
_cell_formula_units_Z 28
_cell_length_a 11.000534
_cell_length_b 9.296590
_cell_length_c 24.693471
_cell_angle_alpha 90.000000
_cell_angle_beta 146.228325
_cell_angle_gamma 90.000000
_cell_volume 1403.797086
_symmetry_space_group_name_H-M "P 21/C"
_symmetry_group_IT_number 14
_symmetry_cell_setting 'monoclinic'
loop_
_space_group_symop_operation_xyz
x,y,z
-x,1/2+y,1/2-z
-x,-y,-z
x,1/2-y,1/2+z
loop_
_atom_site_type_symbol
_atom_site_label
_atom_site_fract_x
_atom_site_fract_y
_atom_site_fract_z
Si Si1 0.326771 0.414441 0.901549
Si Si2 0.513862 0.518109 0.319051
Si Si3 0.699720 0.603031 0.581597
Si Si4 0.615529 0.363601 0.163383
Si Si5 0.807290 0.696937 0.504331
Si Si6 0.157158 0.929672 0.770205
Si Si7 0.306266 0.718133 0.689404
O O1 0.391006 0.247393 0.923032
O O2 0.321938 0.484476 0.840078
O O3 0.089599 0.419573 0.843238
O O4 0.500000 0.500000 0.000000
O O5 0.720790 0.579077 0.429193
O O6 0.310477 0.488829 0.283910
O O7 0.579367 0.368683 0.316402
O O8 0.433836 0.631555 0.243769
O O9 0.500000 0.500000 0.500000
O O10 0.816936 0.630400 0.568049
O O11 0.864375 0.520988 0.682651
O O12 0.747532 0.230861 0.184274
O O13 0.675325 0.373527 0.248549
O O14 0.356539 0.333318 0.058358
O O15 0.052579 0.745495 0.580093
#
# Coordination Sequence:
#
# PCOD8124593 Si02
#       7
#     4   4   4   4   4   4   4
#     4  12  22  34  60  90 124 152 193 235 296 360
#     4  10  22  38  62  83 114 154 203 234 298 347
#     4  12  20  37  61  88 123 153 190 238 290 359
#     4  10  22  38  58  90 116 161 197 230 305 349
#     4  10  19  39  64  80 117 159 192 235 297 349
#     4  10  21  39  59  85 120 160 187 245 293 345
#     4  10  21  40  62  83 115 155 197 251 285 344
#
# _framework density 19.945903000000001
#
# number of rings (size 3 to 8) (size 9 to 14) (size 15 to 20)
#    0.000    1.714    4.286    3.857    0.000    1.143 
#    0.000    5.714    3.143    0.000    0.000    0.000 
#    0.000    0.000    0.000    0.000    0.000    0.000 
#
# Total GULP energy -347116.325303 kJ/mol
# GULP energy per Si atom -12397.011618 kJ/mol
# Density = 1.990050 g / cm^3
# Si number density = 19.945903 Si / 1000 Ang^3
#
#
#
# Elastic Constant Matrix: (Units=GPa)
#
#
# Indices 1 2 3 4 5 6 
#
# 1 61.1346 31.6562 40.7560 0.0000 9.7494 0.0000
# 2 31.6562 85.4465 41.0666 0.0000 5.4170 0.0000
# 3 40.7560 41.0666 119.7671 0.0000 19.0131 0.0000
# 4 0.0000 0.0000 0.0000 24.5081 0.0000 -13.1979
# 5 9.7494 5.4170 19.0131 0.0000 32.8778 0.0000
# 6 0.0000 0.0000 0.0000 -13.1979 0.0000 34.1610
#
#
#
# Elastic Compliance Matrix: (Units=1/GPa)
#
#
# Indices 1 2 3 4 5 6 
#
# 1 0.023551 -0.005878 -0.005553 0.000000 -0.002804 0.000000
# 2 -0.005878 0.015488 -0.003503 0.000000 0.001217 0.000000
# 3 -0.005553 -0.003503 0.012208 0.000000 -0.004836 0.000000
# 4 0.000000 0.000000 0.000000 0.051522 0.000000 0.019905
# 5 -0.002804 0.001217 -0.004836 0.000000 0.033843 0.000000
# 6 0.000000 0.000000 0.000000 0.019905 0.000000 0.036964
#
#
# Mechanical properties :
#
#
# Convention : Reuss Voigt Hill
#
# Bulk Modulus (GPa) = 46.78089 54.81177 50.79633
# Shear Modulus (GPa) = 23.74496 28.50065 26.12281
#
# Velocity S-wave (km/s) = 3.45406 3.78418 3.62288
# Velocity P-wave (km/s) = 6.27791 6.82885 6.55917
#
# Compressibility (1/GPa) = 0.02137625
#
# Stress axis : x y z
#
# Youngs Moduli (GPa) = 42.46183 64.56772 81.91109
#
# Poissons Ratio (x) = 0.37954 0.45489
# Poissons Ratio (y) = 0.24960 0.28697
# Poissons Ratio (z) = 0.23581 0.22621
#
# Static dielectric constant tensor:
#      x y z
#    x 3.344760 0.000000 0.123880 
#    y 0.000000 3.651800 0.000000 
#    z 0.123880 0.000000 3.727580 
# 
# 
# High freq. dielectric constant tensor:
#      x y z
#    x 1.759270 0.000000 0.001410 
#    y 0.000000 1.761360 0.000000 
#    z 0.001410 0.000000 1.799300 
# 
# From -- ./inp_files/77156.got.cif
#   From: 2010.03.12/outbox.cif.g09.slc.cpg/sg14_39_cif.got.tgz:77156.got - 2010.03.31 13:35:05.
