data_PCOD8124300
_publ_section_title
;
Structure prediction by ZEFSAII (Michael W. Deem and Ramdas Pophale) SiO2 
 PCOD8124300
Probable space group: P 21/C
;
_chemical_formula_sum "Si O2"
_cell_formula_units_Z 24
_cell_length_a 14.040253
_cell_length_b 7.631298
_cell_length_c 22.621167
_cell_angle_alpha 90.000000
_cell_angle_beta 153.708119
_cell_angle_gamma 90.000000
_cell_volume 1073.587198
_symmetry_space_group_name_H-M "P 21/C"
_symmetry_group_IT_number 14
_symmetry_cell_setting 'monoclinic'
loop_
_space_group_symop_operation_xyz
x,y,z
-x,1/2+y,1/2-z
-x,-y,-z
x,1/2-y,1/2+z
loop_
_atom_site_type_symbol
_atom_site_label
_atom_site_fract_x
_atom_site_fract_y
_atom_site_fract_z
Si Si1 0.104318 0.819682 0.510697
Si Si2 0.902962 0.339636 0.754604
Si Si3 0.710045 0.469981 0.459109
Si Si4 0.860656 0.958629 0.724293
Si Si5 0.869445 0.697632 0.995328
Si Si6 0.704366 0.644001 0.701012
O O1 0.274452 0.684978 0.579501
O O2 0.035291 0.743777 0.536161
O O3 0.892401 0.844622 0.353418
O O4 0.225927 0.009975 0.580320
O O5 0.748425 0.508800 0.671285
O O6 0.091931 0.370847 0.812502
O O7 0.774429 0.158338 0.668214
O O8 0.997509 0.328170 0.871912
O O9 0.690843 0.653016 0.411122
O O10 0.508275 0.426974 0.386946
O O11 0.917596 0.471418 0.616186
O O12 0.685438 0.838314 0.660993
#
# Coordination Sequence:
#
# PCOD8124300 Si02
#       6
#     4   4   4   4   4   4
#     4   9  19  39  59  80 116 147 182 232 281 327
#     4  10  19  36  59  78 110 150 186 226 283 330
#     4  10  21  36  59  85 112 147 189 228 277 335
#     4  10  20  37  59  80 114 150 180 235 282 328
#     4   9  19  37  59  79 109 152 183 224 281 331
#     4  10  21  37  57  86 111 145 191 232 276 334
#
# _framework density 22.354962
#
# number of rings (size 3 to 8) (size 9 to 14) (size 15 to 20)
#    0.000    2.333    1.667    0.500    0.000    2.000 
#    9.000    0.833    0.000    0.000    0.000    0.000 
#    0.000    0.000    0.000    0.000    0.000    0.000 
#
# Total GULP energy -297349.591693 kJ/mol
# GULP energy per Si atom -12389.566321 kJ/mol
# Density = 2.230408 g / cm^3
# Si number density = 22.354962 Si / 1000 Ang^3
#
#
#
# Elastic Constant Matrix: (Units=GPa)
#
#
# Indices 1 2 3 4 5 6 
#
# 1 147.3000 55.8419 5.8746 0.0000 13.3275 0.0000
# 2 55.8419 145.4267 9.1907 0.0000 9.1366 0.0000
# 3 5.8746 9.1907 25.4132 0.0000 16.4846 0.0000
# 4 0.0000 0.0000 0.0000 9.4179 0.0000 9.5784
# 5 13.3275 9.1366 16.4846 0.0000 24.4353 0.0000
# 6 0.0000 0.0000 0.0000 9.5784 0.0000 49.4704
#
#
#
# Elastic Compliance Matrix: (Units=1/GPa)
#
#
# Indices 1 2 3 4 5 6 
#
# 1 0.008293 -0.003022 0.002448 0.000000 -0.005045 0.000000
# 2 -0.003022 0.008175 -0.002390 0.000000 0.000204 0.000000
# 3 0.002448 -0.002390 0.071007 0.000000 -0.048344 0.000000
# 4 0.000000 0.000000 0.000000 0.132217 0.000000 -0.025600
# 5 -0.005045 0.000204 -0.048344 0.000000 0.076214 0.000000
# 6 0.000000 0.000000 0.000000 -0.025600 0.000000 0.025171
#
#
# Mechanical properties :
#
#
# Convention : Reuss Voigt Hill
#
# Bulk Modulus (GPa) = 12.26283 51.10602 31.68443
# Shear Modulus (GPa) = 14.11680 33.14691 23.63185
#
# Velocity S-wave (km/s) = 2.51566 3.85483 3.25486
# Velocity P-wave (km/s) = 3.73303 6.53634 5.32256
#
# Compressibility (1/GPa) = 0.08154722
#
# Stress axis : x y z
#
# Youngs Moduli (GPa) = 120.57671 122.32272 14.08308
#
# Poissons Ratio (x) = 0.36970 -0.03448
# Poissons Ratio (y) = 0.36443 0.03366
# Poissons Ratio (z) = -0.29523 0.29240
#
# Static dielectric constant tensor:
#      x y z
#    x 4.257340 0.000000 -0.064250 
#    y 0.000000 5.157680 0.000000 
#    z -0.064250 0.000000 3.308010 
# 
# 
# High freq. dielectric constant tensor:
#      x y z
#    x 1.902650 0.000000 -0.007850 
#    y 0.000000 1.908430 0.000000 
#    z -0.007850 0.000000 1.814660 
# 
# From -- ./inp_files/28170.got.cif
#   From: 2010.03.12/outbox.cif.g09.slc.cpg/sg14_15_cif.got.tgz:28170.got - 2010.03.31 13:35:05.
