data_PCOD8124515
_publ_section_title
;
Structure prediction by ZEFSAII (Michael W. Deem and Ramdas Pophale) SiO2 
 PCOD8124515
Probable space group: P 21/C
;
_chemical_formula_sum "Si O2"
_cell_formula_units_Z 28
_cell_length_a 14.464187
_cell_length_b 8.870120
_cell_length_c 21.104800
_cell_angle_alpha 90.000000
_cell_angle_beta 149.862945
_cell_angle_gamma 90.000000
_cell_volume 1359.468561
_symmetry_space_group_name_H-M "P 21/C"
_symmetry_group_IT_number 14
_symmetry_cell_setting 'monoclinic'
loop_
_space_group_symop_operation_xyz
x,y,z
-x,1/2+y,1/2-z
-x,-y,-z
x,1/2-y,1/2+z
loop_
_atom_site_type_symbol
_atom_site_label
_atom_site_fract_x
_atom_site_fract_y
_atom_site_fract_z
Si Si1 0.936588 0.767181 0.078898
Si Si2 0.260663 0.486437 0.453938
Si Si3 0.801407 0.200344 0.874096
Si Si4 0.624580 0.007022 0.227029
Si Si5 0.791243 0.280899 0.004659
Si Si6 0.583454 0.929739 0.339275
Si Si7 0.131341 0.473939 0.237480
O O1 0.026644 0.844167 0.069239
O O2 0.075574 0.647334 0.192058
O O3 0.908480 0.902550 0.111956
O O4 0.740650 0.690205 0.949095
O O5 0.452987 0.411780 0.590294
O O6 0.278408 0.662069 0.484496
O O7 0.241947 0.467583 0.368218
O O8 0.767979 0.375837 0.841155
O O9 0.614852 0.107813 0.747445
O O10 0.857805 0.189524 0.981413
O O11 0.554534 0.911144 0.245909
O O12 0.736490 0.912409 0.240448
O O13 0.956882 0.366492 0.137080
O O14 0.633407 0.401934 0.892233
#
# Coordination Sequence:
#
# PCOD8124515 Si02
#       7
#     4   4   4   4   4   4   4
#     4  10  22  37  63  83 114 156 190 238 295 335
#     4  12  21  37  57  86 118 151 195 238 279 343
#     4  10  19  38  61  89 115 145 193 241 293 343
#     4  10  20  36  62  84 110 155 194 236 286 343
#     4  10  22  37  58  88 116 150 189 237 294 338
#     4  10  19  39  61  85 122 146 185 247 292 341
#     4  10  22  40  58  80 116 158 198 228 281 349
#
# _framework density 20.596284000000001
#
# number of rings (size 3 to 8) (size 9 to 14) (size 15 to 20)
#    0.000    1.714    2.857    2.143    0.000    4.000 
#    2.571    0.000    0.000    3.429    0.000    0.000 
#    0.000    0.000    0.000    0.000    0.000    0.000 
#
# Total GULP energy -347095.050397 kJ/mol
# GULP energy per Si atom -12396.251800 kJ/mol
# Density = 2.054941 g / cm^3
# Si number density = 20.596284 Si / 1000 Ang^3
#
#
#
# Elastic Constant Matrix: (Units=GPa)
#
#
# Indices 1 2 3 4 5 6 
#
# 1 75.6705 21.4666 15.8226 0.0000 -2.7550 0.0000
# 2 21.4666 52.9561 5.9942 0.0000 1.4103 0.0000
# 3 15.8226 5.9942 78.0441 0.0000 -12.7134 0.0000
# 4 0.0000 0.0000 0.0000 16.7160 0.0000 0.4382
# 5 -2.7550 1.4103 -12.7134 0.0000 35.9331 0.0000
# 6 0.0000 0.0000 0.0000 0.4382 0.0000 27.6473
#
#
#
# Elastic Compliance Matrix: (Units=1/GPa)
#
#
# Indices 1 2 3 4 5 6 
#
# 1 0.015476 -0.005993 -0.002595 0.000000 0.000504 0.000000
# 2 -0.005993 0.021431 -0.000682 0.000000 -0.001542 0.000000
# 3 -0.002595 -0.000682 0.014181 0.000000 0.004845 0.000000
# 4 0.000000 0.000000 0.000000 0.059848 0.000000 -0.000949
# 5 0.000504 -0.001542 0.004845 0.000000 0.029643 0.000000
# 6 0.000000 0.000000 0.000000 -0.000949 0.000000 0.036185
#
#
# Mechanical properties :
#
#
# Convention : Reuss Voigt Hill
#
# Bulk Modulus (GPa) = 30.72449 32.58196 31.65322
# Shear Modulus (GPa) = 24.25358 26.95176 25.60267
#
# Velocity S-wave (km/s) = 3.43530 3.62135 3.52955
# Velocity P-wave (km/s) = 5.53940 5.77401 5.65792
#
# Compressibility (1/GPa) = 0.03254733
#
# Stress axis : x y z
#
# Youngs Moduli (GPa) = 64.61446 46.66072 70.51636
#
# Poissons Ratio (x) = 0.27965 0.18301
# Poissons Ratio (y) = 0.38725 0.04810
# Poissons Ratio (z) = 0.16770 0.03183
#
# Static dielectric constant tensor:
#      x y z
#    x 3.850030 0.000000 0.022820 
#    y 0.000000 3.510160 0.000000 
#    z 0.022820 0.000000 3.676230 
# 
# 
# High freq. dielectric constant tensor:
#      x y z
#    x 1.803290 0.000000 0.002300 
#    y 0.000000 1.785830 0.000000 
#    z 0.002300 0.000000 1.808000 
# 
# From -- ./inp_files/43283.got.cif
#   From: 2010.03.12/outbox.cif.g09.slc.cpg/sg14_22_cif.got.tgz:43283.got - 2010.03.31 13:35:05.
