data_PCOD8124423
_publ_section_title
;
Structure prediction by ZEFSAII (Michael W. Deem and Ramdas Pophale) SiO2 
 PCOD8124423
Probable space group: P 21/C
;
_chemical_formula_sum "Si O2"
_cell_formula_units_Z 32
_cell_length_a 14.413153
_cell_length_b 11.699541
_cell_length_c 16.806172
_cell_angle_alpha 90.000000
_cell_angle_beta 149.096744
_cell_angle_gamma 90.000000
_cell_volume 1455.503301
_symmetry_space_group_name_H-M "P 21/C"
_symmetry_group_IT_number 14
_symmetry_cell_setting 'monoclinic'
loop_
_space_group_symop_operation_xyz
x,y,z
-x,1/2+y,1/2-z
-x,-y,-z
x,1/2-y,1/2+z
loop_
_atom_site_type_symbol
_atom_site_label
_atom_site_fract_x
_atom_site_fract_y
_atom_site_fract_z
Si Si1 0.328968 0.626824 0.047890
Si Si2 0.751248 0.048221 0.946301
Si Si3 0.442008 0.240079 0.991063
Si Si4 0.261535 0.660120 0.405914
Si Si5 0.402017 0.965561 0.328486
Si Si6 0.635836 0.805379 0.889662
Si Si7 0.850975 0.889328 0.758794
Si Si8 0.131979 0.409860 0.913508
O O1 0.458038 0.568886 0.077416
O O2 0.448743 0.692963 0.202334
O O3 0.213755 0.718235 0.912051
O O4 0.195931 0.534435 0.993383
O O5 0.627274 0.088000 0.781362
O O6 0.764022 0.909862 0.954492
O O7 0.668698 0.078814 0.971520
O O8 0.936901 0.116781 0.069574
O O9 0.576763 0.163064 0.038504
O O10 0.522869 0.367298 0.060133
O O11 0.409747 0.177466 0.050807
O O12 0.251183 0.266160 0.804272
O O13 0.081050 0.612280 0.230091
O O14 0.219951 0.013033 0.233940
O O15 0.749018 0.689358 0.957695
O O16 0.818528 0.920198 0.642789
#
# Coordination Sequence:
#
# PCOD8124423 Si02
#       8
#     4   4   4   4   4   4   4   4
#     4  11  21  40  65  90 121 163 210 258 314 366
#     4  10  24  38  60  92 127 160 203 254 319 373
#     4  11  21  38  61  90 121 164 204 256 304 377
#     4  11  24  38  64  90 125 167 205 253 319 371
#     4  11  19  36  64  91 120 150 209 267 308 346
#     4  10  23  39  64  85 128 164 203 258 314 376
#     4  10  19  37  60  94 118 150 208 267 302 347
#     4  10  23  39  60  94 124 160 212 257 314 370
#
# _framework density 21.985522
#
# number of rings (size 3 to 8) (size 9 to 14) (size 15 to 20)
#    0.000    1.500    3.750    2.250    7.000    0.500 
#    0.000    0.625    0.000    0.000    0.000    0.000 
#    0.000    0.000    0.000    0.000    0.000    0.000 
#
# Total GULP energy -396584.329009 kJ/mol
# GULP energy per Si atom -12393.260282 kJ/mol
# Density = 2.193548 g / cm^3
# Si number density = 21.985522 Si / 1000 Ang^3
#
#
#
# Elastic Constant Matrix: (Units=GPa)
#
#
# Indices 1 2 3 4 5 6 
#
# 1 66.5984 -5.5041 15.1319 0.0000 8.8471 0.0000
# 2 -5.5041 59.8855 16.9922 0.0000 -4.9965 0.0000
# 3 15.1319 16.9922 89.2045 0.0000 -3.3982 0.0000
# 4 0.0000 0.0000 0.0000 36.9341 0.0000 -0.7156
# 5 8.8471 -4.9965 -3.3982 0.0000 28.5133 0.0000
# 6 0.0000 0.0000 0.0000 -0.7156 0.0000 35.8080
#
#
#
# Elastic Compliance Matrix: (Units=1/GPa)
#
#
# Indices 1 2 3 4 5 6 
#
# 1 0.016655 0.002065 -0.003417 0.000000 -0.005213 0.000000
# 2 0.002065 0.018119 -0.003722 0.000000 0.002091 0.000000
# 3 -0.003417 -0.003722 0.012571 0.000000 0.001906 0.000000
# 4 0.000000 0.000000 0.000000 0.027086 0.000000 0.000541
# 5 -0.005213 0.002091 0.001906 0.000000 0.037282 0.000000
# 6 0.000000 0.000000 0.000000 0.000541 0.000000 0.027938
#
#
# Mechanical properties :
#
#
# Convention : Reuss Voigt Hill
#
# Bulk Modulus (GPa) = 26.88344 29.88093 28.38218
# Shear Modulus (GPa) = 30.82651 32.85566 31.84109
#
# Velocity S-wave (km/s) = 3.74856 3.86997 3.80975
# Velocity P-wave (km/s) = 5.56686 5.79565 5.68241
#
# Compressibility (1/GPa) = 0.03719762
#
# Stress axis : x y z
#
# Youngs Moduli (GPa) = 60.04194 55.19092 79.54505
#
# Poissons Ratio (x) = -0.11399 0.27182
# Poissons Ratio (y) = -0.12401 0.29608
# Poissons Ratio (z) = 0.20518 0.20543
#
# Static dielectric constant tensor:
#      x y z
#    x 3.853690 0.000000 0.006850 
#    y 0.000000 3.971580 0.000000 
#    z 0.006850 0.000000 4.108650 
# 
# 
# High freq. dielectric constant tensor:
#      x y z
#    x 1.847110 0.000000 -0.000220 
#    y 0.000000 1.855380 0.000000 
#    z -0.000220 0.000000 1.864570 
# 
# From -- ./inp_files/59484.got.cif
#   From: 2010.03.12/outbox.cif.g09.slc.cpg/sg14_30_cif.got.tgz:59484.got - 2010.03.31 13:35:05.
