data_PCOD8124607
_publ_section_title
;
Structure prediction by ZEFSAII (Michael W. Deem and Ramdas Pophale) SiO2 
 PCOD8124607
Probable space group: P 21/C
;
_chemical_formula_sum "Si O2"
_cell_formula_units_Z 28
_cell_length_a 8.752243
_cell_length_b 11.525772
_cell_length_c 14.201703
_cell_angle_alpha 90.000000
_cell_angle_beta 65.122873
_cell_angle_gamma 90.000000
_cell_volume 1299.686520
_symmetry_space_group_name_H-M "P 21/C"
_symmetry_group_IT_number 14
_symmetry_cell_setting 'monoclinic'
loop_
_space_group_symop_operation_xyz
x,y,z
-x,1/2+y,1/2-z
-x,-y,-z
x,1/2-y,1/2+z
loop_
_atom_site_type_symbol
_atom_site_label
_atom_site_fract_x
_atom_site_fract_y
_atom_site_fract_z
Si Si1 0.180990 0.041774 0.487290
Si Si2 0.482421 0.420353 0.775384
Si Si3 0.763385 0.499147 0.823390
Si Si4 0.542839 0.064842 0.894337
Si Si5 0.263748 0.235691 0.757297
Si Si6 0.870383 0.556250 0.331253
Si Si7 0.233367 0.199636 0.970166
O O1 0.317254 0.025652 0.369651
O O2 0.232544 0.969633 0.566931
O O3 0.176008 0.175450 0.522756
O O4 0.000000 0.000000 0.500000
O O5 0.636613 0.408103 0.808127
O O6 0.538373 0.503333 0.676037
O O7 0.440585 0.293276 0.744935
O O8 0.695434 0.629646 0.822282
O O9 0.944603 0.491514 0.728965
O O10 0.441183 0.187369 0.923486
O O11 0.746894 0.053414 0.836634
O O12 0.500000 0.000000 0.000000
O O13 0.158511 0.335742 0.731738
O O14 0.170820 0.191452 0.877238
O O15 0.849511 0.599140 0.444666
#
# Coordination Sequence:
#
# PCOD8124607 Si02
#       7
#     4   4   4   4   4   4   4
#     4  11  23  42  68  94 135 177 215 270 329 393
#     4  10  22  41  65  90 129 170 220 266 324 386
#     4  12  22  42  67  96 130 172 219 272 326 395
#     4   9  18  37  64  90 127 171 206 269 326 373
#     4  10  21  41  61  92 129 166 213 269 323 378
#     4  10  22  40  65  94 131 166 218 268 331 386
#     4  10  19  39  65  92 127 168 214 265 323 383
#
# _framework density 21.543658000000001
#
# number of rings (size 3 to 8) (size 9 to 14) (size 15 to 20)
#    0.000    1.714    2.857    3.000    0.000    0.571 
#    7.714    0.000    0.000    0.000    0.000    0.000 
#    0.000    0.000    0.000    0.000    0.000    0.000 
#
# Total GULP energy -346892.506855 kJ/mol
# GULP energy per Si atom -12389.018102 kJ/mol
# Density = 2.149462 g / cm^3
# Si number density = 21.543658 Si / 1000 Ang^3
#
#
#
# Elastic Constant Matrix: (Units=GPa)
#
#
# Indices 1 2 3 4 5 6 
#
# 1 133.4534 43.1105 41.8574 0.0000 4.9358 0.0000
# 2 43.1105 73.8984 9.5812 0.0000 -2.5729 0.0000
# 3 41.8574 9.5812 108.4839 0.0000 14.9358 0.0000
# 4 0.0000 0.0000 0.0000 29.4196 0.0000 4.5109
# 5 4.9358 -2.5729 14.9358 0.0000 40.6288 0.0000
# 6 0.0000 0.0000 0.0000 4.5109 0.0000 34.2272
#
#
#
# Elastic Compliance Matrix: (Units=1/GPa)
#
#
# Indices 1 2 3 4 5 6 
#
# 1 0.010417 -0.005639 -0.003474 0.000000 -0.000346 0.000000
# 2 -0.005639 0.016815 0.000474 0.000000 0.001576 0.000000
# 3 -0.003474 0.000474 0.011012 0.000000 -0.003596 0.000000
# 4 0.000000 0.000000 0.000000 0.034692 0.000000 -0.004572
# 5 -0.000346 0.001576 -0.003596 0.000000 0.026077 0.000000
# 6 0.000000 0.000000 0.000000 -0.004572 0.000000 0.029819
#
#
# Mechanical properties :
#
#
# Convention : Reuss Voigt Hill
#
# Bulk Modulus (GPa) = 47.69639 56.10377 51.90008
# Shear Modulus (GPa) = 32.65883 35.60755 34.13319
#
# Velocity S-wave (km/s) = 3.89773 4.06989 3.98474
# Velocity P-wave (km/s) = 6.51489 6.94145 6.73155
#
# Compressibility (1/GPa) = 0.02096595
#
# Stress axis : x y z
#
# Youngs Moduli (GPa) = 95.99611 59.47054 90.81392
#
# Poissons Ratio (x) = 0.33534 0.31546
# Poissons Ratio (y) = 0.54129 -0.04301
# Poissons Ratio (z) = 0.33347 -0.02817
#
# Static dielectric constant tensor:
#      x y z
#    x 3.712790 0.000000 0.132210 
#    y 0.000000 3.850590 0.000000 
#    z 0.132210 0.000000 4.089980 
# 
# 
# High freq. dielectric constant tensor:
#      x y z
#    x 1.835120 0.000000 0.024840 
#    y 0.000000 1.819150 0.000000 
#    z 0.024840 0.000000 1.865770 
# 
# From -- ./inp_files/40018.got.cif
#   From: 2010.03.12/outbox.cif.g09.slc.cpg/sg14_21_cif.got.tgz:40018.got - 2010.03.31 13:35:05.
