data_PCOD8124140
_publ_section_title
;
Structure prediction by ZEFSAII (Michael W. Deem and Ramdas Pophale) SiO2 
 PCOD8124140
Probable space group: P 21/C
;
_chemical_formula_sum "Si O2"
_cell_formula_units_Z 32
_cell_length_a 8.350224
_cell_length_b 19.578379
_cell_length_c 11.204363
_cell_angle_alpha 90.000000
_cell_angle_beta 63.624320
_cell_angle_gamma 90.000000
_cell_volume 1641.049812
_symmetry_space_group_name_H-M "P 21/C"
_symmetry_group_IT_number 14
_symmetry_cell_setting 'monoclinic'
loop_
_space_group_symop_operation_xyz
x,y,z
-x,1/2+y,1/2-z
-x,-y,-z
x,1/2-y,1/2+z
loop_
_atom_site_type_symbol
_atom_site_label
_atom_site_fract_x
_atom_site_fract_y
_atom_site_fract_z
Si Si1 0.533021 0.338330 0.396989
Si Si2 0.312282 0.699473 0.174061
Si Si3 0.680330 0.413360 0.142325
Si Si4 0.254258 0.225083 0.822289
Si Si5 0.500693 0.148261 0.181185
Si Si6 0.758870 0.936507 0.600788
Si Si7 0.617809 0.869081 0.422976
Si Si8 0.040558 0.670043 0.074211
O O1 0.685708 0.281275 0.329112
O O2 0.598838 0.403630 0.300360
O O3 0.341215 0.311217 0.409736
O O4 0.528751 0.364579 0.533094
O O5 0.318058 0.668613 0.306830
O O6 0.130461 0.673128 0.174960
O O7 0.496359 0.680747 0.043327
O O8 0.795905 0.482618 0.096141
O O9 0.515077 0.419070 0.104844
O O10 0.801897 0.346490 0.072510
O O11 0.368510 0.288823 0.741544
O O12 0.253629 0.172760 0.710617
O O13 0.059660 0.257549 0.920406
O O14 0.424485 0.079548 0.267368
O O15 0.746383 0.913023 0.466506
O O16 0.912970 0.895537 0.617738
#
# Coordination Sequence:
#
# PCOD8124140 Si02
#       8
#     4   4   4   4   4   4   4   4
#     4  10  19  35  55  77 109 144 182 229 263 328
#     4   9  18  33  52  78 107 134 180 223 282 317
#     4  10  21  35  55  81 112 150 184 215 270 327
#     4   9  18  33  55  80 109 133 181 229 282 316
#     4   9  18  33  56  76 103 146 181 230 263 317
#     4  10  20  35  55  81 111 148 185 220 264 327
#     4   9  17  34  58  80 104 139 186 230 261 319
#     4  10  21  34  52  81 110 144 168 231 277 325
#
# _framework density 19.499713
#
# number of rings (size 3 to 8) (size 9 to 14) (size 15 to 20)
#    0.000    2.500    1.250    1.500    1.750    1.500 
#    2.250    0.000    0.000    0.750    0.000    0.000 
#    0.000    0.000    0.000    0.000    0.000    0.000 
#
# Total GULP energy -396550.210606 kJ/mol
# GULP energy per Si atom -12392.194081 kJ/mol
# Density = 1.945533 g / cm^3
# Si number density = 19.499713 Si / 1000 Ang^3
#
#
#
# Elastic Constant Matrix: (Units=GPa)
#
#
# Indices 1 2 3 4 5 6 
#
# 1 101.1499 24.6343 42.8061 0.0000 18.7659 0.0000
# 2 24.6343 65.4995 31.8042 0.0000 6.1116 0.0000
# 3 42.8061 31.8042 104.5048 0.0000 32.4838 0.0000
# 4 0.0000 0.0000 0.0000 21.4892 0.0000 -1.5918
# 5 18.7659 6.1116 32.4838 0.0000 27.6567 0.0000
# 6 0.0000 0.0000 0.0000 -1.5918 0.0000 23.9980
#
#
#
# Elastic Compliance Matrix: (Units=1/GPa)
#
#
# Indices 1 2 3 4 5 6 
#
# 1 0.012666 -0.002943 -0.002872 0.000000 -0.004571 0.000000
# 2 -0.002943 0.018863 -0.006080 0.000000 0.004969 0.000000
# 3 -0.002872 -0.006080 0.018226 0.000000 -0.018116 0.000000
# 4 0.000000 0.000000 0.000000 0.046765 0.000000 0.003102
# 5 -0.004571 0.004969 -0.018116 0.000000 0.059438 0.000000
# 6 0.000000 0.000000 0.000000 0.003102 0.000000 0.041876
#
#
# Mechanical properties :
#
#
# Convention : Reuss Voigt Hill
#
# Bulk Modulus (GPa) = 38.51094 52.18260 45.34677
# Shear Modulus (GPa) = 21.71281 26.08942 23.90112
#
# Velocity S-wave (km/s) = 3.34053 3.66175 3.50482
# Velocity P-wave (km/s) = 5.88822 6.68556 6.29952
#
# Compressibility (1/GPa) = 0.02596665
#
# Stress axis : x y z
#
# Youngs Moduli (GPa) = 78.94884 53.01520 54.86534
#
# Poissons Ratio (x) = 0.15602 0.15756
# Poissons Ratio (y) = 0.23234 0.33357
# Poissons Ratio (z) = 0.22672 0.32232
#
# Static dielectric constant tensor:
#      x y z
#    x 3.673080 0.000000 0.186500 
#    y 0.000000 3.378060 0.000000 
#    z 0.186500 0.000000 3.480110 
# 
# 
# High freq. dielectric constant tensor:
#      x y z
#    x 1.753660 0.000000 0.023480 
#    y 0.000000 1.738520 0.000000 
#    z 0.023480 0.000000 1.742240 
# 
# From -- ./inp_files/26441.got.cif
#   From: 2010.03.12/outbox.cif.g09.slc.cpg/sg14_14_cif.got.tgz:26441.got - 2010.03.31 13:35:05.
