data_PCOD8124815
_publ_section_title
;
Structure prediction by ZEFSAII (Michael W. Deem and Ramdas Pophale) SiO2 
 PCOD8124815
Probable space group: P 21/C
;
_chemical_formula_sum "Si O2"
_cell_formula_units_Z 20
_cell_length_a 11.971856
_cell_length_b 9.447463
_cell_length_c 8.927916
_cell_angle_alpha 90.000000
_cell_angle_beta 70.132911
_cell_angle_gamma 90.000000
_cell_volume 949.681449
_symmetry_space_group_name_H-M "P 21/C"
_symmetry_group_IT_number 14
_symmetry_cell_setting 'monoclinic'
loop_
_space_group_symop_operation_xyz
x,y,z
-x,1/2+y,1/2-z
-x,-y,-z
x,1/2-y,1/2+z
loop_
_atom_site_type_symbol
_atom_site_label
_atom_site_fract_x
_atom_site_fract_y
_atom_site_fract_z
Si Si1 0.376972 0.672502 0.549783
Si Si2 0.515637 0.993602 0.748023
Si Si3 0.662933 0.995427 0.411681
Si Si4 0.885898 0.142158 0.914854
Si Si5 0.916318 0.071476 0.242025
O O1 0.418649 0.618531 0.692836
O O2 0.471833 0.627294 0.381085
O O3 0.368484 0.839228 0.560333
O O4 0.247977 0.607016 0.572527
O O5 0.404511 0.060886 0.705829
O O6 0.609630 0.923767 0.586668
O O7 0.803632 0.971914 0.335280
O O8 0.928343 0.298924 0.850883
O O9 0.897284 0.136716 0.087446
O O10 0.967401 0.024440 0.798437
#
# Coordination Sequence:
#
# PCOD8124815 Si02
#       5
#     4   4   4   4   4
#     4  10  20  37  59  85 114 158 190 241 295 357
#     4  10  20  34  58  84 114 146 198 232 286 352
#     4  10  20  37  59  85 114 158 190 241 295 357
#     4  10  22  41  64  89 120 158 202 247 297 357
#     4  10  22  41  64  89 120 158 202 247 297 357
#
# _framework density 21.059691999999998
#
# number of rings (size 3 to 8) (size 9 to 14) (size 15 to 20)
#    0.000    2.000    2.000    1.200    8.400    0.800 
#    0.000   12.000    0.000    0.000    0.000    0.000 
#    0.000    0.000    0.000    0.000    0.000    0.000 
#
# Total GULP energy -247997.760709 kJ/mol
# GULP energy per Si atom -12399.888035 kJ/mol
# Density = 2.101176 g / cm^3
# Si number density = 21.059692 Si / 1000 Ang^3
#
#
#
# Elastic Constant Matrix: (Units=GPa)
#
#
# Indices 1 2 3 4 5 6 
#
# 1 123.6391 40.3736 37.8348 0.0000 -7.1458 0.0000
# 2 40.3736 24.9959 -3.3519 0.0000 -4.9710 0.0000
# 3 37.8348 -3.3519 85.9397 0.0000 -4.3401 0.0000
# 4 0.0000 0.0000 0.0000 28.5265 0.0000 -5.7915
# 5 -7.1458 -4.9710 -4.3401 0.0000 35.4275 0.0000
# 6 0.0000 0.0000 0.0000 -5.7915 0.0000 27.3868
#
#
#
# Elastic Compliance Matrix: (Units=1/GPa)
#
#
# Indices 1 2 3 4 5 6 
#
# 1 0.027619 -0.047056 -0.014134 0.000000 -0.002763 0.000000
# 2 -0.047056 0.121639 0.026004 0.000000 0.010762 0.000000
# 3 -0.014134 0.026004 0.019031 0.000000 0.003129 0.000000
# 4 0.000000 0.000000 0.000000 0.036628 0.000000 0.007746
# 5 -0.002763 0.010762 0.003129 0.000000 0.029563 0.000000
# 6 0.000000 0.000000 0.000000 0.007746 0.000000 0.038152
#
#
# Mechanical properties :
#
#
# Convention : Reuss Voigt Hill
#
# Bulk Modulus (GPa) = 10.21271 42.69864 26.45568
# Shear Modulus (GPa) = 13.31050 28.91604 21.11327
#
# Velocity S-wave (km/s) = 2.51676 3.70949 3.16973
# Velocity P-wave (km/s) = 3.64766 6.21821 5.09762
#
# Compressibility (1/GPa) = 0.09791716
#
# Stress axis : x y z
#
# Youngs Moduli (GPa) = 36.20642 8.22104 52.54607
#
# Poissons Ratio (x) = 0.38685 0.74270
# Poissons Ratio (y) = 1.70373 -1.36641
# Poissons Ratio (z) = 0.51175 -0.21378
#
# Static dielectric constant tensor:
#      x y z
#    x 4.099720 0.000000 -0.137970 
#    y 0.000000 3.451550 0.000000 
#    z -0.137970 0.000000 4.154310 
# 
# 
# High freq. dielectric constant tensor:
#      x y z
#    x 1.828600 0.000000 -0.004240 
#    y 0.000000 1.792930 0.000000 
#    z -0.004240 0.000000 1.847860 
# 
# From -- ./inp_files/11763.got.cif
#   From: 2010.03.12/outbox.cif.g09.slc.cpg/sg14_6_cif.got.tgz:11763.got - 2010.03.31 13:35:05.
