data_PCOD8124464
_publ_section_title
;
Structure prediction by ZEFSAII (Michael W. Deem and Ramdas Pophale) SiO2 
 PCOD8124464
Probable space group: P 21/C
;
_chemical_formula_sum "Si O2"
_cell_formula_units_Z 24
_cell_length_a 24.304542
_cell_length_b 11.025121
_cell_length_c 18.716609
_cell_angle_alpha 90.000000
_cell_angle_beta 13.037984
_cell_angle_gamma 90.000000
_cell_volume 1131.439186
_symmetry_space_group_name_H-M "P 21/C"
_symmetry_group_IT_number 14
_symmetry_cell_setting 'monoclinic'
loop_
_space_group_symop_operation_xyz
x,y,z
-x,1/2+y,1/2-z
-x,-y,-z
x,1/2-y,1/2+z
loop_
_atom_site_type_symbol
_atom_site_label
_atom_site_fract_x
_atom_site_fract_y
_atom_site_fract_z
Si Si1 0.628771 0.159790 0.904485
Si Si2 0.109791 0.890424 0.703791
Si Si3 0.584597 0.928140 0.323366
Si Si4 0.929747 0.780887 0.558747
Si Si5 0.441109 0.591018 0.659588
Si Si6 0.764253 0.552325 0.836584
O O1 0.705269 0.135484 0.725411
O O2 0.861337 0.150069 0.662208
O O3 0.512949 0.292057 0.055973
O O4 0.435783 0.055837 0.172278
O O5 0.314398 0.846884 0.388680
O O6 0.218018 0.012392 0.603614
O O7 0.875346 0.926916 0.953884
O O8 0.047338 0.788321 0.841763
O O9 0.500000 0.000000 0.500000
O O10 0.485861 0.999628 0.379605
O O11 0.782208 0.695472 0.801312
O O12 0.725923 0.873679 0.789250
O O13 0.000000 0.500000 0.500000
#
# Coordination Sequence:
#
# PCOD8124464 Si02
#       6
#     4   4   4   4   4   4
#     4  11  23  44  63  89 140 175 206 275 334 391
#     4  11  23  40  64 100 124 168 229 271 323 400
#     4  12  19  40  69  93 126 170 213 275 320 377
#     4  11  21  44  69  91 129 173 217 277 326 389
#     4  11  26  43  61  97 135 177 216 262 344 399
#     4  10  19  37  65  94 119 158 222 273 322 375
#
# _framework density 21.211922000000001
#
# number of rings (size 3 to 8) (size 9 to 14) (size 15 to 20)
#    0.000    1.000    8.333    0.500    0.000    2.667 
#    9.000    0.000    0.000    0.000    0.000    0.000 
#    0.000    0.000    0.000    0.000    0.000    0.000 
#
# Total GULP energy -297512.747381 kJ/mol
# GULP energy per Si atom -12396.364474 kJ/mol
# Density = 2.116364 g / cm^3
# Si number density = 21.211922 Si / 1000 Ang^3
#
#
#
# Elastic Constant Matrix: (Units=GPa)
#
#
# Indices 1 2 3 4 5 6 
#
# 1 109.8788 2.9704 63.5946 0.0000 -7.1055 0.0000
# 2 2.9704 62.1838 12.6272 0.0000 1.9207 0.0000
# 3 63.5946 12.6272 87.0592 0.0000 -8.3212 0.0000
# 4 0.0000 0.0000 0.0000 26.1965 0.0000 -10.1056
# 5 -7.1055 1.9207 -8.3212 0.0000 46.6604 0.0000
# 6 0.0000 0.0000 0.0000 -10.1056 0.0000 32.3350
#
#
#
# Elastic Compliance Matrix: (Units=1/GPa)
#
#
# Indices 1 2 3 4 5 6 
#
# 1 0.015932 0.001638 -0.011852 0.000000 0.000245 0.000000
# 2 0.001638 0.016797 -0.003739 0.000000 -0.001109 0.000000
# 3 -0.011852 -0.003739 0.020885 0.000000 0.002074 0.000000
# 4 0.000000 0.000000 0.000000 0.043406 0.000000 0.013566
# 5 0.000245 -0.001109 0.002074 0.000000 0.021884 0.000000
# 6 0.000000 0.000000 0.000000 0.013566 0.000000 0.035166
#
#
# Mechanical properties :
#
#
# Convention : Reuss Voigt Hill
#
# Bulk Modulus (GPa) = 38.89897 46.38961 42.64429
# Shear Modulus (GPa) = 26.24051 33.03367 29.63709
#
# Velocity S-wave (km/s) = 3.52101 3.95057 3.74196
# Velocity P-wave (km/s) = 5.90830 6.53654 6.23035
#
# Compressibility (1/GPa) = 0.02570762
#
# Stress axis : x y z
#
# Youngs Moduli (GPa) = 62.76571 59.53598 47.88187
#
# Poissons Ratio (x) = -0.09753 0.56751
# Poissons Ratio (y) = -0.10282 0.17902
# Poissons Ratio (z) = 0.74392 0.22259
#
# Static dielectric constant tensor:
#      x y z
#    x 4.574040 0.000000 -0.356410 
#    y 0.000000 4.208270 0.000000 
#    z -0.356410 0.000000 3.683660 
# 
# 
# High freq. dielectric constant tensor:
#      x y z
#    x 1.838050 0.000000 -0.028260 
#    y 0.000000 1.833980 0.000000 
#    z -0.028260 0.000000 1.810680 
# 
# From -- ./inp_files/70574.got.cif
#   From: 2010.03.12/outbox.cif.g09.slc.cpg/sg14_36_cif.got.tgz:70574.got - 2010.03.31 13:35:05.
