data_PCOD8124761
_publ_section_title
;
Structure prediction by ZEFSAII (Michael W. Deem and Ramdas Pophale) SiO2 
 PCOD8124761
Probable space group: P 21/C
;
_chemical_formula_sum "Si O2"
_cell_formula_units_Z 24
_cell_length_a 9.329093
_cell_length_b 7.769997
_cell_length_c 20.967024
_cell_angle_alpha 90.000000
_cell_angle_beta 40.024662
_cell_angle_gamma 90.000000
_cell_volume 977.433558
_symmetry_space_group_name_H-M "P 21/C"
_symmetry_group_IT_number 14
_symmetry_cell_setting 'monoclinic'
loop_
_space_group_symop_operation_xyz
x,y,z
-x,1/2+y,1/2-z
-x,-y,-z
x,1/2-y,1/2+z
loop_
_atom_site_type_symbol
_atom_site_label
_atom_site_fract_x
_atom_site_fract_y
_atom_site_fract_z
Si Si1 0.129495 0.328185 0.629385
Si Si2 0.842250 0.033258 0.112359
Si Si3 0.708229 0.346320 0.087979
Si Si4 0.987216 0.562626 0.193158
Si Si5 0.790715 0.659542 0.137289
Si Si6 0.569459 0.314426 0.998246
O O1 0.083474 0.425559 0.710356
O O2 0.399641 0.328195 0.526767
O O3 0.000751 0.429155 0.618440
O O4 0.063980 0.129986 0.653260
O O5 0.680871 0.194499 0.150829
O O6 0.700310 0.856821 0.169484
O O7 0.000000 0.000000 0.000000
O O8 0.643735 0.530130 0.143231
O O9 0.547594 0.309869 0.083050
O O10 0.959544 0.350458 0.975988
O O11 0.786625 0.598307 0.212239
O O12 0.178656 0.708201 0.113189
O O13 0.500000 0.500000 0.000000
#
# Coordination Sequence:
#
# PCOD8124761 Si02
#       6
#     4   4   4   4   4   4
#     4  11  21  39  64  93 130 165 221 267 325 388
#     4  10  20  33  60  93 120 168 211 255 314 391
#     4   9  17  35  59  86 122 158 209 256 314 383
#     4  10  20  38  63  93 126 171 209 270 327 380
#     4   9  17  32  60  87 117 163 206 249 318 376
#     4   9  21  37  66  91 123 168 214 264 329 379
#
# _framework density 24.554096000000001
#
# number of rings (size 3 to 8) (size 9 to 14) (size 15 to 20)
#    0.000    2.333    1.667    1.000    7.000    0.000 
#    0.000   13.333   11.000    2.000    0.000    0.000 
#    0.000    0.000    0.000    0.000    0.000    0.000 
#
# Total GULP energy -297412.053382 kJ/mol
# GULP energy per Si atom -12392.168891 kJ/mol
# Density = 2.449821 g / cm^3
# Si number density = 24.554096 Si / 1000 Ang^3
#
#
#
# Elastic Constant Matrix: (Units=GPa)
#
#
# Indices 1 2 3 4 5 6 
#
# 1 116.9336 52.2790 14.8999 0.0000 29.0432 0.0000
# 2 52.2790 148.1154 20.8704 0.0000 13.7623 0.0000
# 3 14.8999 20.8704 34.1706 0.0000 18.9911 0.0000
# 4 0.0000 0.0000 0.0000 30.0931 0.0000 10.6589
# 5 29.0432 13.7623 18.9911 0.0000 37.3762 0.0000
# 6 0.0000 0.0000 0.0000 10.6589 0.0000 31.1562
#
#
#
# Elastic Compliance Matrix: (Units=1/GPa)
#
#
# Indices 1 2 3 4 5 6 
#
# 1 0.012251 -0.003761 0.002057 0.000000 -0.009180 0.000000
# 2 -0.003761 0.008551 -0.004818 0.000000 0.002222 0.000000
# 3 0.002057 -0.004818 0.043496 0.000000 -0.021925 0.000000
# 4 0.000000 0.000000 0.000000 0.037812 0.000000 -0.012936
# 5 -0.009180 0.002222 -0.021925 0.000000 0.044211 0.000000
# 6 0.000000 0.000000 0.000000 -0.012936 0.000000 0.036522
#
#
# Mechanical properties :
#
#
# Convention : Reuss Voigt Hill
#
# Bulk Modulus (GPa) = 19.51013 52.81312 36.16163
# Shear Modulus (GPa) = 23.47726 33.80313 28.64020
#
# Velocity S-wave (km/s) = 3.09551 3.71439 3.41898
# Velocity P-wave (km/s) = 4.55404 6.32069 5.50865
#
# Compressibility (1/GPa) = 0.05125542
#
# Stress axis : x y z
#
# Youngs Moduli (GPa) = 81.62307 116.93930 22.99069
#
# Poissons Ratio (x) = 0.43983 -0.04730
# Poissons Ratio (y) = 0.30700 0.11076
# Poissons Ratio (z) = -0.16792 0.56339
#
# Static dielectric constant tensor:
#      x y z
#    x -1.683680 0.000000 -0.120360 
#    y 0.000000 5.542510 0.000000 
#    z -0.120360 0.000000 4.387140 
# 
# 
# High freq. dielectric constant tensor:
#      x y z
#    x 1.977210 0.000000 0.014910 
#    y 0.000000 1.986550 0.000000 
#    z 0.014910 0.000000 1.957110 
# 
# From -- ./inp_files/71879.got.cif
#   From: 2010.03.12/outbox.cif.g09.slc.cpg/sg14_36_cif.got.tgz:71879.got - 2010.03.31 13:35:05.
