data_PCOD8124536
_publ_section_title
;
Structure prediction by ZEFSAII (Michael W. Deem and Ramdas Pophale) SiO2 
 PCOD8124536
Probable space group: P 21/C
;
_chemical_formula_sum "Si O2"
_cell_formula_units_Z 32
_cell_length_a 9.112083
_cell_length_b 11.221493
_cell_length_c 13.990085
_cell_angle_alpha 90.000000
_cell_angle_beta 104.616963
_cell_angle_gamma 90.000000
_cell_volume 1384.203705
_symmetry_space_group_name_H-M "P 21/C"
_symmetry_group_IT_number 14
_symmetry_cell_setting 'monoclinic'
loop_
_space_group_symop_operation_xyz
x,y,z
-x,1/2+y,1/2-z
-x,-y,-z
x,1/2-y,1/2+z
loop_
_atom_site_type_symbol
_atom_site_label
_atom_site_fract_x
_atom_site_fract_y
_atom_site_fract_z
Si Si1 0.645365 0.433449 0.750749
Si Si2 0.603594 0.714347 0.087772
Si Si3 0.682196 0.845956 0.808724
Si Si4 0.404970 0.385299 0.108407
Si Si5 0.748851 0.548404 0.589423
Si Si6 0.741057 0.198346 0.685081
Si Si7 0.715363 0.314653 0.484569
Si Si8 0.101473 0.559540 0.639340
O O1 0.475244 0.407073 0.687359
O O2 0.645867 0.485225 0.859347
O O3 0.714667 0.538191 0.696651
O O4 0.746121 0.315457 0.754168
O O5 0.691188 0.670524 0.195378
O O6 0.686732 0.823755 0.047295
O O7 0.607097 0.609825 0.008766
O O8 0.431861 0.752609 0.087265
O O9 0.699368 0.718771 0.863481
O O10 0.816232 0.932972 0.865497
O O11 0.578048 0.363723 0.168484
O O12 0.663090 0.441277 0.520893
O O13 0.925870 0.536758 0.594307
O O14 0.780369 0.232859 0.582017
O O15 0.865707 0.107221 0.747617
O O16 0.840275 0.338372 0.424172
#
# Coordination Sequence:
#
# PCOD8124536 Si02
#       8
#     4   4   4   4   4   4   4   4
#     4  10  19  39  61  85 121 158 207 253 309 358
#     4  11  22  38  63  98 120 157 212 268 310 369
#     4  11  22  38  67  91 125 162 208 262 316 366
#     4  10  19  38  63  92 119 158 207 265 310 363
#     4  11  23  39  63  93 126 165 208 259 306 380
#     4   9  21  38  62  93 120 167 208 260 311 368
#     4  10  21  41  65  90 123 166 219 258 307 362
#     4  12  23  41  61  93 132 168 206 256 318 383
#
# _framework density 23.117984
#
# number of rings (size 3 to 8) (size 9 to 14) (size 15 to 20)
#    0.000    1.500    2.500    4.500    0.000    2.500 
#    4.500    0.000    0.000    1.500    0.000    0.000 
#    0.000    0.000    0.000    0.000    0.000    0.000 
#
# Total GULP energy -396817.184872 kJ/mol
# GULP energy per Si atom -12400.537027 kJ/mol
# Density = 2.306537 g / cm^3
# Si number density = 23.117984 Si / 1000 Ang^3
#
#
#
# Elastic Constant Matrix: (Units=GPa)
#
#
# Indices 1 2 3 4 5 6 
#
# 1 56.1380 6.5376 -2.4603 0.0000 -6.2064 0.0000
# 2 6.5376 47.5261 -4.1708 0.0000 7.9617 0.0000
# 3 -2.4603 -4.1708 62.6684 0.0000 -11.1982 0.0000
# 4 0.0000 0.0000 0.0000 37.9320 0.0000 -1.8372
# 5 -6.2064 7.9617 -11.1982 0.0000 23.4428 0.0000
# 6 0.0000 0.0000 0.0000 -1.8372 0.0000 15.0618
#
#
#
# Elastic Compliance Matrix: (Units=1/GPa)
#
#
# Indices 1 2 3 4 5 6 
#
# 1 0.019111 -0.003671 0.001785 0.000000 0.007159 0.000000
# 2 -0.003671 0.023017 -0.000200 0.000000 -0.008885 0.000000
# 3 0.001785 -0.000200 0.017614 0.000000 0.008954 0.000000
# 4 0.000000 0.000000 0.000000 0.026520 0.000000 0.003235
# 5 0.007159 -0.008885 0.008954 0.000000 0.051847 0.000000
# 6 0.000000 0.000000 0.000000 0.003235 0.000000 0.066788
#
#
# Mechanical properties :
#
#
# Convention : Reuss Voigt Hill
#
# Bulk Modulus (GPa) = 17.99565 18.46060 18.22813
# Shear Modulus (GPa) = 21.96924 26.38238 24.17581
#
# Velocity S-wave (km/s) = 3.08605 3.38184 3.23733
# Velocity P-wave (km/s) = 4.52763 4.82202 4.67714
#
# Compressibility (1/GPa) = 0.05556899
#
# Stress axis : x y z
#
# Youngs Moduli (GPa) = 52.32724 43.44628 56.77358
#
# Poissons Ratio (x) = 0.15951 -0.10135
# Poissons Ratio (y) = 0.19212 0.01135
# Poissons Ratio (z) = -0.09341 0.00868
#
# Static dielectric constant tensor:
#      x y z
#    x 3.778960 0.000000 -0.278560 
#    y 0.000000 4.207080 0.000000 
#    z -0.278560 0.000000 4.099980 
# 
# 
# High freq. dielectric constant tensor:
#      x y z
#    x 1.873210 0.000000 -0.027000 
#    y 0.000000 1.917970 0.000000 
#    z -0.027000 0.000000 1.916600 
# 
# From -- ./inp_files/40375.got.cif
#   From: 2010.03.12/outbox.cif.g09.slc.cpg/sg14_21_cif.got.tgz:40375.got - 2010.03.31 13:35:05.
