data_PCOD8124551
_publ_section_title
;
Structure prediction by ZEFSAII (Michael W. Deem and Ramdas Pophale) SiO2 
 PCOD8124551
Probable space group: P 21/C
;
_chemical_formula_sum "Si O2"
_cell_formula_units_Z 24
_cell_length_a 8.363811
_cell_length_b 11.254593
_cell_length_c 23.757740
_cell_angle_alpha 90.000000
_cell_angle_beta 32.867770
_cell_angle_gamma 90.000000
_cell_volume 1213.669955
_symmetry_space_group_name_H-M "P 21/C"
_symmetry_group_IT_number 14
_symmetry_cell_setting 'monoclinic'
loop_
_space_group_symop_operation_xyz
x,y,z
-x,1/2+y,1/2-z
-x,-y,-z
x,1/2-y,1/2+z
loop_
_atom_site_type_symbol
_atom_site_label
_atom_site_fract_x
_atom_site_fract_y
_atom_site_fract_z
Si Si1 0.266956 0.915349 0.755698
Si Si2 0.208329 0.736250 0.868005
Si Si3 0.243364 0.630705 0.135779
Si Si4 0.130652 0.465875 0.071135
Si Si5 0.078263 0.327117 0.935135
Si Si6 0.854262 0.687356 0.690804
O O1 0.123767 0.839940 0.849057
O O2 0.154442 0.876777 0.727358
O O3 0.615540 0.897539 0.654441
O O4 0.158578 0.048410 0.795993
O O5 0.536002 0.747736 0.796516
O O6 0.167348 0.610999 0.847231
O O7 0.985105 0.731118 0.986191
O O8 0.107482 0.520870 0.140408
O O9 0.104911 0.755067 0.156054
O O10 0.593544 0.622893 0.020080
O O11 0.153323 0.572212 0.017815
O O12 0.072845 0.214438 0.895605
#
# Coordination Sequence:
#
# PCOD8124551 Si02
#       6
#     4   4   4   4   4   4
#     4  11  22  38  61  91 125 158 197 255 304 354
#     4  11  21  37  65  87 117 166 205 238 303 359
#     4  10  22  37  60  92 123 148 202 261 297 348
#     4  10  19  38  66  88 113 161 206 249 293 350
#     4  10  20  40  64  92 116 156 214 247 285 372
#     4  10  23  39  59  90 124 155 201 253 304 353
#
# _framework density 19.774733000000001
#
# number of rings (size 3 to 8) (size 9 to 14) (size 15 to 20)
#    0.000    1.667    3.333    1.500    2.333    0.667 
#    0.000    0.833    0.000    0.000    0.000    0.000 
#    0.000    0.000    0.000    0.000    0.000    0.000 
#
# Total GULP energy -297447.769982 kJ/mol
# GULP energy per Si atom -12393.657083 kJ/mol
# Density = 1.972972 g / cm^3
# Si number density = 19.774733 Si / 1000 Ang^3
#
#
#
# Elastic Constant Matrix: (Units=GPa)
#
#
# Indices 1 2 3 4 5 6 
#
# 1 127.8558 67.1340 51.1024 0.0000 22.0199 0.0000
# 2 67.1340 125.8549 69.4875 0.0000 27.3758 0.0000
# 3 51.1024 69.4875 78.4211 0.0000 6.5173 0.0000
# 4 0.0000 0.0000 0.0000 26.1302 0.0000 -1.4384
# 5 22.0199 27.3758 6.5173 0.0000 19.9326 0.0000
# 6 0.0000 0.0000 0.0000 -1.4384 0.0000 32.3021
#
#
#
# Elastic Compliance Matrix: (Units=1/GPa)
#
#
# Indices 1 2 3 4 5 6 
#
# 1 0.012794 -0.000654 -0.006844 0.000000 -0.010999 0.000000
# 2 -0.000654 0.024896 -0.019379 0.000000 -0.027135 0.000000
# 3 -0.006844 -0.019379 0.032424 0.000000 0.023575 0.000000
# 4 0.000000 0.000000 0.000000 0.038364 0.000000 0.001708
# 5 -0.010999 -0.027135 0.023575 0.000000 0.091879 0.000000
# 6 0.000000 0.000000 0.000000 0.001708 0.000000 0.031034
#
#
# Mechanical properties :
#
#
# Convention : Reuss Voigt Hill
#
# Bulk Modulus (GPa) = 61.12196 78.61996 69.87096
# Shear Modulus (GPa) = 17.20588 25.30015 21.25301
#
# Velocity S-wave (km/s) = 2.95294 3.58078 3.28190
# Velocity P-wave (km/s) = 6.52707 7.54586 7.05488
#
# Compressibility (1/GPa) = 0.01636073
#
# Stress axis : x y z
#
# Youngs Moduli (GPa) = 78.16047 40.16652 30.84144
#
# Poissons Ratio (x) = 0.02625 0.21108
# Poissons Ratio (y) = 0.05108 0.59768
# Poissons Ratio (z) = 0.53494 0.77840
#
# Static dielectric constant tensor:
#      x y z
#    x 3.996710 0.000000 0.055240 
#    y 0.000000 3.519130 0.000000 
#    z 0.055240 0.000000 3.392430 
# 
# 
# High freq. dielectric constant tensor:
#      x y z
#    x 1.792840 0.000000 0.006800 
#    y 0.000000 1.760010 0.000000 
#    z 0.006800 0.000000 1.745920 
# 
# From -- ./inp_files/39064.got.cif
#   From: 2010.03.12/outbox.cif.g09.slc.cpg/sg14_20_cif.got.tgz:39064.got - 2010.03.31 13:35:05.
