data_PCOD8124814
_publ_section_title
;
Structure prediction by ZEFSAII (Michael W. Deem and Ramdas Pophale) SiO2 
 PCOD8124814
Probable space group: P 21/C
;
_chemical_formula_sum "Si O2"
_cell_formula_units_Z 32
_cell_length_a 19.593443
_cell_length_b 13.213060
_cell_length_c 8.738903
_cell_angle_alpha 90.000000
_cell_angle_beta 133.092855
_cell_angle_gamma 90.000000
_cell_volume 1652.118329
_symmetry_space_group_name_H-M "P 21/C"
_symmetry_group_IT_number 14
_symmetry_cell_setting 'monoclinic'
loop_
_space_group_symop_operation_xyz
x,y,z
-x,1/2+y,1/2-z
-x,-y,-z
x,1/2-y,1/2+z
loop_
_atom_site_type_symbol
_atom_site_label
_atom_site_fract_x
_atom_site_fract_y
_atom_site_fract_z
Si Si1 0.839743 0.119429 0.594004
Si Si2 0.924080 0.220642 0.995277
Si Si3 0.290192 0.352851 0.447653
Si Si4 0.398662 0.203773 0.400188
Si Si5 0.474677 0.376835 0.315608
Si Si6 0.081146 0.130744 0.672778
Si Si7 0.012885 0.024735 0.279063
Si Si8 0.655535 0.479361 0.698848
O O1 0.873188 0.192947 0.511603
O O2 0.733545 0.086518 0.403902
O O3 0.909835 0.022387 0.718163
O O4 0.845446 0.183247 0.757523
O O5 0.013519 0.272087 0.050741
O O6 0.958984 0.122908 0.139662
O O7 0.324465 0.261057 0.394334
O O8 0.347834 0.364924 0.694409
O O9 0.185464 0.326683 0.337972
O O10 0.295618 0.454803 0.358118
O O11 0.465082 0.278389 0.406879
O O12 0.461298 0.138647 0.612963
O O13 0.580786 0.410609 0.497806
O O14 0.397425 0.457343 0.251803
O O15 0.072068 0.054469 0.518097
O O16 0.060455 0.065067 0.793892
#
# Coordination Sequence:
#
# PCOD8124814 Si02
#       8
#     4   4   4   4   4   4   4   4
#     4  11  23  38  58  83 113 151 196 230 276 340
#     4  11  23  38  57  83 115 154 190 231 282 329
#     4  10  20  34  58  83 108 143 186 229 276 330
#     4   9  20  36  57  85 107 138 187 232 275 341
#     4   9  20  39  57  80 112 141 179 231 291 331
#     4  10  21  36  57  82 116 148 186 235 278 323
#     4  10  21  38  55  80 116 151 186 234 278 326
#     4  10  21  37  57  80 112 147 178 230 285 339
#
# _framework density 19.369074000000001
#
# number of rings (size 3 to 8) (size 9 to 14) (size 15 to 20)
#    0.000    2.000    2.500    0.375    1.750    3.500 
#    0.000    0.000    0.000    0.000    0.000    0.000 
#    0.000    0.000    0.000    0.000    0.000    0.000 
#
# Total GULP energy -396727.191084 kJ/mol
# GULP energy per Si atom -12397.724721 kJ/mol
# Density = 1.932499 g / cm^3
# Si number density = 19.369074 Si / 1000 Ang^3
#
#
#
# Elastic Constant Matrix: (Units=GPa)
#
#
# Indices 1 2 3 4 5 6 
#
# 1 52.6194 19.4756 38.2450 0.0000 10.6264 0.0000
# 2 19.4756 78.8711 45.9782 0.0000 8.6786 0.0000
# 3 38.2450 45.9782 113.4114 0.0000 9.5669 0.0000
# 4 0.0000 0.0000 0.0000 42.4455 0.0000 -0.9578
# 5 10.6264 8.6786 9.5669 0.0000 34.0364 0.0000
# 6 0.0000 0.0000 0.0000 -0.9578 0.0000 13.7761
#
#
#
# Elastic Compliance Matrix: (Units=1/GPa)
#
#
# Indices 1 2 3 4 5 6 
#
# 1 0.026362 -0.001285 -0.007890 0.000000 -0.005685 0.000000
# 2 -0.001285 0.016859 -0.006220 0.000000 -0.002149 0.000000
# 3 -0.007890 -0.006220 0.013990 0.000000 0.000117 0.000000
# 4 0.000000 0.000000 0.000000 0.023597 0.000000 0.001641
# 5 -0.005685 -0.002149 0.000117 0.000000 0.031670 0.000000
# 6 0.000000 0.000000 0.000000 0.001641 0.000000 0.072704
#
#
# Mechanical properties :
#
#
# Convention : Reuss Voigt Hill
#
# Bulk Modulus (GPa) = 37.84734 50.25550 44.05142
# Shear Modulus (GPa) = 22.24416 27.46513 24.85464
#
# Velocity S-wave (km/s) = 3.39254 3.76970 3.58608
# Velocity P-wave (km/s) = 5.91001 6.70449 6.31975
#
# Compressibility (1/GPa) = 0.02642194
#
# Stress axis : x y z
#
# Youngs Moduli (GPa) = 37.93285 59.31649 71.48048
#
# Poissons Ratio (x) = 0.07621 0.56395
# Poissons Ratio (y) = 0.04874 0.44462
# Poissons Ratio (z) = 0.29927 0.36896
#
# Static dielectric constant tensor:
#      x y z
#    x 3.501680 0.000000 -0.117270 
#    y 0.000000 3.589660 0.000000 
#    z -0.117270 0.000000 3.512700 
# 
# 
# High freq. dielectric constant tensor:
#      x y z
#    x 1.746430 0.000000 -0.005570 
#    y 0.000000 1.753970 0.000000 
#    z -0.005570 0.000000 1.753800 
# 
# From -- ./inp_files/19076.got.cif
#   From: 2010.03.12/outbox.cif.g09.slc.cpg/sg14_10_cif.got.tgz:19076.got - 2010.03.31 13:35:05.
