data_PCOD8124909
_publ_section_title
;
Structure prediction by ZEFSAII (Michael W. Deem and Ramdas Pophale) SiO2 
 PCOD8124909
Probable space group: P 21/C
;
_chemical_formula_sum "Si O2"
_cell_formula_units_Z 24
_cell_length_a 20.236624
_cell_length_b 5.268609
_cell_length_c 22.078877
_cell_angle_alpha 90.000000
_cell_angle_beta 30.978478
_cell_angle_gamma 90.000000
_cell_volume 1211.654311
_symmetry_space_group_name_H-M "P 21/C"
_symmetry_group_IT_number 14
_symmetry_cell_setting 'monoclinic'
loop_
_space_group_symop_operation_xyz
x,y,z
-x,1/2+y,1/2-z
-x,-y,-z
x,1/2-y,1/2+z
loop_
_atom_site_type_symbol
_atom_site_label
_atom_site_fract_x
_atom_site_fract_y
_atom_site_fract_z
Si Si1 0.082951 0.579165 0.682914
Si Si2 0.085225 0.006153 0.053258
Si Si3 0.803408 0.133578 0.303797
Si Si4 0.581581 0.808634 0.474705
Si Si5 0.331131 0.581183 0.691032
Si Si6 0.879379 0.491866 0.050513
O O1 0.159170 0.521516 0.559839
O O2 0.177996 0.626961 0.665241
O O3 0.993991 0.341033 0.768523
O O4 0.124763 0.782183 0.977567
O O5 0.935293 0.983396 0.189222
O O6 0.113773 0.281270 0.002890
O O7 0.753439 0.202537 0.275752
O O8 0.695556 0.953751 0.421060
O O9 0.474113 0.669717 0.601273
O O10 0.653604 0.624166 0.372730
O O11 0.500000 0.000000 0.500000
O O12 0.253628 0.473673 0.808961
O O13 0.000000 0.500000 0.000000
#
# Coordination Sequence:
#
# PCOD8124909 Si02
#       6
#     4   4   4   4   4   4
#     4  10  22  37  58  86 121 156 197 245 289 355
#     4  11  23  37  55  91 122 158 189 232 306 366
#     4  10  20  35  60  84 120 149 200 247 298 349
#     4   9  20  36  56  86 112 148 203 252 293 342
#     4  10  21  35  57  89 115 155 199 244 306 354
#     4  12  23  35  58  85 129 157 184 236 305 378
#
# _framework density 19.807628000000001
#
# number of rings (size 3 to 8) (size 9 to 14) (size 15 to 20)
#    0.000    1.667    1.667    3.500    9.333    0.000 
#    0.000    0.000    0.000    0.000   13.000    0.000 
#    0.000    0.000    0.000    0.000    0.000    0.000 
#
# Total GULP energy -297348.214537 kJ/mol
# GULP energy per Si atom -12389.508939 kJ/mol
# Density = 1.976254 g / cm^3
# Si number density = 19.807628 Si / 1000 Ang^3
#
#
#
# Elastic Constant Matrix: (Units=GPa)
#
#
# Indices 1 2 3 4 5 6 
#
# 1 53.0708 14.4942 38.0056 0.0000 7.7046 0.0000
# 2 14.4942 94.1225 30.1604 0.0000 -3.0250 0.0000
# 3 38.0056 30.1604 130.4939 0.0000 -2.8040 0.0000
# 4 0.0000 0.0000 0.0000 29.1437 0.0000 0.4889
# 5 7.7046 -3.0250 -2.8040 0.0000 24.8496 0.0000
# 6 0.0000 0.0000 0.0000 0.4889 0.0000 29.6876
#
#
#
# Elastic Compliance Matrix: (Units=1/GPa)
#
#
# Indices 1 2 3 4 5 6 
#
# 1 0.025918 -0.001946 -0.007294 0.000000 -0.009096 0.000000
# 2 -0.001946 0.011650 -0.002088 0.000000 0.001786 0.000000
# 3 -0.007294 -0.002088 0.010338 0.000000 0.003174 0.000000
# 4 0.000000 0.000000 0.000000 0.034322 0.000000 -0.000565
# 5 -0.009096 0.001786 0.003174 0.000000 0.043638 0.000000
# 6 0.000000 0.000000 0.000000 -0.000565 0.000000 0.033693
#
#
# Mechanical properties :
#
#
# Convention : Reuss Voigt Hill
#
# Bulk Modulus (GPa) = 39.60203 49.22305 44.41254
# Shear Modulus (GPa) = 26.22836 29.73801 27.98319
#
# Velocity S-wave (km/s) = 3.64284 3.87892 3.76273
# Velocity P-wave (km/s) = 6.14251 6.70566 6.43025
#
# Compressibility (1/GPa) = 0.02525123
#
# Stress axis : x y z
#
# Youngs Moduli (GPa) = 38.58269 85.83343 96.72814
#
# Poissons Ratio (x) = 0.16705 0.70555
# Poissons Ratio (y) = 0.07509 0.20192
# Poissons Ratio (z) = 0.28143 0.17918
#
# Static dielectric constant tensor:
#      x y z
#    x 3.710790 0.000000 -0.147020 
#    y 0.000000 3.804060 0.000000 
#    z -0.147020 0.000000 3.915110 
# 
# 
# High freq. dielectric constant tensor:
#      x y z
#    x 1.744930 0.000000 -0.001590 
#    y 0.000000 1.794590 0.000000 
#    z -0.001590 0.000000 1.757540 
# 
# From -- ./inp_files/69569.got.cif
#   From: 2010.03.12/outbox.cif.g09.slc.cpg/sg14_35_cif.got.tgz:69569.got - 2010.03.31 13:35:05.
