data_PCOD8124406
_publ_section_title
;
Structure prediction by ZEFSAII (Michael W. Deem and Ramdas Pophale) SiO2 
 PCOD8124406
Probable space group: P 21/C
;
_chemical_formula_sum "Si O2"
_cell_formula_units_Z 32
_cell_length_a 12.336732
_cell_length_b 9.702646
_cell_length_c 23.074177
_cell_angle_alpha 90.000000
_cell_angle_beta 146.667584
_cell_angle_gamma 90.000000
_cell_volume 1517.681908
_symmetry_space_group_name_H-M "P 21/C"
_symmetry_group_IT_number 14
_symmetry_cell_setting 'monoclinic'
loop_
_space_group_symop_operation_xyz
x,y,z
-x,1/2+y,1/2-z
-x,-y,-z
x,1/2-y,1/2+z
loop_
_atom_site_type_symbol
_atom_site_label
_atom_site_fract_x
_atom_site_fract_y
_atom_site_fract_z
Si Si1 0.081766 0.571321 0.932002
Si Si2 0.948064 0.822218 0.934851
Si Si3 0.830913 0.167919 0.293147
Si Si4 0.266421 0.906971 0.162879
Si Si5 0.169428 0.947154 0.342255
Si Si6 0.487358 0.767669 0.420749
Si Si7 0.678891 0.878384 0.389227
Si Si8 0.143760 0.248253 0.846487
O O1 0.206435 0.560064 0.928144
O O2 0.011379 0.727265 0.909610
O O3 0.879882 0.481335 0.840613
O O4 0.205078 0.519079 0.043081
O O5 0.823606 0.737017 0.927157
O O6 0.818685 0.947813 0.850963
O O7 0.154593 0.881095 0.052548
O O8 0.765549 0.276353 0.311226
O O9 0.661680 0.149224 0.168383
O O10 0.028460 0.231008 0.354739
O O11 0.505169 0.917875 0.265778
O O12 0.354969 0.886908 0.391081
O O13 0.961194 0.869883 0.237855
O O14 0.147567 0.106648 0.313283
O O15 0.600304 0.826436 0.415809
O O16 0.634880 0.705408 0.534901
#
# Coordination Sequence:
#
# PCOD8124406 Si02
#       8
#     4   4   4   4   4   4   4   4
#     4  11  22  40  60  87 127 158 196 253 304 350
#     4  11  24  41  61  91 127 154 200 259 296 360
#     4   9  19  37  60  89 116 159 199 236 305 358
#     4  10  23  40  63  92 118 162 205 244 304 359
#     4  10  22  37  60  90 115 160 201 244 300 357
#     4  10  19  37  65  85 117 158 204 239 289 370
#     4  11  22  37  66  87 119 160 203 239 306 360
#     4  10  19  37  59  84 119 154 200 246 295 353
#
# _framework density 21.084786999999999
#
# number of rings (size 3 to 8) (size 9 to 14) (size 15 to 20)
#    0.000    1.750    3.750    0.750    1.750    4.000 
#    0.000    5.625    0.000    0.000    0.000    0.000 
#    0.000    0.000    0.000    0.000    0.000    0.000 
#
# Total GULP energy -396563.096065 kJ/mol
# GULP energy per Si atom -12392.596752 kJ/mol
# Density = 2.103680 g / cm^3
# Si number density = 21.084787 Si / 1000 Ang^3
#
#
#
# Elastic Constant Matrix: (Units=GPa)
#
#
# Indices 1 2 3 4 5 6 
#
# 1 46.0404 -10.0841 -4.3349 0.0000 3.1123 0.0000
# 2 -10.0841 61.1711 31.3068 0.0000 -2.3837 0.0000
# 3 -4.3349 31.3068 157.7937 0.0000 12.7380 0.0000
# 4 0.0000 0.0000 0.0000 18.2416 0.0000 -1.3315
# 5 3.1123 -2.3837 12.7380 0.0000 21.1214 0.0000
# 6 0.0000 0.0000 0.0000 -1.3315 0.0000 21.2679
#
#
#
# Elastic Compliance Matrix: (Units=1/GPa)
#
#
# Indices 1 2 3 4 5 6 
#
# 1 0.022717 0.003540 0.000168 0.000000 -0.003049 0.000000
# 2 0.003540 0.019153 -0.004031 0.000000 0.004071 0.000000
# 3 0.000168 -0.004031 0.007548 0.000000 -0.005032 0.000000
# 4 0.000000 0.000000 0.000000 0.055071 0.000000 0.003448
# 5 -0.003049 0.004071 -0.005032 0.000000 0.051289 0.000000
# 6 0.000000 0.000000 0.000000 0.003448 0.000000 0.047235
#
#
# Mechanical properties :
#
#
# Convention : Reuss Voigt Hill
#
# Bulk Modulus (GPa) = 20.50361 33.19785 26.85073
# Shear Modulus (GPa) = 22.73579 28.66735 25.70157
#
# Velocity S-wave (km/s) = 3.28732 3.69131 3.49515
# Velocity P-wave (km/s) = 4.91468 5.82639 5.38984
#
# Compressibility (1/GPa) = 0.04877190
#
# Stress axis : x y z
#
# Youngs Moduli (GPa) = 44.01916 52.21087 132.48475
#
# Poissons Ratio (x) = -0.18484 -0.02224
# Poissons Ratio (y) = -0.15584 0.53410
# Poissons Ratio (z) = -0.00739 0.21048
#
# Static dielectric constant tensor:
#      x y z
#    x 3.533680 0.000000 0.217020 
#    y 0.000000 3.863120 0.000000 
#    z 0.217020 0.000000 4.530440 
# 
# 
# High freq. dielectric constant tensor:
#      x y z
#    x 1.805910 0.000000 0.009460 
#    y 0.000000 1.814950 0.000000 
#    z 0.009460 0.000000 1.841680 
# 
# From -- ./inp_files/77529.got.cif
#   From: 2010.03.12/outbox.cif.g09.slc.cpg/sg14_39_cif.got.tgz:77529.got - 2010.03.31 13:35:05.
