data_PCOD8124247
_publ_section_title
;
Structure prediction by ZEFSAII (Michael W. Deem and Ramdas Pophale) SiO2 
 PCOD8124247
Probable space group: P 21/C
;
_chemical_formula_sum "Si O2"
_cell_formula_units_Z 32
_cell_length_a 15.785049
_cell_length_b 19.795884
_cell_length_c 8.638717
_cell_angle_alpha 90.000000
_cell_angle_beta 34.046787
_cell_angle_gamma 90.000000
_cell_volume 1511.322140
_symmetry_space_group_name_H-M "P 21/C"
_symmetry_group_IT_number 14
_symmetry_cell_setting 'monoclinic'
loop_
_space_group_symop_operation_xyz
x,y,z
-x,1/2+y,1/2-z
-x,-y,-z
x,1/2-y,1/2+z
loop_
_atom_site_type_symbol
_atom_site_label
_atom_site_fract_x
_atom_site_fract_y
_atom_site_fract_z
Si Si1 0.115377 0.419906 0.958425
Si Si2 0.807947 0.439442 0.241787
Si Si3 0.833989 0.780560 0.518606
Si Si4 0.667928 0.320086 0.587412
Si Si5 0.161986 0.786536 0.867437
Si Si6 0.131061 0.587505 0.194998
Si Si7 0.174843 0.051718 0.717276
Si Si8 0.330416 0.181827 0.527312
O O1 0.224940 0.479728 0.726494
O O2 0.174739 0.343275 0.844217
O O3 0.099054 0.426720 0.168312
O O4 0.954348 0.427897 0.124368
O O5 0.674149 0.399856 0.532791
O O6 0.822731 0.404234 0.052436
O O7 0.701306 0.790461 0.595427
O O8 0.797631 0.712313 0.665401
O O9 0.998657 0.774271 0.191205
O O10 0.716118 0.309194 0.690639
O O11 0.782373 0.281342 0.299552
O O12 0.496369 0.295091 0.827729
O O13 0.157309 0.842694 0.741277
O O14 0.228200 0.526461 0.129131
O O15 0.956834 0.562825 0.457589
O O16 0.314474 0.100224 0.550824
#
# Coordination Sequence:
#
# PCOD8124247 Si02
#       8
#     4   4   4   4   4   4   4   4
#     4   9  18  37  59  91 118 155 204 258 281 356
#     4  10  20  34  61  92 120 155 201 248 308 347
#     4  11  22  41  62  88 118 159 209 244 292 358
#     4  12  25  40  59  90 127 157 196 255 309 357
#     4  12  23  41  62  90 120 158 210 250 293 360
#     4  10  19  35  63  90 114 156 205 254 290 352
#     4   9  19  37  60  87 121 157 201 246 302 352
#     4  11  24  41  60  88 125 160 195 251 307 359
#
# _framework density 21.173514000000001
#
# number of rings (size 3 to 8) (size 9 to 14) (size 15 to 20)
#    0.000    1.500    3.750    2.250    1.750    0.000 
#    0.000    7.500    0.000    0.000    0.000    0.000 
#    0.000    0.000    0.000    0.000    0.000    0.000 
#
# Total GULP energy -396643.941666 kJ/mol
# GULP energy per Si atom -12395.123177 kJ/mol
# Density = 2.112532 g / cm^3
# Si number density = 21.173514 Si / 1000 Ang^3
#
#
#
# Elastic Constant Matrix: (Units=GPa)
#
#
# Indices 1 2 3 4 5 6 
#
# 1 83.4558 11.2884 28.7645 0.0000 -12.3442 0.0000
# 2 11.2884 93.0198 39.3028 0.0000 -6.0437 0.0000
# 3 28.7645 39.3028 48.1811 0.0000 -5.0124 0.0000
# 4 0.0000 0.0000 0.0000 25.5234 0.0000 4.3655
# 5 -12.3442 -6.0437 -5.0124 0.0000 22.9393 0.0000
# 6 0.0000 0.0000 0.0000 4.3655 0.0000 25.2860
#
#
#
# Elastic Compliance Matrix: (Units=1/GPa)
#
#
# Indices 1 2 3 4 5 6 
#
# 1 0.016777 0.003585 -0.012180 0.000000 0.007311 0.000000
# 2 0.003585 0.017217 -0.015873 0.000000 0.002997 0.000000
# 3 -0.012180 -0.015873 0.040785 0.000000 -0.001825 0.000000
# 4 0.000000 0.000000 0.000000 0.040372 0.000000 -0.006970
# 5 0.007311 0.002997 -0.001825 0.000000 0.047919 0.000000
# 6 0.000000 0.000000 0.000000 -0.006970 0.000000 0.040751
#
#
# Mechanical properties :
#
#
# Convention : Reuss Voigt Hill
#
# Bulk Modulus (GPa) = 38.69475 42.59646 40.64560
# Shear Modulus (GPa) = 19.13000 24.43646 21.78323
#
# Velocity S-wave (km/s) = 3.00907 3.40090 3.21096
# Velocity P-wave (km/s) = 5.51248 5.96514 5.74327
#
# Compressibility (1/GPa) = 0.02584330
#
# Stress axis : x y z
#
# Youngs Moduli (GPa) = 59.60568 58.08326 24.51891
#
# Poissons Ratio (x) = -0.20825 0.29864
# Poissons Ratio (y) = -0.21371 0.38919
# Poissons Ratio (z) = 0.72600 0.92195
#
# Static dielectric constant tensor:
#      x y z
#    x 3.818020 0.000000 0.203740 
#    y 0.000000 4.389900 0.000000 
#    z 0.203740 0.000000 3.394660 
# 
# 
# High freq. dielectric constant tensor:
#      x y z
#    x 1.830650 0.000000 0.019000 
#    y 0.000000 1.851160 0.000000 
#    z 0.019000 0.000000 1.787130 
# 
# From -- ./inp_files/16856.got.cif
#   From: 2010.03.12/outbox.cif.g09.slc.cpg/sg14_9_cif.got.tgz:16856.got - 2010.03.31 13:35:05.
