data_PCOD8124266
_publ_section_title
;
Structure prediction by ZEFSAII (Michael W. Deem and Ramdas Pophale) SiO2 
 PCOD8124266
Probable space group: P 21/C
;
_chemical_formula_sum "Si O2"
_cell_formula_units_Z 32
_cell_length_a 8.470856
_cell_length_b 23.019089
_cell_length_c 11.955216
_cell_angle_alpha 90.000000
_cell_angle_beta 132.572662
_cell_angle_gamma 90.000000
_cell_volume 1716.715836
_symmetry_space_group_name_H-M "P 21/C"
_symmetry_group_IT_number 14
_symmetry_cell_setting 'monoclinic'
loop_
_space_group_symop_operation_xyz
x,y,z
-x,1/2+y,1/2-z
-x,-y,-z
x,1/2-y,1/2+z
loop_
_atom_site_type_symbol
_atom_site_label
_atom_site_fract_x
_atom_site_fract_y
_atom_site_fract_z
Si Si1 0.029943 0.077201 0.291903
Si Si2 0.294456 0.675395 0.327435
Si Si3 0.756163 0.852086 0.017539
Si Si4 0.018433 0.238137 0.727398
Si Si5 0.730398 0.969191 0.129758
Si Si6 0.704370 0.842811 0.727919
Si Si7 0.082222 0.437274 0.061134
Si Si8 0.227851 0.660534 0.043984
O O1 0.198116 0.098362 0.279123
O O2 0.152406 0.085412 0.471177
O O3 0.821839 0.117463 0.188182
O O4 0.933636 0.013290 0.220977
O O5 0.541313 0.668750 0.476877
O O6 0.278473 0.685463 0.188691
O O7 0.200845 0.731062 0.343172
O O8 0.930433 0.807829 0.149973
O O9 0.784361 0.920044 0.063245
O O10 0.756542 0.845523 0.884330
O O11 0.201395 0.285201 0.786548
O O12 0.958510 0.202428 0.589359
O O13 0.730912 0.939067 0.254553
O O14 0.500000 0.000000 0.000000
O O15 0.450011 0.842171 0.581614
O O16 0.000000 0.500000 0.000000
O O17 0.874082 0.403118 0.004986
#
# Coordination Sequence:
#
# PCOD8124266 Si02
#       8
#     4   4   4   4   4   4   4   4
#     4   9  19  38  57  82 115 151 185 230 279 345
#     4   9  19  34  55  77 109 152 185 223 283 339
#     4  11  21  36  59  88 112 147 192 238 287 339
#     4  11  20  36  56  81 115 146 193 235 280 338
#     4  11  20  36  63  87 111 149 198 235 280 341
#     4  10  23  37  57  86 120 151 182 237 301 325
#     4   9  19  36  61  81 106 151 197 223 267 349
#     4  10  19  36  56  80 110 148 189 229 275 340
#
# _framework density 18.640243999999999
#
# number of rings (size 3 to 8) (size 9 to 14) (size 15 to 20)
#    0.000    2.000    2.500    1.500    1.750    0.500 
#    0.000    3.750    0.000    0.000    0.000    0.000 
#    0.000    0.000    0.000    0.000    0.000    0.000 
#
# Total GULP energy -396535.620910 kJ/mol
# GULP energy per Si atom -12391.738153 kJ/mol
# Density = 1.859782 g / cm^3
# Si number density = 18.640244 Si / 1000 Ang^3
#
#
#
# Elastic Constant Matrix: (Units=GPa)
#
#
# Indices 1 2 3 4 5 6 
#
# 1 84.5196 37.5964 20.6330 0.0000 -0.6850 0.0000
# 2 37.5964 106.6370 28.2912 0.0000 -1.3981 0.0000
# 3 20.6330 28.2912 79.5534 0.0000 -2.8985 0.0000
# 4 0.0000 0.0000 0.0000 35.3037 0.0000 1.2277
# 5 -0.6850 -1.3981 -2.8985 0.0000 17.8506 0.0000
# 6 0.0000 0.0000 0.0000 1.2277 0.0000 23.3354
#
#
#
# Elastic Compliance Matrix: (Units=1/GPa)
#
#
# Indices 1 2 3 4 5 6 
#
# 1 0.014350 -0.004497 -0.002128 0.000000 -0.000147 0.000000
# 2 -0.004497 0.011764 -0.003008 0.000000 0.000260 0.000000
# 3 -0.002128 -0.003008 0.014265 0.000000 0.001999 0.000000
# 4 0.000000 0.000000 0.000000 0.028378 0.000000 -0.001493
# 5 -0.000147 0.000260 0.001999 0.000000 0.056360 0.000000
# 6 0.000000 0.000000 0.000000 -0.001493 0.000000 0.042932
#
#
# Mechanical properties :
#
#
# Convention : Reuss Voigt Hill
#
# Bulk Modulus (GPa) = 47.36255 49.30569 48.33412
# Shear Modulus (GPa) = 25.72653 27.57723 26.65188
#
# Velocity S-wave (km/s) = 3.71908 3.85053 3.78538
# Velocity P-wave (km/s) = 6.62616 6.80275 6.71504
#
# Compressibility (1/GPa) = 0.02111373
#
# Stress axis : x y z
#
# Youngs Moduli (GPa) = 69.68573 85.00201 70.10331
#
# Poissons Ratio (x) = 0.38223 0.14919
# Poissons Ratio (y) = 0.31336 0.21087
# Poissons Ratio (z) = 0.14830 0.25568
#
# Static dielectric constant tensor:
#      x y z
#    x 3.531800 0.000000 -0.302200 
#    y 0.000000 3.590370 0.000000 
#    z -0.302200 0.000000 3.557190 
# 
# 
# High freq. dielectric constant tensor:
#      x y z
#    x 1.704530 0.000000 -0.006860 
#    y 0.000000 1.734540 0.000000 
#    z -0.006860 0.000000 1.728240 
# 
# From -- ./inp_files/26974.got.cif
#   From: 2010.03.12/outbox.cif.g09.slc.cpg/sg14_14_cif.got.tgz:26974.got - 2010.03.31 13:35:05.
