data_PCOD8124902
_publ_section_title
;
Structure prediction by ZEFSAII (Michael W. Deem and Ramdas Pophale) SiO2 
 PCOD8124902
Probable space group: P 21/C
;
_chemical_formula_sum "Si O2"
_cell_formula_units_Z 28
_cell_length_a 16.883523
_cell_length_b 13.355905
_cell_length_c 10.529145
_cell_angle_alpha 90.000000
_cell_angle_beta 36.352548
_cell_angle_gamma 90.000000
_cell_volume 1407.351514
_symmetry_space_group_name_H-M "P 21/C"
_symmetry_group_IT_number 14
_symmetry_cell_setting 'monoclinic'
loop_
_space_group_symop_operation_xyz
x,y,z
-x,1/2+y,1/2-z
-x,-y,-z
x,1/2-y,1/2+z
loop_
_atom_site_type_symbol
_atom_site_label
_atom_site_fract_x
_atom_site_fract_y
_atom_site_fract_z
Si Si1 0.153844 0.399380 0.214417
Si Si2 0.605016 0.493086 0.202745
Si Si3 0.765119 0.199243 0.517343
Si Si4 0.827207 0.329186 0.214213
Si Si5 0.318886 0.031275 0.120022
Si Si6 0.881353 0.673043 0.236093
Si Si7 0.018462 0.428542 0.650494
O O1 0.151550 0.284513 0.171134
O O2 0.120038 0.410486 0.405523
O O3 0.044588 0.459328 0.269886
O O4 0.302433 0.446277 0.014560
O O5 0.627222 0.548403 0.308098
O O6 0.448364 0.496476 0.365750
O O7 0.640747 0.375368 0.164754
O O8 0.748529 0.292075 0.441610
O O9 0.783618 0.231623 0.641531
O O10 0.896920 0.147203 0.292890
O O11 0.791010 0.444470 0.240180
O O12 0.987345 0.322470 0.022824
O O13 0.247532 0.134331 0.173313
O O14 0.903308 0.593420 0.321038
#
# Coordination Sequence:
#
# PCOD8124902 Si02
#       7
#     4   4   4   4   4   4   4
#     4  10  20  37  61  81 122 155 185 239 290 345
#     4   9  21  40  59  75 116 157 192 229 292 341
#     4   9  18  36  59  85 112 150 189 236 289 352
#     4  10  20  35  59  87 115 144 189 243 295 335
#     4  10  22  39  55  83 114 154 192 239 278 352
#     4  11  22  34  62  90 113 149 198 237 285 354
#     4   9  20  37  54  93 118 145 187 241 299 333
#
# _framework density 19.895527999999999
#
# number of rings (size 3 to 8) (size 9 to 14) (size 15 to 20)
#    0.000    2.286    1.429    1.286    2.000    3.429 
#    0.000    0.714    0.000    0.000    0.000    0.000 
#    0.000    0.000    0.000    0.000    0.000    0.000 
#
# Total GULP energy -347116.268193 kJ/mol
# GULP energy per Si atom -12397.009578 kJ/mol
# Density = 1.985024 g / cm^3
# Si number density = 19.895528 Si / 1000 Ang^3
#
#
#
# Elastic Constant Matrix: (Units=GPa)
#
#
# Indices 1 2 3 4 5 6 
#
# 1 68.1382 41.1758 29.2464 0.0000 3.6296 0.0000
# 2 41.1758 88.8654 19.4803 0.0000 -3.9407 0.0000
# 3 29.2464 19.4803 92.9266 0.0000 -5.1304 0.0000
# 4 0.0000 0.0000 0.0000 25.7710 0.0000 7.5357
# 5 3.6296 -3.9407 -5.1304 0.0000 30.5469 0.0000
# 6 0.0000 0.0000 0.0000 7.5357 0.0000 23.8036
#
#
#
# Elastic Compliance Matrix: (Units=1/GPa)
#
#
# Indices 1 2 3 4 5 6 
#
# 1 0.023214 -0.009763 -0.005533 0.000000 -0.004947 0.000000
# 2 -0.009763 0.015939 -0.000092 0.000000 0.003201 0.000000
# 3 -0.005533 -0.000092 0.012675 0.000000 0.002774 0.000000
# 4 0.000000 0.000000 0.000000 0.042762 0.000000 -0.013538
# 5 -0.004947 0.003201 0.002774 0.000000 0.034203 0.000000
# 6 0.000000 0.000000 0.000000 -0.013538 0.000000 0.046296
#
#
# Mechanical properties :
#
#
# Convention : Reuss Voigt Hill
#
# Bulk Modulus (GPa) = 47.49933 47.74834 47.62384
# Shear Modulus (GPa) = 23.48736 26.69282 25.09009
#
# Velocity S-wave (km/s) = 3.43962 3.66683 3.55504
# Velocity P-wave (km/s) = 6.30086 6.47913 6.39062
#
# Compressibility (1/GPa) = 0.02105293
#
# Stress axis : x y z
#
# Youngs Moduli (GPa) = 43.07776 62.74076 78.89637
#
# Poissons Ratio (x) = 0.61252 0.43650
# Poissons Ratio (y) = 0.42056 0.00725
# Poissons Ratio (z) = 0.23833 0.00577
#
# Static dielectric constant tensor:
#      x y z
#    x 3.411860 0.000000 0.030550 
#    y 0.000000 3.535920 0.000000 
#    z 0.030550 0.000000 3.755110 
# 
# 
# High freq. dielectric constant tensor:
#      x y z
#    x 1.749590 0.000000 0.006400 
#    y 0.000000 1.766460 0.000000 
#    z 0.006400 0.000000 1.777150 
# 
# From -- ./inp_files/34072.got.cif
#   From: 2010.03.12/outbox.cif.g09.slc.cpg/sg14_18_cif.got.tgz:34072.got - 2010.03.31 13:35:05.
