data_PCOD8124954
_publ_section_title
;
Structure prediction by ZEFSAII (Michael W. Deem and Ramdas Pophale) SiO2 
 PCOD8124954
Probable space group: P 21/C
;
_chemical_formula_sum "Si O2"
_cell_formula_units_Z 24
_cell_length_a 15.461116
_cell_length_b 12.888008
_cell_length_c 9.076348
_cell_angle_alpha 90.000000
_cell_angle_beta 145.077523
_cell_angle_gamma 90.000000
_cell_volume 1035.353524
_symmetry_space_group_name_H-M "P 21/C"
_symmetry_group_IT_number 14
_symmetry_cell_setting 'monoclinic'
loop_
_space_group_symop_operation_xyz
x,y,z
-x,1/2+y,1/2-z
-x,-y,-z
x,1/2-y,1/2+z
loop_
_atom_site_type_symbol
_atom_site_label
_atom_site_fract_x
_atom_site_fract_y
_atom_site_fract_z
Si Si1 0.746712 0.805995 0.008918
Si Si2 0.345486 0.699019 0.448629
Si Si3 0.547024 0.765958 0.481920
Si Si4 0.064139 0.598926 0.928424
Si Si5 0.886451 0.590591 0.176410
Si Si6 0.161469 0.614050 0.753025
O O1 0.776697 0.686556 0.001218
O O2 0.894859 0.874573 0.242946
O O3 0.644503 0.842239 0.726040
O O4 0.653811 0.807468 0.030770
O O5 0.443743 0.688463 0.437140
O O6 0.441873 0.663724 0.726657
O O7 0.311443 0.822416 0.422817
O O8 0.189738 0.634369 0.222786
O O9 0.079587 0.473700 0.927393
O O10 0.093488 0.657091 0.813465
O O11 0.811482 0.510231 0.191494
O O12 0.042058 0.636790 0.457249
#
# Coordination Sequence:
#
# PCOD8124954 Si02
#       6
#     4   4   4   4   4   4
#     4  11  21  40  63  89 121 161 194 266 297 352
#     4  11  19  41  59  89 117 172 198 242 291 381
#     4  10  24  35  60  87 128 160 199 237 319 351
#     4  10  20  35  70  84 115 156 216 237 306 344
#     4   9  19  36  62  96 116 153 207 259 297 352
#     4   9  18  35  64  88 117 150 208 249 296 350
#
# _framework density 23.180486999999999
#
# number of rings (size 3 to 8) (size 9 to 14) (size 15 to 20)
#    1.000    1.000    3.333    1.000    0.000    0.000 
#    0.000    9.167    3.667    0.000    0.000    0.000 
#    0.000    0.000    0.000    0.000    0.000    0.000 
#
# Total GULP energy -297370.213390 kJ/mol
# GULP energy per Si atom -12390.425558 kJ/mol
# Density = 2.312773 g / cm^3
# Si number density = 23.180487 Si / 1000 Ang^3
#
#
#
# Elastic Constant Matrix: (Units=GPa)
#
#
# Indices 1 2 3 4 5 6 
#
# 1 102.6350 14.9996 43.5992 0.0000 3.5615 0.0000
# 2 14.9996 53.3649 6.0784 0.0000 8.7015 0.0000
# 3 43.5992 6.0784 135.1755 0.0000 0.3723 0.0000
# 4 0.0000 0.0000 0.0000 14.0229 0.0000 -6.0811
# 5 3.5615 8.7015 0.3723 0.0000 37.3268 0.0000
# 6 0.0000 0.0000 0.0000 -6.0811 0.0000 18.2748
#
#
#
# Elastic Compliance Matrix: (Units=1/GPa)
#
#
# Indices 1 2 3 4 5 6 
#
# 1 0.011720 -0.002809 -0.003653 0.000000 -0.000427 0.000000
# 2 -0.002809 0.020254 0.000007 0.000000 -0.004454 0.000000
# 3 -0.003653 0.000007 0.008575 0.000000 0.000261 0.000000
# 4 0.000000 0.000000 0.000000 0.083338 0.000000 0.027731
# 5 -0.000427 -0.004454 0.000261 0.000000 0.027867 0.000000
# 6 0.000000 0.000000 0.000000 0.027731 0.000000 0.063948
#
#
# Mechanical properties :
#
#
# Convention : Reuss Voigt Hill
#
# Bulk Modulus (GPa) = 36.17825 46.72553 41.45189
# Shear Modulus (GPa) = 21.02407 29.02477 25.02442
#
# Velocity S-wave (km/s) = 3.01487 3.54237 3.28921
# Velocity P-wave (km/s) = 5.26880 6.07719 5.68738
#
# Compressibility (1/GPa) = 0.02764092
#
# Stress axis : x y z
#
# Youngs Moduli (GPa) = 85.32253 49.37380 116.61964
#
# Poissons Ratio (x) = 0.13867 0.42598
# Poissons Ratio (y) = 0.23964 -0.00086
# Poissons Ratio (z) = 0.31166 -0.00037
#
# Static dielectric constant tensor:
#      x y z
#    x 3.959160 0.000000 -0.037680 
#    y 0.000000 3.578290 0.000000 
#    z -0.037680 0.000000 4.352060 
# 
# 
# High freq. dielectric constant tensor:
#      x y z
#    x 1.908420 0.000000 -0.005110 
#    y 0.000000 1.859830 0.000000 
#    z -0.005110 0.000000 1.935960 
# 
# From -- ./inp_files/16333.got.cif
#   From: 2010.03.12/outbox.cif.g09.slc.cpg/sg14_9_cif.got.tgz:16333.got - 2010.03.31 13:35:05.
