data_PCOD8124361
_publ_section_title
;
Structure prediction by ZEFSAII (Michael W. Deem and Ramdas Pophale) SiO2 
 PCOD8124361
Probable space group: P 21/C
;
_chemical_formula_sum "Si O2"
_cell_formula_units_Z 20
_cell_length_a 9.268527
_cell_length_b 8.180227
_cell_length_c 12.246502
_cell_angle_alpha 90.000000
_cell_angle_beta 50.390163
_cell_angle_gamma 90.000000
_cell_volume 715.330175
_symmetry_space_group_name_H-M "P 21/C"
_symmetry_group_IT_number 14
_symmetry_cell_setting 'monoclinic'
loop_
_space_group_symop_operation_xyz
x,y,z
-x,1/2+y,1/2-z
-x,-y,-z
x,1/2-y,1/2+z
loop_
_atom_site_type_symbol
_atom_site_label
_atom_site_fract_x
_atom_site_fract_y
_atom_site_fract_z
Si Si1 0.567128 0.026098 0.847544
Si Si2 0.951935 0.168465 0.647064
Si Si3 0.579670 0.832735 0.283344
Si Si4 0.854234 0.345345 0.949669
Si Si5 0.043265 0.024268 0.852551
O O1 0.732725 0.153698 0.772667
O O2 0.634303 0.857235 0.760046
O O3 0.407047 0.107540 0.849185
O O4 0.500000 0.000000 0.000000
O O5 0.973752 0.167794 0.504468
O O6 0.003932 0.344901 0.676547
O O7 0.073947 0.017330 0.641435
O O8 0.369375 0.859082 0.431553
O O9 0.735765 0.935107 0.273156
O O10 0.912161 0.170706 0.863000
O O11 0.000000 0.000000 0.000000
#
# Coordination Sequence:
#
# PCOD8124361 Si02
#       5
#     4   4   4   4   4
#     4  11  23  42  71 103 144 183 248 299 346 439
#     4   9  18  36  60  92 136 177 224 301 339 402
#     4  11  22  41  70 100 142 195 231 288 380 404
#     4   9  18  35  62  94 133 186 239 286 350 426
#     4  10  19  36  64 100 133 181 240 280 354 433
#
# _framework density 27.959119000000001
#
# number of rings (size 3 to 8) (size 9 to 14) (size 15 to 20)
#    0.000    2.000    2.000    3.600    2.800    0.000 
#    3.600    4.000   17.600    0.000    0.000    0.000 
#    0.000    0.000    0.000    0.000    0.000    0.000 
#
# Total GULP energy -247985.108521 kJ/mol
# GULP energy per Si atom -12399.255426 kJ/mol
# Density = 2.789548 g / cm^3
# Si number density = 27.959119 Si / 1000 Ang^3
#
#
#
# Elastic Constant Matrix: (Units=GPa)
#
#
# Indices 1 2 3 4 5 6 
#
# 1 102.3908 55.1598 31.8478 0.0000 -0.2798 0.0000
# 2 55.1598 253.3729 80.1197 0.0000 12.5987 0.0000
# 3 31.8478 80.1197 82.0295 0.0000 -15.1840 0.0000
# 4 0.0000 0.0000 0.0000 43.3136 0.0000 9.3592
# 5 -0.2798 12.5987 -15.1840 0.0000 44.1325 0.0000
# 6 0.0000 0.0000 0.0000 9.3592 0.0000 54.3744
#
#
#
# Elastic Compliance Matrix: (Units=1/GPa)
#
#
# Indices 1 2 3 4 5 6 
#
# 1 0.011543 -0.001495 -0.003128 0.000000 -0.000576 0.000000
# 2 -0.001495 0.006567 -0.006603 0.000000 -0.004156 0.000000
# 3 -0.003128 -0.006603 0.021573 0.000000 0.009287 0.000000
# 4 0.000000 0.000000 0.000000 0.023979 0.000000 -0.004127
# 5 -0.000576 -0.004156 0.009287 0.000000 0.027037 0.000000
# 6 0.000000 0.000000 0.000000 -0.004127 0.000000 0.019101
#
#
# Mechanical properties :
#
#
# Convention : Reuss Voigt Hill
#
# Bulk Modulus (GPa) = 58.03225 85.78309 71.90767
# Shear Modulus (GPa) = 36.23286 46.40850 41.32068
#
# Velocity S-wave (km/s) = 3.60380 4.07857 3.84851
# Velocity P-wave (km/s) = 6.17395 7.27515 6.74706
#
# Compressibility (1/GPa) = 0.01723180
#
# Stress axis : x y z
#
# Youngs Moduli (GPa) = 86.62989 152.28273 46.35412
#
# Poissons Ratio (x) = 0.22771 0.14499
# Poissons Ratio (y) = 0.12954 0.30606
# Poissons Ratio (z) = 0.27096 1.00545
#
# Static dielectric constant tensor:
#      x y z
#    x 5.145350 0.000000 0.360850 
#    y 0.000000 4.775810 0.000000 
#    z 0.360850 0.000000 4.823710 
# 
# 
# High freq. dielectric constant tensor:
#      x y z
#    x 2.139020 0.000000 0.026190 
#    y 0.000000 2.160210 0.000000 
#    z 0.026190 0.000000 2.142620 
# 
# From -- ./inp_files/51802.got.cif
#   From: 2010.03.12/outbox.cif.g09.slc.cpg/sg14_26_cif.got.tgz:51802.got - 2010.03.31 13:35:05.
