data_PCOD8124018
_publ_section_title
;
Structure prediction by ZEFSAII (Michael W. Deem and Ramdas Pophale) SiO2 
 PCOD8124018
Probable space group: P 21/C
;
_chemical_formula_sum "Si O2"
_cell_formula_units_Z 28
_cell_length_a 10.657155
_cell_length_b 21.762250
_cell_length_c 7.865300
_cell_angle_alpha 90.000000
_cell_angle_beta 49.551645
_cell_angle_gamma 90.000000
_cell_volume 1388.161261
_symmetry_space_group_name_H-M "P 21/C"
_symmetry_group_IT_number 14
_symmetry_cell_setting 'monoclinic'
loop_
_space_group_symop_operation_xyz
x,y,z
-x,1/2+y,1/2-z
-x,-y,-z
x,1/2-y,1/2+z
loop_
_atom_site_type_symbol
_atom_site_label
_atom_site_fract_x
_atom_site_fract_y
_atom_site_fract_z
Si Si1 0.186388 0.240531 0.266220
Si Si2 0.024217 0.379034 0.991980
Si Si3 0.090323 0.927798 0.069923
Si Si4 0.153813 0.694915 0.391429
Si Si5 0.147409 0.062095 0.038856
Si Si6 0.266746 0.815583 0.418830
Si Si7 0.363690 0.172360 0.818643
O O1 0.348002 0.281969 0.170833
O O2 0.135751 0.182026 0.429510
O O3 0.030165 0.285836 0.389213
O O4 0.231325 0.208294 0.050891
O O5 0.026566 0.419957 0.161188
O O6 0.834376 0.358709 0.121449
O O7 0.090264 0.419797 0.778202
O O8 0.197332 0.989854 0.997575
O O9 0.204495 0.867174 0.949012
O O10 0.992980 0.929188 0.977806
O O11 0.283072 0.746836 0.331473
O O12 0.161704 0.683950 0.183773
O O13 0.302269 0.102911 0.843417
O O14 0.452778 0.837994 0.276931
#
# Coordination Sequence:
#
# PCOD8124018 Si02
#       7
#     4   4   4   4   4   4   4
#     4  10  19  33  58  82 110 148 195 244 294 336
#     4  10  20  38  60  85 113 155 199 244 295 355
#     4  11  20  36  65  83 114 155 209 242 285 346
#     4  11  19  37  57  87 112 155 198 240 290 367
#     4  10  22  38  59  88 116 155 201 250 285 347
#     4  11  22  35  58  86 122 152 188 246 312 352
#     4  11  21  37  55  88 122 148 189 253 300 347
#
# _framework density 20.170566999999998
#
# number of rings (size 3 to 8) (size 9 to 14) (size 15 to 20)
#    0.000    1.429    2.857    5.571    0.000    0.000 
#    0.000    1.429    0.000    0.000    0.000    0.000 
#    0.000    0.000    0.000    0.000    0.000    0.000 
#
# Total GULP energy -346955.173460 kJ/mol
# GULP energy per Si atom -12391.256195 kJ/mol
# Density = 2.012466 g / cm^3
# Si number density = 20.170567 Si / 1000 Ang^3
#
#
#
# Elastic Constant Matrix: (Units=GPa)
#
#
# Indices 1 2 3 4 5 6 
#
# 1 26.1414 0.4239 -1.5089 0.0000 -5.1122 0.0000
# 2 0.4239 102.0294 1.0699 0.0000 4.5481 0.0000
# 3 -1.5089 1.0699 47.5608 0.0000 12.7844 0.0000
# 4 0.0000 0.0000 0.0000 21.1904 0.0000 3.2167
# 5 -5.1122 4.5481 12.7844 0.0000 38.7534 0.0000
# 6 0.0000 0.0000 0.0000 3.2167 0.0000 23.7088
#
#
#
# Elastic Compliance Matrix: (Units=1/GPa)
#
#
# Indices 1 2 3 4 5 6 
#
# 1 0.039284 -0.000397 -0.000165 0.000000 0.005283 0.000000
# 2 -0.000397 0.009857 0.000100 0.000000 -0.001242 0.000000
# 3 -0.000165 0.000100 0.023073 0.000000 -0.007645 0.000000
# 4 0.000000 0.000000 0.000000 0.048184 0.000000 -0.006537
# 5 0.005283 -0.001242 -0.007645 0.000000 0.029169 0.000000
# 6 0.000000 0.000000 0.000000 -0.006537 0.000000 0.043065
#
#
# Mechanical properties :
#
#
# Convention : Reuss Voigt Hill
#
# Bulk Modulus (GPa) = 14.02737 19.52237 16.77487
# Shear Modulus (GPa) = 23.00761 28.44698 25.72730
#
# Velocity S-wave (km/s) = 3.38102 3.75950 3.57527
# Velocity P-wave (km/s) = 4.71288 5.34273 5.03766
#
# Compressibility (1/GPa) = 0.07128920
#
# Stress axis : x y z
#
# Youngs Moduli (GPa) = 25.45596 101.45009 43.34019
#
# Poissons Ratio (x) = 0.04027 0.00715
# Poissons Ratio (y) = 0.01011 -0.00431
# Poissons Ratio (z) = 0.00420 -0.01010
#
# Static dielectric constant tensor:
#      x y z
#    x 3.413400 0.000000 0.324200 
#    y 0.000000 4.162710 0.000000 
#    z 0.324200 0.000000 3.503810 
# 
# 
# High freq. dielectric constant tensor:
#      x y z
#    x 1.762850 0.000000 0.029300 
#    y 0.000000 1.797860 0.000000 
#    z 0.029300 0.000000 1.775590 
# 
# From -- ./inp_files/9941.got.cif
#   From: 2010.03.12/outbox.cif.g09.slc.cpg/sg14_5_cif.got.tgz:9941.got - 2010.03.31 13:35:05.
