data_PCOD8124164
_publ_section_title
;
Structure prediction by ZEFSAII (Michael W. Deem and Ramdas Pophale) SiO2 
 PCOD8124164
Probable space group: P 21/C
;
_chemical_formula_sum "Si O2"
_cell_formula_units_Z 24
_cell_length_a 10.132403
_cell_length_b 9.321687
_cell_length_c 22.656394
_cell_angle_alpha 90.000000
_cell_angle_beta 143.199003
_cell_angle_gamma 90.000000
_cell_volume 1281.893050
_symmetry_space_group_name_H-M "P 21/C"
_symmetry_group_IT_number 14
_symmetry_cell_setting 'monoclinic'
loop_
_space_group_symop_operation_xyz
x,y,z
-x,1/2+y,1/2-z
-x,-y,-z
x,1/2-y,1/2+z
loop_
_atom_site_type_symbol
_atom_site_label
_atom_site_fract_x
_atom_site_fract_y
_atom_site_fract_z
Si Si1 0.446102 0.231666 0.178032
Si Si2 0.093394 0.736089 0.218144
Si Si3 0.848121 0.018206 0.161030
Si Si4 0.673354 0.404782 0.355924
Si Si5 0.875908 0.718795 0.527412
Si Si6 0.379469 0.554510 0.533997
O O1 0.652750 0.231926 0.208224
O O2 0.490521 0.317181 0.253914
O O3 0.379305 0.071118 0.172040
O O4 0.238545 0.304911 0.067990
O O5 0.045646 0.629174 0.254849
O O6 0.032167 0.899661 0.212246
O O7 0.948377 0.684001 0.109123
O O8 0.637045 0.934218 0.111114
O O9 0.772511 0.107665 0.075303
O O10 0.661511 0.356536 0.420458
O O11 0.916518 0.374375 0.419507
O O12 0.682086 0.611591 0.478043
#
# Coordination Sequence:
#
# PCOD8124164 Si02
#       6
#     4   4   4   4   4   4
#     4  10  19  37  56  79 114 138 181 227 271 319
#     4  10  20  36  55  82 106 149 180 226 264 322
#     4  10  19  35  57  77 110 146 187 215 269 315
#     4  10  19  35  59  84 106 144 178 227 274 324
#     4   9  18  35  61  77 108 145 183 215 281 324
#     4   9  17  34  56  76 105 148 182 217 257 332
#
# _framework density 18.722311000000001
#
# number of rings (size 3 to 8) (size 9 to 14) (size 15 to 20)
#    0.000    2.333    3.333    2.000    0.000    0.000 
#   12.000    5.833    0.000    0.000    0.000    0.000 
#    0.000    0.000    0.000    0.000    0.000    0.000 
#
# Total GULP energy -297391.878576 kJ/mol
# GULP energy per Si atom -12391.328274 kJ/mol
# Density = 1.867970 g / cm^3
# Si number density = 18.722311 Si / 1000 Ang^3
#
#
#
# Elastic Constant Matrix: (Units=GPa)
#
#
# Indices 1 2 3 4 5 6 
#
# 1 53.5323 6.2388 34.9820 0.0000 -19.2391 0.0000
# 2 6.2388 31.6374 40.7921 0.0000 -11.2228 0.0000
# 3 34.9820 40.7921 155.0053 0.0000 -26.0234 0.0000
# 4 0.0000 0.0000 0.0000 30.1462 0.0000 -5.3539
# 5 -19.2391 -11.2228 -26.0234 0.0000 40.7590 0.0000
# 6 0.0000 0.0000 0.0000 -5.3539 0.0000 26.6386
#
#
#
# Elastic Compliance Matrix: (Units=1/GPa)
#
#
# Indices 1 2 3 4 5 6 
#
# 1 0.025188 0.005654 -0.005505 0.000000 0.009931 0.000000
# 2 0.005654 0.050345 -0.013161 0.000000 0.008129 0.000000
# 3 -0.005505 -0.013161 0.011327 0.000000 0.001010 0.000000
# 4 0.000000 0.000000 0.000000 0.034400 0.000000 0.006914
# 5 0.009931 0.008129 0.001010 0.000000 0.032105 0.000000
# 6 0.000000 0.000000 0.000000 0.006914 0.000000 0.038929
#
#
# Mechanical properties :
#
#
# Convention : Reuss Voigt Hill
#
# Bulk Modulus (GPa) = 16.43736 44.91120 30.67428
# Shear Modulus (GPa) = 20.95592 30.05289 25.50441
#
# Velocity S-wave (km/s) = 3.34923 4.01083 3.69487
# Velocity P-wave (km/s) = 4.87391 6.74456 5.88405
#
# Compressibility (1/GPa) = 0.06083703
#
# Stress axis : x y z
#
# Youngs Moduli (GPa) = 39.70131 19.86276 88.28700
#
# Poissons Ratio (x) = -0.11231 0.48603
# Poissons Ratio (y) = -0.22447 1.16190
# Poissons Ratio (z) = 0.21856 0.26140
#
# Static dielectric constant tensor:
#      x y z
#    x 3.615760 0.000000 -0.396030 
#    y 0.000000 2.921630 0.000000 
#    z -0.396030 0.000000 4.078140 
# 
# 
# High freq. dielectric constant tensor:
#      x y z
#    x 1.738930 0.000000 -0.013070 
#    y 0.000000 1.663940 0.000000 
#    z -0.013070 0.000000 1.753920 
# 
# From -- ./inp_files/52228.got.cif
#   From: 2010.03.12/outbox.cif.g09.slc.cpg/sg14_27_cif.got.tgz:52228.got - 2010.03.31 13:35:05.
