data_PCOD8124345
_publ_section_title
;
Structure prediction by ZEFSAII (Michael W. Deem and Ramdas Pophale) SiO2 
 PCOD8124345
Probable space group: P 21/C
;
_chemical_formula_sum "Si O2"
_cell_formula_units_Z 32
_cell_length_a 18.017096
_cell_length_b 18.630245
_cell_length_c 17.246385
_cell_angle_alpha 90.000000
_cell_angle_beta 163.243056
_cell_angle_gamma 90.000000
_cell_volume 1669.031894
_symmetry_space_group_name_H-M "P 21/C"
_symmetry_group_IT_number 14
_symmetry_cell_setting 'monoclinic'
loop_
_space_group_symop_operation_xyz
x,y,z
-x,1/2+y,1/2-z
-x,-y,-z
x,1/2-y,1/2+z
loop_
_atom_site_type_symbol
_atom_site_label
_atom_site_fract_x
_atom_site_fract_y
_atom_site_fract_z
Si Si1 0.006759 0.695445 0.400882
Si Si2 0.501790 0.495666 0.653730
Si Si3 0.996428 0.803677 0.524064
Si Si4 0.000974 0.444760 0.069938
Si Si5 0.502384 0.165623 0.875897
Si Si6 0.493870 0.186367 0.690121
Si Si7 0.992050 0.474415 0.578764
Si Si8 0.507522 0.982486 0.333568
O O1 0.006634 0.730047 0.486154
O O2 0.007143 0.610963 0.415491
O O3 0.255356 0.720206 0.600019
O O4 0.758597 0.719961 0.102690
O O5 0.251634 0.457039 0.371454
O O6 0.505925 0.579472 0.635847
O O7 0.499847 0.480749 0.742686
O O8 0.749940 0.455969 0.869836
O O9 0.997983 0.865117 0.461376
O O10 0.237982 0.809350 0.822858
O O11 0.740323 0.805770 0.319299
O O12 0.000000 0.500000 0.000000
O O13 0.495390 0.201530 0.783789
O O14 0.494693 0.102085 0.678709
O O15 0.000000 0.500000 0.500000
O O16 0.738988 0.507973 0.364629
O O17 0.236942 0.508064 0.867118
#
# Coordination Sequence:
#
# PCOD8124345 Si02
#       8
#     4   4   4   4   4   4   4   4
#     4  10  21  38  56  81 108 143 182 226 269 334
#     4  11  20  35  55  80 116 142 191 226 257 317
#     4  12  23  34  57  82 115 147 184 220 280 324
#     4  12  21  34  53  82 116 152 179 221 267 317
#     4  11  20  35  58  85 103 147 189 231 260 315
#     4   9  19  36  59  78 105 138 189 226 262 314
#     4  10  19  36  62  83 105 135 183 233 283 319
#     4   9  19  33  57  86 103 139 180 227 269 323
#
# _framework density 19.172791
#
# number of rings (size 3 to 8) (size 9 to 14) (size 15 to 20)
#    0.000    1.500    2.500    3.750    0.000    4.000 
#    0.000    0.000   16.500    0.000    0.000    0.000 
#    0.000    0.000    0.000    0.000    0.000    0.000 
#
# Total GULP energy -396884.125451 kJ/mol
# GULP energy per Si atom -12402.628920 kJ/mol
# Density = 1.912915 g / cm^3
# Si number density = 19.172791 Si / 1000 Ang^3
#
#
#
# Elastic Constant Matrix: (Units=GPa)
#
#
# Indices 1 2 3 4 5 6 
#
# 1 151.0626 21.6861 56.5104 0.0000 11.7127 0.0000
# 2 21.6861 21.9850 18.3949 0.0000 0.2004 0.0000
# 3 56.5104 18.3949 125.7894 0.0000 20.1206 0.0000
# 4 0.0000 0.0000 0.0000 30.3490 0.0000 -7.2416
# 5 11.7127 0.2004 20.1206 0.0000 41.7765 0.0000
# 6 0.0000 0.0000 0.0000 -7.2416 0.0000 32.4787
#
#
#
# Elastic Compliance Matrix: (Units=1/GPa)
#
#
# Indices 1 2 3 4 5 6 
#
# 1 0.008636 -0.006155 -0.002814 0.000000 -0.001037 0.000000
# 2 -0.006155 0.056742 -0.006246 0.000000 0.004462 0.000000
# 3 -0.002814 -0.006246 0.010831 0.000000 -0.004397 0.000000
# 4 0.000000 0.000000 0.000000 0.034801 0.000000 0.007759
# 5 -0.001037 0.004462 -0.004397 0.000000 0.026324 0.000000
# 6 0.000000 0.000000 0.000000 0.007759 0.000000 0.032519
#
#
# Mechanical properties :
#
#
# Convention : Reuss Voigt Hill
#
# Bulk Modulus (GPa) = 21.84411 54.66887 38.25649
# Shear Modulus (GPa) = 23.19701 34.40390 28.80046
#
# Velocity S-wave (km/s) = 3.48212 4.24065 3.87997
# Velocity P-wave (km/s) = 5.25214 7.24935 6.33001
#
# Compressibility (1/GPa) = 0.04577892
#
# Stress axis : x y z
#
# Youngs Moduli (GPa) = 115.78879 17.62348 92.32923
#
# Poissons Ratio (x) = 0.10847 0.25981
# Poissons Ratio (y) = 0.71269 0.57672
# Poissons Ratio (z) = 0.32583 0.11008
#
# Static dielectric constant tensor:
#      x y z
#    x 3.594960 0.000000 -1.081730 
#    y 0.000000 3.106000 0.000000 
#    z -1.081730 0.000000 -8.466960 
# 
# 
# High freq. dielectric constant tensor:
#      x y z
#    x 1.763220 0.000000 0.002270 
#    y 0.000000 1.704580 0.000000 
#    z 0.002270 0.000000 1.770970 
# 
# From -- ./inp_files/47633.got.cif
#   From: 2010.03.12/outbox.cif.g09.slc.cpg/sg14_24_cif.got.tgz:47633.got - 2010.03.31 13:35:05.
