data_PCOD8124109
_publ_section_title
;
Structure prediction by ZEFSAII (Michael W. Deem and Ramdas Pophale) SiO2 
 PCOD8124109
Probable space group: P 21/C
;
_chemical_formula_sum "Si O2"
_cell_formula_units_Z 32
_cell_length_a 13.176661
_cell_length_b 14.132696
_cell_length_c 12.391361
_cell_angle_alpha 90.000000
_cell_angle_beta 40.200001
_cell_angle_gamma 90.000000
_cell_volume 1489.420018
_symmetry_space_group_name_H-M "P 21/C"
_symmetry_group_IT_number 14
_symmetry_cell_setting 'monoclinic'
loop_
_space_group_symop_operation_xyz
x,y,z
-x,1/2+y,1/2-z
-x,-y,-z
x,1/2-y,1/2+z
loop_
_atom_site_type_symbol
_atom_site_label
_atom_site_fract_x
_atom_site_fract_y
_atom_site_fract_z
Si Si1 0.948714 0.107321 0.827048
Si Si2 0.239386 0.436481 0.595020
Si Si3 0.313847 0.161245 0.248393
Si Si4 0.272713 0.005021 0.604272
Si Si5 0.513241 0.503423 0.256456
Si Si6 0.720867 0.389251 0.694247
Si Si7 0.571782 0.696455 0.002851
Si Si8 0.850655 0.743207 0.432496
O O1 0.109015 0.050426 0.705107
O O2 0.987718 0.206259 0.735741
O O3 0.827448 0.043488 0.856156
O O4 0.879986 0.136420 0.000502
O O5 0.224003 0.400357 0.730463
O O6 0.429190 0.433936 0.411739
O O7 0.137946 0.370501 0.593841
O O8 0.413392 0.095465 0.246527
O O9 0.430364 0.238293 0.101053
O O10 0.183064 0.222367 0.418685
O O11 0.352488 0.959260 0.430818
O O12 0.390610 0.086066 0.555822
O O13 0.237049 0.924702 0.720223
O O14 0.363298 0.529154 0.305365
O O15 0.602486 0.299849 0.802665
O O16 0.701304 0.731444 0.980483
#
# Coordination Sequence:
#
# PCOD8124109 Si02
#       8
#     4   4   4   4   4   4   4   4
#     4  10  21  40  60  88 130 158 203 254 298 373
#     4  10  24  38  64  91 115 172 205 246 322 359
#     4  11  20  37  64  86 125 155 206 252 305 366
#     4  10  19  36  58  92 117 159 199 252 303 359
#     4  10  19  38  61  89 120 152 206 257 298 362
#     4  10  19  34  60  88 118 156 201 256 304 354
#     4   9  19  34  59  86 113 153 203 247 300 349
#     4  10  21  41  60  87 126 161 204 256 297 366
#
# _framework density 21.484873
#
# number of rings (size 3 to 8) (size 9 to 14) (size 15 to 20)
#    0.000    2.000    3.750    2.250    5.250    0.500 
#    2.250    5.000    0.000    0.000    0.000    0.000 
#    0.000    0.000    0.000    0.000    0.000    0.000 
#
# Total GULP energy -396536.788153 kJ/mol
# GULP energy per Si atom -12391.774630 kJ/mol
# Density = 2.143597 g / cm^3
# Si number density = 21.484873 Si / 1000 Ang^3
#
#
#
# Elastic Constant Matrix: (Units=GPa)
#
#
# Indices 1 2 3 4 5 6 
#
# 1 31.5551 -3.8130 15.4752 0.0000 4.7806 0.0000
# 2 -3.8130 54.2182 17.7871 0.0000 0.5845 0.0000
# 3 15.4752 17.7871 150.0500 0.0000 -1.1358 0.0000
# 4 0.0000 0.0000 0.0000 38.3254 0.0000 2.6627
# 5 4.7806 0.5845 -1.1358 0.0000 32.3700 0.0000
# 6 0.0000 0.0000 0.0000 2.6627 0.0000 22.5394
#
#
#
# Elastic Compliance Matrix: (Units=1/GPa)
#
#
# Indices 1 2 3 4 5 6 
#
# 1 0.034987 0.003866 -0.004107 0.000000 -0.005381 0.000000
# 2 0.003866 0.019623 -0.002733 0.000000 -0.001021 0.000000
# 3 -0.004107 -0.002733 0.007419 0.000000 0.000916 0.000000
# 4 0.000000 0.000000 0.000000 0.026308 0.000000 -0.003108
# 5 -0.005381 -0.001021 0.000916 0.000000 0.031738 0.000000
# 6 0.000000 0.000000 0.000000 -0.003108 0.000000 0.044734
#
#
# Mechanical properties :
#
#
# Convention : Reuss Voigt Hill
#
# Bulk Modulus (GPa) = 17.83114 32.74686 25.28900
# Shear Modulus (GPa) = 26.39194 32.40521 29.39857
#
# Velocity S-wave (km/s) = 3.50865 3.88787 3.70312
# Velocity P-wave (km/s) = 4.97309 5.95222 5.48455
#
# Compressibility (1/GPa) = 0.05608167
#
# Stress axis : x y z
#
# Youngs Moduli (GPa) = 28.58177 50.95966 134.79054
#
# Poissons Ratio (x) = -0.19701 0.55364
# Poissons Ratio (y) = -0.11050 0.36833
# Poissons Ratio (z) = 0.11740 0.13925
#
# Static dielectric constant tensor:
#      x y z
#    x 3.506240 0.000000 0.053230 
#    y 0.000000 4.087860 0.000000 
#    z 0.053230 0.000000 4.421120 
# 
# 
# High freq. dielectric constant tensor:
#      x y z
#    x 1.813670 0.000000 0.006380 
#    y 0.000000 1.822370 0.000000 
#    z 0.006380 0.000000 1.862020 
# 
# From -- ./inp_files/32753.got.cif
#   From: 2010.03.12/outbox.cif.g09.slc.cpg/sg14_17_cif.got.tgz:32753.got - 2010.03.31 13:35:05.
