data_PCOD8124877
_publ_section_title
;
Structure prediction by ZEFSAII (Michael W. Deem and Ramdas Pophale) SiO2 
 PCOD8124877
Probable space group: P 21/C
;
_chemical_formula_sum "Si O2"
_cell_formula_units_Z 28
_cell_length_a 12.742700
_cell_length_b 18.170489
_cell_length_c 9.781089
_cell_angle_alpha 90.000000
_cell_angle_beta 38.960399
_cell_angle_gamma 90.000000
_cell_volume 1424.020189
_symmetry_space_group_name_H-M "P 21/C"
_symmetry_group_IT_number 14
_symmetry_cell_setting 'monoclinic'
loop_
_space_group_symop_operation_xyz
x,y,z
-x,1/2+y,1/2-z
-x,-y,-z
x,1/2-y,1/2+z
loop_
_atom_site_type_symbol
_atom_site_label
_atom_site_fract_x
_atom_site_fract_y
_atom_site_fract_z
Si Si1 0.948518 0.949897 0.301943
Si Si2 0.263768 0.114844 0.260332
Si Si3 0.953377 0.741489 0.522679
Si Si4 0.534958 0.125174 0.207147
Si Si5 0.136762 0.797121 0.091075
Si Si6 0.725503 0.898424 0.300423
Si Si7 0.720892 0.528069 0.523508
O O1 0.835407 0.948192 0.553525
O O2 0.832646 0.956049 0.284026
O O3 0.048595 0.874964 0.192655
O O4 0.077728 0.017435 0.176911
O O5 0.150062 0.184862 0.344882
O O6 0.420730 0.141056 0.191409
O O7 0.325616 0.081873 0.054022
O O8 0.831842 0.672399 0.652238
O O9 0.048011 0.740654 0.283282
O O10 0.105200 0.737203 0.475406
O O11 0.432914 0.127655 0.451666
O O12 0.623953 0.047184 0.097832
O O13 0.666986 0.192101 0.080416
O O14 0.662231 0.937742 0.226892
#
# Coordination Sequence:
#
# PCOD8124877 Si02
#       7
#     4   4   4   4   4   4   4
#     4   8  18  34  53  77 110 144 177 226 277 308
#     4  10  20  35  57  81 112 147 183 230 274 330
#     4  10  20  38  58  80 104 146 192 222 270 332
#     4  10  22  37  51  78 118 147 170 233 300 316
#     4   9  19  36  55  76 108 141 180 227 271 326
#     4  10  20  35  57  81 112 147 183 230 274 330
#     4  11  19  33  57  83 106 144 193 224 264 336
#
# _framework density 19.662641000000001
#
# number of rings (size 3 to 8) (size 9 to 14) (size 15 to 20)
#    0.000    2.286    0.000    3.429    0.000    1.143 
#    0.000    1.429    0.000    0.000    0.000    0.000 
#    0.000    0.000    0.000    0.000    0.000    0.000 
#
# Total GULP energy -347199.896096 kJ/mol
# GULP energy per Si atom -12399.996289 kJ/mol
# Density = 1.961789 g / cm^3
# Si number density = 19.662641 Si / 1000 Ang^3
#
#
#
# Elastic Constant Matrix: (Units=GPa)
#
#
# Indices 1 2 3 4 5 6 
#
# 1 102.6596 20.7075 31.5829 0.0000 4.8754 0.0000
# 2 20.7075 48.7357 5.1142 0.0000 -2.5432 0.0000
# 3 31.5829 5.1142 57.3028 0.0000 -6.2142 0.0000
# 4 0.0000 0.0000 0.0000 28.0134 0.0000 -1.5343
# 5 4.8754 -2.5432 -6.2142 0.0000 37.6644 0.0000
# 6 0.0000 0.0000 0.0000 -1.5343 0.0000 26.6050
#
#
#
# Elastic Compliance Matrix: (Units=1/GPa)
#
#
# Indices 1 2 3 4 5 6 
#
# 1 0.013087 -0.004981 -0.007116 0.000000 -0.003204 0.000000
# 2 -0.004981 0.022655 0.000977 0.000000 0.002336 0.000000
# 3 -0.007116 0.000977 0.021783 0.000000 0.004581 0.000000
# 4 0.000000 0.000000 0.000000 0.035810 0.000000 0.002065
# 5 -0.003204 0.002336 0.004581 0.000000 0.027879 0.000000
# 6 0.000000 0.000000 0.000000 0.002065 0.000000 0.037706
#
#
# Mechanical properties :
#
#
# Convention : Reuss Voigt Hill
#
# Bulk Modulus (GPa) = 28.34154 35.94526 32.14340
# Shear Modulus (GPa) = 25.91729 28.54279 27.23004
#
# Velocity S-wave (km/s) = 3.63450 3.81415 3.72541
# Velocity P-wave (km/s) = 5.66198 6.14147 5.90659
#
# Compressibility (1/GPa) = 0.03528389
#
# Stress axis : x y z
#
# Youngs Moduli (GPa) = 76.41129 44.14105 45.90771
#
# Poissons Ratio (x) = 0.21987 0.32668
# Poissons Ratio (y) = 0.38061 -0.04484
# Poissons Ratio (z) = 0.54374 -0.04312
#
# Static dielectric constant tensor:
#      x y z
#    x 3.766910 0.000000 -0.056730 
#    y 0.000000 3.287250 0.000000 
#    z -0.056730 0.000000 3.708720 
# 
# 
# High freq. dielectric constant tensor:
#      x y z
#    x 1.776470 0.000000 0.005140 
#    y 0.000000 1.743070 0.000000 
#    z 0.005140 0.000000 1.769570 
# 
# From -- ./inp_files/9461.got.cif
#   From: 2010.03.12/outbox.cif.g09.slc.cpg/sg14_5_cif.got.tgz:9461.got - 2010.03.31 13:35:05.
