data_PCOD8124694
_publ_section_title
;
Structure prediction by ZEFSAII (Michael W. Deem and Ramdas Pophale) SiO2 
 PCOD8124694
Probable space group: P 21/C
;
_chemical_formula_sum "Si O2"
_cell_formula_units_Z 32
_cell_length_a 11.569943
_cell_length_b 8.326903
_cell_length_c 15.742553
_cell_angle_alpha 90.000000
_cell_angle_beta 76.633542
_cell_angle_gamma 90.000000
_cell_volume 1475.581402
_symmetry_space_group_name_H-M "P 21/C"
_symmetry_group_IT_number 14
_symmetry_cell_setting 'monoclinic'
loop_
_space_group_symop_operation_xyz
x,y,z
-x,1/2+y,1/2-z
-x,-y,-z
x,1/2-y,1/2+z
loop_
_atom_site_type_symbol
_atom_site_label
_atom_site_fract_x
_atom_site_fract_y
_atom_site_fract_z
Si Si1 0.341550 0.521895 0.781964
Si Si2 0.503523 0.311551 0.509523
Si Si3 0.946342 0.723760 0.852709
Si Si4 0.691012 0.905706 0.387779
Si Si5 0.994216 0.315197 0.976936
Si Si6 0.904641 0.581255 0.206846
Si Si7 0.271008 0.649129 0.971668
Si Si8 0.450247 0.830935 0.675691
O O1 0.237094 0.426848 0.750460
O O2 0.275402 0.581991 0.876843
O O3 0.386088 0.675566 0.723203
O O4 0.448340 0.396996 0.778881
O O5 0.500000 0.500000 0.500000
O O6 0.399121 0.244824 0.587795
O O7 0.629812 0.283858 0.532666
O O8 0.490614 0.217831 0.423254
O O9 0.821290 0.653290 0.842067
O O10 0.970883 0.868339 0.782995
O O11 0.049566 0.594406 0.824808
O O12 0.947702 0.781592 0.952253
O O13 0.700424 0.998534 0.474435
O O14 0.644398 0.025695 0.322328
O O15 0.065187 0.293024 0.875843
O O16 0.856092 0.268623 0.986921
O O17 0.000000 0.500000 0.000000
#
# Coordination Sequence:
#
# PCOD8124694 Si02
#       8
#     4   4   4   4   4   4   4   4
#     4  12  24  43  65  98 134 175 221 276 341 409
#     4  11  25  42  66  99 130 174 226 280 335 408
#     4  11  24  40  70  97 136 175 232 279 340 408
#     4  11  21  44  66  92 131 180 219 276 347 401
#     4  10  19  42  68  93 123 181 225 268 331 412
#     4  11  25  42  69  98 134 179 233 279 342 411
#     4  11  19  43  72  89 125 178 224 267 340 408
#     4  11  27  39  66  96 135 172 221 277 342 405
#
# _framework density 21.686367000000001
#
# number of rings (size 3 to 8) (size 9 to 14) (size 15 to 20)
#    0.000    1.000    7.500    0.750    7.000    0.000 
#    0.000    1.875    0.000    0.000    0.000    0.000 
#    0.000    0.000    0.000    0.000    0.000    0.000 
#
# Total GULP energy -396748.351345 kJ/mol
# GULP energy per Si atom -12398.385980 kJ/mol
# Density = 2.163701 g / cm^3
# Si number density = 21.686367 Si / 1000 Ang^3
#
#
#
# Elastic Constant Matrix: (Units=GPa)
#
#
# Indices 1 2 3 4 5 6 
#
# 1 143.3462 19.8058 25.2334 0.0000 8.1543 0.0000
# 2 19.8058 43.9157 17.4582 0.0000 11.3451 0.0000
# 3 25.2334 17.4582 84.5517 0.0000 10.2288 0.0000
# 4 0.0000 0.0000 0.0000 27.0453 0.0000 7.9437
# 5 8.1543 11.3451 10.2288 0.0000 30.9017 0.0000
# 6 0.0000 0.0000 0.0000 7.9437 0.0000 25.0154
#
#
#
# Elastic Compliance Matrix: (Units=1/GPa)
#
#
# Indices 1 2 3 4 5 6 
#
# 1 0.007668 -0.002664 -0.001679 0.000000 -0.000489 0.000000
# 2 -0.002664 0.027637 -0.003926 0.000000 -0.008144 0.000000
# 3 -0.001679 -0.003926 0.013449 0.000000 -0.002567 0.000000
# 4 0.000000 0.000000 0.000000 0.040778 0.000000 -0.012949
# 5 -0.000489 -0.008144 -0.002567 0.000000 0.036330 0.000000
# 6 0.000000 0.000000 0.000000 -0.012949 0.000000 0.044087
#
#
# Mechanical properties :
#
#
# Convention : Reuss Voigt Hill
#
# Bulk Modulus (GPa) = 31.04096 44.08984 37.56540
# Shear Modulus (GPa) = 25.35151 30.54687 27.94919
#
# Velocity S-wave (km/s) = 3.42278 3.75717 3.59387
# Velocity P-wave (km/s) = 5.47405 6.26072 5.88055
#
# Compressibility (1/GPa) = 0.03221549
#
# Stress axis : x y z
#
# Youngs Moduli (GPa) = 130.41865 36.18320 74.35249
#
# Poissons Ratio (x) = 0.09640 0.12484
# Poissons Ratio (y) = 0.34745 0.29192
# Poissons Ratio (z) = 0.21897 0.14206
#
# Static dielectric constant tensor:
#      x y z
#    x 4.427670 0.000000 0.134550 
#    y 0.000000 3.798130 0.000000 
#    z 0.134550 0.000000 4.393580 
# 
# 
# High freq. dielectric constant tensor:
#      x y z
#    x 1.865640 0.000000 0.006040 
#    y 0.000000 1.820200 0.000000 
#    z 0.006040 0.000000 1.857420 
# 
# From -- ./inp_files/43750.got.cif
#   From: 2010.03.12/outbox.cif.g09.slc.cpg/sg14_22_cif.got.tgz:43750.got - 2010.03.31 13:35:05.
