data_PCOD8124314
_publ_section_title
;
Structure prediction by ZEFSAII (Michael W. Deem and Ramdas Pophale) SiO2 
 PCOD8124314
Probable space group: P 21/C
;
_chemical_formula_sum "Si O2"
_cell_formula_units_Z 24
_cell_length_a 14.314088
_cell_length_b 8.778986
_cell_length_c 18.496545
_cell_angle_alpha 90.000000
_cell_angle_beta 32.240867
_cell_angle_gamma 90.000000
_cell_volume 1239.985339
_symmetry_space_group_name_H-M "P 21/C"
_symmetry_group_IT_number 14
_symmetry_cell_setting 'monoclinic'
loop_
_space_group_symop_operation_xyz
x,y,z
-x,1/2+y,1/2-z
-x,-y,-z
x,1/2-y,1/2+z
loop_
_atom_site_type_symbol
_atom_site_label
_atom_site_fract_x
_atom_site_fract_y
_atom_site_fract_z
Si Si1 0.745935 0.895218 0.970875
Si Si2 0.825102 0.607020 0.258522
Si Si3 0.978653 0.574195 0.627959
Si Si4 0.365014 0.533310 0.749140
Si Si5 0.140557 0.686218 0.381017
Si Si6 0.867049 0.616192 0.981324
O O1 0.719641 0.907575 0.902175
O O2 0.780442 0.723163 0.976892
O O3 0.573556 0.965865 0.120922
O O4 0.911791 0.000521 0.879198
O O5 0.877013 0.782290 0.223380
O O6 0.695213 0.573011 0.277556
O O7 0.997591 0.500965 0.144061
O O8 0.837694 0.450244 0.690902
O O9 0.117363 0.616013 0.475062
O O10 0.309766 0.707066 0.768066
O O11 0.283182 0.477242 0.878370
O O12 0.966683 0.784146 0.476463
#
# Coordination Sequence:
#
# PCOD8124314 Si02
#       6
#     4   4   4   4   4   4
#     4  11  25  34  56  91 123 141 191 249 292 325
#     4  11  20  41  60  82 115 160 190 230 291 350
#     4  10  19  36  60  83 109 153 194 229 274 345
#     4  11  21  38  59  85 116 153 188 243 286 337
#     4   9  18  36  59  81 105 149 198 229 268 346
#     4  10  20  38  59  82 110 157 197 226 282 350
#
# _framework density 19.355066000000001
#
# number of rings (size 3 to 8) (size 9 to 14) (size 15 to 20)
#    0.000    1.667    3.333    2.500    2.333    0.000 
#    0.000    2.500    0.000    0.000    0.000    0.000 
#    0.000    0.000    0.000    0.000    0.000    0.000 
#
# Total GULP energy -297627.995251 kJ/mol
# GULP energy per Si atom -12401.166469 kJ/mol
# Density = 1.931101 g / cm^3
# Si number density = 19.355066 Si / 1000 Ang^3
#
#
#
# Elastic Constant Matrix: (Units=GPa)
#
#
# Indices 1 2 3 4 5 6 
#
# 1 51.5059 17.1372 16.9078 0.0000 9.8978 0.0000
# 2 17.1372 111.9393 28.8295 0.0000 -2.3237 0.0000
# 3 16.9078 28.8295 70.7262 0.0000 5.3423 0.0000
# 4 0.0000 0.0000 0.0000 15.9271 0.0000 1.5332
# 5 9.8978 -2.3237 5.3423 0.0000 21.3889 0.0000
# 6 0.0000 0.0000 0.0000 1.5332 0.0000 20.8326
#
#
#
# Elastic Compliance Matrix: (Units=1/GPa)
#
#
# Indices 1 2 3 4 5 6 
#
# 1 0.023558 -0.002872 -0.003684 0.000000 -0.010294 0.000000
# 2 -0.002872 0.010428 -0.003822 0.000000 0.003416 0.000000
# 3 -0.003684 -0.003822 0.016797 0.000000 -0.002906 0.000000
# 4 0.000000 0.000000 0.000000 0.063234 0.000000 -0.004654
# 5 -0.010294 0.003416 -0.002906 0.000000 0.052614 0.000000
# 6 0.000000 0.000000 0.000000 -0.004654 0.000000 0.048344
#
#
# Mechanical properties :
#
#
# Convention : Reuss Voigt Hill
#
# Bulk Modulus (GPa) = 33.30195 39.99116 36.64655
# Shear Modulus (GPa) = 20.34664 23.04949 21.69807
#
# Velocity S-wave (km/s) = 3.24579 3.45465 3.35185
# Velocity P-wave (km/s) = 5.59375 6.05141 5.82707
#
# Compressibility (1/GPa) = 0.03002827
#
# Stress axis : x y z
#
# Youngs Moduli (GPa) = 42.44835 95.89198 59.53336
#
# Poissons Ratio (x) = 0.27536 0.21931
# Poissons Ratio (y) = 0.12189 0.22756
# Poissons Ratio (z) = 0.15637 0.36654
#
# Static dielectric constant tensor:
#      x y z
#    x 3.441400 0.000000 0.089800 
#    y 0.000000 3.779190 0.000000 
#    z 0.089800 0.000000 3.191460 
# 
# 
# High freq. dielectric constant tensor:
#      x y z
#    x 1.746600 0.000000 0.012170 
#    y 0.000000 1.767360 0.000000 
#    z 0.012170 0.000000 1.730720 
# 
# From -- ./inp_files/46351.got.cif
#   From: 2010.03.12/outbox.cif.g09.slc.cpg/sg14_24_cif.got.tgz:46351.got - 2010.03.31 13:35:05.
