data_PCOD8124135
_publ_section_title
;
Structure prediction by ZEFSAII (Michael W. Deem and Ramdas Pophale) SiO2 
 PCOD8124135
Probable space group: P 21/C
;
_chemical_formula_sum "Si O2"
_cell_formula_units_Z 28
_cell_length_a 15.312797
_cell_length_b 15.512915
_cell_length_c 14.738866
_cell_angle_alpha 90.000000
_cell_angle_beta 154.241385
_cell_angle_gamma 90.000000
_cell_volume 1521.536676
_symmetry_space_group_name_H-M "P 21/C"
_symmetry_group_IT_number 14
_symmetry_cell_setting 'monoclinic'
loop_
_space_group_symop_operation_xyz
x,y,z
-x,1/2+y,1/2-z
-x,-y,-z
x,1/2-y,1/2+z
loop_
_atom_site_type_symbol
_atom_site_label
_atom_site_fract_x
_atom_site_fract_y
_atom_site_fract_z
Si Si1 0.253923 0.077860 0.705195
Si Si2 0.081452 0.011974 0.721500
Si Si3 0.651159 0.114712 0.592367
Si Si4 0.601562 0.102077 0.912269
Si Si5 0.926655 0.889472 0.102918
Si Si6 0.629207 0.476521 0.249438
Si Si7 0.364500 0.247304 0.242771
O O1 0.474680 0.055082 0.873925
O O2 0.222123 0.181532 0.659386
O O3 0.115881 0.016510 0.514868
O O4 0.229945 0.058085 0.788661
O O5 0.040595 0.081756 0.762331
O O6 0.171513 0.923588 0.849078
O O7 0.690674 0.097730 0.735682
O O8 0.483770 0.189308 0.427184
O O9 0.861007 0.138412 0.740899
O O10 0.563655 0.028556 0.465684
O O11 0.546451 0.065696 0.763007
O O12 0.544272 0.203537 0.855673
O O13 0.773223 0.808485 0.954257
O O14 0.827785 0.966297 0.951980
#
# Coordination Sequence:
#
# PCOD8124135 Si02
#       7
#     4   4   4   4   4   4   4
#     4   9  20  35  54  81 101 136 175 219 249 319
#     4  10  19  35  60  75 102 141 181 204 263 304
#     4  10  19  35  54  75 106 139 165 222 255 306
#     4   9  19  35  54  76 105 136 168 220 252 309
#     4  10  20  35  54  81 105 138 172 221 250 316
#     4   9  19  35  56  77  97 138 186 199 260 312
#     4   9  22  33  52  79 113 130 174 213 270 300
#
# _framework density 18.402448
#
# number of rings (size 3 to 8) (size 9 to 14) (size 15 to 20)
#    0.857    1.714    0.000    1.714    2.000    1.143 
#    0.000    1.429    0.000    0.000    0.000    0.000 
#    0.000    0.000    0.000    0.000    0.000    0.000 
#
# Total GULP energy -346867.635554 kJ/mol
# GULP energy per Si atom -12388.129841 kJ/mol
# Density = 1.836056 g / cm^3
# Si number density = 18.402448 Si / 1000 Ang^3
#
#
#
# Elastic Constant Matrix: (Units=GPa)
#
#
# Indices 1 2 3 4 5 6 
#
# 1 65.3200 20.4502 0.0599 0.0000 3.2002 0.0000
# 2 20.4502 89.9789 16.2294 0.0000 -5.8197 0.0000
# 3 0.0599 16.2294 41.6587 0.0000 3.3881 0.0000
# 4 0.0000 0.0000 0.0000 26.9483 0.0000 4.5024
# 5 3.2002 -5.8197 3.3881 0.0000 19.4633 0.0000
# 6 0.0000 0.0000 0.0000 4.5024 0.0000 13.3721
#
#
#
# Elastic Compliance Matrix: (Units=1/GPa)
#
#
# Indices 1 2 3 4 5 6 
#
# 1 0.016944 -0.004522 0.002104 0.000000 -0.004504 0.000000
# 2 -0.004522 0.013552 -0.005745 0.000000 0.005796 0.000000
# 3 0.002104 -0.005745 0.026787 0.000000 -0.006727 0.000000
# 4 0.000000 0.000000 0.000000 0.039320 0.000000 -0.013239
# 5 -0.004504 0.005796 -0.006727 0.000000 0.055023 0.000000
# 6 0.000000 0.000000 0.000000 -0.013239 0.000000 0.079241
#
#
# Mechanical properties :
#
#
# Convention : Reuss Voigt Hill
#
# Bulk Modulus (GPa) = 24.41575 30.04851 27.23213
# Shear Modulus (GPa) = 19.16851 22.63793 20.90322
#
# Velocity S-wave (km/s) = 3.23093 3.51117 3.37396
# Velocity P-wave (km/s) = 5.21680 5.72728 5.47799
#
# Compressibility (1/GPa) = 0.04095716
#
# Stress axis : x y z
#
# Youngs Moduli (GPa) = 59.01929 73.78762 37.33202
#
# Poissons Ratio (x) = 0.33364 -0.07853
# Poissons Ratio (y) = 0.26686 0.21446
# Poissons Ratio (z) = -0.12415 0.42388
#
# Static dielectric constant tensor:
#      x y z
#    x 3.323410 0.000000 -0.063670 
#    y 0.000000 3.291120 0.000000 
#    z -0.063670 0.000000 3.259680 
# 
# 
# High freq. dielectric constant tensor:
#      x y z
#    x 1.704680 0.000000 -0.004910 
#    y 0.000000 1.702720 0.000000 
#    z -0.004910 0.000000 1.714940 
# 
# From -- ./inp_files/47488.got.cif
#   From: 2010.03.12/outbox.cif.g09.slc.cpg/sg14_24_cif.got.tgz:47488.got - 2010.03.31 13:35:05.
