data_PCOD8124240
_publ_section_title
;
Structure prediction by ZEFSAII (Michael W. Deem and Ramdas Pophale) SiO2 
 PCOD8124240
Probable space group: P 21/C
;
_chemical_formula_sum "Si O2"
_cell_formula_units_Z 24
_cell_length_a 8.602516
_cell_length_b 16.414830
_cell_length_c 8.297886
_cell_angle_alpha 90.000000
_cell_angle_beta 91.403010
_cell_angle_gamma 90.000000
_cell_volume 1171.383557
_symmetry_space_group_name_H-M "P 21/C"
_symmetry_group_IT_number 14
_symmetry_cell_setting 'monoclinic'
loop_
_space_group_symop_operation_xyz
x,y,z
-x,1/2+y,1/2-z
-x,-y,-z
x,1/2-y,1/2+z
loop_
_atom_site_type_symbol
_atom_site_label
_atom_site_fract_x
_atom_site_fract_y
_atom_site_fract_z
Si Si1 0.149649 0.343777 0.401851
Si Si2 0.400765 0.481467 0.839627
Si Si3 0.190367 0.169833 0.280122
Si Si4 0.854713 0.061279 0.841075
Si Si5 0.691690 0.491035 0.654068
Si Si6 0.044854 0.553925 0.152006
O O1 0.220769 0.262806 0.324754
O O2 0.168057 0.337224 0.591006
O O3 0.260654 0.414581 0.339412
O O4 0.966825 0.358959 0.346247
O O5 0.325219 0.391241 0.846760
O O6 0.267884 0.552101 0.812314
O O7 0.508061 0.482200 0.680558
O O8 0.500000 0.500000 0.000000
O O9 0.029343 0.143520 0.366679
O O10 0.970884 0.984108 0.818313
O O11 0.748843 0.054901 0.996243
O O12 0.771232 0.446026 0.811897
O O13 0.000000 0.500000 0.000000
#
# Coordination Sequence:
#
# PCOD8124240 Si02
#       6
#     4   4   4   4   4   4
#     4  11  23  40  65  94 124 167 215 270 325 368
#     4  11  24  40  66  98 127 168 217 260 320 386
#     4  11  24  41  62  94 129 163 219 262 320 382
#     4  10  20  40  64  90 120 166 219 251 309 385
#     4  11  19  40  67  87 122 172 210 258 314 385
#     4  10  19  35  62  92 121 160 216 261 293 372
#
# _framework density 20.488593000000002
#
# number of rings (size 3 to 8) (size 9 to 14) (size 15 to 20)
#    0.000    1.333    5.000    3.500    7.000    0.000 
#    0.000    1.667    0.000    0.000    0.000    0.000 
#    0.000    0.000    0.000    0.000    0.000    0.000 
#
# Total GULP energy -297328.468862 kJ/mol
# GULP energy per Si atom -12388.686203 kJ/mol
# Density = 2.044196 g / cm^3
# Si number density = 20.488593 Si / 1000 Ang^3
#
#
#
# Elastic Constant Matrix: (Units=GPa)
#
#
# Indices 1 2 3 4 5 6 
#
# 1 101.7988 51.3986 23.6436 0.0000 11.5083 0.0000
# 2 51.3986 116.2893 30.5915 0.0000 6.2746 0.0000
# 3 23.6436 30.5915 73.6586 0.0000 18.8379 0.0000
# 4 0.0000 0.0000 0.0000 19.8238 0.0000 -4.3013
# 5 11.5083 6.2746 18.8379 0.0000 39.0833 0.0000
# 6 0.0000 0.0000 0.0000 -4.3013 0.0000 25.5408
#
#
#
# Elastic Compliance Matrix: (Units=1/GPa)
#
#
# Indices 1 2 3 4 5 6 
#
# 1 0.013082 -0.005286 -0.001410 0.000000 -0.002324 0.000000
# 2 -0.005286 0.011796 -0.003554 0.000000 0.001376 0.000000
# 3 -0.001410 -0.003554 0.017397 0.000000 -0.007400 0.000000
# 4 0.000000 0.000000 0.000000 0.052357 0.000000 0.008817
# 5 -0.002324 0.001376 -0.007400 0.000000 0.029616 0.000000
# 6 0.000000 0.000000 0.000000 0.008817 0.000000 0.040638
#
#
# Mechanical properties :
#
#
# Convention : Reuss Voigt Hill
#
# Bulk Modulus (GPa) = 45.92179 55.89047 50.90613
# Shear Modulus (GPa) = 25.95430 29.29713 27.62571
#
# Velocity S-wave (km/s) = 3.56303 3.78554 3.67597
# Velocity P-wave (km/s) = 6.27606 6.81506 6.55111
#
# Compressibility (1/GPa) = 0.02177615
#
# Stress axis : x y z
#
# Youngs Moduli (GPa) = 76.43872 84.77157 57.48051
#
# Poissons Ratio (x) = 0.44811 0.08102
# Poissons Ratio (y) = 0.40406 0.20430
# Poissons Ratio (z) = 0.10774 0.30131
#
# Static dielectric constant tensor:
#      x y z
#    x 4.127720 0.000000 0.036760 
#    y 0.000000 4.260540 0.000000 
#    z 0.036760 0.000000 3.816370 
# 
# 
# High freq. dielectric constant tensor:
#      x y z
#    x 1.807520 0.000000 0.003570 
#    y 0.000000 1.757260 0.000000 
#    z 0.003570 0.000000 1.820550 
# 
# From -- ./inp_files/8535.got.cif
#   From: 2010.03.12/outbox.cif.g09.slc.cpg/sg14_5_cif.got.tgz:8535.got - 2010.03.31 13:35:05.
