data_PCOD8124772
_publ_section_title
;
Structure prediction by ZEFSAII (Michael W. Deem and Ramdas Pophale) SiO2 
 PCOD8124772
Probable space group: P 21/C
;
_chemical_formula_sum "Si O2"
_cell_formula_units_Z 24
_cell_length_a 21.278941
_cell_length_b 10.616007
_cell_length_c 15.654117
_cell_angle_alpha 90.000000
_cell_angle_beta 160.653514
_cell_angle_gamma 90.000000
_cell_volume 1171.480402
_symmetry_space_group_name_H-M "P 21/C"
_symmetry_group_IT_number 14
_symmetry_cell_setting 'monoclinic'
loop_
_space_group_symop_operation_xyz
x,y,z
-x,1/2+y,1/2-z
-x,-y,-z
x,1/2-y,1/2+z
loop_
_atom_site_type_symbol
_atom_site_label
_atom_site_fract_x
_atom_site_fract_y
_atom_site_fract_z
Si Si1 0.417475 0.265619 0.029448
Si Si2 0.329073 0.361838 0.584041
Si Si3 0.193453 0.265820 0.581422
Si Si4 0.279467 0.964972 0.390172
Si Si5 0.180965 0.861423 0.935957
Si Si6 0.058235 0.964870 0.947521
O O1 0.294699 0.195390 0.945516
O O2 0.645232 0.261289 0.337521
O O3 0.350107 0.211147 0.850034
O O4 0.375558 0.412559 0.974507
O O5 0.260585 0.261559 0.568177
O O6 0.233132 0.500168 0.466257
O O7 0.556931 0.365231 0.882569
O O8 0.178162 0.412832 0.579203
O O9 0.992954 0.195800 0.342095
O O10 0.164276 0.999990 0.328678
O O11 0.133279 0.906004 0.133282
O O12 0.094207 0.864989 0.919798
#
# Coordination Sequence:
#
# PCOD8124772 Si02
#       6
#     4   4   4   4   4   4
#     4  10  20  34  53  77 106 140 177 218 264 313
#     4  10  20  34  54  78 108 141 177 218 263 312
#     4  10  20  34  53  77 106 140 177 218 264 313
#     4   9  17  31  53  78 102 133 176 222 266 313
#     4  10  20  34  54  78 108 141 177 218 263 312
#     4   9  17  31  53  78 102 133 176 222 266 313
#
# _framework density 20.486898
#
# number of rings (size 3 to 8) (size 9 to 14) (size 15 to 20)
#    0.000    2.333    0.000    3.000    0.000    4.667 
#    0.000    1.667    0.000   21.000    0.000    0.000 
#    0.000    0.000    0.000    0.000    0.000    0.000 
#
# Total GULP energy -297354.337179 kJ/mol
# GULP energy per Si atom -12389.764049 kJ/mol
# Density = 2.044027 g / cm^3
# Si number density = 20.486898 Si / 1000 Ang^3
#
#
#
# Elastic Constant Matrix: (Units=GPa)
#
#
# Indices 1 2 3 4 5 6 
#
# 1 115.4234 21.6405 41.9954 0.0000 0.4052 0.0000
# 2 21.6405 34.2175 27.7869 0.0000 -9.2567 0.0000
# 3 41.9954 27.7869 114.1241 0.0000 2.0555 0.0000
# 4 0.0000 0.0000 0.0000 18.3324 0.0000 10.9540
# 5 0.4052 -9.2567 2.0555 0.0000 34.0450 0.0000
# 6 0.0000 0.0000 0.0000 10.9540 0.0000 25.5566
#
#
#
# Elastic Compliance Matrix: (Units=1/GPa)
#
#
# Indices 1 2 3 4 5 6 
#
# 1 0.010552 -0.004843 -0.002681 0.000000 -0.001280 0.000000
# 2 -0.004843 0.042786 -0.008856 0.000000 0.012226 0.000000
# 3 -0.002681 -0.008856 0.011961 0.000000 -0.003098 0.000000
# 4 0.000000 0.000000 0.000000 0.073328 0.000000 -0.031430
# 5 -0.001280 0.012226 -0.003098 0.000000 0.032899 0.000000
# 6 0.000000 0.000000 0.000000 -0.031430 0.000000 0.052600
#
#
# Mechanical properties :
#
#
# Convention : Reuss Voigt Hill
#
# Bulk Modulus (GPa) = 30.73098 49.62341 40.17720
# Shear Modulus (GPa) = 18.67544 27.07628 22.87586
#
# Velocity S-wave (km/s) = 3.02251 3.63938 3.34520
# Velocity P-wave (km/s) = 5.21667 6.47570 5.87998
#
# Compressibility (1/GPa) = 0.03254045
#
# Stress axis : x y z
#
# Youngs Moduli (GPa) = 94.77318 23.37193 83.60662
#
# Poissons Ratio (x) = 0.11319 0.22411
# Poissons Ratio (y) = 0.45897 0.74040
# Poissons Ratio (z) = 0.25405 0.20698
#
# Static dielectric constant tensor:
#      x y z
#    x 3.878280 0.000000 -0.076320 
#    y 0.000000 3.264560 0.000000 
#    z -0.076320 0.000000 3.924950 
# 
# 
# High freq. dielectric constant tensor:
#      x y z
#    x 1.808760 0.000000 0.009820 
#    y 0.000000 1.758490 0.000000 
#    z 0.009820 0.000000 1.802060 
# 
# From -- ./inp_files/39383.got.cif
#   From: 2010.03.12/outbox.cif.g09.slc.cpg/sg14_20_cif.got.tgz:39383.got - 2010.03.31 13:35:05.
