data_PCOD8124196
_publ_section_title
;
Structure prediction by ZEFSAII (Michael W. Deem and Ramdas Pophale) SiO2 
 PCOD8124196
Probable space group: P 21/C
;
_chemical_formula_sum "Si O2"
_cell_formula_units_Z 28
_cell_length_a 21.125975
_cell_length_b 8.575433
_cell_length_c 13.755313
_cell_angle_alpha 90.000000
_cell_angle_beta 38.679387
_cell_angle_gamma 90.000000
_cell_volume 1557.387915
_symmetry_space_group_name_H-M "P 21/C"
_symmetry_group_IT_number 14
_symmetry_cell_setting 'monoclinic'
loop_
_space_group_symop_operation_xyz
x,y,z
-x,1/2+y,1/2-z
-x,-y,-z
x,1/2-y,1/2+z
loop_
_atom_site_type_symbol
_atom_site_label
_atom_site_fract_x
_atom_site_fract_y
_atom_site_fract_z
Si Si1 0.585182 0.920630 0.275556
Si Si2 0.083938 0.775692 0.077385
Si Si3 0.234840 0.553887 0.537669
Si Si4 0.718194 0.717621 0.000800
Si Si5 0.103193 0.496085 0.192928
Si Si6 0.189164 0.799816 0.752402
Si Si7 0.630480 0.975062 0.439412
O O1 0.623226 0.754804 0.185821
O O2 0.468240 0.951176 0.389951
O O3 0.599929 0.905803 0.372789
O O4 0.653199 0.060015 0.146417
O O5 0.155330 0.889679 0.053051
O O6 0.070167 0.608704 0.145156
O O7 0.976592 0.859326 0.195392
O O8 0.127867 0.738867 0.918553
O O9 0.213093 0.373989 0.594177
O O10 0.229948 0.656299 0.640142
O O11 0.787596 0.580676 0.962883
O O12 0.674333 0.666966 0.949542
O O13 0.113341 0.593293 0.280321
O O14 0.286129 0.892445 0.674156
#
# Coordination Sequence:
#
# PCOD8124196 Si02
#       7
#     4   4   4   4   4   4   4
#     4   9  20  35  56  79 112 146 185 224 283 326
#     4  11  20  38  57  83 113 149 179 238 270 337
#     4   9  20  35  55  80 115 143 182 229 272 324
#     4   9  20  37  54  83 111 144 187 231 270 336
#     4  10  22  36  59  80 112 147 188 221 291 321
#     4  10  20  36  57  84 110 145 190 225 278 332
#     4  10  19  35  59  80 109 154 182 226 287 326
#
# _framework density 17.978822000000001
#
# number of rings (size 3 to 8) (size 9 to 14) (size 15 to 20)
#    0.857    1.429    1.429    1.286    2.000    1.143 
#    0.000    7.857    0.000    3.429    0.000    0.000 
#    0.000    0.000    0.000    0.000    0.000    0.000 
#
# Total GULP energy -347070.708244 kJ/mol
# GULP energy per Si atom -12395.382437 kJ/mol
# Density = 1.793790 g / cm^3
# Si number density = 17.978822 Si / 1000 Ang^3
#
#
#
# Elastic Constant Matrix: (Units=GPa)
#
#
# Indices 1 2 3 4 5 6 
#
# 1 63.4209 26.2910 32.3495 0.0000 11.8224 0.0000
# 2 26.2910 73.3311 27.3221 0.0000 9.6932 0.0000
# 3 32.3495 27.3221 101.0050 0.0000 8.8559 0.0000
# 4 0.0000 0.0000 0.0000 30.2138 0.0000 0.6637
# 5 11.8224 9.6932 8.8559 0.0000 22.8903 0.0000
# 6 0.0000 0.0000 0.0000 0.6637 0.0000 23.5976
#
#
#
# Elastic Compliance Matrix: (Units=1/GPa)
#
#
# Indices 1 2 3 4 5 6 
#
# 1 0.021708 -0.004980 -0.004976 0.000000 -0.007178 0.000000
# 2 -0.004980 0.016883 -0.002661 0.000000 -0.003548 0.000000
# 3 -0.004976 -0.002661 0.012307 0.000000 -0.001065 0.000000
# 4 0.000000 0.000000 0.000000 0.033118 0.000000 -0.000931
# 5 -0.007178 -0.003548 -0.001065 0.000000 0.049308 0.000000
# 6 0.000000 0.000000 0.000000 -0.000931 0.000000 0.042403
#
#
# Mechanical properties :
#
#
# Convention : Reuss Voigt Hill
#
# Bulk Modulus (GPa) = 38.96473 45.52023 42.24248
# Shear Modulus (GPa) = 23.86446 25.45998 24.66222
#
# Velocity S-wave (km/s) = 3.64725 3.76721 3.70771
# Velocity P-wave (km/s) = 6.28142 6.65554 6.47118
#
# Compressibility (1/GPa) = 0.02566424
#
# Stress axis : x y z
#
# Youngs Moduli (GPa) = 46.06492 59.23274 81.25232
#
# Poissons Ratio (x) = 0.29499 0.40433
# Poissons Ratio (y) = 0.22941 0.21619
# Poissons Ratio (z) = 0.22923 0.15760
#
# Static dielectric constant tensor:
#      x y z
#    x 3.269860 0.000000 -0.075600 
#    y 0.000000 3.194340 0.000000 
#    z -0.075600 0.000000 3.291140 
# 
# 
# High freq. dielectric constant tensor:
#      x y z
#    x 1.700590 0.000000 -0.004740 
#    y 0.000000 1.685750 0.000000 
#    z -0.004740 0.000000 1.694130 
# 
# From -- ./inp_files/46558.got.cif
#   From: 2010.03.12/outbox.cif.g09.slc.cpg/sg14_24_cif.got.tgz:46558.got - 2010.03.31 13:35:05.
