data_PCOD8124435
_publ_section_title
;
Structure prediction by ZEFSAII (Michael W. Deem and Ramdas Pophale) SiO2 
 PCOD8124435
Probable space group: P 21/C
;
_chemical_formula_sum "Si O2"
_cell_formula_units_Z 12
_cell_length_a 15.638344
_cell_length_b 7.885885
_cell_length_c 11.520684
_cell_angle_alpha 90.000000
_cell_angle_beta 155.552167
_cell_angle_gamma 90.000000
_cell_volume 588.000518
_symmetry_space_group_name_H-M "P 21/C"
_symmetry_group_IT_number 14
_symmetry_cell_setting 'monoclinic'
loop_
_space_group_symop_operation_xyz
x,y,z
-x,1/2+y,1/2-z
-x,-y,-z
x,1/2-y,1/2+z
loop_
_atom_site_type_symbol
_atom_site_label
_atom_site_fract_x
_atom_site_fract_y
_atom_site_fract_z
Si Si1 0.380403 0.065603 0.689345
Si Si2 0.413643 0.610229 0.997459
Si Si3 0.202481 0.564145 0.187737
O O1 0.400961 0.270045 0.724123
O O2 0.331397 0.012172 0.497395
O O3 0.198586 0.996738 0.548677
O O4 0.597763 0.981123 0.001206
O O5 0.500000 0.500000 0.000000
O O6 0.223323 0.729881 0.719352
O O7 0.000000 0.500000 0.000000
#
# Coordination Sequence:
#
# PCOD8124435 Si02
#       3
#     4   4   4
#     4   9  20  36  59  82 123 152 201 242 306 350
#     4  10  19  37  62  83 119 162 194 244 305 351
#     4   9  20  39  58  84 120 151 207 244 295 358
#
# _framework density 20.408145000000001
#
# number of rings (size 3 to 8) (size 9 to 14) (size 15 to 20)
#    2.000    0.667    0.000    2.000    0.000    0.000 
#    6.000    1.667    0.000    0.000    0.000    0.000 
#    0.000    0.000    0.000    0.000    0.000    0.000 
#
# Total GULP energy -148670.288537 kJ/mol
# GULP energy per Si atom -12389.190711 kJ/mol
# Density = 2.036169 g / cm^3
# Si number density = 20.408145 Si / 1000 Ang^3
#
#
#
# Elastic Constant Matrix: (Units=GPa)
#
#
# Indices 1 2 3 4 5 6 
#
# 1 229.2640 85.4030 39.7218 0.0000 11.1152 0.0000
# 2 85.4030 138.9570 18.9167 0.0000 1.5258 0.0000
# 3 39.7218 18.9167 26.0404 0.0000 19.9898 0.0000
# 4 0.0000 0.0000 0.0000 26.4648 0.0000 -2.2592
# 5 11.1152 1.5258 19.9898 0.0000 34.3102 0.0000
# 6 0.0000 0.0000 0.0000 -2.2592 0.0000 49.5269
#
#
#
# Elastic Compliance Matrix: (Units=1/GPa)
#
#
# Indices 1 2 3 4 5 6 
#
# 1 0.007531 -0.002802 -0.013886 0.000000 0.005775 0.000000
# 2 -0.002802 0.009640 -0.005602 0.000000 0.003743 0.000000
# 3 -0.013886 -0.005602 0.108564 0.000000 -0.058504 0.000000
# 4 0.000000 0.000000 0.000000 0.037934 0.000000 0.001730
# 5 0.005775 0.003743 -0.058504 0.000000 0.061194 0.000000
# 6 0.000000 0.000000 0.000000 0.001730 0.000000 0.020270
#
#
# Mechanical properties :
#
#
# Convention : Reuss Voigt Hill
#
# Bulk Modulus (GPa) = 12.32217 75.81605 44.06911
# Shear Modulus (GPa) = 15.78456 38.74170 27.26313
#
# Velocity S-wave (km/s) = 2.78410 4.36173 3.65895
# Velocity P-wave (km/s) = 4.04796 7.91181 6.28421
#
# Compressibility (1/GPa) = 0.08115453
#
# Stress axis : x y z
#
# Youngs Moduli (GPa) = 132.77718 103.73405 9.21117
#
# Poissons Ratio (x) = 0.29065 0.12791
# Poissons Ratio (y) = 0.37202 0.05160
# Poissons Ratio (z) = 1.84378 0.58115
#
# Static dielectric constant tensor:
#      x y z
#    x 3.800170 0.000000 -0.095640 
#    y 0.000000 3.767910 0.000000 
#    z -0.095640 0.000000 3.094760 
# 
# 
# High freq. dielectric constant tensor:
#      x y z
#    x 1.815270 0.000000 -0.004130 
#    y 0.000000 1.794590 0.000000 
#    z -0.004130 0.000000 1.735530 
# 
# From -- ./inp_files/7170.got.cif
#   From: 2010.03.12/outbox.cif.g09.slc.cpg/sg14_4_cif.got.tgz:7170.got - 2010.03.31 13:35:05.
