data_PCOD8124922
_publ_section_title
;
Structure prediction by ZEFSAII (Michael W. Deem and Ramdas Pophale) SiO2 
 PCOD8124922
Probable space group: P 21/C
;
_chemical_formula_sum "Si O2"
_cell_formula_units_Z 32
_cell_length_a 9.050780
_cell_length_b 11.338083
_cell_length_c 20.409109
_cell_angle_alpha 90.000000
_cell_angle_beta 52.397299
_cell_angle_gamma 90.000000
_cell_volume 1659.273194
_symmetry_space_group_name_H-M "P 21/C"
_symmetry_group_IT_number 14
_symmetry_cell_setting 'monoclinic'
loop_
_space_group_symop_operation_xyz
x,y,z
-x,1/2+y,1/2-z
-x,-y,-z
x,1/2-y,1/2+z
loop_
_atom_site_type_symbol
_atom_site_label
_atom_site_fract_x
_atom_site_fract_y
_atom_site_fract_z
Si Si1 0.293453 0.836232 0.888237
Si Si2 0.691793 0.745476 0.744323
Si Si3 0.991981 0.283166 0.131313
Si Si4 0.572627 0.591142 0.659857
Si Si5 0.340541 0.363047 0.508153
Si Si6 0.271182 0.627063 0.538120
Si Si7 0.977846 0.348369 0.275765
Si Si8 0.165231 0.001542 0.286017
O O1 0.497051 0.777117 0.830524
O O2 0.156428 0.784155 0.872201
O O3 0.301795 0.974683 0.870613
O O4 0.213003 0.818315 0.983534
O O5 0.662374 0.690204 0.681355
O O6 0.806212 0.654491 0.759300
O O7 0.823622 0.861204 0.700463
O O8 0.953044 0.259194 0.219972
O O9 0.966996 0.426164 0.127883
O O10 0.199328 0.244993 0.055973
O O11 0.569269 0.643635 0.588040
O O12 0.365812 0.560678 0.738355
O O13 0.233293 0.486342 0.548976
O O14 0.508217 0.349427 0.514247
O O15 0.151546 0.688710 0.627696
O O16 0.917143 0.479296 0.265764
#
# Coordination Sequence:
#
# PCOD8124922 Si02
#       8
#     4   4   4   4   4   4   4   4
#     4  10  22  36  60  91 118 145 202 247 299 341
#     4  11  21  37  61  86 118 160 193 242 289 359
#     4  10  21  36  57  84 121 153 187 241 298 356
#     4  10  20  37  59  88 116 155 194 246 298 339
#     4  10  20  35  61  85 118 153 190 252 306 328
#     4  10  21  36  58  88 117 148 197 258 291 342
#     4  10  22  34  59  84 116 154 193 238 296 342
#     4   9  21  40  54  85 118 155 197 230 299 350
#
# _framework density 19.285551999999999
#
# number of rings (size 3 to 8) (size 9 to 14) (size 15 to 20)
#    0.750    1.250    2.500    0.750    7.000    1.000 
#    0.000    0.625    0.000    0.750    0.000    0.000 
#    0.000    0.000    0.000    0.000    0.000    0.000 
#
# Total GULP energy -396519.961944 kJ/mol
# GULP energy per Si atom -12391.248811 kJ/mol
# Density = 1.924166 g / cm^3
# Si number density = 19.285552 Si / 1000 Ang^3
#
#
#
# Elastic Constant Matrix: (Units=GPa)
#
#
# Indices 1 2 3 4 5 6 
#
# 1 88.2149 33.7652 31.1516 0.0000 12.4832 0.0000
# 2 33.7652 59.1943 17.3537 0.0000 5.5834 0.0000
# 3 31.1516 17.3537 64.5374 0.0000 15.2517 0.0000
# 4 0.0000 0.0000 0.0000 24.3517 0.0000 0.4715
# 5 12.4832 5.5834 15.2517 0.0000 32.7228 0.0000
# 6 0.0000 0.0000 0.0000 0.4715 0.0000 31.2448
#
#
#
# Elastic Compliance Matrix: (Units=1/GPa)
#
#
# Indices 1 2 3 4 5 6 
#
# 1 0.016479 -0.007605 -0.005316 0.000000 -0.002511 0.000000
# 2 -0.007605 0.021874 -0.002264 0.000000 0.000224 0.000000
# 3 -0.005316 -0.002264 0.020340 0.000000 -0.007066 0.000000
# 4 0.000000 0.000000 0.000000 0.041077 0.000000 -0.000620
# 5 -0.002511 0.000224 -0.007066 0.000000 0.034773 0.000000
# 6 0.000000 0.000000 0.000000 -0.000620 0.000000 0.032015
#
#
# Mechanical properties :
#
#
# Convention : Reuss Voigt Hill
#
# Bulk Modulus (GPa) = 35.30673 41.83196 38.56935
# Shear Modulus (GPa) = 24.22857 26.30891 25.26874
#
# Velocity S-wave (km/s) = 3.54829 3.69748 3.62365
# Velocity P-wave (km/s) = 5.92741 6.32190 6.12783
#
# Compressibility (1/GPa) = 0.02832321
#
# Stress axis : x y z
#
# Youngs Moduli (GPa) = 60.68186 45.71658 49.16539
#
# Poissons Ratio (x) = 0.34766 0.26137
# Poissons Ratio (y) = 0.46147 0.11131
# Poissons Ratio (z) = 0.32259 0.10350
#
# Static dielectric constant tensor:
#      x y z
#    x 3.619750 0.000000 0.054930 
#    y 0.000000 3.382220 0.000000 
#    z 0.054930 0.000000 3.372880 
# 
# 
# High freq. dielectric constant tensor:
#      x y z
#    x 1.766930 0.000000 0.005020 
#    y 0.000000 1.719200 0.000000 
#    z 0.005020 0.000000 1.737360 
# 
# From -- ./inp_files/65587.got.cif
#   From: 2010.03.12/outbox.cif.g09.slc.cpg/sg14_33_cif.got.tgz:65587.got - 2010.03.31 13:35:05.
