data_PCOD8124916
_publ_section_title
;
Structure prediction by ZEFSAII (Michael W. Deem and Ramdas Pophale) SiO2 
 PCOD8124916
Probable space group: P 21/C
;
_chemical_formula_sum "Si O2"
_cell_formula_units_Z 32
_cell_length_a 12.621164
_cell_length_b 8.131455
_cell_length_c 33.388224
_cell_angle_alpha 90.000000
_cell_angle_beta 151.877475
_cell_angle_gamma 90.000000
_cell_volume 1615.148520
_symmetry_space_group_name_H-M "P 21/C"
_symmetry_group_IT_number 14
_symmetry_cell_setting 'monoclinic'
loop_
_space_group_symop_operation_xyz
x,y,z
-x,1/2+y,1/2-z
-x,-y,-z
x,1/2-y,1/2+z
loop_
_atom_site_type_symbol
_atom_site_label
_atom_site_fract_x
_atom_site_fract_y
_atom_site_fract_z
Si Si1 0.958448 0.861164 0.159083
Si Si2 0.541824 0.814336 0.225989
Si Si3 0.213842 0.954273 0.744242
Si Si4 0.335343 0.241070 0.087820
Si Si5 0.312959 0.158152 0.850216
Si Si6 0.595095 0.939361 0.674962
Si Si7 0.217175 0.483717 0.480225
Si Si8 0.222787 0.391120 0.630818
O O1 0.828773 0.862824 0.157293
O O2 0.798199 0.928172 0.070875
O O3 0.013179 0.670648 0.168184
O O4 0.181655 0.971480 0.234593
O O5 0.499564 0.687961 0.175713
O O6 0.597237 0.719302 0.285129
O O7 0.749851 0.932524 0.282767
O O8 0.318649 0.923671 0.157940
O O9 0.437579 0.855471 0.828292
O O10 0.166103 0.065984 0.767252
O O11 0.392143 0.432494 0.100510
O O12 0.176996 0.200644 0.073289
O O13 0.213928 0.177021 0.007397
O O14 0.347021 0.346964 0.847432
O O15 0.556994 0.083837 0.938503
O O16 0.009528 0.600940 0.422575
#
# Coordination Sequence:
#
# PCOD8124916 Si02
#       8
#     4   4   4   4   4   4   4   4
#     4  11  20  38  64  86 116 159 203 245 292 343
#     4  10  20  35  60  91 112 146 198 252 283 354
#     4   8  19  36  59  85 115 148 198 241 285 346
#     4   9  20  38  57  82 121 155 186 237 298 354
#     4  10  21  39  61  87 121 157 196 245 301 351
#     4  10  20  40  61  91 115 155 204 245 287 357
#     4  11  23  39  56  89 124 157 191 247 299 355
#     4  11  21  37  62  86 120 156 195 237 306 351
#
# _framework density 19.812418999999998
#
# number of rings (size 3 to 8) (size 9 to 14) (size 15 to 20)
#    0.000    2.000    1.250    3.000    3.500    0.000 
#    2.250    1.875    0.000    0.000    0.000    0.000 
#    0.000    0.000    0.000    0.000    0.000    0.000 
#
# Total GULP energy -396779.496329 kJ/mol
# GULP energy per Si atom -12399.359260 kJ/mol
# Density = 1.976733 g / cm^3
# Si number density = 19.812419 Si / 1000 Ang^3
#
#
#
# Elastic Constant Matrix: (Units=GPa)
#
#
# Indices 1 2 3 4 5 6 
#
# 1 72.0955 21.2480 0.0676 0.0000 -8.4212 0.0000
# 2 21.2480 106.6981 20.2659 0.0000 -2.6909 0.0000
# 3 0.0676 20.2659 49.7833 0.0000 -7.1881 0.0000
# 4 0.0000 0.0000 0.0000 19.3247 0.0000 -3.7016
# 5 -8.4212 -2.6909 -7.1881 0.0000 30.8679 0.0000
# 6 0.0000 0.0000 0.0000 -3.7016 0.0000 33.7258
#
#
#
# Elastic Compliance Matrix: (Units=1/GPa)
#
#
# Indices 1 2 3 4 5 6 
#
# 1 0.015356 -0.003320 0.001960 0.000000 0.004356 0.000000
# 2 -0.003320 0.010876 -0.004570 0.000000 -0.001022 0.000000
# 3 0.001960 -0.004570 0.022729 0.000000 0.005429 0.000000
# 4 0.000000 0.000000 0.000000 0.052859 0.000000 0.005802
# 5 0.004356 -0.001022 0.005429 0.000000 0.034760 0.000000
# 6 0.000000 0.000000 0.000000 0.005802 0.000000 0.030288
#
#
# Mechanical properties :
#
#
# Convention : Reuss Voigt Hill
#
# Bulk Modulus (GPa) = 26.95514 34.63778 30.79646
# Shear Modulus (GPa) = 26.16502 29.25004 27.70753
#
# Velocity S-wave (km/s) = 3.63800 3.84650 3.74370
# Velocity P-wave (km/s) = 5.59298 6.10313 5.85362
#
# Compressibility (1/GPa) = 0.03709868
#
# Stress axis : x y z
#
# Youngs Moduli (GPa) = 65.12077 91.94735 43.99702
#
# Poissons Ratio (x) = 0.30530 -0.08623
# Poissons Ratio (y) = 0.21623 0.20108
# Poissons Ratio (z) = -0.12763 0.42024
#
# Static dielectric constant tensor:
#      x y z
#    x 3.700890 0.000000 -0.123240 
#    y 0.000000 3.993910 0.000000 
#    z -0.123240 0.000000 3.337810 
# 
# 
# High freq. dielectric constant tensor:
#      x y z
#    x 1.780860 0.000000 -0.009260 
#    y 0.000000 1.779690 0.000000 
#    z -0.009260 0.000000 1.746520 
# 
# From -- ./inp_files/79963.got.cif
#   From: 2010.03.12/outbox.cif.g09.slc.cpg/sg14_40_cif.got.tgz:79963.got - 2010.03.31 13:35:05.
