data_PCOD8124016
_publ_section_title
;
Structure prediction by ZEFSAII (Michael W. Deem and Ramdas Pophale) SiO2 
 PCOD8124016
Probable space group: P 21/C
;
_chemical_formula_sum "Si O2"
_cell_formula_units_Z 24
_cell_length_a 10.732571
_cell_length_b 7.583834
_cell_length_c 23.071646
_cell_angle_alpha 90.000000
_cell_angle_beta 33.164815
_cell_angle_gamma 90.000000
_cell_volume 1027.300760
_symmetry_space_group_name_H-M "P 21/C"
_symmetry_group_IT_number 14
_symmetry_cell_setting 'monoclinic'
loop_
_space_group_symop_operation_xyz
x,y,z
-x,1/2+y,1/2-z
-x,-y,-z
x,1/2-y,1/2+z
loop_
_atom_site_type_symbol
_atom_site_label
_atom_site_fract_x
_atom_site_fract_y
_atom_site_fract_z
Si Si1 0.586531 0.784936 0.474436
Si Si2 0.734960 0.731511 0.196341
Si Si3 0.687976 0.574093 0.820949
Si Si4 0.015012 0.584312 0.866764
Si Si5 0.685799 0.115801 0.214118
Si Si6 0.810383 0.444145 0.329410
O O1 0.551395 0.932064 0.435934
O O2 0.700657 0.626878 0.392984
O O3 0.347678 0.724929 0.593793
O O4 0.755586 0.855417 0.458574
O O5 0.633577 0.754617 0.301659
O O6 0.957706 0.603843 0.110634
O O7 0.799509 0.929010 0.148568
O O8 0.543527 0.644382 0.231565
O O9 0.625923 0.401820 0.806594
O O10 0.958085 0.580477 0.726197
O O11 0.148019 0.562737 0.754796
O O12 0.135458 0.726384 0.862228
#
# Coordination Sequence:
#
# PCOD8124016 Si02
#       6
#     4   4   4   4   4   4
#     4  10  19  33  58  85 112 148 182 223 280 333
#     4  10  19  33  58  82 105 147 188 223 274 329
#     4   9  19  34  52  84 111 135 184 228 264 325
#     4  11  19  36  58  82 115 141 182 232 274 323
#     4  10  19  33  58  82 105 147 188 223 274 329
#     4  10  19  33  58  85 112 148 182 223 280 333
#
# _framework density 23.362193000000001
#
# number of rings (size 3 to 8) (size 9 to 14) (size 15 to 20)
#    1.000    1.000    5.000    0.000    0.000    0.000 
#    0.000    3.333    0.000   12.000    0.000    0.000 
#    0.000    0.000    0.000    0.000    0.000    0.000 
#
# Total GULP energy -297345.103444 kJ/mol
# GULP energy per Si atom -12389.379310 kJ/mol
# Density = 2.330902 g / cm^3
# Si number density = 23.362193 Si / 1000 Ang^3
#
#
#
# Elastic Constant Matrix: (Units=GPa)
#
#
# Indices 1 2 3 4 5 6 
#
# 1 122.7214 26.9046 28.6655 0.0000 -23.1432 0.0000
# 2 26.9046 107.1802 1.5439 0.0000 -9.7091 0.0000
# 3 28.6655 1.5439 73.3997 0.0000 -9.2954 0.0000
# 4 0.0000 0.0000 0.0000 25.8816 0.0000 -7.6015
# 5 -23.1432 -9.7091 -9.2954 0.0000 14.7297 0.0000
# 6 0.0000 0.0000 0.0000 -7.6015 0.0000 52.5308
#
#
#
# Elastic Compliance Matrix: (Units=1/GPa)
#
#
# Indices 1 2 3 4 5 6 
#
# 1 0.012217 -0.001533 -0.002648 0.000000 0.016515 0.000000
# 2 -0.001533 0.010146 0.001008 0.000000 0.004915 0.000000
# 3 -0.002648 0.001008 0.015427 0.000000 0.006240 0.000000
# 4 0.000000 0.000000 0.000000 0.040353 0.000000 0.005839
# 5 0.016515 0.004915 0.006240 0.000000 0.101015 0.000000
# 6 0.000000 0.000000 0.000000 0.005839 0.000000 0.019881
#
#
# Mechanical properties :
#
#
# Convention : Reuss Voigt Hill
#
# Bulk Modulus (GPa) = 31.80206 46.39213 39.09710
# Shear Modulus (GPa) = 23.16250 35.04091 29.10171
#
# Velocity S-wave (km/s) = 3.15215 3.87705 3.53324
# Velocity P-wave (km/s) = 5.18558 6.32004 5.78071
#
# Compressibility (1/GPa) = 0.03144450
#
# Stress axis : x y z
#
# Youngs Moduli (GPa) = 81.85037 98.56535 64.82123
#
# Poissons Ratio (x) = 0.15107 0.17163
# Poissons Ratio (y) = 0.12545 -0.06532
# Poissons Ratio (z) = 0.21672 -0.09932
#
# Static dielectric constant tensor:
#      x y z
#    x 4.317680 0.000000 0.019750 
#    y 0.000000 4.759100 0.000000 
#    z 0.019750 0.000000 3.671990 
# 
# 
# High freq. dielectric constant tensor:
#      x y z
#    x 1.936900 0.000000 -0.010630 
#    y 0.000000 1.958820 0.000000 
#    z -0.010630 0.000000 1.869440 
# 
# From -- ./inp_files/76989.got.cif
#   From: 2010.03.12/outbox.cif.g09.slc.cpg/sg14_39_cif.got.tgz:76989.got - 2010.03.31 13:35:05.
