data_PCOD8124500
_publ_section_title
;
Structure prediction by ZEFSAII (Michael W. Deem and Ramdas Pophale) SiO2 
 PCOD8124500
Probable space group: P 21/C
;
_chemical_formula_sum "Si O2"
_cell_formula_units_Z 28
_cell_length_a 24.996057
_cell_length_b 11.657095
_cell_length_c 14.561873
_cell_angle_alpha 90.000000
_cell_angle_beta 19.355304
_cell_angle_gamma 90.000000
_cell_volume 1406.256839
_symmetry_space_group_name_H-M "P 21/C"
_symmetry_group_IT_number 14
_symmetry_cell_setting 'monoclinic'
loop_
_space_group_symop_operation_xyz
x,y,z
-x,1/2+y,1/2-z
-x,-y,-z
x,1/2-y,1/2+z
loop_
_atom_site_type_symbol
_atom_site_label
_atom_site_fract_x
_atom_site_fract_y
_atom_site_fract_z
Si Si1 0.609481 0.289518 0.441053
Si Si2 0.655525 0.722202 0.286298
Si Si3 0.627058 0.681723 0.024170
Si Si4 0.165659 0.062719 0.047157
Si Si5 0.731223 0.912728 0.927212
Si Si6 0.632448 0.042169 0.425294
Si Si7 0.813838 0.499218 0.096343
O O1 0.475347 0.262409 0.581318
O O2 0.528292 0.345605 0.662246
O O3 0.698632 0.171891 0.329456
O O4 0.738654 0.376811 0.190764
O O5 0.571983 0.757530 0.518079
O O6 0.725900 0.593621 0.176013
O O7 0.809767 0.803485 0.017935
O O8 0.739489 0.774263 0.895249
O O9 0.709108 0.556839 0.868873
O O10 0.003243 0.009659 0.266524
O O11 0.149747 0.052892 0.183021
O O12 0.320485 0.994731 0.754887
O O13 0.556919 0.952308 0.246454
O O14 0.786796 0.978976 0.747485
#
# Coordination Sequence:
#
# PCOD8124500 Si02
#       7
#     4   4   4   4   4   4   4
#     4  11  21  38  64  84 118 162 202 241 297 357
#     4  10  22  39  60  88 119 159 198 244 298 357
#     4   9  19  35  60  88 112 146 206 248 278 344
#     4  11  22  37  62  86 122 156 197 252 305 344
#     4  10  19  38  60  86 114 161 198 242 292 359
#     4  10  20  35  60  87 113 154 207 238 281 361
#     4  11  24  37  59  91 123 151 198 253 299 354
#
# _framework density 19.911013000000001
#
# number of rings (size 3 to 8) (size 9 to 14) (size 15 to 20)
#    0.000    1.714    4.286    1.286    4.000    0.000 
#    0.000    0.000    0.000    4.286    0.000    0.000 
#    0.000    0.000    0.000    0.000    0.000    0.000 
#
# Total GULP energy -346885.046116 kJ/mol
# GULP energy per Si atom -12388.751647 kJ/mol
# Density = 1.986570 g / cm^3
# Si number density = 19.911013 Si / 1000 Ang^3
#
#
#
# Elastic Constant Matrix: (Units=GPa)
#
#
# Indices 1 2 3 4 5 6 
#
# 1 60.3660 21.0713 25.8267 0.0000 13.2996 0.0000
# 2 21.0713 135.9947 34.7379 0.0000 -1.4978 0.0000
# 3 25.8267 34.7379 72.8231 0.0000 1.3125 0.0000
# 4 0.0000 0.0000 0.0000 26.0823 0.0000 2.3505
# 5 13.2996 -1.4978 1.3125 0.0000 25.7180 0.0000
# 6 0.0000 0.0000 0.0000 2.3505 0.0000 21.7397
#
#
#
# Elastic Compliance Matrix: (Units=1/GPa)
#
#
# Indices 1 2 3 4 5 6 
#
# 1 0.022733 -0.001871 -0.006963 0.000000 -0.011510 0.000000
# 2 -0.001871 0.008540 -0.003440 0.000000 0.001640 0.000000
# 3 -0.006963 -0.003440 0.017797 0.000000 0.002492 0.000000
# 4 0.000000 0.000000 0.000000 0.038717 0.000000 -0.004186
# 5 -0.011510 0.001640 0.002492 0.000000 0.044804 0.000000
# 6 0.000000 0.000000 0.000000 -0.004186 0.000000 0.046451
#
#
# Mechanical properties :
#
#
# Convention : Reuss Voigt Hill
#
# Bulk Modulus (GPa) = 40.77610 48.05061 44.41336
# Shear Modulus (GPa) = 23.61129 27.21120 25.41124
#
# Velocity S-wave (km/s) = 3.44734 3.70082 3.57633
# Velocity P-wave (km/s) = 6.03068 6.51510 6.27757
#
# Compressibility (1/GPa) = 0.02452417
#
# Stress axis : x y z
#
# Youngs Moduli (GPa) = 43.98859 117.09918 56.18891
#
# Poissons Ratio (x) = 0.21905 0.39122
# Poissons Ratio (y) = 0.08229 0.19328
# Poissons Ratio (z) = 0.30627 0.40280
#
# Static dielectric constant tensor:
#      x y z
#    x 3.459260 0.000000 0.362930 
#    y 0.000000 3.933800 0.000000 
#    z 0.362930 0.000000 3.423130 
# 
# 
# High freq. dielectric constant tensor:
#      x y z
#    x 1.752390 0.000000 0.035790 
#    y 0.000000 1.794610 0.000000 
#    z 0.035790 0.000000 1.755230 
# 
# From -- ./inp_files/51974.got.cif
#   From: 2010.03.12/outbox.cif.g09.slc.cpg/sg14_26_cif.got.tgz:51974.got - 2010.03.31 13:35:05.
