data_PCOD8124072
_publ_section_title
;
Structure prediction by ZEFSAII (Michael W. Deem and Ramdas Pophale) SiO2 
 PCOD8124072
Probable space group: P 21/C
;
_chemical_formula_sum "Si O2"
_cell_formula_units_Z 28
_cell_length_a 19.374912
_cell_length_b 12.927277
_cell_length_c 27.042216
_cell_angle_alpha 90.000000
_cell_angle_beta 168.955786
_cell_angle_gamma 90.000000
_cell_volume 1297.503387
_symmetry_space_group_name_H-M "P 21/C"
_symmetry_group_IT_number 14
_symmetry_cell_setting 'monoclinic'
loop_
_space_group_symop_operation_xyz
x,y,z
-x,1/2+y,1/2-z
-x,-y,-z
x,1/2-y,1/2+z
loop_
_atom_site_type_symbol
_atom_site_label
_atom_site_fract_x
_atom_site_fract_y
_atom_site_fract_z
Si Si1 0.418086 0.107119 0.067118
Si Si2 0.206573 0.012588 0.751001
Si Si3 0.108231 0.019144 0.245568
Si Si4 0.360563 0.171836 0.495563
Si Si5 0.873892 0.929307 0.985733
Si Si6 0.437035 0.398256 0.153415
Si Si7 0.708761 0.314223 0.872073
O O1 0.367641 0.204871 0.994867
O O2 0.664780 0.136347 0.286950
O O3 0.615281 0.017070 0.175751
O O4 0.024301 0.068278 0.808529
O O5 0.066072 0.132255 0.647190
O O6 0.869464 0.935979 0.523964
O O7 0.500000 0.000000 0.000000
O O8 0.098844 0.128584 0.268342
O O9 0.500000 0.000000 0.500000
O O10 0.861288 0.011253 0.023476
O O11 0.227881 0.143611 0.457598
O O12 0.748158 0.117140 0.763753
O O13 0.628216 0.833093 0.828446
O O14 0.684682 0.002342 0.811539
O O15 0.707608 0.310084 0.365683
#
# Coordination Sequence:
#
# PCOD8124072 Si02
#       7
#     4   4   4   4   4   4   4
#     4  10  20  36  57  80 109 153 192 232 291 353
#     4  11  22  36  58  87 119 148 192 250 292 338
#     4   9  19  36  56  81 112 148 190 236 288 346
#     4  10  19  34  56  80 110 148 190 238 286 341
#     4   9  18  34  55  77 108 147 193 238 283 342
#     4  10  20  35  55  81 113 151 189 234 290 347
#     4   9  20  37  55  78 111 153 192 230 287 353
#
# _framework density 21.579905
#
# number of rings (size 3 to 8) (size 9 to 14) (size 15 to 20)
#    0.000    2.286    0.000    2.571    0.000    2.286 
#    0.000    7.143    0.000    6.857    0.000    0.000 
#    0.000    0.000    0.000    0.000    0.000    0.000 
#
# Total GULP energy -346876.568635 kJ/mol
# GULP energy per Si atom -12388.448880 kJ/mol
# Density = 2.153079 g / cm^3
# Si number density = 21.579905 Si / 1000 Ang^3
#
#
#
# Elastic Constant Matrix: (Units=GPa)
#
#
# Indices 1 2 3 4 5 6 
#
# 1 54.9482 25.1229 20.8640 0.0000 16.8976 0.0000
# 2 25.1229 91.0608 33.7257 0.0000 10.6992 0.0000
# 3 20.8640 33.7257 78.7667 0.0000 14.8200 0.0000
# 4 0.0000 0.0000 0.0000 30.5721 0.0000 -4.1896
# 5 16.8976 10.6992 14.8200 0.0000 31.5072 0.0000
# 6 0.0000 0.0000 0.0000 -4.1896 0.0000 35.9443
#
#
#
# Elastic Compliance Matrix: (Units=1/GPa)
#
#
# Indices 1 2 3 4 5 6 
#
# 1 0.024450 -0.004578 -0.002569 0.000000 -0.010350 0.000000
# 2 -0.004578 0.014022 -0.004780 0.000000 -0.000058 0.000000
# 3 -0.002569 -0.004780 0.016301 0.000000 -0.004666 0.000000
# 4 0.000000 0.000000 0.000000 0.033241 0.000000 0.003874
# 5 -0.010350 -0.000058 -0.004666 0.000000 0.039504 0.000000
# 6 0.000000 0.000000 0.000000 0.003874 0.000000 0.028272
#
#
# Mechanical properties :
#
#
# Convention : Reuss Voigt Hill
#
# Bulk Modulus (GPa) = 32.34296 42.68899 37.51598
# Shear Modulus (GPa) = 26.32256 29.27559 27.79907
#
# Velocity S-wave (km/s) = 3.49631 3.68722 3.59303
# Velocity P-wave (km/s) = 5.59634 6.16054 5.88520
#
# Compressibility (1/GPa) = 0.03091863
#
# Stress axis : x y z
#
# Youngs Moduli (GPa) = 40.89924 71.31668 61.34613
#
# Poissons Ratio (x) = 0.32650 0.15759
# Poissons Ratio (y) = 0.18724 0.29325
# Poissons Ratio (z) = 0.10507 0.34091
#
# Static dielectric constant tensor:
#      x y z
#    x 4.149600 0.000000 -0.090530 
#    y 0.000000 3.926600 0.000000 
#    z -0.090530 0.000000 3.762450 
# 
# 
# High freq. dielectric constant tensor:
#      x y z
#    x 1.853770 0.000000 0.008940 
#    y 0.000000 1.841840 0.000000 
#    z 0.008940 0.000000 1.826980 
# 
# From -- ./inp_files/80546.got.cif
#   From: 2010.03.12/outbox.cif.g09.slc.cpg/sg14_41_cif.got.tgz:80546.got - 2010.03.31 13:35:05.
