data_PCOD8124795
_publ_section_title
;
Structure prediction by ZEFSAII (Michael W. Deem and Ramdas Pophale) SiO2 
 PCOD8124795
Probable space group: P 21/C
;
_chemical_formula_sum "Si O2"
_cell_formula_units_Z 28
_cell_length_a 13.691790
_cell_length_b 9.042325
_cell_length_c 10.445298
_cell_angle_alpha 90.000000
_cell_angle_beta 108.419433
_cell_angle_gamma 90.000000
_cell_volume 1226.935172
_symmetry_space_group_name_H-M "P 21/C"
_symmetry_group_IT_number 14
_symmetry_cell_setting 'monoclinic'
loop_
_space_group_symop_operation_xyz
x,y,z
-x,1/2+y,1/2-z
-x,-y,-z
x,1/2-y,1/2+z
loop_
_atom_site_type_symbol
_atom_site_label
_atom_site_fract_x
_atom_site_fract_y
_atom_site_fract_z
Si Si1 0.547078 0.160187 0.653111
Si Si2 0.800514 0.475693 0.011639
Si Si3 0.955327 0.188668 0.880937
Si Si4 0.846630 0.745928 0.900322
Si Si5 0.413126 0.619752 0.120115
Si Si6 0.978391 0.520239 0.830036
Si Si7 0.239619 0.958963 0.214461
O O1 0.566324 0.199562 0.510286
O O2 0.527804 0.303279 0.735992
O O3 0.644402 0.086567 0.766232
O O4 0.451647 0.048936 0.623185
O O5 0.780473 0.428558 0.146202
O O6 0.923978 0.442008 0.025984
O O7 0.792119 0.655010 0.993321
O O8 0.709908 0.391437 0.895989
O O9 0.952216 0.347400 0.810396
O O10 0.843802 0.143785 0.896668
O O11 0.975434 0.058813 0.787475
O O12 0.046319 0.174596 0.020801
O O13 0.875656 0.617920 0.808839
O O14 0.767644 0.866831 0.817909
#
# Coordination Sequence:
#
# PCOD8124795 Si02
#       7
#     4   4   4   4   4   4   4
#     4  10  24  44  69  95 125 163 203 262 318 374
#     4   9  20  37  57  82 121 157 195 251 307 361
#     4  10  20  35  51  81 118 157 201 248 295 356
#     4  11  20  33  57  83 115 162 200 244 295 363
#     4  10  23  45  68  94 126 160 205 260 318 373
#     4  10  20  34  55  80 119 161 200 242 302 355
#     4  10  22  38  56  86 123 154 204 252 307 363
#
# _framework density 22.821092
#
# number of rings (size 3 to 8) (size 9 to 14) (size 15 to 20)
#    0.000    2.000    0.000    4.714    6.000    0.571 
#    5.143    1.429    0.000    0.000    0.000    0.000 
#    0.000    0.000    0.000    0.000    0.000    0.000 
#
# Total GULP energy -346890.641474 kJ/mol
# GULP energy per Si atom -12388.951481 kJ/mol
# Density = 2.276915 g / cm^3
# Si number density = 22.821092 Si / 1000 Ang^3
#
#
#
# Elastic Constant Matrix: (Units=GPa)
#
#
# Indices 1 2 3 4 5 6 
#
# 1 72.2795 13.9646 4.1620 0.0000 1.1317 0.0000
# 2 13.9646 62.7543 14.2683 0.0000 -4.7655 0.0000
# 3 4.1620 14.2683 56.1725 0.0000 4.0592 0.0000
# 4 0.0000 0.0000 0.0000 44.5670 0.0000 2.6796
# 5 1.1317 -4.7655 4.0592 0.0000 15.7752 0.0000
# 6 0.0000 0.0000 0.0000 2.6796 0.0000 25.6557
#
#
#
# Elastic Compliance Matrix: (Units=1/GPa)
#
#
# Indices 1 2 3 4 5 6 
#
# 1 0.014522 -0.003370 -0.000072 0.000000 -0.002041 0.000000
# 2 -0.003370 0.018338 -0.004918 0.000000 0.007047 0.000000
# 3 -0.000072 -0.004918 0.019527 0.000000 -0.006505 0.000000
# 4 0.000000 0.000000 0.000000 0.022580 0.000000 -0.002358
# 5 -0.002041 0.007047 -0.006505 0.000000 0.067340 0.000000
# 6 0.000000 0.000000 0.000000 -0.002358 0.000000 0.039224
#
#
# Mechanical properties :
#
#
# Convention : Reuss Voigt Hill
#
# Bulk Modulus (GPa) = 28.03702 28.44402 28.24052
# Shear Modulus (GPa) = 23.79356 27.78700 25.79028
#
# Velocity S-wave (km/s) = 3.23245 3.49320 3.36535
# Velocity P-wave (km/s) = 5.12288 5.36292 5.24427
#
# Compressibility (1/GPa) = 0.03566713
#
# Stress axis : x y z
#
# Youngs Moduli (GPa) = 68.85897 54.53045 51.21152
#
# Poissons Ratio (x) = 0.18378 0.00371
# Poissons Ratio (y) = 0.23207 0.25184
# Poissons Ratio (z) = 0.00499 0.26816
#
# Static dielectric constant tensor:
#      x y z
#    x 4.358750 0.000000 0.197220 
#    y 0.000000 4.010600 0.000000 
#    z 0.197220 0.000000 4.027520 
# 
# 
# High freq. dielectric constant tensor:
#      x y z
#    x 1.896040 0.000000 0.003120 
#    y 0.000000 1.897680 0.000000 
#    z 0.003120 0.000000 1.881290 
# 
# From -- ./inp_files/31518.got.cif
#   From: 2010.03.12/outbox.cif.g09.slc.cpg/sg14_16_cif.got.tgz:31518.got - 2010.03.31 13:35:05.
