data_PCOD8124952
_publ_section_title
;
Structure prediction by ZEFSAII (Michael W. Deem and Ramdas Pophale) SiO2 
 PCOD8124952
Probable space group: P 21/C
;
_chemical_formula_sum "Si O2"
_cell_formula_units_Z 28
_cell_length_a 9.261341
_cell_length_b 18.345323
_cell_length_c 10.148530
_cell_angle_alpha 90.000000
_cell_angle_beta 125.902973
_cell_angle_gamma 90.000000
_cell_volume 1396.668726
_symmetry_space_group_name_H-M "P 21/C"
_symmetry_group_IT_number 14
_symmetry_cell_setting 'monoclinic'
loop_
_space_group_symop_operation_xyz
x,y,z
-x,1/2+y,1/2-z
-x,-y,-z
x,1/2-y,1/2+z
loop_
_atom_site_type_symbol
_atom_site_label
_atom_site_fract_x
_atom_site_fract_y
_atom_site_fract_z
Si Si1 0.734584 0.584987 0.240038
Si Si2 0.824164 0.224802 0.222101
Si Si3 0.232890 0.442928 0.051186
Si Si4 0.629987 0.430775 0.268558
Si Si5 0.383628 0.844503 0.489894
Si Si6 0.067598 0.827316 0.988437
Si Si7 0.862239 0.104768 0.429223
O O1 0.680130 0.515891 0.300522
O O2 0.896842 0.620850 0.404921
O O3 0.785150 0.562696 0.117183
O O4 0.574954 0.644715 0.160042
O O5 0.634854 0.265890 0.092395
O O6 0.934092 0.272839 0.387863
O O7 0.939419 0.218083 0.150660
O O8 0.787921 0.143389 0.256801
O O9 0.425781 0.415710 0.204192
O O10 0.215685 0.524757 0.095132
O O11 0.078237 0.395227 0.037671
O O12 0.645256 0.411728 0.123124
O O13 0.758037 0.379585 0.422709
O O14 0.212876 0.845144 0.494512
#
# Coordination Sequence:
#
# PCOD8124952 Si02
#       7
#     4   4   4   4   4   4   4
#     4  11  19  40  62  94 118 160 211 252 304 369
#     4  11  23  42  58  87 127 166 203 248 304 371
#     4  10  20  35  67  92 118 161 204 255 309 362
#     4  10  20  39  63  92 120 156 208 252 308 365
#     4  10  20  38  65  85 120 167 201 245 306 373
#     4  11  24  40  63  87 128 162 205 255 306 362
#     4  11  19  37  64  87 124 157 204 250 309 355
#
# _framework density 20.047702999999998
#
# number of rings (size 3 to 8) (size 9 to 14) (size 15 to 20)
#    0.000    1.429    5.714    1.286    0.000    0.000 
#    5.143    0.714    3.143    0.000    0.000    0.000 
#    0.000    0.000    0.000    0.000    0.000    0.000 
#
# Total GULP energy -346999.266650 kJ/mol
# GULP energy per Si atom -12392.830952 kJ/mol
# Density = 2.000207 g / cm^3
# Si number density = 20.047703 Si / 1000 Ang^3
#
#
#
# Elastic Constant Matrix: (Units=GPa)
#
#
# Indices 1 2 3 4 5 6 
#
# 1 118.9385 33.9658 55.1433 0.0000 14.5981 0.0000
# 2 33.9658 75.8306 50.2384 0.0000 6.9954 0.0000
# 3 55.1433 50.2384 100.2469 0.0000 12.4143 0.0000
# 4 0.0000 0.0000 0.0000 33.2080 0.0000 -0.9850
# 5 14.5981 6.9954 12.4143 0.0000 28.2167 0.0000
# 6 0.0000 0.0000 0.0000 -0.9850 0.0000 20.0993
#
#
#
# Elastic Compliance Matrix: (Units=1/GPa)
#
#
# Indices 1 2 3 4 5 6 
#
# 1 0.011681 -0.001409 -0.005303 0.000000 -0.003361 0.000000
# 2 -0.001409 0.019920 -0.009187 0.000000 -0.000168 0.000000
# 3 -0.005303 -0.009187 0.017847 0.000000 -0.002831 0.000000
# 4 0.000000 0.000000 0.000000 0.030157 0.000000 0.001478
# 5 -0.003361 -0.000168 -0.002831 0.000000 0.038466 0.000000
# 6 0.000000 0.000000 0.000000 0.001478 0.000000 0.049825
#
#
# Mechanical properties :
#
#
# Convention : Reuss Voigt Hill
#
# Bulk Modulus (GPa) = 56.65670 63.74568 60.20119
# Shear Modulus (GPa) = 24.32144 26.68271 25.50208
#
# Velocity S-wave (km/s) = 3.48685 3.65219 3.57048
# Velocity P-wave (km/s) = 6.67331 7.04633 6.86235
#
# Compressibility (1/GPa) = 0.01765016
#
# Stress axis : x y z
#
# Youngs Moduli (GPa) = 85.60680 50.19967 56.03032
#
# Poissons Ratio (x) = 0.07071 0.29716
# Poissons Ratio (y) = 0.12059 0.51478
# Poissons Ratio (z) = 0.45401 0.46121
#
# Static dielectric constant tensor:
#      x y z
#    x 3.720930 0.000000 0.074990 
#    y 0.000000 3.787940 0.000000 
#    z 0.074990 0.000000 3.521020 
# 
# 
# High freq. dielectric constant tensor:
#      x y z
#    x 1.776350 0.000000 0.002880 
#    y 0.000000 1.790890 0.000000 
#    z 0.002880 0.000000 1.761210 
# 
# From -- ./inp_files/26668.got.cif
#   From: 2010.03.12/outbox.cif.g09.slc.cpg/sg14_14_cif.got.tgz:26668.got - 2010.03.31 13:35:05.
