data_PCOD8124534
_publ_section_title
;
Structure prediction by ZEFSAII (Michael W. Deem and Ramdas Pophale) SiO2 
 PCOD8124534
Probable space group: P 21/C
;
_chemical_formula_sum "Si O2"
_cell_formula_units_Z 28
_cell_length_a 8.301062
_cell_length_b 9.291450
_cell_length_c 25.500511
_cell_angle_alpha 90.000000
_cell_angle_beta 134.596212
_cell_angle_gamma 90.000000
_cell_volume 1400.522944
_symmetry_space_group_name_H-M "P 21/C"
_symmetry_group_IT_number 14
_symmetry_cell_setting 'monoclinic'
loop_
_space_group_symop_operation_xyz
x,y,z
-x,1/2+y,1/2-z
-x,-y,-z
x,1/2-y,1/2+z
loop_
_atom_site_type_symbol
_atom_site_label
_atom_site_fract_x
_atom_site_fract_y
_atom_site_fract_z
Si Si1 0.761508 0.833842 0.961079
Si Si2 0.130872 0.125499 0.181131
Si Si3 0.143793 0.114021 0.608046
Si Si4 0.217374 0.588031 0.611191
Si Si5 0.640414 0.409659 0.990282
Si Si6 0.522325 0.123441 0.344962
Si Si7 0.377826 0.863362 0.948621
O O1 0.823936 0.705269 0.937131
O O2 0.531847 0.791100 0.938828
O O3 0.722292 0.984998 0.923453
O O4 0.962858 0.852065 0.048695
O O5 0.165306 0.282966 0.163332
O O6 0.262629 0.116924 0.266354
O O7 0.865994 0.096810 0.131410
O O8 0.236669 0.000747 0.169141
O O9 0.899445 0.034986 0.548112
O O10 0.330340 0.990106 0.654604
O O11 0.392209 0.717886 0.649346
O O12 0.526044 0.416045 0.907144
O O13 0.500000 0.500000 0.000000
O O14 0.655351 0.243612 0.010446
O O15 0.500000 0.000000 0.000000
#
# Coordination Sequence:
#
# PCOD8124534 Si02
#       7
#     4   4   4   4   4   4   4
#     4  10  19  38  63  89 111 153 210 247 288 352
#     4  10  23  40  58  92 127 154 198 258 306 356
#     4  10  22  40  62  86 121 159 202 251 293 366
#     4  10  20  36  64  90 113 156 208 244 290 367
#     4  11  24  38  58  90 121 157 202 251 302 364
#     4  12  22  39  62  89 124 162 199 248 314 359
#     4  11  21  38  62  86 118 158 203 250 293 356
#
# _framework density 19.992533999999999
#
# number of rings (size 3 to 8) (size 9 to 14) (size 15 to 20)
#    0.000    1.429    2.857    3.000    2.000    0.000 
#    0.000   11.429    0.000    0.000    0.000    0.000 
#    0.000    0.000    0.000    0.000    0.000    0.000 
#
# Total GULP energy -347291.326832 kJ/mol
# GULP energy per Si atom -12403.261673 kJ/mol
# Density = 1.994703 g / cm^3
# Si number density = 19.992534 Si / 1000 Ang^3
#
#
#
# Elastic Constant Matrix: (Units=GPa)
#
#
# Indices 1 2 3 4 5 6 
#
# 1 105.5165 11.9838 54.2000 0.0000 15.1136 0.0000
# 2 11.9838 67.9307 34.0614 0.0000 11.4437 0.0000
# 3 54.2000 34.0614 164.5924 0.0000 13.4843 0.0000
# 4 0.0000 0.0000 0.0000 15.6851 0.0000 4.4374
# 5 15.1136 11.4437 13.4843 0.0000 28.4375 0.0000
# 6 0.0000 0.0000 0.0000 4.4374 0.0000 32.3671
#
#
#
# Elastic Compliance Matrix: (Units=1/GPa)
#
#
# Indices 1 2 3 4 5 6 
#
# 1 0.011993 0.000539 -0.003663 0.000000 -0.004854 0.000000
# 2 0.000539 0.017223 -0.003278 0.000000 -0.005663 0.000000
# 3 -0.003663 -0.003278 0.008004 0.000000 -0.000529 0.000000
# 4 0.000000 0.000000 0.000000 0.066327 0.000000 -0.009093
# 5 -0.004854 -0.005663 -0.000529 0.000000 0.040274 0.000000
# 6 0.000000 0.000000 0.000000 -0.009093 0.000000 0.032142
#
#
# Mechanical properties :
#
#
# Convention : Reuss Voigt Hill
#
# Bulk Modulus (GPa) = 40.95759 59.83667 50.39713
# Shear Modulus (GPa) = 25.39283 31.15091 28.27187
#
# Velocity S-wave (km/s) = 3.56773 3.95159 3.76456
# Velocity P-wave (km/s) = 6.12393 7.12844 6.64519
#
# Compressibility (1/GPa) = 0.02441550
#
# Stress axis : x y z
#
# Youngs Moduli (GPa) = 83.38342 58.06066 124.94512
#
# Poissons Ratio (x) = -0.03128 0.45768
# Poissons Ratio (y) = -0.04492 0.40953
# Poissons Ratio (z) = 0.30544 0.19031
#
# Static dielectric constant tensor:
#      x y z
#    x 3.807150 0.000000 0.098640 
#    y 0.000000 3.788240 0.000000 
#    z 0.098640 0.000000 3.497310 
# 
# 
# High freq. dielectric constant tensor:
#      x y z
#    x 1.775940 0.000000 0.007110 
#    y 0.000000 1.792050 0.000000 
#    z 0.007110 0.000000 1.769410 
# 
# From -- ./inp_files/54786.got.cif
#   From: 2010.03.12/outbox.cif.g09.slc.cpg/sg14_28_cif.got.tgz:54786.got - 2010.03.31 13:35:05.
