data_PCOD8124958
_publ_section_title
;
Structure prediction by ZEFSAII (Michael W. Deem and Ramdas Pophale) SiO2 
 PCOD8124958
Probable space group: P 21/C
;
_chemical_formula_sum "Si O2"
_cell_formula_units_Z 24
_cell_length_a 7.760980
_cell_length_b 23.559955
_cell_length_c 8.456207
_cell_angle_alpha 90.000000
_cell_angle_beta 126.894481
_cell_angle_gamma 90.000000
_cell_volume 1236.564564
_symmetry_space_group_name_H-M "P 21/C"
_symmetry_group_IT_number 14
_symmetry_cell_setting 'monoclinic'
loop_
_space_group_symop_operation_xyz
x,y,z
-x,1/2+y,1/2-z
-x,-y,-z
x,1/2-y,1/2+z
loop_
_atom_site_type_symbol
_atom_site_label
_atom_site_fract_x
_atom_site_fract_y
_atom_site_fract_z
Si Si1 0.410883 0.317239 0.906877
Si Si2 0.461444 0.562722 0.912112
Si Si3 0.656381 0.517795 0.725185
Si Si4 0.899787 0.429212 0.075512
Si Si5 0.884451 0.305187 0.062534
Si Si6 0.155349 0.236185 0.987261
O O1 0.404294 0.385493 0.933367
O O2 0.650268 0.293041 0.006983
O O3 0.314749 0.284834 0.006762
O O4 0.275080 0.305278 0.674507
O O5 0.520623 0.561427 0.759708
O O6 0.209533 0.575070 0.809738
O O7 0.500000 0.500000 0.000000
O O8 0.500000 0.500000 0.500000
O O9 0.861865 0.548471 0.763892
O O10 0.747655 0.465582 0.876369
O O11 0.901322 0.367689 0.996550
O O12 0.943988 0.262674 0.954274
O O13 0.069165 0.301871 0.297416
#
# Coordination Sequence:
#
# PCOD8124958 Si02
#       6
#     4   4   4   4   4   4
#     4  10  20  37  56  80 111 143 183 229 275 327
#     4   9  19  36  56  79 111 144 178 225 275 328
#     4  10  20  36  56  80 107 142 182 221 274 327
#     4   9  20  36  54  78 110 140 177 227 268 323
#     4  10  20  36  54  80 109 140 182 224 271 325
#     4  10  21  35  57  80 108 147 183 225 277 330
#
# _framework density 19.408611000000001
#
# number of rings (size 3 to 8) (size 9 to 14) (size 15 to 20)
#    0.000    2.333    0.000    2.000    0.000    4.667 
#    0.000   16.667    0.000    0.000    0.000    0.000 
#    0.000    0.000    0.000    0.000    0.000    0.000 
#
# Total GULP energy -297403.838432 kJ/mol
# GULP energy per Si atom -12391.826601 kJ/mol
# Density = 1.936444 g / cm^3
# Si number density = 19.408611 Si / 1000 Ang^3
#
#
#
# Elastic Constant Matrix: (Units=GPa)
#
#
# Indices 1 2 3 4 5 6 
#
# 1 129.3604 37.1515 37.3048 0.0000 4.4900 0.0000
# 2 37.1515 74.7852 -0.0981 0.0000 -2.1339 0.0000
# 3 37.3048 -0.0981 56.1552 0.0000 2.7490 0.0000
# 4 0.0000 0.0000 0.0000 20.8762 0.0000 -1.5473
# 5 4.4900 -2.1339 2.7490 0.0000 25.3143 0.0000
# 6 0.0000 0.0000 0.0000 -1.5473 0.0000 24.3552
#
#
#
# Elastic Compliance Matrix: (Units=1/GPa)
#
#
# Indices 1 2 3 4 5 6 
#
# 1 0.011695 -0.005869 -0.007695 0.000000 -0.001734 0.000000
# 2 -0.005869 0.016350 0.003830 0.000000 0.002003 0.000000
# 3 -0.007695 0.003830 0.022966 0.000000 -0.000806 0.000000
# 4 0.000000 0.000000 0.000000 0.048128 0.000000 0.003058
# 5 -0.001734 0.002003 -0.000806 0.000000 0.040067 0.000000
# 6 0.000000 0.000000 0.000000 0.003058 0.000000 0.041253
#
#
# Mechanical properties :
#
#
# Convention : Reuss Voigt Hill
#
# Bulk Modulus (GPa) = 31.70425 45.44634 38.57530
# Shear Modulus (GPa) = 23.75955 26.50532 25.13244
#
# Velocity S-wave (km/s) = 3.50262 3.69948 3.60239
# Velocity P-wave (km/s) = 5.72087 6.45868 6.10094
#
# Compressibility (1/GPa) = 0.03154151
#
# Stress axis : x y z
#
# Youngs Moduli (GPa) = 85.50553 61.16357 43.54329
#
# Poissons Ratio (x) = 0.35899 0.33505
# Poissons Ratio (y) = 0.50187 -0.16676
# Poissons Ratio (z) = 0.65794 -0.23423
#
# Static dielectric constant tensor:
#      x y z
#    x 4.263750 0.000000 -0.061730 
#    y 0.000000 3.634330 0.000000 
#    z -0.061730 0.000000 3.159310 
# 
# 
# High freq. dielectric constant tensor:
#      x y z
#    x 1.783030 0.000000 -0.000650 
#    y 0.000000 1.761270 0.000000 
#    z -0.000650 0.000000 1.723530 
# 
# From -- ./inp_files/6230.got.cif
#   From: 2010.03.12/outbox.cif.g09.slc.cpg/sg14_4_cif.got.tgz:6230.got - 2010.03.31 13:35:05.
