data_PCOD8124093
_publ_section_title
;
Structure prediction by ZEFSAII (Michael W. Deem and Ramdas Pophale) SiO2 
 PCOD8124093
Probable space group: P 21/C
;
_chemical_formula_sum "Si O2"
_cell_formula_units_Z 32
_cell_length_a 12.858230
_cell_length_b 16.904415
_cell_length_c 13.056436
_cell_angle_alpha 90.000000
_cell_angle_beta 34.496084
_cell_angle_gamma 90.000000
_cell_volume 1607.277315
_symmetry_space_group_name_H-M "P 21/C"
_symmetry_group_IT_number 14
_symmetry_cell_setting 'monoclinic'
loop_
_space_group_symop_operation_xyz
x,y,z
-x,1/2+y,1/2-z
-x,-y,-z
x,1/2-y,1/2+z
loop_
_atom_site_type_symbol
_atom_site_label
_atom_site_fract_x
_atom_site_fract_y
_atom_site_fract_z
Si Si1 0.993111 0.295700 0.553459
Si Si2 0.478754 0.622682 0.757250
Si Si3 0.223885 0.984744 0.600071
Si Si4 0.133555 0.428555 0.563273
Si Si5 0.804259 0.442393 0.643321
Si Si6 0.554893 0.628651 0.123509
Si Si7 0.607419 0.225708 0.860171
Si Si8 0.624526 0.769849 0.761258
O O1 0.930473 0.363974 0.523888
O O2 0.817613 0.241649 0.721742
O O3 0.062521 0.338969 0.601208
O O4 0.164214 0.243606 0.373383
O O5 0.657346 0.574915 0.569656
O O6 0.382188 0.661062 0.737814
O O7 0.538386 0.687315 0.792694
O O8 0.342918 0.562129 0.920916
O O9 0.254525 0.950930 0.689818
O O10 0.273514 0.077357 0.557509
O O11 0.007974 0.971553 0.743844
O O12 0.107057 0.477749 0.476625
O O13 0.620172 0.429404 0.725353
O O14 0.503620 0.696877 0.085157
O O15 0.616420 0.663621 0.181477
O O16 0.495212 0.194673 0.048868
#
# Coordination Sequence:
#
# PCOD8124093 Si02
#       8
#     4   4   4   4   4   4   4   4
#     4   9  19  34  55  83 108 144 185 219 281 339
#     4  10  21  37  56  83 113 149 188 229 284 335
#     4  11  20  34  59  83 118 140 183 242 278 326
#     4  10  20  32  57  90 111 136 181 234 292 334
#     4  10  19  34  58  89 114 137 181 235 297 327
#     4  10  21  35  57  90 109 149 187 227 289 332
#     4  10  22  38  57  78 115 157 184 225 282 334
#     4  10  21  38  55  80 120 146 189 229 271 341
#
# _framework density 19.909447
#
# number of rings (size 3 to 8) (size 9 to 14) (size 15 to 20)
#    0.000    2.000    1.250    4.125    5.250    1.000 
#    2.250    4.375    0.000    1.500    0.000    0.000 
#    0.000    0.000    0.000    0.000    0.000    0.000 
#
# Total GULP energy -396628.583359 kJ/mol
# GULP energy per Si atom -12394.643230 kJ/mol
# Density = 1.986413 g / cm^3
# Si number density = 19.909447 Si / 1000 Ang^3
#
#
#
# Elastic Constant Matrix: (Units=GPa)
#
#
# Indices 1 2 3 4 5 6 
#
# 1 59.9444 26.7400 50.6163 0.0000 -3.4055 0.0000
# 2 26.7400 59.9496 38.0091 0.0000 -1.5199 0.0000
# 3 50.6163 38.0091 127.4555 0.0000 -23.2066 0.0000
# 4 0.0000 0.0000 0.0000 23.8328 0.0000 -3.4077
# 5 -3.4055 -1.5199 -23.2066 0.0000 22.3285 0.0000
# 6 0.0000 0.0000 0.0000 -3.4077 0.0000 18.2223
#
#
#
# Elastic Compliance Matrix: (Units=1/GPa)
#
#
# Indices 1 2 3 4 5 6 
#
# 1 0.027865 -0.005876 -0.010623 0.000000 -0.007191 0.000000
# 2 -0.005876 0.022514 -0.005260 0.000000 -0.004830 0.000000
# 3 -0.010623 -0.005260 0.016371 0.000000 0.015036 0.000000
# 4 0.000000 0.000000 0.000000 0.043112 0.000000 0.008062
# 5 -0.007191 -0.004830 0.015036 0.000000 0.058988 0.000000
# 6 0.000000 0.000000 0.000000 0.008062 0.000000 0.056386
#
#
# Mechanical properties :
#
#
# Convention : Reuss Voigt Hill
#
# Bulk Modulus (GPa) = 43.04425 53.12005 48.08215
# Shear Modulus (GPa) = 18.08344 21.67568 19.87956
#
# Velocity S-wave (km/s) = 3.01705 3.30314 3.16333
# Velocity P-wave (km/s) = 5.81409 6.42545 6.12740
#
# Compressibility (1/GPa) = 0.02323191
#
# Stress axis : x y z
#
# Youngs Moduli (GPa) = 35.88795 44.41663 61.08424
#
# Poissons Ratio (x) = 0.26099 0.64888
# Poissons Ratio (y) = 0.21088 0.32130
# Poissons Ratio (z) = 0.38123 0.23363
#
# Static dielectric constant tensor:
#      x y z
#    x 3.398730 0.000000 -0.372100 
#    y 0.000000 3.557920 0.000000 
#    z -0.372100 0.000000 3.675000 
# 
# 
# High freq. dielectric constant tensor:
#      x y z
#    x 1.744910 0.000000 -0.031710 
#    y 0.000000 1.765530 0.000000 
#    z -0.031710 0.000000 1.777540 
# 
# From -- ./inp_files/30450.got.cif
#   From: 2010.03.12/outbox.cif.g09.slc.cpg/sg14_16_cif.got.tgz:30450.got - 2010.03.31 13:35:05.
