data_PCOD8124427
_publ_section_title
;
Structure prediction by ZEFSAII (Michael W. Deem and Ramdas Pophale) SiO2 
 PCOD8124427
Probable space group: P 21/C
;
_chemical_formula_sum "Si O2"
_cell_formula_units_Z 28
_cell_length_a 10.114789
_cell_length_b 11.275335
_cell_length_c 20.135912
_cell_angle_alpha 90.000000
_cell_angle_beta 38.103119
_cell_angle_gamma 90.000000
_cell_volume 1417.092341
_symmetry_space_group_name_H-M "P 21/C"
_symmetry_group_IT_number 14
_symmetry_cell_setting 'monoclinic'
loop_
_space_group_symop_operation_xyz
x,y,z
-x,1/2+y,1/2-z
-x,-y,-z
x,1/2-y,1/2+z
loop_
_atom_site_type_symbol
_atom_site_label
_atom_site_fract_x
_atom_site_fract_y
_atom_site_fract_z
Si Si1 0.686777 0.080741 0.563136
Si Si2 0.454505 0.837556 0.651281
Si Si3 0.806317 0.732682 0.427877
Si Si4 0.902349 0.939676 0.690984
Si Si5 0.783416 0.160983 0.668733
Si Si6 0.037942 0.531177 0.283439
Si Si7 0.741722 0.699729 0.803075
O O1 0.774230 0.145724 0.593674
O O2 0.505462 0.162550 0.601924
O O3 0.875696 0.070010 0.435971
O O4 0.596732 0.950123 0.617070
O O5 0.575886 0.752325 0.551459
O O6 0.394154 0.757360 0.738960
O O7 0.239973 0.879394 0.698830
O O8 0.809832 0.782830 0.352061
O O9 0.978526 0.799003 0.405506
O O10 0.860552 0.591767 0.401740
O O11 0.782404 0.813777 0.741423
O O12 0.947687 0.988794 0.746066
O O13 0.742578 0.033079 0.719119
O O14 0.109895 0.405572 0.285554
#
# Coordination Sequence:
#
# PCOD8124427 Si02
#       7
#     4   4   4   4   4   4   4
#     4  11  23  38  61  82 114 157 187 228 286 338
#     4  10  21  38  61  81 117 149 191 230 285 339
#     4  10  19  37  61  83 113 149 185 231 286 336
#     4  11  21  38  63  84 117 147 194 231 280 338
#     4  11  23  36  58  88 110 147 196 233 273 335
#     4   9  19  37  59  87 113 147 187 237 283 333
#     4  10  21  38  58  89 114 146 190 236 276 338
#
# _framework density 19.758769000000001
#
# number of rings (size 3 to 8) (size 9 to 14) (size 15 to 20)
#    0.000    1.714    2.857    1.286    2.000    2.286 
#    2.571    1.429    0.000    5.143    0.000    0.000 
#    0.000    0.000    0.000    0.000    0.000    0.000 
#
# Total GULP energy -347175.718167 kJ/mol
# GULP energy per Si atom -12399.132792 kJ/mol
# Density = 1.971380 g / cm^3
# Si number density = 19.758769 Si / 1000 Ang^3
#
#
#
# Elastic Constant Matrix: (Units=GPa)
#
#
# Indices 1 2 3 4 5 6 
#
# 1 66.0592 8.3226 -5.7273 0.0000 3.2122 0.0000
# 2 8.3226 85.1573 22.2109 0.0000 -5.3326 0.0000
# 3 -5.7273 22.2109 46.8465 0.0000 -11.2367 0.0000
# 4 0.0000 0.0000 0.0000 29.5782 0.0000 -4.2607
# 5 3.2122 -5.3326 -11.2367 0.0000 18.5408 0.0000
# 6 0.0000 0.0000 0.0000 -4.2607 0.0000 20.3893
#
#
#
# Elastic Compliance Matrix: (Units=1/GPa)
#
#
# Indices 1 2 3 4 5 6 
#
# 1 0.015745 -0.002329 0.002591 0.000000 -0.001828 0.000000
# 2 -0.002329 0.013745 -0.006735 0.000000 0.000275 0.000000
# 3 0.002591 -0.006735 0.028415 0.000000 0.014835 0.000000
# 4 0.000000 0.000000 0.000000 0.034858 0.000000 0.007284
# 5 -0.001828 0.000275 0.014835 0.000000 0.063322 0.000000
# 6 0.000000 0.000000 0.000000 0.007284 0.000000 0.050568
#
#
# Mechanical properties :
#
#
# Convention : Reuss Voigt Hill
#
# Bulk Modulus (GPa) = 22.24352 27.51948 24.88150
# Shear Modulus (GPa) = 21.31433 25.25211 23.28322
#
# Velocity S-wave (km/s) = 3.28796 3.57882 3.43647
# Velocity P-wave (km/s) = 5.06915 5.57093 5.32595
#
# Compressibility (1/GPa) = 0.04495691
#
# Stress axis : x y z
#
# Youngs Moduli (GPa) = 63.51289 72.75628 35.19298
#
# Poissons Ratio (x) = 0.16944 -0.09118
# Poissons Ratio (y) = 0.14792 0.23704
# Poissons Ratio (z) = -0.16455 0.49004
#
# Static dielectric constant tensor:
#      x y z
#    x 3.446900 0.000000 -0.121300 
#    y 0.000000 3.939640 0.000000 
#    z -0.121300 0.000000 3.471960 
# 
# 
# High freq. dielectric constant tensor:
#      x y z
#    x 1.765430 0.000000 -0.007460 
#    y 0.000000 1.781340 0.000000 
#    z -0.007460 0.000000 1.752590 
# 
# From -- ./inp_files/28679.got.cif
#   From: 2010.03.12/outbox.cif.g09.slc.cpg/sg14_15_cif.got.tgz:28679.got - 2010.03.31 13:35:05.
