data_PCOD8124049
_publ_section_title
;
Structure prediction by ZEFSAII (Michael W. Deem and Ramdas Pophale) SiO2 
 PCOD8124049
Probable space group: P 21/C
;
_chemical_formula_sum "Si O2"
_cell_formula_units_Z 28
_cell_length_a 5.153976
_cell_length_b 28.367268
_cell_length_c 8.461748
_cell_angle_alpha 90.000000
_cell_angle_beta 79.203833
_cell_angle_gamma 90.000000
_cell_volume 1215.245550
_symmetry_space_group_name_H-M "P 21/C"
_symmetry_group_IT_number 14
_symmetry_cell_setting 'monoclinic'
loop_
_space_group_symop_operation_xyz
x,y,z
-x,1/2+y,1/2-z
-x,-y,-z
x,1/2-y,1/2+z
loop_
_atom_site_type_symbol
_atom_site_label
_atom_site_fract_x
_atom_site_fract_y
_atom_site_fract_z
Si Si1 0.378758 0.580118 0.255267
Si Si2 0.944886 0.773854 0.946332
Si Si3 0.861068 0.681060 0.796851
Si Si4 0.472312 0.823571 0.872950
Si Si5 0.933130 0.528107 0.162610
Si Si6 0.704046 0.462191 0.416574
Si Si7 0.385540 0.630791 0.720460
O O1 0.452911 0.635284 0.243505
O O2 0.640395 0.549899 0.191680
O O3 0.223133 0.568797 0.438153
O O4 0.156950 0.568361 0.150617
O O5 0.877043 0.718388 0.938691
O O6 0.760701 0.800292 0.838357
O O7 0.248619 0.784231 0.863973
O O8 0.895217 0.790135 0.130230
O O9 0.587940 0.651611 0.827591
O O10 0.086825 0.642569 0.802571
O O11 0.443694 0.845294 0.048051
O O12 0.946737 0.490776 0.308533
O O13 0.000000 0.500000 0.000000
O O14 0.500000 0.500000 0.500000
O O15 0.582514 0.425925 0.299609
#
# Coordination Sequence:
#
# PCOD8124049 Si02
#       7
#     4   4   4   4   4   4   4
#     4  10  20  37  58  80 105 143 190 227 263 321
#     4  10  19  34  54  77 104 137 173 214 269 322
#     4  10  20  35  54  78 108 140 174 221 272 323
#     4   9  18  33  56  78 100 134 182 227 257 306
#     4  11  22  36  54  81 117 146 174 224 287 332
#     4   9  20  37  61  84 106 146 195 230 268 332
#     4   9  19  34  54  80 108 136 178 231 271 308
#
# _framework density 23.040610999999998
#
# number of rings (size 3 to 8) (size 9 to 14) (size 15 to 20)
#    0.000    2.286    0.000    2.571    0.000    9.143 
#    0.000    4.286    0.000    0.000    0.000    0.000 
#    0.000    0.000    0.000    0.000    0.000    0.000 
#
# Total GULP energy -347029.929501 kJ/mol
# GULP energy per Si atom -12393.926054 kJ/mol
# Density = 2.298817 g / cm^3
# Si number density = 23.040611 Si / 1000 Ang^3
#
#
#
# Elastic Constant Matrix: (Units=GPa)
#
#
# Indices 1 2 3 4 5 6 
#
# 1 131.7790 13.7160 4.8832 0.0000 3.4372 0.0000
# 2 13.7160 70.2530 -21.5559 0.0000 2.9854 0.0000
# 3 4.8832 -21.5559 19.0088 0.0000 -1.1182 0.0000
# 4 0.0000 0.0000 0.0000 23.7089 0.0000 7.8990
# 5 3.4372 2.9854 -1.1182 0.0000 15.2991 0.0000
# 6 0.0000 0.0000 0.0000 7.8990 0.0000 39.8689
#
#
#
# Elastic Compliance Matrix: (Units=1/GPa)
#
#
# Indices 1 2 3 4 5 6 
#
# 1 0.008208 -0.003389 -0.006047 0.000000 -0.001625 0.000000
# 2 -0.003389 0.023322 0.027211 0.000000 -0.001801 0.000000
# 3 -0.006047 0.027211 0.085152 0.000000 0.002272 0.000000
# 4 0.000000 0.000000 0.000000 0.045159 0.000000 -0.008947
# 5 -0.001625 -0.001801 0.002272 0.000000 0.066246 0.000000
# 6 0.000000 0.000000 0.000000 -0.008947 0.000000 0.026855
#
#
# Mechanical properties :
#
#
# Convention : Reuss Voigt Hill
#
# Bulk Modulus (GPa) = 6.56891 23.90304 15.23598
# Shear Modulus (GPa) = 18.50936 30.70855 24.60895
#
# Velocity S-wave (km/s) = 2.83739 3.65472 3.27168
# Velocity P-wave (km/s) = 3.68668 5.31094 4.57153
#
# Compressibility (1/GPa) = 0.15223221
#
# Stress axis : x y z
#
# Youngs Moduli (GPa) = 121.83793 42.87859 11.74375
#
# Poissons Ratio (x) = 0.14531 0.07101
# Poissons Ratio (y) = 0.41288 -0.31956
# Poissons Ratio (z) = 0.73674 -1.16678
#
# Static dielectric constant tensor:
#      x y z
#    x 4.278030 0.000000 -0.033170 
#    y 0.000000 4.472580 0.000000 
#    z -0.033170 0.000000 4.053740 
# 
# 
# High freq. dielectric constant tensor:
#      x y z
#    x 1.906230 0.000000 0.001220 
#    y 0.000000 1.917650 0.000000 
#    z 0.001220 0.000000 1.878980 
# 
# From -- ./inp_files/6500.got.cif
#   From: 2010.03.12/outbox.cif.g09.slc.cpg/sg14_4_cif.got.tgz:6500.got - 2010.03.31 13:35:05.
