data_PCOD8124872
_publ_section_title
;
Structure prediction by ZEFSAII (Michael W. Deem and Ramdas Pophale) SiO2 
 PCOD8124872
Probable space group: P 21/C
;
_chemical_formula_sum "Si O2"
_cell_formula_units_Z 20
_cell_length_a 9.157032
_cell_length_b 5.121375
_cell_length_c 27.132042
_cell_angle_alpha 90.000000
_cell_angle_beta 53.436997
_cell_angle_gamma 90.000000
_cell_volume 1021.994913
_symmetry_space_group_name_H-M "P 21/C"
_symmetry_group_IT_number 14
_symmetry_cell_setting 'monoclinic'
loop_
_space_group_symop_operation_xyz
x,y,z
-x,1/2+y,1/2-z
-x,-y,-z
x,1/2-y,1/2+z
loop_
_atom_site_type_symbol
_atom_site_label
_atom_site_fract_x
_atom_site_fract_y
_atom_site_fract_z
Si Si1 0.056256 0.257656 0.051917
Si Si2 0.777115 0.247138 0.022671
Si Si3 0.761035 0.415545 0.796550
Si Si4 0.041936 0.216117 0.666406
Si Si5 0.610903 0.593455 0.363045
O O1 0.994552 0.333971 0.119275
O O2 0.875511 0.271249 0.055432
O O3 0.209401 0.468090 0.004973
O O4 0.132986 0.965521 0.031618
O O5 0.571545 0.156704 0.071220
O O6 0.910058 0.453152 0.811371
O O7 0.646577 0.684135 0.813976
O O8 0.867252 0.356370 0.725181
O O9 0.612666 0.190969 0.837967
O O10 0.221326 0.400152 0.631901
#
# Coordination Sequence:
#
# PCOD8124872 Si02
#       5
#     4   4   4   4   4
#     4  10  23  37  60  75 113 150 183 221 281 324
#     4  10  22  41  52  83 111 146 185 229 266 331
#     4  10  20  35  56  85 110 142 175 235 267 331
#     4  10  21  36  59  82 110 146 182 222 280 326
#     4  10  20  35  58  78 118 135 182 230 274 311
#
# _framework density 19.569569000000001
#
# number of rings (size 3 to 8) (size 9 to 14) (size 15 to 20)
#    1.200    0.800    2.000    1.200    2.800    1.600 
#    0.000    2.000    0.000    0.000    0.000    0.000 
#    0.000    0.000    0.000    0.000    0.000    0.000 
#
# Total GULP energy -247820.869713 kJ/mol
# GULP energy per Si atom -12391.043486 kJ/mol
# Density = 1.952503 g / cm^3
# Si number density = 19.569569 Si / 1000 Ang^3
#
#
#
# Elastic Constant Matrix: (Units=GPa)
#
#
# Indices 1 2 3 4 5 6 
#
# 1 18.6407 4.6452 26.7006 0.0000 3.4544 0.0000
# 2 4.6452 103.6906 20.9018 0.0000 5.8620 0.0000
# 3 26.7006 20.9018 121.8695 0.0000 14.1930 0.0000
# 4 0.0000 0.0000 0.0000 20.0907 0.0000 -6.2506
# 5 3.4544 5.8620 14.1930 0.0000 16.5513 0.0000
# 6 0.0000 0.0000 0.0000 -6.2506 0.0000 21.2373
#
#
#
# Elastic Compliance Matrix: (Units=1/GPa)
#
#
# Indices 1 2 3 4 5 6 
#
# 1 0.078230 0.000011 -0.016930 0.000000 -0.001813 0.000000
# 2 0.000011 0.010069 -0.001459 0.000000 -0.002317 0.000000
# 3 -0.016930 -0.001459 0.012991 0.000000 -0.007089 0.000000
# 4 0.000000 0.000000 0.000000 0.054791 0.000000 0.016126
# 5 -0.001813 -0.002317 -0.007089 0.000000 0.067697 0.000000
# 6 0.000000 0.000000 0.000000 0.016126 0.000000 0.051833
#
#
# Mechanical properties :
#
#
# Convention : Reuss Voigt Hill
#
# Bulk Modulus (GPa) = 15.49629 38.74401 27.12015
# Shear Modulus (GPa) = 14.97546 24.37273 19.67410
#
# Velocity S-wave (km/s) = 2.76930 3.53291 3.17415
# Velocity P-wave (km/s) = 4.26159 6.04012 5.22705
#
# Compressibility (1/GPa) = 0.06453159
#
# Stress axis : x y z
#
# Youngs Moduli (GPa) = 12.78279 99.31701 76.97792
#
# Poissons Ratio (x) = -0.00106 1.30326
# Poissons Ratio (y) = -0.00014 0.11234
# Poissons Ratio (z) = 0.21642 0.14494
#
# Static dielectric constant tensor:
#      x y z
#    x 3.230010 0.000000 -0.075240 
#    y 0.000000 3.730360 0.000000 
#    z -0.075240 0.000000 3.255970 
# 
# 
# High freq. dielectric constant tensor:
#      x y z
#    x 1.725150 0.000000 -0.018270 
#    y 0.000000 1.775330 0.000000 
#    z -0.018270 0.000000 1.752220 
# 
# From -- ./inp_files/63942.got.cif
#   From: 2010.03.12/outbox.cif.g09.slc.cpg/sg14_32_cif.got.tgz:63942.got - 2010.03.31 13:35:05.
