data_PCOD8124236
_publ_section_title
;
Structure prediction by ZEFSAII (Michael W. Deem and Ramdas Pophale) SiO2 
 PCOD8124236
Probable space group: P 21/C
;
_chemical_formula_sum "Si O2"
_cell_formula_units_Z 32
_cell_length_a 8.585815
_cell_length_b 21.229794
_cell_length_c 11.855979
_cell_angle_alpha 90.000000
_cell_angle_beta 49.408807
_cell_angle_gamma 90.000000
_cell_volume 1641.039082
_symmetry_space_group_name_H-M "P 21/C"
_symmetry_group_IT_number 14
_symmetry_cell_setting 'monoclinic'
loop_
_space_group_symop_operation_xyz
x,y,z
-x,1/2+y,1/2-z
-x,-y,-z
x,1/2-y,1/2+z
loop_
_atom_site_type_symbol
_atom_site_label
_atom_site_fract_x
_atom_site_fract_y
_atom_site_fract_z
Si Si1 0.933861 0.930895 0.806912
Si Si2 0.978134 0.769706 0.218614
Si Si3 0.227006 0.824197 0.735621
Si Si4 0.321588 0.351080 0.012210
Si Si5 0.744928 0.657820 0.220716
Si Si6 0.706700 0.350716 0.553866
Si Si7 0.704235 0.975168 0.349480
Si Si8 0.232746 0.996604 0.925381
O O1 0.846459 0.903250 0.731735
O O2 0.048102 0.875886 0.820707
O O3 0.747280 0.958896 0.972713
O O4 0.100684 0.984263 0.703527
O O5 0.793024 0.789488 0.387462
O O6 0.884259 0.720361 0.172060
O O7 0.155404 0.738307 0.208411
O O8 0.097474 0.830182 0.111988
O O9 0.435656 0.847713 0.578301
O O10 0.273921 0.809151 0.842581
O O11 0.238825 0.407214 0.128870
O O12 0.272417 0.359137 0.903014
O O13 0.520464 0.667498 0.384579
O O14 0.702161 0.425552 0.577753
O O15 0.652096 0.976215 0.239290
O O16 0.500000 0.000000 0.500000
O O17 0.000000 0.000000 0.000000
#
# Coordination Sequence:
#
# PCOD8124236 Si02
#       8
#     4   4   4   4   4   4   4   4
#     4  10  20  38  58  86 117 154 188 238 288 353
#     4  11  22  37  61  83 114 155 203 242 289 357
#     4  10  20  37  58  78 117 154 191 238 292 342
#     4  11  22  38  59  90 114 155 197 242 301 349
#     4  10  24  40  56  87 125 153 186 247 314 328
#     4  11  20  39  61  83 116 152 196 249 281 352
#     4  11  19  36  62  91 116 152 202 242 290 356
#     4  10  19  35  62  90 108 158 204 233 289 355
#
# _framework density 19.499841
#
# number of rings (size 3 to 8) (size 9 to 14) (size 15 to 20)
#    0.000    1.500    3.750    3.750    0.000    1.000 
#    0.000    1.250    2.750    0.000    0.000    0.000 
#    0.000    0.000    0.000    0.000    0.000    0.000 
#
# Total GULP energy -396580.023179 kJ/mol
# GULP energy per Si atom -12393.125724 kJ/mol
# Density = 1.945546 g / cm^3
# Si number density = 19.499841 Si / 1000 Ang^3
#
#
#
# Elastic Constant Matrix: (Units=GPa)
#
#
# Indices 1 2 3 4 5 6 
#
# 1 87.2580 47.7793 35.0964 0.0000 0.0782 0.0000
# 2 47.7793 91.1928 49.4595 0.0000 13.4419 0.0000
# 3 35.0964 49.4595 124.0838 0.0000 2.9225 0.0000
# 4 0.0000 0.0000 0.0000 36.8641 0.0000 -3.2984
# 5 0.0782 13.4419 2.9225 0.0000 24.9948 0.0000
# 6 0.0000 0.0000 0.0000 -3.2984 0.0000 29.5594
#
#
#
# Elastic Compliance Matrix: (Units=1/GPa)
#
#
# Indices 1 2 3 4 5 6 
#
# 1 0.016813 -0.008777 -0.001371 0.000000 0.004828 0.000000
# 2 -0.008777 0.019865 -0.005199 0.000000 -0.010048 0.000000
# 3 -0.001371 -0.005199 0.010482 0.000000 0.001575 0.000000
# 4 0.000000 0.000000 0.000000 0.027400 0.000000 0.003057
# 5 0.004828 -0.010048 0.001575 0.000000 0.045213 0.000000
# 6 0.000000 0.000000 0.000000 0.003057 0.000000 0.034171
#
#
# Mechanical properties :
#
#
# Convention : Reuss Voigt Hill
#
# Bulk Modulus (GPa) = 60.72874 63.02276 61.87575
# Shear Modulus (GPa) = 26.29802 29.63029 27.96416
#
# Velocity S-wave (km/s) = 3.67635 3.90232 3.79102
# Velocity P-wave (km/s) = 7.01652 7.25906 7.13882
#
# Compressibility (1/GPa) = 0.01646667
#
# Stress axis : x y z
#
# Youngs Moduli (GPa) = 59.47615 50.33862 95.40199
#
# Poissons Ratio (x) = 0.44185 0.13076
# Poissons Ratio (y) = 0.52205 0.49599
# Poissons Ratio (z) = 0.08152 0.26171
#
# Static dielectric constant tensor:
#      x y z
#    x 3.405230 0.000000 -0.191290 
#    y 0.000000 3.735070 0.000000 
#    z -0.191290 0.000000 3.712270 
# 
# 
# High freq. dielectric constant tensor:
#      x y z
#    x 1.751500 0.000000 -0.005670 
#    y 0.000000 1.758810 0.000000 
#    z -0.005670 0.000000 1.764670 
# 
# From -- ./inp_files/26790.got.cif
#   From: 2010.03.12/outbox.cif.g09.slc.cpg/sg14_14_cif.got.tgz:26790.got - 2010.03.31 13:35:05.
