data_PCOD8124858
_publ_section_title
;
Structure prediction by ZEFSAII (Michael W. Deem and Ramdas Pophale) SiO2 
 PCOD8124858
Probable space group: P 21/C
;
_chemical_formula_sum "Si O2"
_cell_formula_units_Z 32
_cell_length_a 11.838107
_cell_length_b 12.762982
_cell_length_c 21.647176
_cell_angle_alpha 90.000000
_cell_angle_beta 30.652295
_cell_angle_gamma 90.000000
_cell_volume 1667.471210
_symmetry_space_group_name_H-M "P 21/C"
_symmetry_group_IT_number 14
_symmetry_cell_setting 'monoclinic'
loop_
_space_group_symop_operation_xyz
x,y,z
-x,1/2+y,1/2-z
-x,-y,-z
x,1/2-y,1/2+z
loop_
_atom_site_type_symbol
_atom_site_label
_atom_site_fract_x
_atom_site_fract_y
_atom_site_fract_z
Si Si1 0.039026 0.226566 0.830070
Si Si2 0.204979 0.300067 0.941739
Si Si3 0.672806 0.881722 0.203679
Si Si4 0.204977 0.699934 0.941737
Si Si5 0.748902 0.622151 0.364618
Si Si6 0.748904 0.377846 0.364620
Si Si7 0.672809 0.381725 0.703679
Si Si8 0.039024 0.726563 0.330068
O O1 0.202014 0.157619 0.794633
O O2 0.185857 0.313600 0.726835
O O3 0.915748 0.149562 0.841246
O O4 0.857794 0.285822 0.957218
O O5 0.264087 0.186063 0.885783
O O6 0.410649 0.377848 0.839881
O O7 0.000001 0.349562 1.000000
O O8 0.142201 0.285825 0.042786
O O9 0.410646 0.877847 0.339879
O O10 0.741996 0.999999 0.156267
O O11 0.264086 0.813938 0.885781
O O12 0.768563 0.499998 0.339626
O O13 0.499997 0.653172 0.499997
O O14 0.915734 0.649561 0.341252
O O15 0.814131 0.313591 0.273174
O O16 0.797996 0.342388 0.705364
#
# Coordination Sequence:
#
# PCOD8124858 Si02
#       8
#     4   4   4   4   4   4   4   4
#     4  10  20  36  55  78 108 138 175 218 258 309
#     4   9  20  36  53  79 110 137 170 214 261 311
#     4  10  20  35  56  80 106 138 174 213 260 312
#     4   9  20  36  53  79 110 137 170 214 261 311
#     4  10  21  36  55  78 105 140 178 217 261 306
#     4  10  21  36  55  78 105 140 178 217 261 306
#     4  10  20  35  56  80 106 138 174 213 260 312
#     4  10  20  36  55  78 108 138 175 218 258 309
#
# _framework density 19.190736999999999
#
# number of rings (size 3 to 8) (size 9 to 14) (size 15 to 20)
#    0.000    2.250    0.000    2.250    0.000    7.000 
#    0.000   15.000    0.000    8.250    0.000    0.000 
#    0.000    0.000    0.000    0.000    0.000    0.000 
#
# Total GULP energy -396912.261633 kJ/mol
# GULP energy per Si atom -12403.508176 kJ/mol
# Density = 1.914706 g / cm^3
# Si number density = 19.190737 Si / 1000 Ang^3
#
#
#
# Elastic Constant Matrix: (Units=GPa)
#
#
# Indices 1 2 3 4 5 6 
#
# 1 62.7996 31.9100 38.9827 0.0000 2.1033 0.0000
# 2 31.9100 92.0041 40.9598 0.0000 7.4367 0.0000
# 3 38.9827 40.9598 128.2230 0.0000 2.9829 0.0000
# 4 0.0000 0.0000 0.0000 16.6195 0.0000 1.4006
# 5 2.1033 7.4367 2.9829 0.0000 38.1841 0.0000
# 6 0.0000 0.0000 0.0000 1.4006 0.0000 19.3903
#
#
#
# Elastic Compliance Matrix: (Units=1/GPa)
#
#
# Indices 1 2 3 4 5 6 
#
# 1 0.021670 -0.005362 -0.004881 0.000000 0.000232 0.000000
# 2 -0.005362 0.014177 -0.002847 0.000000 -0.002243 0.000000
# 3 -0.004881 -0.002847 0.010191 0.000000 0.000027 0.000000
# 4 0.000000 0.000000 0.000000 0.060539 0.000000 -0.004373
# 5 0.000232 -0.002243 0.000027 0.000000 0.026611 0.000000
# 6 0.000000 0.000000 0.000000 -0.004373 0.000000 0.051888
#
#
# Mechanical properties :
#
#
# Convention : Reuss Voigt Hill
#
# Bulk Modulus (GPa) = 50.35075 56.30353 53.32714
# Shear Modulus (GPa) = 22.94892 26.25038 24.59965
#
# Velocity S-wave (km/s) = 3.46183 3.70248 3.58418
# Velocity P-wave (km/s) = 6.50177 6.90510 6.70647
#
# Compressibility (1/GPa) = 0.01986068
#
# Stress axis : x y z
#
# Youngs Moduli (GPa) = 46.14653 70.53521 98.12119
#
# Poissons Ratio (x) = 0.37819 0.47891
# Poissons Ratio (y) = 0.24742 0.27931
# Poissons Ratio (z) = 0.22523 0.20078
#
# Static dielectric constant tensor:
#      x y z
#    x 3.534340 0.000000 -0.118990 
#    y 0.000000 3.246110 0.000000 
#    z -0.118990 0.000000 3.732740 
# 
# 
# High freq. dielectric constant tensor:
#      x y z
#    x 1.753000 0.000000 -0.007250 
#    y 0.000000 1.732210 0.000000 
#    z -0.007250 0.000000 1.763950 
# 
# From -- ./inp_files/35239.got.cif
#   From: 2010.03.12/outbox.cif.g09.slc.cpg/sg14_18_cif.got.tgz:35239.got - 2010.03.31 13:35:05.
