data_PCOD8124870
_publ_section_title
;
Structure prediction by ZEFSAII (Michael W. Deem and Ramdas Pophale) SiO2 
 PCOD8124870
Probable space group: P 21/C
;
_chemical_formula_sum "Si O2"
_cell_formula_units_Z 28
_cell_length_a 16.475662
_cell_length_b 8.210458
_cell_length_c 13.529046
_cell_angle_alpha 90.000000
_cell_angle_beta 44.006474
_cell_angle_gamma 90.000000
_cell_volume 1271.450667
_symmetry_space_group_name_H-M "P 21/C"
_symmetry_group_IT_number 14
_symmetry_cell_setting 'monoclinic'
loop_
_space_group_symop_operation_xyz
x,y,z
-x,1/2+y,1/2-z
-x,-y,-z
x,1/2-y,1/2+z
loop_
_atom_site_type_symbol
_atom_site_label
_atom_site_fract_x
_atom_site_fract_y
_atom_site_fract_z
Si Si1 0.859341 0.756436 0.701945
Si Si2 0.241465 0.902906 0.210784
Si Si3 0.943958 0.081015 0.345139
Si Si4 0.412576 0.687925 0.173886
Si Si5 0.649156 0.948665 0.433647
Si Si6 0.006229 0.746984 0.389679
Si Si7 0.296160 0.770465 0.471775
O O1 0.780192 0.620642 0.824119
O O2 0.912656 0.688788 0.552662
O O3 0.961270 0.806106 0.685641
O O4 0.775370 0.908492 0.750294
O O5 0.354501 0.843740 0.172057
O O6 0.257690 0.874721 0.078896
O O7 0.123935 0.803573 0.343935
O O8 0.816086 0.150246 0.483815
O O9 0.966332 0.095511 0.206965
O O10 0.954980 0.896356 0.370427
O O11 0.368938 0.521086 0.160603
O O12 0.380748 0.690191 0.317118
O O13 0.553529 0.691713 0.039814
O O14 0.635390 0.091126 0.526569
#
# Coordination Sequence:
#
# PCOD8124870 Si02
#       7
#     4   4   4   4   4   4   4
#     4  11  21  36  57  88 120 147 189 240 283 338
#     4   9  20  36  58  86 115 153 195 229 288 352
#     4  10  20  36  57  87 117 149 194 233 284 350
#     4  10  21  43  61  79 118 155 188 241 286 326
#     4  10  24  39  60  90 111 147 205 233 270 350
#     4  10  20  35  56  83 118 153 187 236 289 340
#     4  10  20  39  61  82 116 156 189 236 291 335
#
# _framework density 22.022089999999999
#
# number of rings (size 3 to 8) (size 9 to 14) (size 15 to 20)
#    0.000    2.000    0.000    4.286    0.000    5.143 
#    0.000   17.857    0.000    0.000    0.000    0.000 
#    0.000    0.000    0.000    0.000    0.000    0.000 
#
# Total GULP energy -347255.786517 kJ/mol
# GULP energy per Si atom -12401.992376 kJ/mol
# Density = 2.197197 g / cm^3
# Si number density = 22.022090 Si / 1000 Ang^3
#
#
#
# Elastic Constant Matrix: (Units=GPa)
#
#
# Indices 1 2 3 4 5 6 
#
# 1 66.3824 9.2597 39.5845 0.0000 -7.6311 0.0000
# 2 9.2597 27.4668 33.2766 0.0000 -2.3501 0.0000
# 3 39.5845 33.2766 145.4945 0.0000 3.8589 0.0000
# 4 0.0000 0.0000 0.0000 33.7131 0.0000 -3.9264
# 5 -7.6311 -2.3501 3.8589 0.0000 25.4997 0.0000
# 6 0.0000 0.0000 0.0000 -3.9264 0.0000 26.9686
#
#
#
# Elastic Compliance Matrix: (Units=1/GPa)
#
#
# Indices 1 2 3 4 5 6 
#
# 1 0.019010 0.000879 -0.005548 0.000000 0.006610 0.000000
# 2 0.000879 0.051469 -0.012192 0.000000 0.006851 0.000000
# 3 -0.005548 -0.012192 0.011290 0.000000 -0.004493 0.000000
# 4 0.000000 0.000000 0.000000 0.030174 0.000000 0.004393
# 5 0.006610 0.006851 -0.004493 0.000000 0.042505 0.000000
# 6 0.000000 0.000000 0.000000 0.004393 0.000000 0.037720
#
#
# Mechanical properties :
#
#
# Convention : Reuss Voigt Hill
#
# Bulk Modulus (GPa) = 20.81376 44.84282 32.82829
# Shear Modulus (GPa) = 20.66909 27.71783 24.19346
#
# Velocity S-wave (km/s) = 3.06692 3.55158 3.31811
# Velocity P-wave (km/s) = 4.69182 6.10124 5.44235
#
# Compressibility (1/GPa) = 0.04804513
#
# Stress axis : x y z
#
# Youngs Moduli (GPa) = 52.60396 19.42922 88.57127
#
# Poissons Ratio (x) = -0.01707 0.49142
# Poissons Ratio (y) = -0.04622 1.07990
# Poissons Ratio (z) = 0.29186 0.23689
#
# Static dielectric constant tensor:
#      x y z
#    x 3.935110 0.000000 -0.054010 
#    y 0.000000 3.714020 0.000000 
#    z -0.054010 0.000000 3.989420 
# 
# 
# High freq. dielectric constant tensor:
#      x y z
#    x 1.867510 0.000000 0.000450 
#    y 0.000000 1.846730 0.000000 
#    z 0.000450 0.000000 1.865490 
# 
# From -- ./inp_files/48555.got.cif
#   From: 2010.03.12/outbox.cif.g09.slc.cpg/sg14_25_cif.got.tgz:48555.got - 2010.03.31 13:35:05.
