data_PCOD8124268
_publ_section_title
;
Structure prediction by ZEFSAII (Michael W. Deem and Ramdas Pophale) SiO2 
 PCOD8124268
Probable space group: P 21/C
;
_chemical_formula_sum "Si O2"
_cell_formula_units_Z 24
_cell_length_a 8.604656
_cell_length_b 8.881565
_cell_length_c 19.658788
_cell_angle_alpha 90.000000
_cell_angle_beta 127.146669
_cell_angle_gamma 90.000000
_cell_volume 1197.535463
_symmetry_space_group_name_H-M "P 21/C"
_symmetry_group_IT_number 14
_symmetry_cell_setting 'monoclinic'
loop_
_space_group_symop_operation_xyz
x,y,z
-x,1/2+y,1/2-z
-x,-y,-z
x,1/2-y,1/2+z
loop_
_atom_site_type_symbol
_atom_site_label
_atom_site_fract_x
_atom_site_fract_y
_atom_site_fract_z
Si Si1 0.484049 0.039686 0.893384
Si Si2 0.696780 0.099348 0.281726
Si Si3 0.130004 0.607204 0.736175
Si Si4 0.944576 0.832302 0.328137
Si Si5 0.813225 0.432060 0.576245
Si Si6 0.395243 0.339261 0.811021
O O1 0.437337 0.219775 0.882907
O O2 0.458922 0.980548 0.810024
O O3 0.340358 0.943597 0.902785
O O4 0.706793 0.017898 0.978350
O O5 0.750951 0.259757 0.266210
O O6 0.598015 0.115896 0.328851
O O7 0.895853 0.999626 0.343007
O O8 0.284287 0.487941 0.808983
O O9 0.992226 0.663224 0.760220
O O10 0.998319 0.535912 0.641447
O O11 0.744611 0.738029 0.282260
O O12 0.117692 0.743483 0.412429
#
# Coordination Sequence:
#
# PCOD8124268 Si02
#       6
#     4   4   4   4   4   4
#     4  10  20  38  57  86 116 148 193 247 295 329
#     4  11  20  36  59  85 120 153 193 236 293 354
#     4  11  18  35  60  87 110 153 200 235 280 353
#     4  10  19  36  56  85 111 152 201 229 280 349
#     4  10  20  36  60  85 113 146 197 253 282 334
#     4  10  21  35  56  85 117 153 189 236 290 350
#
# _framework density 20.041160999999999
#
# number of rings (size 3 to 8) (size 9 to 14) (size 15 to 20)
#    0.000    1.667    5.000    3.000    0.000    0.000 
#    0.000   10.833    0.000    0.000    0.000    0.000 
#    0.000    0.000    0.000    0.000    0.000    0.000 
#
# Total GULP energy -297453.839064 kJ/mol
# GULP energy per Si atom -12393.909961 kJ/mol
# Density = 1.999555 g / cm^3
# Si number density = 20.041161 Si / 1000 Ang^3
#
#
#
# Elastic Constant Matrix: (Units=GPa)
#
#
# Indices 1 2 3 4 5 6 
#
# 1 75.5417 21.9883 15.5323 0.0000 11.4220 0.0000
# 2 21.9883 99.3693 32.6014 0.0000 16.3971 0.0000
# 3 15.5323 32.6014 76.0891 0.0000 18.9358 0.0000
# 4 0.0000 0.0000 0.0000 24.4516 0.0000 6.5225
# 5 11.4220 16.3971 18.9358 0.0000 17.6789 0.0000
# 6 0.0000 0.0000 0.0000 6.5225 0.0000 35.5098
#
#
#
# Elastic Compliance Matrix: (Units=1/GPa)
#
#
# Indices 1 2 3 4 5 6 
#
# 1 0.015017 -0.001969 -0.000357 0.000000 -0.007494 0.000000
# 2 -0.001969 0.012741 -0.003317 0.000000 -0.006992 0.000000
# 3 -0.000357 -0.003317 0.018834 0.000000 -0.016866 0.000000
# 4 0.000000 0.000000 0.000000 0.043004 0.000000 -0.007899
# 5 -0.007494 -0.006992 -0.016866 0.000000 0.085956 0.000000
# 6 0.000000 0.000000 0.000000 -0.007899 0.000000 0.029612
#
#
# Mechanical properties :
#
#
# Convention : Reuss Voigt Hill
#
# Bulk Modulus (GPa) = 28.32386 43.47158 35.89772
# Shear Modulus (GPa) = 21.90863 27.58659 24.74761
#
# Velocity S-wave (km/s) = 3.30992 3.71414 3.51784
# Velocity P-wave (km/s) = 5.36385 6.33493 5.86951
#
# Compressibility (1/GPa) = 0.03530592
#
# Stress axis : x y z
#
# Youngs Moduli (GPa) = 66.58950 78.48471 53.09596
#
# Poissons Ratio (x) = 0.15457 0.01895
# Poissons Ratio (y) = 0.13114 0.17612
# Poissons Ratio (z) = 0.02376 0.26034
#
# Static dielectric constant tensor:
#      x y z
#    x 3.474590 0.000000 0.287830 
#    y 0.000000 3.959560 0.000000 
#    z 0.287830 0.000000 3.451280 
# 
# 
# High freq. dielectric constant tensor:
#      x y z
#    x 1.772750 0.000000 0.024090 
#    y 0.000000 1.794990 0.000000 
#    z 0.024090 0.000000 1.740250 
# 
# From -- ./inp_files/39068.got.cif
#   From: 2010.03.12/outbox.cif.g09.slc.cpg/sg14_20_cif.got.tgz:39068.got - 2010.03.31 13:35:05.
