data_PCOD8124692
_publ_section_title
;
Structure prediction by ZEFSAII (Michael W. Deem and Ramdas Pophale) SiO2 
 PCOD8124692
Probable space group: P 21/C
;
_chemical_formula_sum "Si O2"
_cell_formula_units_Z 20
_cell_length_a 7.597715
_cell_length_b 8.275517
_cell_length_c 18.082954
_cell_angle_alpha 90.000000
_cell_angle_beta 51.310292
_cell_angle_gamma 90.000000
_cell_volume 887.450588
_symmetry_space_group_name_H-M "P 21/C"
_symmetry_group_IT_number 14
_symmetry_cell_setting 'monoclinic'
loop_
_space_group_symop_operation_xyz
x,y,z
-x,1/2+y,1/2-z
-x,-y,-z
x,1/2-y,1/2+z
loop_
_atom_site_type_symbol
_atom_site_label
_atom_site_fract_x
_atom_site_fract_y
_atom_site_fract_z
Si Si1 0.220054 0.186491 0.081224
Si Si2 0.391322 0.862106 0.579298
Si Si3 0.621530 0.634686 0.815104
Si Si4 0.096010 0.668187 0.945138
Si Si5 0.023652 0.658822 0.607637
O O1 0.284261 0.244848 0.146551
O O2 0.009550 0.292221 0.106884
O O3 0.158846 0.999257 0.097089
O O4 0.431913 0.213315 0.969253
O O5 0.149768 0.810860 0.611560
O O6 0.500000 0.000000 0.500000
O O7 0.355974 0.944826 0.668292
O O8 0.363481 0.671451 0.864979
O O9 0.766422 0.657647 0.703004
O O10 0.024125 0.813484 0.019508
O O11 0.000000 0.500000 0.000000
#
# Coordination Sequence:
#
# PCOD8124692 Si02
#       5
#     4   4   4   4   4
#     4  11  23  43  70  96 136 179 226 281 338 395
#     4  10  19  42  68  88 131 180 208 268 344 389
#     4  11  24  45  68 101 136 178 230 275 339 404
#     4  12  24  45  69  95 140 184 216 280 349 400
#     4  12  24  42  70 103 135 176 234 280 329 406
#
# _framework density 22.536466999999998
#
# number of rings (size 3 to 8) (size 9 to 14) (size 15 to 20)
#    0.000    0.800    6.000    3.600    0.000    1.600 
#    3.600    0.000    0.000    0.000    0.000    0.000 
#    0.000    0.000    0.000    0.000    0.000    0.000 
#
# Total GULP energy -247984.855774 kJ/mol
# GULP energy per Si atom -12399.242789 kJ/mol
# Density = 2.248517 g / cm^3
# Si number density = 22.536467 Si / 1000 Ang^3
#
#
#
# Elastic Constant Matrix: (Units=GPa)
#
#
# Indices 1 2 3 4 5 6 
#
# 1 105.8716 6.2194 23.3445 0.0000 -34.8052 0.0000
# 2 6.2194 80.1556 28.1506 0.0000 -14.6903 0.0000
# 3 23.3445 28.1506 126.9823 0.0000 -44.2081 0.0000
# 4 0.0000 0.0000 0.0000 27.6426 0.0000 -5.2848
# 5 -34.8052 -14.6903 -44.2081 0.0000 26.9500 0.0000
# 6 0.0000 0.0000 0.0000 -5.2848 0.0000 22.1965
#
#
#
# Elastic Compliance Matrix: (Units=1/GPa)
#
#
# Indices 1 2 3 4 5 6 
#
# 1 0.025941 0.003698 0.015799 0.000000 0.061433 0.000000
# 2 0.003698 0.014446 0.001216 0.000000 0.014645 0.000000
# 3 0.015799 0.001216 0.028060 0.000000 0.067096 0.000000
# 4 0.000000 0.000000 0.000000 0.037901 0.000000 0.009024
# 5 0.061433 0.014645 0.067096 0.000000 0.234490 0.000000
# 6 0.000000 0.000000 0.000000 0.009024 0.000000 0.047201
#
#
# Mechanical properties :
#
#
# Convention : Reuss Voigt Hill
#
# Bulk Modulus (GPa) = 9.10150 47.60430 28.35290
# Shear Modulus (GPa) = 13.04678 32.37750 22.71214
#
# Velocity S-wave (km/s) = 2.40868 3.79446 3.17802
# Velocity P-wave (km/s) = 3.43264 6.35345 5.10633
#
# Compressibility (1/GPa) = 0.10987204
#
# Stress axis : x y z
#
# Youngs Moduli (GPa) = 38.54941 69.22504 35.63803
#
# Poissons Ratio (x) = -0.25597 -0.56305
# Poissons Ratio (y) = -0.14254 -0.04334
# Poissons Ratio (z) = -0.60904 -0.08419
#
# Static dielectric constant tensor:
#      x y z
#    x 4.087240 0.000000 -0.188010 
#    y 0.000000 4.497090 0.000000 
#    z -0.188010 0.000000 4.245700 
# 
# 
# High freq. dielectric constant tensor:
#      x y z
#    x 1.890120 0.000000 -0.020700 
#    y 0.000000 1.892930 0.000000 
#    z -0.020700 0.000000 1.875180 
# 
# From -- ./inp_files/64455.got.cif
#   From: 2010.03.12/outbox.cif.g09.slc.cpg/sg14_33_cif.got.tgz:64455.got - 2010.03.31 13:35:05.
