data_PCOD8124621
_publ_section_title
;
Structure prediction by ZEFSAII (Michael W. Deem and Ramdas Pophale) SiO2 
 PCOD8124621
Probable space group: P 21/C
;
_chemical_formula_sum "Si O2"
_cell_formula_units_Z 32
_cell_length_a 17.806028
_cell_length_b 16.710035
_cell_length_c 10.605312
_cell_angle_alpha 90.000000
_cell_angle_beta 150.185429
_cell_angle_gamma 90.000000
_cell_volume 1568.896481
_symmetry_space_group_name_H-M "P 21/C"
_symmetry_group_IT_number 14
_symmetry_cell_setting 'monoclinic'
loop_
_space_group_symop_operation_xyz
x,y,z
-x,1/2+y,1/2-z
-x,-y,-z
x,1/2-y,1/2+z
loop_
_atom_site_type_symbol
_atom_site_label
_atom_site_fract_x
_atom_site_fract_y
_atom_site_fract_z
Si Si1 0.182193 0.557877 0.048495
Si Si2 0.330073 0.441891 0.432198
Si Si3 0.548647 0.773784 0.868905
Si Si4 0.655861 0.030021 0.456265
Si Si5 0.313173 0.615200 0.752397
Si Si6 0.631486 0.614096 0.089250
Si Si7 0.639212 0.285714 0.653334
Si Si8 0.162818 0.469017 0.429194
O O1 0.246511 0.470700 0.183375
O O2 0.210176 0.559148 0.939529
O O3 0.263063 0.634849 0.234452
O O4 0.006084 0.563349 0.819938
O O5 0.336695 0.348197 0.479289
O O6 0.495655 0.479308 0.654512
O O7 0.226519 0.486342 0.384047
O O8 0.444546 0.801658 0.835442
O O9 0.466815 0.741216 0.620603
O O10 0.655417 0.702617 0.072519
O O11 0.694591 0.945753 0.575572
O O12 0.630570 0.099389 0.523142
O O13 0.257287 0.707274 0.665729
O O14 0.177265 0.554239 0.523139
O O15 0.455117 0.598832 0.866066
O O16 0.733594 0.600499 0.360353
#
# Coordination Sequence:
#
# PCOD8124621 Si02
#       8
#     4   4   4   4   4   4   4   4
#     4  12  27  37  60  98 137 165 201 269 328 377
#     4  12  21  42  62  88 128 163 214 262 307 382
#     4  11  23  39  68  99 121 164 224 270 312 364
#     4  11  19  40  64  92 118 158 219 266 307 366
#     4  10  19  39  71  87 119 171 218 258 304 394
#     4  10  20  38  70  91 121 166 218 266 307 377
#     4  11  22  41  63  98 127 162 215 270 319 371
#     4  11  23  44  60  93 128 173 211 248 330 390
#
# _framework density 20.396502999999999
#
# number of rings (size 3 to 8) (size 9 to 14) (size 15 to 20)
#    0.000    1.000    5.000    3.000    3.500    2.000 
#    2.250    1.250    0.000    0.000    0.000    0.000 
#    0.000    0.000    0.000    0.000    0.000    0.000 
#
# Total GULP energy -396472.903230 kJ/mol
# GULP energy per Si atom -12389.778226 kJ/mol
# Density = 2.035008 g / cm^3
# Si number density = 20.396503 Si / 1000 Ang^3
#
#
#
# Elastic Constant Matrix: (Units=GPa)
#
#
# Indices 1 2 3 4 5 6 
#
# 1 70.3464 21.4030 27.0544 0.0000 -7.8801 0.0000
# 2 21.4030 122.2267 42.5689 0.0000 -0.1977 0.0000
# 3 27.0544 42.5689 63.2526 0.0000 7.9846 0.0000
# 4 0.0000 0.0000 0.0000 20.8530 0.0000 -1.1345
# 5 -7.8801 -0.1977 7.9846 0.0000 23.9071 0.0000
# 6 0.0000 0.0000 0.0000 -1.1345 0.0000 20.5014
#
#
#
# Elastic Compliance Matrix: (Units=1/GPa)
#
#
# Indices 1 2 3 4 5 6 
#
# 1 0.018797 -0.000091 -0.009146 0.000000 0.009250 0.000000
# 2 -0.000091 0.010844 -0.007586 0.000000 0.002593 0.000000
# 3 -0.009146 -0.007586 0.026325 0.000000 -0.011870 0.000000
# 4 0.000000 0.000000 0.000000 0.048099 0.000000 0.002662
# 5 0.009250 0.002593 -0.011870 0.000000 0.048863 0.000000
# 6 0.000000 0.000000 0.000000 0.002662 0.000000 0.048924
#
#
# Mechanical properties :
#
#
# Convention : Reuss Voigt Hill
#
# Bulk Modulus (GPa) = 44.80456 48.65317 46.72887
# Shear Modulus (GPa) = 20.58128 24.03893 22.31010
#
# Velocity S-wave (km/s) = 3.18002 3.43677 3.31088
# Velocity P-wave (km/s) = 5.95800 6.29714 6.12992
#
# Compressibility (1/GPa) = 0.02231915
#
# Stress axis : x y z
#
# Youngs Moduli (GPa) = 53.20091 92.21872 37.98619
#
# Poissons Ratio (x) = 0.00841 0.34742
# Poissons Ratio (y) = 0.00485 0.28817
# Poissons Ratio (z) = 0.48657 0.69959
#
# Static dielectric constant tensor:
#      x y z
#    x 3.775150 0.000000 -0.284100 
#    y 0.000000 3.893780 0.000000 
#    z -0.284100 0.000000 3.369360 
# 
# 
# High freq. dielectric constant tensor:
#      x y z
#    x 1.803360 0.000000 -0.023820 
#    y 0.000000 1.810460 0.000000 
#    z -0.023820 0.000000 1.756240 
# 
# From -- ./inp_files/34367.got.cif
#   From: 2010.03.12/outbox.cif.g09.slc.cpg/sg14_18_cif.got.tgz:34367.got - 2010.03.31 13:35:05.
