data_PCOD8124506
_publ_section_title
;
Structure prediction by ZEFSAII (Michael W. Deem and Ramdas Pophale) SiO2 
 PCOD8124506
Probable space group: P 21/C
;
_chemical_formula_sum "Si O2"
_cell_formula_units_Z 28
_cell_length_a 16.809911
_cell_length_b 12.396689
_cell_length_c 20.230250
_cell_angle_alpha 90.000000
_cell_angle_beta 19.213672
_cell_angle_gamma 90.000000
_cell_volume 1387.361620
_symmetry_space_group_name_H-M "P 21/C"
_symmetry_group_IT_number 14
_symmetry_cell_setting 'monoclinic'
loop_
_space_group_symop_operation_xyz
x,y,z
-x,1/2+y,1/2-z
-x,-y,-z
x,1/2-y,1/2+z
loop_
_atom_site_type_symbol
_atom_site_label
_atom_site_fract_x
_atom_site_fract_y
_atom_site_fract_z
Si Si1 0.843111 0.945143 0.775725
Si Si2 0.198023 0.449786 0.538348
Si Si3 0.809654 0.395985 0.570024
Si Si4 0.697810 0.553372 0.765808
Si Si5 0.751471 0.139485 0.324732
Si Si6 0.293720 0.845769 0.351488
Si Si7 0.315724 0.864513 0.185201
O O1 0.850816 0.974056 0.846780
O O2 0.075259 0.876052 0.571790
O O3 0.840296 0.057057 0.738370
O O4 0.602294 0.877605 0.948386
O O5 0.160428 0.562684 0.528867
O O6 0.460220 0.400631 0.316984
O O7 0.001720 0.362529 0.668144
O O8 0.669011 0.492922 0.718180
O O9 0.666363 0.283558 0.680590
O O10 0.058075 0.376228 0.416630
O O11 0.717893 0.464701 0.806649
O O12 0.473833 0.635755 0.947562
O O13 0.751886 0.243275 0.278836
O O14 0.239490 0.888144 0.320249
#
# Coordination Sequence:
#
# PCOD8124506 Si02
#       7
#     4   4   4   4   4   4   4
#     4  10  23  41  59  87 124 160 199 255 298 367
#     4  10  25  39  54  94 128 148 206 246 308 376
#     4  10  20  39  61  91 121 157 207 253 302 369
#     4   9  19  35  64  88 118 153 202 253 296 356
#     4  10  19  38  60  91 118 156 196 256 298 353
#     4  11  22  41  64  86 121 168 198 253 308 360
#     4  10  21  41  64  88 114 159 218 241 294 372
#
# _framework density 20.182193000000002
#
# number of rings (size 3 to 8) (size 9 to 14) (size 15 to 20)
#    0.000    2.000    1.429    1.286    2.000    2.286 
#    0.000    0.000    0.000    0.000    0.000    0.000 
#    0.000    0.000    0.000    0.000    0.000    0.000 
#
# Total GULP energy -347193.026415 kJ/mol
# GULP energy per Si atom -12399.750943 kJ/mol
# Density = 2.013626 g / cm^3
# Si number density = 20.182193 Si / 1000 Ang^3
#
#
#
# Elastic Constant Matrix: (Units=GPa)
#
#
# Indices 1 2 3 4 5 6 
#
# 1 103.2822 26.2238 34.3453 0.0000 1.7281 0.0000
# 2 26.2238 54.0312 18.6009 0.0000 -7.6408 0.0000
# 3 34.3453 18.6009 96.2462 0.0000 2.5107 0.0000
# 4 0.0000 0.0000 0.0000 16.8838 0.0000 1.1693
# 5 1.7281 -7.6408 2.5107 0.0000 29.6492 0.0000
# 6 0.0000 0.0000 0.0000 1.1693 0.0000 28.5103
#
#
#
# Elastic Compliance Matrix: (Units=1/GPa)
#
#
# Indices 1 2 3 4 5 6 
#
# 1 0.012069 -0.004961 -0.003304 0.000000 -0.001702 0.000000
# 2 -0.004961 0.022784 -0.002800 0.000000 0.006398 0.000000
# 3 -0.003304 -0.002800 0.012151 0.000000 -0.001558 0.000000
# 4 0.000000 0.000000 0.000000 0.059397 0.000000 -0.002436
# 5 -0.001702 0.006398 -0.001558 0.000000 0.035608 0.000000
# 6 0.000000 0.000000 0.000000 -0.002436 0.000000 0.035175
#
#
# Mechanical properties :
#
#
# Convention : Reuss Voigt Hill
#
# Bulk Modulus (GPa) = 40.20132 45.76662 42.98397
# Shear Modulus (GPa) = 24.08430 26.63463 25.35946
#
# Velocity S-wave (km/s) = 3.45823 3.63672 3.54860
# Velocity P-wave (km/s) = 5.99235 6.35297 6.17529
#
# Compressibility (1/GPa) = 0.02487480
#
# Stress axis : x y z
#
# Youngs Moduli (GPa) = 82.85775 43.88985 82.30002
#
# Poissons Ratio (x) = 0.21774 0.27188
# Poissons Ratio (y) = 0.41106 0.23044
# Poissons Ratio (z) = 0.27373 0.12289
#
# Static dielectric constant tensor:
#      x y z
#    x 3.669260 0.000000 0.035340 
#    y 0.000000 3.396600 0.000000 
#    z 0.035340 0.000000 3.967980 
# 
# 
# High freq. dielectric constant tensor:
#      x y z
#    x 1.790280 0.000000 0.006770 
#    y 0.000000 1.771730 0.000000 
#    z 0.006770 0.000000 1.794320 
# 
# From -- ./inp_files/69378.got.cif
#   From: 2010.03.12/outbox.cif.g09.slc.cpg/sg14_35_cif.got.tgz:69378.got - 2010.03.31 13:35:05.
