data_PCOD8124638
_publ_section_title
;
Structure prediction by ZEFSAII (Michael W. Deem and Ramdas Pophale) SiO2 
 PCOD8124638
Probable space group: P 21/C
;
_chemical_formula_sum "Si O2"
_cell_formula_units_Z 24
_cell_length_a 14.032742
_cell_length_b 13.144340
_cell_length_c 10.529399
_cell_angle_alpha 90.000000
_cell_angle_beta 147.334049
_cell_angle_gamma 90.000000
_cell_volume 1048.261481
_symmetry_space_group_name_H-M "P 21/C"
_symmetry_group_IT_number 14
_symmetry_cell_setting 'monoclinic'
loop_
_space_group_symop_operation_xyz
x,y,z
-x,1/2+y,1/2-z
-x,-y,-z
x,1/2-y,1/2+z
loop_
_atom_site_type_symbol
_atom_site_label
_atom_site_fract_x
_atom_site_fract_y
_atom_site_fract_z
Si Si1 0.680422 0.912728 0.413822
Si Si2 0.038450 0.394290 0.194550
Si Si3 0.732903 0.005897 0.221727
Si Si4 0.036863 0.828789 0.886422
Si Si5 0.666868 0.189503 0.980692
Si Si6 0.159939 0.598890 0.778842
O O1 0.862757 0.851108 0.608248
O O2 0.532068 0.832290 0.294577
O O3 0.609438 0.957699 0.195975
O O4 0.711961 0.003325 0.550510
O O5 0.233169 0.428285 0.360210
O O6 0.984315 0.284097 0.078867
O O7 0.007052 0.392197 0.311474
O O8 0.912279 0.483966 0.004578
O O9 0.684087 0.118665 0.123591
O O10 0.202443 0.845577 0.982395
O O11 0.067317 0.906633 0.037200
O O12 0.705664 0.305389 0.061854
#
# Coordination Sequence:
#
# PCOD8124638 Si02
#       6
#     4   4   4   4   4   4
#     4  11  25  40  66  98 124 166 220 255 314 381
#     4   9  19  35  67  93 119 168 209 251 313 372
#     4  10  19  40  64  93 124 165 215 255 301 380
#     4  11  22  41  64  92 133 165 204 266 318 374
#     4  11  23  42  65  93 128 169 209 263 318 371
#     4  10  22  41  64  92 132 167 205 266 323 367
#
# _framework density 22.895050999999999
#
# number of rings (size 3 to 8) (size 9 to 14) (size 15 to 20)
#    0.000    1.667    1.667    4.000    2.333    2.000 
#    3.000    0.000    0.000    0.000    0.000    0.000 
#    0.000    0.000    0.000    0.000    0.000    0.000 
#
# Total GULP energy -297366.173987 kJ/mol
# GULP energy per Si atom -12390.257249 kJ/mol
# Density = 2.284294 g / cm^3
# Si number density = 22.895051 Si / 1000 Ang^3
#
#
#
# Elastic Constant Matrix: (Units=GPa)
#
#
# Indices 1 2 3 4 5 6 
#
# 1 47.1345 13.1108 3.1407 0.0000 -2.2409 0.0000
# 2 13.1108 65.3762 9.4708 0.0000 14.6502 0.0000
# 3 3.1407 9.4708 46.1185 0.0000 -3.2833 0.0000
# 4 0.0000 0.0000 0.0000 20.7067 0.0000 -7.9604
# 5 -2.2409 14.6502 -3.2833 0.0000 28.6603 0.0000
# 6 0.0000 0.0000 0.0000 -7.9604 0.0000 33.0800
#
#
#
# Elastic Compliance Matrix: (Units=1/GPa)
#
#
# Indices 1 2 3 4 5 6 
#
# 1 0.023016 -0.005654 -0.000073 0.000000 0.004681 0.000000
# 2 -0.005654 0.019515 -0.004400 0.000000 -0.010921 0.000000
# 3 -0.000073 -0.004400 0.022939 0.000000 0.004871 0.000000
# 4 0.000000 0.000000 0.000000 0.053217 0.000000 0.012806
# 5 0.004681 -0.010921 0.004871 0.000000 0.041398 0.000000
# 6 0.000000 0.000000 0.000000 0.012806 0.000000 0.033311
#
#
# Mechanical properties :
#
#
# Convention : Reuss Voigt Hill
#
# Bulk Modulus (GPa) = 22.11652 23.34154 22.72903
# Shear Modulus (GPa) = 21.86059 25.34985 23.60522
#
# Velocity S-wave (km/s) = 3.09336 3.33110 3.21443
# Velocity P-wave (km/s) = 4.73703 5.00121 4.87091
#
# Compressibility (1/GPa) = 0.04521508
#
# Stress axis : x y z
#
# Youngs Moduli (GPa) = 43.44789 51.24309 43.59461
#
# Poissons Ratio (x) = 0.28974 0.00318
# Poissons Ratio (y) = 0.24567 0.19182
# Poissons Ratio (z) = 0.00317 0.22547
#
# Static dielectric constant tensor:
#      x y z
#    x 4.369410 0.000000 0.124080 
#    y 0.000000 4.224200 0.000000 
#    z 0.124080 0.000000 3.954380 
# 
# 
# High freq. dielectric constant tensor:
#      x y z
#    x 1.900480 0.000000 0.000360 
#    y 0.000000 1.912620 0.000000 
#    z 0.000360 0.000000 1.886990 
# 
# From -- ./inp_files/32666.got.cif
#   From: 2010.03.12/outbox.cif.g09.slc.cpg/sg14_17_cif.got.tgz:32666.got - 2010.03.31 13:35:05.
