data_PCOD8124823
_publ_section_title
;
Structure prediction by ZEFSAII (Michael W. Deem and Ramdas Pophale) SiO2 
 PCOD8124823
Probable space group: P 21/C
;
_chemical_formula_sum "Si O2"
_cell_formula_units_Z 24
_cell_length_a 19.696391
_cell_length_b 14.023917
_cell_length_c 9.432139
_cell_angle_alpha 90.000000
_cell_angle_beta 27.074551
_cell_angle_gamma 90.000000
_cell_volume 1185.823933
_symmetry_space_group_name_H-M "P 21/C"
_symmetry_group_IT_number 14
_symmetry_cell_setting 'monoclinic'
loop_
_space_group_symop_operation_xyz
x,y,z
-x,1/2+y,1/2-z
-x,-y,-z
x,1/2-y,1/2+z
loop_
_atom_site_type_symbol
_atom_site_label
_atom_site_fract_x
_atom_site_fract_y
_atom_site_fract_z
Si Si1 0.828396 0.974929 0.817514
Si Si2 0.296261 0.354189 0.697203
Si Si3 0.349984 0.656664 0.992155
Si Si4 0.652784 0.340523 0.678280
Si Si5 0.668820 0.857571 0.332832
Si Si6 0.350428 0.468554 0.854194
O O1 0.797171 0.894188 0.759607
O O2 0.783946 0.933328 0.053687
O O3 0.000000 0.000000 0.500000
O O4 0.731851 0.068437 0.960864
O O5 0.472479 0.357707 0.339831
O O6 0.249874 0.244433 0.807051
O O7 0.250248 0.415881 0.921833
O O8 0.296198 0.747501 0.002884
O O9 0.273190 0.562803 0.065004
O O10 0.296446 0.669688 0.253081
O O11 0.474681 0.352314 0.002621
O O12 0.614366 0.892037 0.588327
O O13 0.500000 0.500000 0.500000
#
# Coordination Sequence:
#
# PCOD8124823 Si02
#       6
#     4   4   4   4   4   4
#     4  12  25  44  61  91 129 175 208 248 312 379
#     4  10  22  37  63  92 123 159 207 258 313 372
#     4  10  21  35  63  97 122 154 205 266 319 354
#     4  11  22  38  65  92 127 159 211 262 315 365
#     4  11  21  41  66  91 122 162 210 264 315 363
#     4  10  20  34  59  94 123 152 199 262 318 364
#
# _framework density 20.239091999999999
#
# number of rings (size 3 to 8) (size 9 to 14) (size 15 to 20)
#    0.000    1.333    3.333    3.500   14.000    0.000 
#    3.000    0.833    0.000    0.000    0.000    0.000 
#    0.000    0.000    0.000    0.000    0.000    0.000 
#
# Total GULP energy -297633.001234 kJ/mol
# GULP energy per Si atom -12401.375051 kJ/mol
# Density = 2.019303 g / cm^3
# Si number density = 20.239092 Si / 1000 Ang^3
#
#
#
# Elastic Constant Matrix: (Units=GPa)
#
#
# Indices 1 2 3 4 5 6 
#
# 1 101.9865 59.0969 36.6054 0.0000 26.1094 0.0000
# 2 59.0969 164.6199 40.9452 0.0000 1.7800 0.0000
# 3 36.6054 40.9452 54.4655 0.0000 4.5848 0.0000
# 4 0.0000 0.0000 0.0000 17.6667 0.0000 8.6136
# 5 26.1094 1.7800 4.5848 0.0000 27.2133 0.0000
# 6 0.0000 0.0000 0.0000 8.6136 0.0000 46.6808
#
#
#
# Elastic Compliance Matrix: (Units=1/GPa)
#
#
# Indices 1 2 3 4 5 6 
#
# 1 0.020214 -0.004989 -0.008348 0.000000 -0.017661 0.000000
# 2 -0.004989 0.008709 -0.003600 0.000000 0.004824 0.000000
# 3 -0.008348 -0.003600 0.026357 0.000000 0.003804 0.000000
# 4 0.000000 0.000000 0.000000 0.062200 0.000000 -0.011477
# 5 -0.017661 0.004824 0.003804 0.000000 0.052735 0.000000
# 6 0.000000 0.000000 0.000000 -0.011477 0.000000 0.023540
#
#
# Mechanical properties :
#
#
# Convention : Reuss Voigt Hill
#
# Bulk Modulus (GPa) = 46.71731 66.04077 56.37904
# Shear Modulus (GPa) = 21.29798 30.60713 25.95255
#
# Velocity S-wave (km/s) = 3.24747 3.89302 3.58480
# Velocity P-wave (km/s) = 6.09870 7.27383 6.71203
#
# Compressibility (1/GPa) = 0.02140534
#
# Stress axis : x y z
#
# Youngs Moduli (GPa) = 49.47043 114.82454 37.94072
#
# Poissons Ratio (x) = 0.57290 0.31673
# Poissons Ratio (y) = 0.24682 0.13658
# Poissons Ratio (z) = 0.41298 0.41335
#
# Static dielectric constant tensor:
#      x y z
#    x 3.719330 0.000000 0.390290 
#    y 0.000000 4.205040 0.000000 
#    z 0.390290 0.000000 3.199840 
# 
# 
# High freq. dielectric constant tensor:
#      x y z
#    x 1.788290 0.000000 0.039970 
#    y 0.000000 1.817740 0.000000 
#    z 0.039970 0.000000 1.735950 
# 
# From -- ./inp_files/8411.got.cif
#   From: 2010.03.12/outbox.cif.g09.slc.cpg/sg14_5_cif.got.tgz:8411.got - 2010.03.31 13:35:05.
