data_PCOD8124943
_publ_section_title
;
Structure prediction by ZEFSAII (Michael W. Deem and Ramdas Pophale) SiO2 
 PCOD8124943
Probable space group: P 21/C
;
_chemical_formula_sum "Si O2"
_cell_formula_units_Z 24
_cell_length_a 10.285857
_cell_length_b 12.648679
_cell_length_c 15.894052
_cell_angle_alpha 90.000000
_cell_angle_beta 140.055955
_cell_angle_gamma 90.000000
_cell_volume 1327.644552
_symmetry_space_group_name_H-M "P 21/C"
_symmetry_group_IT_number 14
_symmetry_cell_setting 'monoclinic'
loop_
_space_group_symop_operation_xyz
x,y,z
-x,1/2+y,1/2-z
-x,-y,-z
x,1/2-y,1/2+z
loop_
_atom_site_type_symbol
_atom_site_label
_atom_site_fract_x
_atom_site_fract_y
_atom_site_fract_z
Si Si1 0.854678 0.971502 0.809432
Si Si2 0.624360 0.729138 0.913399
Si Si3 0.118542 0.423167 0.869540
Si Si4 0.753289 0.355588 0.796382
Si Si5 0.993867 0.832458 0.020806
Si Si6 0.589531 0.999933 0.359134
O O1 0.904262 0.957622 0.736840
O O2 0.995042 0.889397 0.930707
O O3 0.618584 0.949949 0.710435
O O4 0.913396 0.090631 0.862599
O O5 0.424727 0.793406 0.841183
O O6 0.761405 0.807299 0.926610
O O7 0.561356 0.625890 0.826445
O O8 0.752362 0.687011 0.058145
O O9 0.895005 0.408256 0.796755
O O10 0.238418 0.513197 0.982660
O O11 0.660201 0.445879 0.808683
O O12 0.877798 0.275368 0.917998
#
# Coordination Sequence:
#
# PCOD8124943 Si02
#       6
#     4   4   4   4   4   4
#     4  11  20  39  58  86 111 154 191 236 285 344
#     4   9  20  37  58  86 111 153 188 235 284 333
#     4   9  22  36  55  85 115 148 189 238 284 322
#     4  11  19  40  58  86 115 152 188 240 281 342
#     4  10  21  36  61  80 119 149 192 232 291 342
#     4  10  20  35  63  79 115 150 190 231 280 344
#
# _framework density 18.077127000000001
#
# number of rings (size 3 to 8) (size 9 to 14) (size 15 to 20)
#    1.000    1.000    3.333    1.000    0.000    0.000 
#    9.000    0.833    0.000    0.000    0.000    0.000 
#    0.000    0.000    0.000    0.000    0.000    0.000 
#
# Total GULP energy -297449.633322 kJ/mol
# GULP energy per Si atom -12393.734722 kJ/mol
# Density = 1.803598 g / cm^3
# Si number density = 18.077127 Si / 1000 Ang^3
#
#
#
# Elastic Constant Matrix: (Units=GPa)
#
#
# Indices 1 2 3 4 5 6 
#
# 1 132.2376 47.0513 57.9673 0.0000 0.2588 0.0000
# 2 47.0513 65.9344 30.0369 0.0000 -5.5277 0.0000
# 3 57.9673 30.0369 69.6033 0.0000 -9.3090 0.0000
# 4 0.0000 0.0000 0.0000 14.3108 0.0000 3.9565
# 5 0.2588 -5.5277 -9.3090 0.0000 33.1046 0.0000
# 6 0.0000 0.0000 0.0000 3.9565 0.0000 23.7194
#
#
#
# Elastic Compliance Matrix: (Units=1/GPa)
#
#
# Indices 1 2 3 4 5 6 
#
# 1 0.013803 -0.005849 -0.009473 0.000000 -0.003748 0.000000
# 2 -0.005849 0.021382 -0.004024 0.000000 0.002484 0.000000
# 3 -0.009473 -0.004024 0.024847 0.000000 0.006389 0.000000
# 4 0.000000 0.000000 0.000000 0.073255 0.000000 -0.012219
# 5 -0.003748 0.002484 0.006389 0.000000 0.032448 0.000000
# 6 0.000000 0.000000 0.000000 -0.012219 0.000000 0.044198
#
#
# Mechanical properties :
#
#
# Convention : Reuss Voigt Hill
#
# Bulk Modulus (GPa) = 46.85781 59.76514 53.31148
# Shear Modulus (GPa) = 19.55128 23.07496 21.31312
#
# Velocity S-wave (km/s) = 3.29226 3.57665 3.43740
# Velocity P-wave (km/s) = 6.35840 7.08446 6.73123
#
# Compressibility (1/GPa) = 0.02134116
#
# Stress axis : x y z
#
# Youngs Moduli (GPa) = 72.44819 46.76893 40.24590
#
# Poissons Ratio (x) = 0.27354 0.38124
# Poissons Ratio (y) = 0.42373 0.16194
# Poissons Ratio (z) = 0.68628 0.18819
#
# Static dielectric constant tensor:
#      x y z
#    x 3.121570 0.000000 0.314860 
#    y 0.000000 3.293100 0.000000 
#    z 0.314860 0.000000 3.281570 
# 
# 
# High freq. dielectric constant tensor:
#      x y z
#    x 1.685220 0.000000 0.028120 
#    y 0.000000 1.695950 0.000000 
#    z 0.028120 0.000000 1.694250 
# 
# From -- ./inp_files/40800.got.cif
#   From: 2010.03.12/outbox.cif.g09.slc.cpg/sg14_21_cif.got.tgz:40800.got - 2010.03.31 13:35:05.
