data_PCOD8124078
_publ_section_title
;
Structure prediction by ZEFSAII (Michael W. Deem and Ramdas Pophale) SiO2 
 PCOD8124078
Probable space group: P 21/C
;
_chemical_formula_sum "Si O2"
_cell_formula_units_Z 32
_cell_length_a 15.916276
_cell_length_b 13.789475
_cell_length_c 13.215090
_cell_angle_alpha 90.000000
_cell_angle_beta 146.674552
_cell_angle_gamma 90.000000
_cell_volume 1593.467543
_symmetry_space_group_name_H-M "P 21/C"
_symmetry_group_IT_number 14
_symmetry_cell_setting 'monoclinic'
loop_
_space_group_symop_operation_xyz
x,y,z
-x,1/2+y,1/2-z
-x,-y,-z
x,1/2-y,1/2+z
loop_
_atom_site_type_symbol
_atom_site_label
_atom_site_fract_x
_atom_site_fract_y
_atom_site_fract_z
Si Si1 0.149924 0.198203 0.065670
Si Si2 0.711875 0.625960 0.892537
Si Si3 0.807141 0.296070 0.176802
Si Si4 0.836236 0.081563 0.513570
Si Si5 0.634975 0.369898 0.401752
Si Si6 0.930714 0.863232 0.794010
Si Si7 0.234896 0.727779 0.644247
Si Si8 0.124791 0.471075 0.401084
O O1 0.205823 0.111766 0.049112
O O2 0.984080 0.233797 0.861536
O O3 0.262906 0.291100 0.168072
O O4 0.146533 0.154427 0.174951
O O5 0.535229 0.607756 0.736268
O O6 0.773228 0.522556 0.917517
O O7 0.800664 0.661348 0.081909
O O8 0.776332 0.381415 0.064564
O O9 0.755506 0.325890 0.238318
O O10 0.709780 0.201396 0.057287
O O11 0.770030 0.154691 0.360876
O O12 0.022304 0.074179 0.706314
O O13 0.629702 0.318504 0.285993
O O14 0.736157 0.467066 0.503083
O O15 0.000870 0.971301 0.847615
O O16 0.075858 0.793167 0.924118
#
# Coordination Sequence:
#
# PCOD8124078 Si02
#       8
#     4   4   4   4   4   4   4   4
#     4  10  19  34  57  79 102 137 182 227 265 309
#     4  11  22  34  49  78 116 147 175 212 266 327
#     4   9  18  36  59  79  99 134 182 228 268 309
#     4   9  18  35  56  78 106 138 174 222 268 317
#     4  10  21  34  50  77 112 143 175 215 266 328
#     4   9  18  34  55  80 103 131 179 228 266 308
#     4   9  18  36  60  80 100 135 183 230 269 309
#     4   9  17  33  55  77 102 137 177 222 266 309
#
# _framework density 20.081990999999999
#
# number of rings (size 3 to 8) (size 9 to 14) (size 15 to 20)
#    0.000    2.500    0.000    4.125    0.000    6.000 
#    0.000    8.750    0.000    0.000    0.000    0.000 
#    0.000    0.000    0.000    0.000    0.000    0.000 
#
# Total GULP energy -396550.878601 kJ/mol
# GULP energy per Si atom -12392.214956 kJ/mol
# Density = 2.003628 g / cm^3
# Si number density = 20.081991 Si / 1000 Ang^3
#
#
#
# Elastic Constant Matrix: (Units=GPa)
#
#
# Indices 1 2 3 4 5 6 
#
# 1 46.6326 -1.0938 5.6359 0.0000 6.6032 0.0000
# 2 -1.0938 75.5609 -6.4703 0.0000 3.4384 0.0000
# 3 5.6359 -6.4703 32.6122 0.0000 3.9449 0.0000
# 4 0.0000 0.0000 0.0000 15.5815 0.0000 -3.2663
# 5 6.6032 3.4384 3.9449 0.0000 23.3907 0.0000
# 6 0.0000 0.0000 0.0000 -3.2663 0.0000 21.2187
#
#
#
# Elastic Compliance Matrix: (Units=1/GPa)
#
#
# Indices 1 2 3 4 5 6 
#
# 1 0.022669 0.000329 -0.003136 0.000000 -0.005919 0.000000
# 2 0.000329 0.013610 0.002957 0.000000 -0.002592 0.000000
# 3 -0.003136 0.002957 0.032399 0.000000 -0.005013 0.000000
# 4 0.000000 0.000000 0.000000 0.066319 0.000000 0.010209
# 5 -0.005919 -0.002592 -0.005013 0.000000 0.045650 0.000000
# 6 0.000000 0.000000 0.000000 0.010209 0.000000 0.048700
#
#
# Mechanical properties :
#
#
# Convention : Reuss Voigt Hill
#
# Bulk Modulus (GPa) = 14.49757 16.77215 15.63486
# Shear Modulus (GPa) = 19.83820 22.48710 21.16265
#
# Velocity S-wave (km/s) = 3.14643 3.34992 3.24977
# Velocity P-wave (km/s) = 4.52050 4.83038 4.67801
#
# Compressibility (1/GPa) = 0.06897708
#
# Stress axis : x y z
#
# Youngs Moduli (GPa) = 44.11284 73.47385 30.86558
#
# Poissons Ratio (x) = -0.02417 0.09681
# Poissons Ratio (y) = -0.01451 -0.09127
# Poissons Ratio (z) = 0.13836 -0.21726
#
# Static dielectric constant tensor:
#      x y z
#    x 3.489070 0.000000 -0.068750 
#    y 0.000000 3.737170 0.000000 
#    z -0.068750 0.000000 3.384460 
# 
# 
# High freq. dielectric constant tensor:
#      x y z
#    x 1.763950 0.000000 -0.006620 
#    y 0.000000 1.790890 0.000000 
#    z -0.006620 0.000000 1.757330 
# 
# From -- ./inp_files/40984.got.cif
#   From: 2010.03.12/outbox.cif.g09.slc.cpg/sg14_21_cif.got.tgz:40984.got - 2010.03.31 13:35:05.
