data_PCOD8124812
_publ_section_title
;
Structure prediction by ZEFSAII (Michael W. Deem and Ramdas Pophale) SiO2 
 PCOD8124812
Probable space group: P 21/C
;
_chemical_formula_sum "Si O2"
_cell_formula_units_Z 32
_cell_length_a 19.330497
_cell_length_b 8.831532
_cell_length_c 9.018299
_cell_angle_alpha 90.000000
_cell_angle_beta 81.511907
_cell_angle_gamma 90.000000
_cell_volume 1522.721338
_symmetry_space_group_name_H-M "P 21/C"
_symmetry_group_IT_number 14
_symmetry_cell_setting 'monoclinic'
loop_
_space_group_symop_operation_xyz
x,y,z
-x,1/2+y,1/2-z
-x,-y,-z
x,1/2-y,1/2+z
loop_
_atom_site_type_symbol
_atom_site_label
_atom_site_fract_x
_atom_site_fract_y
_atom_site_fract_z
Si Si1 0.490802 0.155199 0.085069
Si Si2 0.353440 0.143695 0.639791
Si Si3 0.837206 0.689536 0.303366
Si Si4 0.904425 0.253867 0.030678
Si Si5 0.961651 0.043694 0.766655
Si Si6 0.879256 0.039884 0.285367
Si Si7 0.453774 0.893201 0.612850
Si Si8 0.257177 0.232400 0.419935
O O1 0.414272 0.232005 0.088460
O O2 0.503908 0.145892 0.253649
O O3 0.554088 0.245250 0.985188
O O4 0.500000 0.000000 0.000000
O O5 0.303719 0.127155 0.512237
O O6 0.309397 0.176819 0.799252
O O7 0.381088 0.975642 0.666906
O O8 0.908346 0.597858 0.292475
O O9 0.846544 0.872931 0.293750
O O10 0.796077 0.636944 0.167675
O O11 0.789004 0.654692 0.462043
O O12 0.954355 0.150479 0.912298
O O13 0.857379 0.363599 0.939625
O O14 0.951749 0.360292 0.120173
O O15 0.857179 0.140892 0.148024
O O16 0.036925 0.968686 0.741952
O O17 0.500000 0.000000 0.500000
#
# Coordination Sequence:
#
# PCOD8124812 Si02
#       8
#     4   4   4   4   4   4   4   4
#     4  11  20  34  62  96 125 156 197 252 302 350
#     4  10  20  39  59  85 123 158 195 240 298 340
#     4  11  22  39  64  89 110 154 219 249 296 384
#     4  10  22  35  54  82 115 147 171 230 324 370
#     4  11  22  38  59  86 118 149 189 256 319 370
#     4  11  22  38  59  88 119 147 189 255 317 373
#     4  10  20  34  57  90 124 159 199 249 300 348
#     4  10  22  37  61  84 115 162 205 249 279 357
#
# _framework density 21.015004999999999
#
# number of rings (size 3 to 8) (size 9 to 14) (size 15 to 20)
#    0.000    1.500    0.000    7.500    0.000    2.000 
#    0.000    0.000    0.000   52.500    0.000    0.000 
#    0.000    0.000    0.000    0.000    0.000    0.000 
#
# Total GULP energy -396522.806560 kJ/mol
# GULP energy per Si atom -12391.337705 kJ/mol
# Density = 2.096717 g / cm^3
# Si number density = 21.015005 Si / 1000 Ang^3
#
#
#
# Elastic Constant Matrix: (Units=GPa)
#
#
# Indices 1 2 3 4 5 6 
#
# 1 89.7750 30.9337 32.6182 0.0000 -2.4949 0.0000
# 2 30.9337 127.5725 48.0592 0.0000 -2.5672 0.0000
# 3 32.6182 48.0592 151.5365 0.0000 10.4642 0.0000
# 4 0.0000 0.0000 0.0000 34.5892 0.0000 0.9022
# 5 -2.4949 -2.5672 10.4642 0.0000 26.5771 0.0000
# 6 0.0000 0.0000 0.0000 0.9022 0.0000 16.7224
#
#
#
# Elastic Compliance Matrix: (Units=1/GPa)
#
#
# Indices 1 2 3 4 5 6 
#
# 1 0.012746 -0.002240 -0.002160 0.000000 0.001830 0.000000
# 2 -0.002240 0.009404 -0.002619 0.000000 0.001729 0.000000
# 3 -0.002160 -0.002619 0.008148 0.000000 -0.003664 0.000000
# 4 0.000000 0.000000 0.000000 0.028951 0.000000 -0.001562
# 5 0.001830 0.001729 -0.003664 0.000000 0.039408 0.000000
# 6 0.000000 0.000000 0.000000 -0.001562 0.000000 0.059884
#
#
# Mechanical properties :
#
#
# Convention : Reuss Voigt Hill
#
# Bulk Modulus (GPa) = 61.50496 65.78959 63.64728
# Shear Modulus (GPa) = 28.08995 32.72926 30.40960
#
# Velocity S-wave (km/s) = 3.66000 3.95070 3.80813
# Velocity P-wave (km/s) = 6.86961 7.22390 7.04898
#
# Compressibility (1/GPa) = 0.01625885
#
# Stress axis : x y z
#
# Youngs Moduli (GPa) = 78.45338 106.34298 122.73459
#
# Poissons Ratio (x) = 0.23825 0.26505
# Poissons Ratio (y) = 0.17576 0.32150
# Poissons Ratio (z) = 0.16942 0.27856
#
# Static dielectric constant tensor:
#      x y z
#    x 4.144060 0.000000 0.283080 
#    y 0.000000 4.925330 0.000000 
#    z 0.283080 0.000000 4.458610 
# 
# 
# High freq. dielectric constant tensor:
#      x y z
#    x 1.793700 0.000000 0.004950 
#    y 0.000000 1.819450 0.000000 
#    z 0.004950 0.000000 1.856260 
# 
# From -- ./inp_files/18616.got.cif
#   From: 2010.03.12/outbox.cif.g09.slc.cpg/sg14_10_cif.got.tgz:18616.got - 2010.03.31 13:35:05.
