data_PCOD8124714
_publ_section_title
;
Structure prediction by ZEFSAII (Michael W. Deem and Ramdas Pophale) SiO2 
 PCOD8124714
Probable space group: P 21/C
;
_chemical_formula_sum "Si O2"
_cell_formula_units_Z 32
_cell_length_a 17.964623
_cell_length_b 17.399351
_cell_length_c 9.266400
_cell_angle_alpha 90.000000
_cell_angle_beta 140.689225
_cell_angle_gamma 90.000000
_cell_volume 1834.961304
_symmetry_space_group_name_H-M "P 21/C"
_symmetry_group_IT_number 14
_symmetry_cell_setting 'monoclinic'
loop_
_space_group_symop_operation_xyz
x,y,z
-x,1/2+y,1/2-z
-x,-y,-z
x,1/2-y,1/2+z
loop_
_atom_site_type_symbol
_atom_site_label
_atom_site_fract_x
_atom_site_fract_y
_atom_site_fract_z
Si Si1 0.619859 0.485097 0.761174
Si Si2 0.619859 0.014903 0.598401
Si Si3 0.735948 0.177434 0.435932
Si Si4 0.058794 0.882573 0.749637
Si Si5 0.823439 0.547654 0.573847
Si Si6 0.264052 0.822566 0.228089
Si Si7 0.176561 0.452346 0.103530
Si Si8 0.058794 0.882573 0.426745
O O1 0.500000 0.500000 0.500000
O O2 0.659730 0.398066 0.787905
O O3 0.715485 0.546426 0.846276
O O4 0.603083 0.499867 0.904625
O O5 0.659729 0.101934 0.691284
O O6 0.500000 0.000000 0.500000
O O7 0.715485 0.953574 0.800180
O O8 0.676886 0.250000 0.265330
O O9 0.740931 0.195351 0.611397
O O10 0.869704 0.169272 0.578711
O O11 0.068918 0.847406 0.603377
O O12 0.921126 0.888733 0.589337
O O13 0.113806 0.966366 0.831951
O O14 0.130297 0.830728 0.969599
O O15 0.776078 0.565954 0.664117
O O16 0.921126 0.611267 0.674040
O O17 0.113806 0.533634 0.009467
#
# Coordination Sequence:
#
# PCOD8124714 Si02
#       8
#     4   4   4   4   4   4   4   4
#     4  10  20  32  48  71  97 128 167 207 245 288
#     4  10  20  32  48  71  97 128 167 207 245 288
#     4  10  20  32  48  71  97 126 160 199 245 294
#     4   8  14  26  45  68  93 120 148 182 228 279
#     4   8  14  26  45  68  93 120 149 184 229 277
#     4  10  20  32  48  71  97 126 160 199 245 294
#     4   8  14  26  45  68  93 120 149 184 229 277
#     4   8  14  26  45  68  93 120 148 182 228 279
#
# _framework density 17.439059
#
# number of rings (size 3 to 8) (size 9 to 14) (size 15 to 20)
#    0.000    3.000    0.000    3.000    0.000    4.000 
#    0.000    5.000    0.000    1.500    0.000    7.000 
#    0.000    0.000    0.000    0.000    0.000    0.000 
#
# Total GULP energy -396564.986212 kJ/mol
# GULP energy per Si atom -12392.655819 kJ/mol
# Density = 1.739937 g / cm^3
# Si number density = 17.439059 Si / 1000 Ang^3
#
#
#
# Elastic Constant Matrix: (Units=GPa)
#
#
# Indices 1 2 3 4 5 6 
#
# 1 133.2846 37.8000 67.7950 0.0000 1.0265 0.0000
# 2 37.8000 48.8227 36.1439 0.0000 -5.5166 0.0000
# 3 67.7950 36.1439 133.1750 0.0000 -1.3918 0.0000
# 4 0.0000 0.0000 0.0000 18.8080 0.0000 -5.2187
# 5 1.0265 -5.5166 -1.3918 0.0000 24.8450 0.0000
# 6 0.0000 0.0000 0.0000 -5.2187 0.0000 20.3749
#
#
#
# Elastic Compliance Matrix: (Units=1/GPa)
#
#
# Indices 1 2 3 4 5 6 
#
# 1 0.011317 -0.005892 -0.004183 0.000000 -0.002010 0.000000
# 2 -0.005892 0.029419 -0.004917 0.000000 0.006500 0.000000
# 3 -0.004183 -0.004917 0.010970 0.000000 -0.000304 0.000000
# 4 0.000000 0.000000 0.000000 0.057237 0.000000 0.014660
# 5 -0.002010 0.006500 -0.000304 0.000000 0.041759 0.000000
# 6 0.000000 0.000000 0.000000 0.014660 0.000000 0.052835
#
#
# Mechanical properties :
#
#
# Convention : Reuss Voigt Hill
#
# Bulk Modulus (GPa) = 46.03807 66.52891 56.28349
# Shear Modulus (GPa) = 20.76754 24.37513 22.57133
#
# Velocity S-wave (km/s) = 3.45463 3.74268 3.60154
# Velocity P-wave (km/s) = 6.50918 7.54381 7.04551
#
# Compressibility (1/GPa) = 0.02172115
#
# Stress axis : x y z
#
# Youngs Moduli (GPa) = 88.36290 33.99190 91.16186
#
# Poissons Ratio (x) = 0.20030 0.38132
# Poissons Ratio (y) = 0.52068 0.44822
# Poissons Ratio (z) = 0.36961 0.16713
#
# Static dielectric constant tensor:
#      x y z
#    x 3.385720 0.000000 0.013070 
#    y 0.000000 3.151570 0.000000 
#    z 0.013070 0.000000 3.389640 
# 
# 
# High freq. dielectric constant tensor:
#      x y z
#    x 1.672380 0.000000 -0.008670 
#    y 0.000000 1.639210 0.000000 
#    z -0.008670 0.000000 1.669780 
# 
# From -- ./inp_files/18137.got.cif
#   From: 2010.03.12/outbox.cif.g09.slc.cpg/sg14_10_cif.got.tgz:18137.got - 2010.03.31 13:35:05.
