data_PCOD8124680
_publ_section_title
;
Structure prediction by ZEFSAII (Michael W. Deem and Ramdas Pophale) SiO2 
 PCOD8124680
Probable space group: P 21/C
;
_chemical_formula_sum "Si O2"
_cell_formula_units_Z 24
_cell_length_a 14.144336
_cell_length_b 13.587149
_cell_length_c 11.828293
_cell_angle_alpha 90.000000
_cell_angle_beta 149.704418
_cell_angle_gamma 90.000000
_cell_volume 1146.728519
_symmetry_space_group_name_H-M "P 21/C"
_symmetry_group_IT_number 14
_symmetry_cell_setting 'monoclinic'
loop_
_space_group_symop_operation_xyz
x,y,z
-x,1/2+y,1/2-z
-x,-y,-z
x,1/2-y,1/2+z
loop_
_atom_site_type_symbol
_atom_site_label
_atom_site_fract_x
_atom_site_fract_y
_atom_site_fract_z
Si Si1 0.158846 0.308389 0.392820
Si Si2 0.591487 0.821180 0.041991
Si Si3 0.711255 0.885331 0.753210
Si Si4 0.741552 0.293141 0.963573
Si Si5 0.458021 0.145480 0.762362
Si Si6 0.354524 0.527148 0.997235
O O1 0.264078 0.369850 0.400524
O O2 0.147129 0.375808 0.494333
O O3 0.286225 0.213868 0.549018
O O4 0.953997 0.269013 0.145507
O O5 0.384292 0.808758 0.776959
O O6 0.688889 0.716774 0.165385
O O7 0.568661 0.883961 0.133168
O O8 0.506644 0.910177 0.587883
O O9 0.774535 0.968289 0.727376
O O10 0.766131 0.394870 0.057870
O O11 0.653562 0.204769 0.947469
O O12 0.459894 0.047080 0.691176
#
# Coordination Sequence:
#
# PCOD8124680 Si02
#       6
#     4   4   4   4   4   4
#     4  10  21  40  58  92 126 156 200 259 303 356
#     4  10  19  42  60  85 128 164 191 257 308 361
#     4  10  20  39  67  86 122 160 210 255 297 361
#     4  11  22  39  63  94 122 159 208 249 313 363
#     4  10  22  42  61  87 129 163 201 252 310 363
#     4  11  20  40  66  91 116 167 208 248 305 361
#
# _framework density 20.929102
#
# number of rings (size 3 to 8) (size 9 to 14) (size 15 to 20)
#    0.000    1.667    8.333    0.000    0.000    4.000 
#    3.000    0.833    0.000    0.000    0.000    0.000 
#    0.000    0.000    0.000    0.000    0.000    0.000 
#
# Total GULP energy -297421.198379 kJ/mol
# GULP energy per Si atom -12392.549932 kJ/mol
# Density = 2.088147 g / cm^3
# Si number density = 20.929102 Si / 1000 Ang^3
#
#
#
# Elastic Constant Matrix: (Units=GPa)
#
#
# Indices 1 2 3 4 5 6 
#
# 1 93.7486 3.7675 59.6547 0.0000 -21.3845 0.0000
# 2 3.7675 39.5191 -3.5457 0.0000 -7.8237 0.0000
# 3 59.6547 -3.5457 100.7611 0.0000 11.4445 0.0000
# 4 0.0000 0.0000 0.0000 7.5838 0.0000 1.9260
# 5 -21.3845 -7.8237 11.4445 0.0000 41.9084 0.0000
# 6 0.0000 0.0000 0.0000 1.9260 0.0000 11.5630
#
#
#
# Elastic Compliance Matrix: (Units=1/GPa)
#
#
# Indices 1 2 3 4 5 6 
#
# 1 0.025714 -0.000487 -0.017256 0.000000 0.017742 0.000000
# 2 -0.000487 0.026299 0.000706 0.000000 0.004468 0.000000
# 3 -0.017256 0.000706 0.021828 0.000000 -0.014634 0.000000
# 4 0.000000 0.000000 0.000000 0.137684 0.000000 -0.022933
# 5 0.017742 0.004468 -0.014634 0.000000 0.037745 0.000000
# 6 0.000000 0.000000 0.000000 -0.022933 0.000000 0.090302
#
#
# Mechanical properties :
#
#
# Convention : Reuss Voigt Hill
#
# Bulk Modulus (GPa) = 25.14670 39.30910 32.22790
# Shear Modulus (GPa) = 12.92319 23.82120 18.37219
#
# Velocity S-wave (km/s) = 2.48760 3.37736 2.96603
# Velocity P-wave (km/s) = 4.50468 5.83366 5.21170
#
# Compressibility (1/GPa) = 0.03976666
#
# Stress axis : x y z
#
# Youngs Moduli (GPa) = 38.88920 38.02480 45.81312
#
# Poissons Ratio (x) = 0.01852 0.79056
# Poissons Ratio (y) = 0.01894 -0.03236
# Poissons Ratio (z) = 0.67108 -0.02686
#
# Static dielectric constant tensor:
#      x y z
#    x 4.157390 0.000000 -0.460210 
#    y 0.000000 3.688810 0.000000 
#    z -0.460210 0.000000 3.659080 
# 
# 
# High freq. dielectric constant tensor:
#      x y z
#    x 1.830260 0.000000 -0.023780 
#    y 0.000000 1.796080 0.000000 
#    z -0.023780 0.000000 1.803070 
# 
# From -- ./inp_files/32647.got.cif
#   From: 2010.03.12/outbox.cif.g09.slc.cpg/sg14_17_cif.got.tgz:32647.got - 2010.03.31 13:35:05.
