data_PCOD8124274
_publ_section_title
;
Structure prediction by ZEFSAII (Michael W. Deem and Ramdas Pophale) SiO2 
 PCOD8124274
Probable space group: P 21/C
;
_chemical_formula_sum "Si O2"
_cell_formula_units_Z 28
_cell_length_a 8.214765
_cell_length_b 14.151119
_cell_length_c 18.745796
_cell_angle_alpha 90.000000
_cell_angle_beta 141.113034
_cell_angle_gamma 90.000000
_cell_volume 1368.048333
_symmetry_space_group_name_H-M "P 21/C"
_symmetry_group_IT_number 14
_symmetry_cell_setting 'monoclinic'
loop_
_space_group_symop_operation_xyz
x,y,z
-x,1/2+y,1/2-z
-x,-y,-z
x,1/2-y,1/2+z
loop_
_atom_site_type_symbol
_atom_site_label
_atom_site_fract_x
_atom_site_fract_y
_atom_site_fract_z
Si Si1 0.842819 0.274242 0.255334
Si Si2 0.854239 0.971909 0.252836
Si Si3 0.457067 0.120811 0.145182
Si Si4 0.248488 0.370539 0.844857
Si Si5 0.173070 0.431765 0.413727
Si Si6 0.203752 0.817790 0.419680
Si Si7 0.039230 0.369553 0.621490
O O1 0.621817 0.214391 0.219870
O O2 0.727763 0.297464 0.138794
O O3 0.110058 0.215810 0.338192
O O4 0.908657 0.368403 0.323054
O O5 0.727145 0.936479 0.134310
O O6 0.948794 0.885438 0.334613
O O7 0.639953 0.030292 0.223742
O O8 0.109782 0.032718 0.320543
O O9 0.199986 0.120938 0.103872
O O10 0.385663 0.118531 0.036532
O O11 0.228319 0.357598 0.753034
O O12 0.552545 0.372764 0.964419
O O13 0.128340 0.535706 0.429804
O O14 0.147445 0.722283 0.445317
#
# Coordination Sequence:
#
# PCOD8124274 Si02
#       7
#     4   4   4   4   4   4   4
#     4   9  20  34  56  81 100 136 186 223 265 311
#     4   9  20  35  58  82 101 139 187 221 263 311
#     4  11  21  36  54  80 112 139 175 223 266 319
#     4   9  18  36  54  77 109 138 178 228 262 308
#     4  10  20  37  55  77 107 141 177 222 266 312
#     4  10  19  36  57  79 106 143 181 221 264 312
#     4  10  23  34  51  82 112 144 178 210 268 329
#
# _framework density 20.467112
#
# number of rings (size 3 to 8) (size 9 to 14) (size 15 to 20)
#    0.000    2.286    0.000    3.000    0.000    5.714 
#    0.000    0.714    0.000    0.000    0.000    0.000 
#    0.000    0.000    0.000    0.000    0.000    0.000 
#
# Total GULP energy -347146.015550 kJ/mol
# GULP energy per Si atom -12398.071984 kJ/mol
# Density = 2.042053 g / cm^3
# Si number density = 20.467112 Si / 1000 Ang^3
#
#
#
# Elastic Constant Matrix: (Units=GPa)
#
#
# Indices 1 2 3 4 5 6 
#
# 1 39.4292 14.3457 18.0683 0.0000 5.2788 0.0000
# 2 14.3457 103.8605 22.4229 0.0000 1.7887 0.0000
# 3 18.0683 22.4229 67.1536 0.0000 4.2778 0.0000
# 4 0.0000 0.0000 0.0000 27.7398 0.0000 1.4914
# 5 5.2788 1.7887 4.2778 0.0000 13.3269 0.0000
# 6 0.0000 0.0000 0.0000 1.4914 0.0000 14.4731
#
#
#
# Elastic Compliance Matrix: (Units=1/GPa)
#
#
# Indices 1 2 3 4 5 6 
#
# 1 0.030708 -0.002613 -0.006776 0.000000 -0.009638 0.000000
# 2 -0.002613 0.010600 -0.002870 0.000000 0.000534 0.000000
# 3 -0.006776 -0.002870 0.017842 0.000000 -0.002658 0.000000
# 4 0.000000 0.000000 0.000000 0.036250 0.000000 -0.003735
# 5 -0.009638 0.000534 -0.002658 0.000000 0.079635 0.000000
# 6 0.000000 0.000000 0.000000 -0.003735 0.000000 0.069479
#
#
# Mechanical properties :
#
#
# Convention : Reuss Voigt Hill
#
# Bulk Modulus (GPa) = 28.87513 35.56858 32.22186
# Shear Modulus (GPa) = 17.82051 21.48170 19.65110
#
# Velocity S-wave (km/s) = 2.95395 3.24322 3.10196
# Velocity P-wave (km/s) = 5.07672 5.60721 5.34855
#
# Compressibility (1/GPa) = 0.03463187
#
# Stress axis : x y z
#
# Youngs Moduli (GPa) = 32.56491 94.34254 56.04721
#
# Poissons Ratio (x) = 0.24648 0.37977
# Poissons Ratio (y) = 0.08508 0.16087
# Poissons Ratio (z) = 0.22066 0.27079
#
# Static dielectric constant tensor:
#      x y z
#    x 3.194970 0.000000 -0.052650 
#    y 0.000000 4.001560 0.000000 
#    z -0.052650 0.000000 3.565750 
# 
# 
# High freq. dielectric constant tensor:
#      x y z
#    x 1.754510 0.000000 0.003150 
#    y 0.000000 1.817960 0.000000 
#    z 0.003150 0.000000 1.799000 
# 
# From -- ./inp_files/55959.got.cif
#   From: 2010.03.12/outbox.cif.g09.slc.cpg/sg14_28_cif.got.tgz:55959.got - 2010.03.31 13:35:05.
