data_PCOD8124411
_publ_section_title
;
Structure prediction by ZEFSAII (Michael W. Deem and Ramdas Pophale) SiO2 
 PCOD8124411
Probable space group: P 21/C
;
_chemical_formula_sum "Si O2"
_cell_formula_units_Z 32
_cell_length_a 15.253572
_cell_length_b 7.765064
_cell_length_c 21.999037
_cell_angle_alpha 90.000000
_cell_angle_beta 141.643766
_cell_angle_gamma 90.000000
_cell_volume 1616.949002
_symmetry_space_group_name_H-M "P 21/C"
_symmetry_group_IT_number 14
_symmetry_cell_setting 'monoclinic'
loop_
_space_group_symop_operation_xyz
x,y,z
-x,1/2+y,1/2-z
-x,-y,-z
x,1/2-y,1/2+z
loop_
_atom_site_type_symbol
_atom_site_label
_atom_site_fract_x
_atom_site_fract_y
_atom_site_fract_z
Si Si1 0.926435 0.314870 0.284408
Si Si2 0.821799 0.937792 0.999507
Si Si3 0.121201 0.011932 0.359034
Si Si4 0.277213 0.522849 0.136792
Si Si5 0.624616 0.648575 0.926708
Si Si6 0.814821 0.825393 0.866162
Si Si7 0.312756 0.826183 0.249065
Si Si8 0.085234 0.711468 0.950883
O O1 0.856409 0.437982 0.196003
O O2 0.805473 0.264696 0.267318
O O3 0.056305 0.411505 0.385409
O O4 0.992356 0.146865 0.288614
O O5 0.791285 0.142350 0.980277
O O6 0.677444 0.838994 0.936398
O O7 0.881424 0.866317 0.968074
O O8 0.069635 0.862467 0.375590
O O9 0.272385 0.082805 0.463947
O O10 0.377389 0.478396 0.133403
O O11 0.267971 0.356862 0.175701
O O12 0.327830 0.687154 0.202891
O O13 0.124522 0.566285 0.022425
O O14 0.465425 0.664252 0.865006
O O15 0.939506 0.807170 0.885918
O O16 0.716404 0.983027 0.792401
#
# Coordination Sequence:
#
# PCOD8124411 Si02
#       8
#     4   4   4   4   4   4   4   4
#     4  11  22  39  66  88 116 161 213 261 307 365
#     4  10  19  37  59  90 119 160 200 252 313 360
#     4  10  23  42  64  89 121 162 212 265 313 357
#     4  10  22  35  57  91 130 165 198 250 308 374
#     4   9  24  40  58  91 131 166 201 255 303 377
#     4  11  21  35  60  95 127 156 204 257 310 375
#     4  12  23  39  62  94 127 169 205 249 313 372
#     4  11  18  36  62  88 123 157 206 263 308 361
#
# _framework density 19.790358999999999
#
# number of rings (size 3 to 8) (size 9 to 14) (size 15 to 20)
#    0.000    1.500    2.500    3.750    3.500    0.500 
#    2.250    0.000    0.000    3.750    0.000    0.000 
#    0.000    0.000    0.000    0.000    0.000    0.000 
#
# Total GULP energy -396689.189732 kJ/mol
# GULP energy per Si atom -12396.537179 kJ/mol
# Density = 1.974532 g / cm^3
# Si number density = 19.790359 Si / 1000 Ang^3
#
#
#
# Elastic Constant Matrix: (Units=GPa)
#
#
# Indices 1 2 3 4 5 6 
#
# 1 60.0429 25.5220 43.0858 0.0000 3.7377 0.0000
# 2 25.5220 102.8383 32.1405 0.0000 6.2603 0.0000
# 3 43.0858 32.1405 91.5398 0.0000 4.3337 0.0000
# 4 0.0000 0.0000 0.0000 23.1708 0.0000 -7.6760
# 5 3.7377 6.2603 4.3337 0.0000 27.2421 0.0000
# 6 0.0000 0.0000 0.0000 -7.6760 0.0000 22.7889
#
#
#
# Elastic Compliance Matrix: (Units=1/GPa)
#
#
# Indices 1 2 3 4 5 6 
#
# 1 0.025952 -0.002888 -0.011148 0.000000 -0.001124 0.000000
# 2 -0.002888 0.011344 -0.002538 0.000000 -0.001807 0.000000
# 3 -0.011148 -0.002538 0.017091 0.000000 -0.000606 0.000000
# 4 0.000000 0.000000 0.000000 0.048578 0.000000 0.016363
# 5 -0.001124 -0.001807 -0.000606 0.000000 0.037374 0.000000
# 6 0.000000 0.000000 0.000000 0.016363 0.000000 0.049392
#
#
# Mechanical properties :
#
#
# Convention : Reuss Voigt Hill
#
# Bulk Modulus (GPa) = 47.08328 50.65750 48.87039
# Shear Modulus (GPa) = 21.74305 24.88522 23.31413
#
# Velocity S-wave (km/s) = 3.31821 3.54989 3.43600
# Velocity P-wave (km/s) = 6.20672 6.51574 6.36311
#
# Compressibility (1/GPa) = 0.02123896
#
# Stress axis : x y z
#
# Youngs Moduli (GPa) = 38.53310 88.15232 58.51036
#
# Poissons Ratio (x) = 0.25460 0.65225
# Poissons Ratio (y) = 0.11129 0.14850
# Poissons Ratio (z) = 0.42955 0.22373
#
# Static dielectric constant tensor:
#      x y z
#    x 3.361420 0.000000 -0.066930 
#    y 0.000000 3.936190 0.000000 
#    z -0.066930 0.000000 3.349110 
# 
# 
# High freq. dielectric constant tensor:
#      x y z
#    x 1.748940 0.000000 -0.006600 
#    y 0.000000 1.791330 0.000000 
#    z -0.006600 0.000000 1.753150 
# 
# From -- ./inp_files/68232.got.cif
#   From: 2010.03.12/outbox.cif.g09.slc.cpg/sg14_35_cif.got.tgz:68232.got - 2010.03.31 13:35:05.
