data_PCOD8124011
_publ_section_title
;
Structure prediction by ZEFSAII (Michael W. Deem and Ramdas Pophale) SiO2 
 PCOD8124011
Probable space group: P 21/C
;
_chemical_formula_sum "Si O2"
_cell_formula_units_Z 32
_cell_length_a 6.794279
_cell_length_b 15.189385
_cell_length_c 16.018450
_cell_angle_alpha 90.000000
_cell_angle_beta 87.774431
_cell_angle_gamma 90.000000
_cell_volume 1651.871799
_symmetry_space_group_name_H-M "P 21/C"
_symmetry_group_IT_number 14
_symmetry_cell_setting 'monoclinic'
loop_
_space_group_symop_operation_xyz
x,y,z
-x,1/2+y,1/2-z
-x,-y,-z
x,1/2-y,1/2+z
loop_
_atom_site_type_symbol
_atom_site_label
_atom_site_fract_x
_atom_site_fract_y
_atom_site_fract_z
Si Si1 0.563690 0.917311 0.795146
Si Si2 0.578288 0.958886 0.611577
Si Si3 0.287923 0.095017 0.560607
Si Si4 0.878022 0.057102 0.829830
Si Si5 0.721259 0.516513 0.591140
Si Si6 0.614191 0.371390 0.464529
Si Si7 0.562768 0.254392 0.105534
Si Si8 0.125308 0.886317 0.352854
O O1 0.556449 0.902173 0.695991
O O2 0.530882 0.823968 0.838971
O O3 0.769444 0.962577 0.820133
O O4 0.391114 0.984611 0.823633
O O5 0.667804 0.895414 0.539026
O O6 0.365536 0.998462 0.588138
O O7 0.721941 0.040297 0.622546
O O8 0.398600 0.170769 0.609448
O O9 0.057789 0.106116 0.581709
O O10 0.736005 0.129268 0.876253
O O11 0.944455 0.098735 0.740957
O O12 0.061990 0.044127 0.887003
O O13 0.727011 0.438762 0.523838
O O14 0.609838 0.598771 0.550319
O O15 0.606846 0.276991 0.509787
O O16 0.767444 0.291308 0.140458
#
# Coordination Sequence:
#
# PCOD8124011 Si02
#       8
#     4   4   4   4   4   4   4   4
#     4   9  19  35  54  80 108 139 175 217 269 321
#     4   9  19  37  59  76  99 139 186 222 256 311
#     4  10  20  36  56  77 103 140 180 223 265 305
#     4  10  19  33  57  81 104 138 182 222 261 318
#     4   9  17  32  55  80 106 137 175 216 258 315
#     4   9  19  33  51  78 108 140 173 210 264 323
#     4  10  22  36  51  77 114 142 170 217 270 319
#     4  10  21  36  54  80 107 137 178 223 264 309
#
# _framework density 19.371963000000001
#
# number of rings (size 3 to 8) (size 9 to 14) (size 15 to 20)
#    0.000    2.500    0.000    2.250    0.000    5.000 
#    0.000    1.250    0.000    0.000    0.000    0.000 
#    0.000    0.000    0.000    0.000    0.000    0.000 
#
# Total GULP energy -396757.167775 kJ/mol
# GULP energy per Si atom -12398.661493 kJ/mol
# Density = 1.932787 g / cm^3
# Si number density = 19.371963 Si / 1000 Ang^3
#
#
#
# Elastic Constant Matrix: (Units=GPa)
#
#
# Indices 1 2 3 4 5 6 
#
# 1 76.3487 23.6708 32.7050 0.0000 1.2796 0.0000
# 2 23.6708 65.9793 30.4160 0.0000 -5.9695 0.0000
# 3 32.7050 30.4160 114.6375 0.0000 -9.5322 0.0000
# 4 0.0000 0.0000 0.0000 27.8391 0.0000 -3.9450
# 5 1.2796 -5.9695 -9.5322 0.0000 30.7384 0.0000
# 6 0.0000 0.0000 0.0000 -3.9450 0.0000 12.7902
#
#
#
# Elastic Compliance Matrix: (Units=1/GPa)
#
#
# Indices 1 2 3 4 5 6 
#
# 1 0.016043 -0.004310 -0.003653 0.000000 -0.002638 0.000000
# 2 -0.004310 0.018545 -0.003466 0.000000 0.002706 0.000000
# 3 -0.003653 -0.003466 0.010923 0.000000 0.002866 0.000000
# 4 0.000000 0.000000 0.000000 0.037562 0.000000 0.011586
# 5 -0.002638 0.002706 0.002866 0.000000 0.034057 0.000000
# 6 0.000000 0.000000 0.000000 0.011586 0.000000 0.081758
#
#
# Mechanical properties :
#
#
# Convention : Reuss Voigt Hill
#
# Bulk Modulus (GPa) = 44.14270 47.83880 45.99075
# Shear Modulus (GPa) = 21.80573 25.61846 23.71210
#
# Velocity S-wave (km/s) = 3.35869 3.64050 3.50243
# Velocity P-wave (km/s) = 6.15446 6.51302 6.33628
#
# Compressibility (1/GPa) = 0.02265380
#
# Stress axis : x y z
#
# Youngs Moduli (GPa) = 62.33237 53.92223 91.54930
#
# Poissons Ratio (x) = 0.23243 0.33439
# Poissons Ratio (y) = 0.26868 0.31729
# Poissons Ratio (z) = 0.22767 0.18688
#
# Static dielectric constant tensor:
#      x y z
#    x 3.439010 0.000000 -0.048510 
#    y 0.000000 3.302550 0.000000 
#    z -0.048510 0.000000 3.787920 
# 
# 
# High freq. dielectric constant tensor:
#      x y z
#    x 1.750960 0.000000 -0.002330 
#    y 0.000000 1.725540 0.000000 
#    z -0.002330 0.000000 1.766700 
# 
# From -- ./inp_files/53482.got.cif
#   From: 2010.03.12/outbox.cif.g09.slc.cpg/sg14_27_cif.got.tgz:53482.got - 2010.03.31 13:35:05.
