data_PCOD8124505
_publ_section_title
;
Structure prediction by ZEFSAII (Michael W. Deem and Ramdas Pophale) SiO2 
 PCOD8124505
Probable space group: P 21/C
;
_chemical_formula_sum "Si O2"
_cell_formula_units_Z 32
_cell_length_a 27.493991
_cell_length_b 8.748223
_cell_length_c 18.752584
_cell_angle_alpha 90.000000
_cell_angle_beta 21.137964
_cell_angle_gamma 90.000000
_cell_volume 1626.531278
_symmetry_space_group_name_H-M "P 21/C"
_symmetry_group_IT_number 14
_symmetry_cell_setting 'monoclinic'
loop_
_space_group_symop_operation_xyz
x,y,z
-x,1/2+y,1/2-z
-x,-y,-z
x,1/2-y,1/2+z
loop_
_atom_site_type_symbol
_atom_site_label
_atom_site_fract_x
_atom_site_fract_y
_atom_site_fract_z
Si Si1 0.069038 0.661495 0.569750
Si Si2 0.157060 0.315571 0.805515
Si Si3 0.776888 0.490263 0.758677
Si Si4 0.522811 0.471126 0.806924
Si Si5 0.000291 0.959852 0.602066
Si Si6 0.796871 0.342944 0.464194
Si Si7 0.190039 0.978920 0.623052
Si Si8 0.388770 0.232676 0.386460
O O1 0.184677 0.634111 0.352571
O O2 0.118489 0.624652 0.580870
O O3 0.033430 0.841718 0.619910
O O4 0.950075 0.548557 0.710707
O O5 0.136040 0.147130 0.868107
O O6 0.038799 0.350687 0.910723
O O7 0.300966 0.318861 0.568238
O O8 0.134275 0.439952 0.899767
O O9 0.803460 0.428323 0.802588
O O10 0.620314 0.532142 0.957183
O O11 0.648204 0.411716 0.681883
O O12 0.548101 0.646118 0.752375
O O13 0.512203 0.360816 0.752497
O O14 0.874798 0.068693 0.794237
O O15 0.778856 0.165583 0.469122
O O16 0.299116 0.114073 0.463216
#
# Coordination Sequence:
#
# PCOD8124505 Si02
#       8
#     4   4   4   4   4   4   4   4
#     4  12  23  38  57  87 124 153 197 241 302 357
#     4   9  19  35  59  86 112 140 190 253 291 331
#     4  10  22  38  62  85 115 157 198 248 280 351
#     4  10  20  37  58  86 117 159 197 238 289 346
#     4  11  21  35  58  88 116 148 192 246 295 348
#     4  12  24  37  58  86 124 161 188 239 303 361
#     4  10  21  38  61  87 114 152 199 248 298 342
#     4  10  19  38  60  90 118 147 199 255 282 345
#
# _framework density 19.673767999999999
#
# number of rings (size 3 to 8) (size 9 to 14) (size 15 to 20)
#    0.000    1.750    3.750    3.375    3.500    1.500 
#    0.000    1.250    0.000    3.750    0.000    0.000 
#    0.000    0.000    0.000    0.000    0.000    0.000 
#
# Total GULP energy -396626.182671 kJ/mol
# GULP energy per Si atom -12394.568208 kJ/mol
# Density = 1.962899 g / cm^3
# Si number density = 19.673768 Si / 1000 Ang^3
#
#
#
# Elastic Constant Matrix: (Units=GPa)
#
#
# Indices 1 2 3 4 5 6 
#
# 1 59.1829 29.1619 29.1198 0.0000 -4.5868 0.0000
# 2 29.1619 101.2974 43.6167 0.0000 -2.9534 0.0000
# 3 29.1198 43.6167 75.6848 0.0000 -14.8497 0.0000
# 4 0.0000 0.0000 0.0000 37.6540 0.0000 0.7255
# 5 -4.5868 -2.9534 -14.8497 0.0000 18.5156 0.0000
# 6 0.0000 0.0000 0.0000 0.7255 0.0000 20.9850
#
#
#
# Elastic Compliance Matrix: (Units=1/GPa)
#
#
# Indices 1 2 3 4 5 6 
#
# 1 0.021756 -0.003514 -0.006406 0.000000 -0.000309 0.000000
# 2 -0.003514 0.014054 -0.007688 0.000000 -0.004795 0.000000
# 3 -0.006406 -0.007688 0.023208 0.000000 0.015800 0.000000
# 4 0.000000 0.000000 0.000000 0.026575 0.000000 -0.000919
# 5 -0.000309 -0.004795 0.015800 0.000000 0.065839 0.000000
# 6 0.000000 0.000000 0.000000 -0.000919 0.000000 0.047685
#
#
# Mechanical properties :
#
#
# Convention : Reuss Voigt Hill
#
# Bulk Modulus (GPa) = 42.01325 48.88468 45.44896
# Shear Modulus (GPa) = 20.63831 24.38205 22.51018
#
# Velocity S-wave (km/s) = 3.24238 3.52421 3.38623
# Velocity P-wave (km/s) = 5.95136 6.43908 6.20002
#
# Compressibility (1/GPa) = 0.02380201
#
# Stress axis : x y z
#
# Youngs Moduli (GPa) = 45.96346 71.15394 43.08837
#
# Poissons Ratio (x) = 0.25003 0.27604
# Poissons Ratio (y) = 0.16151 0.33126
# Poissons Ratio (z) = 0.29446 0.54703
#
# Static dielectric constant tensor:
#      x y z
#    x 3.310150 0.000000 -0.137870 
#    y 0.000000 3.803370 0.000000 
#    z -0.137870 0.000000 3.531030 
# 
# 
# High freq. dielectric constant tensor:
#      x y z
#    x 1.731830 0.000000 -0.013710 
#    y 0.000000 1.783220 0.000000 
#    z -0.013710 0.000000 1.759700 
# 
# From -- ./inp_files/70698.got.cif
#   From: 2010.03.12/outbox.cif.g09.slc.cpg/sg14_36_cif.got.tgz:70698.got - 2010.03.31 13:35:05.
