data_PCOD8124438
_publ_section_title
;
Structure prediction by ZEFSAII (Michael W. Deem and Ramdas Pophale) SiO2 
 PCOD8124438
Probable space group: P 21/C
;
_chemical_formula_sum "Si O2"
_cell_formula_units_Z 28
_cell_length_a 20.411889
_cell_length_b 8.297821
_cell_length_c 15.308195
_cell_angle_alpha 90.000000
_cell_angle_beta 31.666864
_cell_angle_gamma 90.000000
_cell_volume 1361.173860
_symmetry_space_group_name_H-M "P 21/C"
_symmetry_group_IT_number 14
_symmetry_cell_setting 'monoclinic'
loop_
_space_group_symop_operation_xyz
x,y,z
-x,1/2+y,1/2-z
-x,-y,-z
x,1/2-y,1/2+z
loop_
_atom_site_type_symbol
_atom_site_label
_atom_site_fract_x
_atom_site_fract_y
_atom_site_fract_z
Si Si1 0.477599 0.393637 0.710785
Si Si2 0.225100 0.656633 0.366281
Si Si3 0.379431 0.040526 0.803494
Si Si4 0.725100 0.156634 0.866281
Si Si5 0.022401 0.106363 0.789215
Si Si6 0.879430 0.540526 0.303494
Si Si7 0.750000 0.384886 0.000000
O O1 0.442422 0.212699 0.724911
O O2 0.527241 0.415515 0.754097
O O3 0.592219 0.440231 0.514422
O O4 0.359112 0.507940 0.833343
O O5 0.342711 0.537382 0.250962
O O6 0.250000 0.749999 0.250000
O O7 0.202702 0.776744 0.473736
O O8 0.092219 0.559769 0.514422
O O9 0.250000 0.061673 0.000000
O O10 0.842712 0.037383 0.750961
O O11 0.702701 0.276743 0.973737
O O12 0.057578 0.287301 0.775089
O O13 0.140888 0.992059 0.666657
O O14 0.972759 0.084485 0.745903
#
# Coordination Sequence:
#
# PCOD8124438 Si02
#       7
#     4   4   4   4   4   4   4
#     4  11  20  38  66  87 120 164 201 248 305 361
#     4  11  24  41  62  91 125 160 204 256 302 358
#     4  10  19  37  62  89 114 158 204 245 300 359
#     4  11  24  41  62  91 125 160 204 256 302 358
#     4  11  20  38  66  87 120 164 201 248 305 361
#     4  10  19  37  62  89 114 158 204 245 300 359
#     4  12  22  40  64  90 120 166 204 248 306 364
#
# _framework density 20.57048
#
# number of rings (size 3 to 8) (size 9 to 14) (size 15 to 20)
#    0.000    1.143    8.571    0.000    0.000    2.286 
#    0.000    1.429    0.000    0.000    0.000    0.000 
#    0.000    0.000    0.000    0.000    0.000    0.000 
#
# Total GULP energy -346888.860602 kJ/mol
# GULP energy per Si atom -12388.887879 kJ/mol
# Density = 2.052366 g / cm^3
# Si number density = 20.570480 Si / 1000 Ang^3
#
#
#
# Elastic Constant Matrix: (Units=GPa)
#
#
# Indices 1 2 3 4 5 6 
#
# 1 47.7890 23.2061 16.5047 0.0000 -7.6246 0.0000
# 2 23.2061 101.4642 16.2287 0.0000 -10.7906 0.0000
# 3 16.5047 16.2287 68.0957 0.0000 -15.8632 0.0000
# 4 0.0000 0.0000 0.0000 30.0073 0.0000 -13.6675
# 5 -7.6246 -10.7906 -15.8632 0.0000 39.2189 0.0000
# 6 0.0000 0.0000 0.0000 -13.6675 0.0000 19.6780
#
#
#
# Elastic Compliance Matrix: (Units=1/GPa)
#
#
# Indices 1 2 3 4 5 6 
#
# 1 0.025114 -0.004836 -0.004534 0.000000 0.001718 0.000000
# 2 -0.004836 0.011325 -0.001126 0.000000 0.001720 0.000000
# 3 -0.004534 -0.001126 0.017416 0.000000 0.005853 0.000000
# 4 0.000000 0.000000 0.000000 0.048746 0.000000 0.033857
# 5 0.001718 0.001720 0.005853 0.000000 0.028673 0.000000
# 6 0.000000 0.000000 0.000000 0.033857 0.000000 0.074334
#
#
# Mechanical properties :
#
#
# Convention : Reuss Voigt Hill
#
# Bulk Modulus (GPa) = 30.43024 36.58087 33.50556
# Shear Modulus (GPa) = 21.04788 28.54147 24.79468
#
# Velocity S-wave (km/s) = 3.20223 3.72895 3.47559
# Velocity P-wave (km/s) = 5.33832 6.03008 5.69472
#
# Compressibility (1/GPa) = 0.03286205
#
# Stress axis : x y z
#
# Youngs Moduli (GPa) = 39.81899 88.30198 57.41823
#
# Poissons Ratio (x) = 0.42702 0.26035
# Poissons Ratio (y) = 0.19256 0.06466
# Poissons Ratio (z) = 0.18055 0.09944
#
# Static dielectric constant tensor:
#      x y z
#    x 3.967500 0.000000 -0.463280 
#    y 0.000000 3.838490 0.000000 
#    z -0.463280 0.000000 3.840710 
# 
# 
# High freq. dielectric constant tensor:
#      x y z
#    x 1.794100 0.000000 -0.044110 
#    y 0.000000 1.803250 0.000000 
#    z -0.044110 0.000000 1.796380 
# 
# From -- ./inp_files/50219.got.cif
#   From: 2010.03.12/outbox.cif.g09.slc.cpg/sg14_26_cif.got.tgz:50219.got - 2010.03.31 13:35:05.
