data_PCOD8124689
_publ_section_title
;
Structure prediction by ZEFSAII (Michael W. Deem and Ramdas Pophale) SiO2 
 PCOD8124689
Probable space group: P 21/C
;
_chemical_formula_sum "Si O2"
_cell_formula_units_Z 32
_cell_length_a 17.712889
_cell_length_b 10.400187
_cell_length_c 14.368179
_cell_angle_alpha 90.000000
_cell_angle_beta 32.385674
_cell_angle_gamma 90.000000
_cell_volume 1417.703952
_symmetry_space_group_name_H-M "P 21/C"
_symmetry_group_IT_number 14
_symmetry_cell_setting 'monoclinic'
loop_
_space_group_symop_operation_xyz
x,y,z
-x,1/2+y,1/2-z
-x,-y,-z
x,1/2-y,1/2+z
loop_
_atom_site_type_symbol
_atom_site_label
_atom_site_fract_x
_atom_site_fract_y
_atom_site_fract_z
Si Si1 0.093822 0.959622 0.774592
Si Si2 0.429458 0.787915 0.583073
Si Si3 0.864252 0.141758 0.073241
Si Si4 0.340847 0.327941 0.011068
Si Si5 0.536773 0.350477 0.628522
Si Si6 0.322885 0.511514 0.741929
Si Si7 0.232187 0.047132 0.134405
Si Si8 0.071214 0.599253 0.099123
O O1 0.090879 0.865388 0.865358
O O2 0.087442 0.867130 0.691414
O O3 0.225811 0.058871 0.634055
O O4 0.945298 0.035938 0.928834
O O5 0.304569 0.882050 0.749723
O O6 0.576129 0.834617 0.476286
O O7 0.429341 0.780289 0.467735
O O8 0.387746 0.652036 0.669754
O O9 0.912531 0.279362 0.984944
O O10 0.452837 0.335006 0.810519
O O11 0.268057 0.192044 0.067079
O O12 0.450723 0.422141 0.637426
O O13 0.673650 0.435797 0.512320
O O14 0.249937 0.462206 0.725362
O O15 0.200537 0.502292 0.946202
O O16 0.071607 0.022207 0.272958
#
# Coordination Sequence:
#
# PCOD8124689 Si02
#       8
#     4   4   4   4   4   4   4   4
#     4  11  25  48  67  98 140 173 226 284 332 403
#     4  10  22  41  67  96 131 177 218 273 342 390
#     4  10  25  47  68  97 137 179 220 286 336 399
#     4  12  23  41  70  99 136 174 225 276 340 398
#     4  11  22  40  66  98 137 174 223 280 322 409
#     4  10  19  42  66  93 135 167 223 284 317 396
#     4  11  22  42  64 101 131 172 227 274 335 395
#     4  11  23  44  71  98 131 180 227 272 340 397
#
# _framework density 22.571708999999998
#
# number of rings (size 3 to 8) (size 9 to 14) (size 15 to 20)
#    0.000    1.250    5.000    1.125    1.750    3.500 
#   13.500    0.000    0.000    0.000    0.000    0.000 
#    0.000    0.000    0.000    0.000    0.000    0.000 
#
# Total GULP energy -396567.416271 kJ/mol
# GULP energy per Si atom -12392.731758 kJ/mol
# Density = 2.252033 g / cm^3
# Si number density = 22.571709 Si / 1000 Ang^3
#
#
#
# Elastic Constant Matrix: (Units=GPa)
#
#
# Indices 1 2 3 4 5 6 
#
# 1 69.6143 26.3831 31.5209 0.0000 6.1262 0.0000
# 2 26.3831 54.3280 33.5550 0.0000 6.2698 0.0000
# 3 31.5209 33.5550 129.3496 0.0000 5.3515 0.0000
# 4 0.0000 0.0000 0.0000 16.2878 0.0000 5.6858
# 5 6.1262 6.2698 5.3515 0.0000 45.4493 0.0000
# 6 0.0000 0.0000 0.0000 5.6858 0.0000 22.3989
#
#
#
# Elastic Compliance Matrix: (Units=1/GPa)
#
#
# Indices 1 2 3 4 5 6 
#
# 1 0.018354 -0.007198 -0.002557 0.000000 -0.001180 0.000000
# 2 -0.007198 0.024998 -0.004651 0.000000 -0.001931 0.000000
# 3 -0.002557 -0.004651 0.009566 0.000000 -0.000140 0.000000
# 4 0.000000 0.000000 0.000000 0.067365 0.000000 -0.017100
# 5 -0.001180 -0.001931 -0.000140 0.000000 0.022444 0.000000
# 6 0.000000 0.000000 0.000000 -0.017100 0.000000 0.048986
#
#
# Mechanical properties :
#
#
# Convention : Reuss Voigt Hill
#
# Bulk Modulus (GPa) = 41.48129 48.46776 44.97453
# Shear Modulus (GPa) = 21.87610 27.61607 24.74608
#
# Velocity S-wave (km/s) = 3.11655 3.50162 3.31468
# Velocity P-wave (km/s) = 5.60071 6.15369 5.88370
#
# Compressibility (1/GPa) = 0.02410725
#
# Stress axis : x y z
#
# Youngs Moduli (GPa) = 54.48305 40.00393 104.53403
#
# Poissons Ratio (x) = 0.28795 0.26725
# Poissons Ratio (y) = 0.39217 0.48616
# Poissons Ratio (z) = 0.13929 0.18605
#
# Static dielectric constant tensor:
#      x y z
#    x 4.125110 0.000000 -0.144730 
#    y 0.000000 3.914000 0.000000 
#    z -0.144730 0.000000 4.720510 
# 
# 
# High freq. dielectric constant tensor:
#      x y z
#    x 1.888510 0.000000 -0.001560 
#    y 0.000000 1.863800 0.000000 
#    z -0.001560 0.000000 1.918140 
# 
# From -- ./inp_files/49011.got.cif
#   From: 2010.03.12/outbox.cif.g09.slc.cpg/sg14_25_cif.got.tgz:49011.got - 2010.03.31 13:35:05.
