data_PCOD8124818
_publ_section_title
;
Structure prediction by ZEFSAII (Michael W. Deem and Ramdas Pophale) SiO2 
 PCOD8124818
Probable space group: P 21/C
;
_chemical_formula_sum "Si O2"
_cell_formula_units_Z 24
_cell_length_a 10.856812
_cell_length_b 9.187636
_cell_length_c 12.515621
_cell_angle_alpha 90.000000
_cell_angle_beta 92.552650
_cell_angle_gamma 90.000000
_cell_volume 1247.174851
_symmetry_space_group_name_H-M "P 21/C"
_symmetry_group_IT_number 14
_symmetry_cell_setting 'monoclinic'
loop_
_space_group_symop_operation_xyz
x,y,z
-x,1/2+y,1/2-z
-x,-y,-z
x,1/2-y,1/2+z
loop_
_atom_site_type_symbol
_atom_site_label
_atom_site_fract_x
_atom_site_fract_y
_atom_site_fract_z
Si Si1 0.699811 0.223809 0.131600
Si Si2 0.144907 0.991108 0.998196
Si Si3 0.557437 0.522618 0.718888
Si Si4 0.460337 0.142759 0.556041
Si Si5 0.715484 0.766631 0.107185
Si Si6 0.275629 0.011265 0.231353
O O1 0.577843 0.249170 0.054185
O O2 0.745681 0.369304 0.194250
O O3 0.805919 0.156220 0.058815
O O4 0.654253 0.110868 0.220619
O O5 0.174618 0.127896 0.923081
O O6 0.196341 0.002149 0.120779
O O7 0.000000 0.000000 0.000000
O O8 0.577491 0.610926 0.826188
O O9 0.594140 0.639363 0.631191
O O10 0.417152 0.469978 0.699960
O O11 0.331594 0.189802 0.500912
O O12 0.500000 0.000000 0.500000
O O13 0.760952 0.653266 0.199778
#
# Coordination Sequence:
#
# PCOD8124818 Si02
#       6
#     4   4   4   4   4   4
#     4  10  22  37  61  89 119 152 189 235 296 350
#     4  11  26  43  58  80 116 161 209 245 273 325
#     4  10  20  34  58  93 125 147 177 233 301 362
#     4  11  20  32  61  93 122 141 177 230 300 363
#     4  11  21  38  59  89 119 155 188 234 295 350
#     4  11  21  37  62  85 119 150 192 239 296 347
#
# _framework density 19.243493999999998
#
# number of rings (size 3 to 8) (size 9 to 14) (size 15 to 20)
#    0.000    1.333    3.333    5.000    2.333    4.000 
#    0.000    0.833    0.000    0.000    0.000    0.000 
#    0.000    0.000    0.000    0.000    0.000    0.000 
#
# Total GULP energy -297413.725369 kJ/mol
# GULP energy per Si atom -12392.238557 kJ/mol
# Density = 1.919969 g / cm^3
# Si number density = 19.243494 Si / 1000 Ang^3
#
#
#
# Elastic Constant Matrix: (Units=GPa)
#
#
# Indices 1 2 3 4 5 6 
#
# 1 108.5587 50.9528 66.4950 0.0000 -16.2324 0.0000
# 2 50.9528 113.5845 43.1817 0.0000 -8.0498 0.0000
# 3 66.4950 43.1817 102.5316 0.0000 3.0557 0.0000
# 4 0.0000 0.0000 0.0000 27.9984 0.0000 -3.4163
# 5 -16.2324 -8.0498 3.0557 0.0000 21.5634 0.0000
# 6 0.0000 0.0000 0.0000 -3.4163 0.0000 17.0258
#
#
#
# Elastic Compliance Matrix: (Units=1/GPa)
#
#
# Indices 1 2 3 4 5 6 
#
# 1 0.021047 -0.003463 -0.012679 0.000000 0.016348 0.000000
# 2 -0.003463 0.011518 -0.002667 0.000000 0.002071 0.000000
# 3 -0.012679 -0.002667 0.019495 0.000000 -0.013302 0.000000
# 4 0.000000 0.000000 0.000000 0.036613 0.000000 0.007346
# 5 0.016348 0.002071 -0.013302 0.000000 0.061339 0.000000
# 6 0.000000 0.000000 0.000000 0.007346 0.000000 0.060209
#
#
# Mechanical properties :
#
#
# Convention : Reuss Voigt Hill
#
# Bulk Modulus (GPa) = 69.23365 71.77041 70.50203
# Shear Modulus (GPa) = 19.79001 24.25389 22.02195
#
# Velocity S-wave (km/s) = 3.21035 3.55402 3.38654
# Velocity P-wave (km/s) = 7.05674 7.36331 7.21165
#
# Compressibility (1/GPa) = 0.01444384
#
# Stress axis : x y z
#
# Youngs Moduli (GPa) = 47.51160 86.82017 51.29469
#
# Poissons Ratio (x) = 0.30066 0.65035
# Poissons Ratio (y) = 0.16453 0.13679
# Poissons Ratio (z) = 0.60239 0.23153
#
# Static dielectric constant tensor:
#      x y z
#    x 3.206780 0.000000 -0.074200 
#    y 0.000000 3.878280 0.000000 
#    z -0.074200 0.000000 3.605370 
# 
# 
# High freq. dielectric constant tensor:
#      x y z
#    x 1.708310 0.000000 -0.008490 
#    y 0.000000 1.769390 0.000000 
#    z -0.008490 0.000000 1.761080 
# 
# From -- ./inp_files/28088.got.cif
#   From: 2010.03.12/outbox.cif.g09.slc.cpg/sg14_15_cif.got.tgz:28088.got - 2010.03.31 13:35:05.
