data_PCOD8124139
_publ_section_title
;
Structure prediction by ZEFSAII (Michael W. Deem and Ramdas Pophale) SiO2 
 PCOD8124139
Probable space group: P 21/C
;
_chemical_formula_sum "Si O2"
_cell_formula_units_Z 28
_cell_length_a 15.091234
_cell_length_b 12.551355
_cell_length_c 8.496236
_cell_angle_alpha 90.000000
_cell_angle_beta 112.968617
_cell_angle_gamma 90.000000
_cell_volume 1481.729452
_symmetry_space_group_name_H-M "P 21/C"
_symmetry_group_IT_number 14
_symmetry_cell_setting 'monoclinic'
loop_
_space_group_symop_operation_xyz
x,y,z
-x,1/2+y,1/2-z
-x,-y,-z
x,1/2-y,1/2+z
loop_
_atom_site_type_symbol
_atom_site_label
_atom_site_fract_x
_atom_site_fract_y
_atom_site_fract_z
Si Si1 0.931276 0.128643 0.163987
Si Si2 0.377650 0.803436 0.474483
Si Si3 0.460890 0.628327 0.328479
Si Si4 0.957816 0.738489 0.518778
Si Si5 0.866719 0.895877 0.218666
Si Si6 0.272624 0.638569 0.615884
Si Si7 0.342767 0.034441 0.949655
O O1 0.952149 0.212181 0.320068
O O2 0.921698 0.008393 0.224088
O O3 0.836314 0.161606 0.004379
O O4 0.012766 0.146987 0.087022
O O5 0.443594 0.743010 0.394466
O O6 0.444616 0.879996 0.628091
O O7 0.332560 0.729926 0.575147
O O8 0.292292 0.861393 0.317679
O O9 0.572846 0.612602 0.441148
O O10 0.385581 0.544402 0.348482
O O11 0.910656 0.841148 0.403385
O O12 0.880951 0.681271 0.578882
O O13 0.753172 0.907549 0.180094
O O14 0.308241 0.524828 0.582209
#
# Coordination Sequence:
#
# PCOD8124139 Si02
#       7
#     4   4   4   4   4   4   4
#     4  10  19  35  55  77 106 137 173 220 261 304
#     4   9  17  30  49  74  99 125 167 210 251 305
#     4   9  18  33  51  72  99 131 164 206 256 306
#     4  10  21  35  55  78 104 140 178 210 261 316
#     4  10  21  37  53  76 107 138 175 218 257 307
#     4   9  17  30  49  73  98 128 166 210 255 301
#     4   9  19  34  50  70 101 133 164 207 258 304
#
# _framework density 18.896836
#
# number of rings (size 3 to 8) (size 9 to 14) (size 15 to 20)
#    0.000    2.571    0.000    1.714    0.000    2.857 
#    0.000    7.143    0.000    0.000    0.000    0.000 
#    0.000    0.000    0.000    0.000    0.000    0.000 
#
# Total GULP energy -346906.036209 kJ/mol
# GULP energy per Si atom -12389.501293 kJ/mol
# Density = 1.885383 g / cm^3
# Si number density = 18.896836 Si / 1000 Ang^3
#
#
#
# Elastic Constant Matrix: (Units=GPa)
#
#
# Indices 1 2 3 4 5 6 
#
# 1 84.4941 26.1688 40.6861 0.0000 17.8908 0.0000
# 2 26.1688 60.9891 38.2462 0.0000 11.5561 0.0000
# 3 40.6861 38.2462 139.9326 0.0000 9.5423 0.0000
# 4 0.0000 0.0000 0.0000 70.1658 0.0000 -52.5858
# 5 17.8908 11.5561 9.5423 0.0000 26.7814 0.0000
# 6 0.0000 0.0000 0.0000 -52.5858 0.0000 95.8539
#
#
#
# Elastic Compliance Matrix: (Units=1/GPa)
#
#
# Indices 1 2 3 4 5 6 
#
# 1 0.016164 -0.003361 -0.003222 0.000000 -0.008200 0.000000
# 2 -0.003361 0.021764 -0.004596 0.000000 -0.005508 0.000000
# 3 -0.003222 -0.004596 0.009283 0.000000 0.000828 0.000000
# 4 0.000000 0.000000 0.000000 0.024203 0.000000 0.013278
# 5 -0.008200 -0.005508 0.000828 0.000000 0.044899 0.000000
# 6 0.000000 0.000000 0.000000 0.013278 0.000000 0.017717
#
#
# Mechanical properties :
#
#
# Convention : Reuss Voigt Hill
#
# Bulk Modulus (GPa) = 40.23659 55.06867 47.65263
# Shear Modulus (GPa) = 30.36352 50.58119 40.47235
#
# Velocity S-wave (km/s) = 4.01284 5.17930 4.63293
# Velocity P-wave (km/s) = 6.54290 8.06051 7.34103
#
# Compressibility (1/GPa) = 0.02485300
#
# Stress axis : x y z
#
# Youngs Moduli (GPa) = 61.86679 45.94694 107.72757
#
# Poissons Ratio (x) = 0.15445 0.34708
# Poissons Ratio (y) = 0.20796 0.49507
# Poissons Ratio (z) = 0.19932 0.21115
#
# Static dielectric constant tensor:
#      x y z
#    x 3.374270 0.000000 0.079530 
#    y 0.000000 3.373230 0.000000 
#    z 0.079530 0.000000 3.781050 
# 
# 
# High freq. dielectric constant tensor:
#      x y z
#    x 1.722600 0.000000 0.001630 
#    y 0.000000 1.719240 0.000000 
#    z 0.001630 0.000000 1.749150 
# 
# From -- ./inp_files/12805.got.cif
#   From: 2010.03.12/outbox.cif.g09.slc.cpg/sg14_7_cif.got.tgz:12805.got - 2010.03.31 13:35:05.
