data_PCOD8124477
_publ_section_title
;
Structure prediction by ZEFSAII (Michael W. Deem and Ramdas Pophale) SiO2 
 PCOD8124477
Probable space group: P 21/C
;
_chemical_formula_sum "Si O2"
_cell_formula_units_Z 28
_cell_length_a 5.469882
_cell_length_b 14.357587
_cell_length_c 18.206628
_cell_angle_alpha 90.000000
_cell_angle_beta 124.448899
_cell_angle_gamma 90.000000
_cell_volume 1179.094475
_symmetry_space_group_name_H-M "P 21/C"
_symmetry_group_IT_number 14
_symmetry_cell_setting 'monoclinic'
loop_
_space_group_symop_operation_xyz
x,y,z
-x,1/2+y,1/2-z
-x,-y,-z
x,1/2-y,1/2+z
loop_
_atom_site_type_symbol
_atom_site_label
_atom_site_fract_x
_atom_site_fract_y
_atom_site_fract_z
Si Si1 0.845068 0.669475 0.105223
Si Si2 0.397464 0.887466 0.631046
Si Si3 0.399570 0.473269 0.581424
Si Si4 0.804623 0.617295 0.586532
Si Si5 0.616864 0.453592 0.267647
Si Si6 0.329494 0.233469 0.717569
Si Si7 0.770903 0.190484 0.184689
O O1 0.528144 0.620210 0.070125
O O2 0.769603 0.773604 0.067360
O O3 0.035775 0.616143 0.073921
O O4 0.037395 0.660764 0.212201
O O5 0.523698 0.984395 0.683331
O O6 0.504790 0.795928 0.693490
O O7 0.505174 0.573548 0.568931
O O8 0.136536 0.432466 0.483879
O O9 0.321691 0.477172 0.653789
O O10 0.673757 0.400322 0.622515
O O11 0.071622 0.600881 0.689990
O O12 0.370066 0.375771 0.242959
O O13 0.475486 0.253730 0.662025
O O14 0.975817 0.251020 0.662612
#
# Coordination Sequence:
#
# PCOD8124477 Si02
#       7
#     4   4   4   4   4   4   4
#     4  10  19  38  53  79 115 152 198 237 275 355
#     4  10  20  34  58  79 115 148 200 244 282 338
#     4  11  23  36  56  88 127 160 188 237 311 377
#     4  11  23  36  56  88 127 160 188 237 311 377
#     4  12  21  36  60  88 123 156 194 258 295 360
#     4  10  20  34  58  79 115 148 200 244 282 338
#     4  10  19  38  53  79 115 152 198 237 275 355
#
# _framework density 23.747036000000001
#
# number of rings (size 3 to 8) (size 9 to 14) (size 15 to 20)
#    0.000    1.429    5.714    3.857    0.000    0.000 
#    0.000    0.000    0.000    0.000    0.000    6.000 
#    0.000    0.000    0.000    0.000    0.000    0.000 
#
# Total GULP energy -346982.995379 kJ/mol
# GULP energy per Si atom -12392.249835 kJ/mol
# Density = 2.369299 g / cm^3
# Si number density = 23.747036 Si / 1000 Ang^3
#
#
#
# Elastic Constant Matrix: (Units=GPa)
#
#
# Indices 1 2 3 4 5 6 
#
# 1 184.1792 16.9036 1.1878 0.0000 -7.7295 0.0000
# 2 16.9036 63.7722 5.4393 0.0000 4.8647 0.0000
# 3 1.1878 5.4393 13.8576 0.0000 2.8455 0.0000
# 4 0.0000 0.0000 0.0000 27.7624 0.0000 1.8259
# 5 -7.7295 4.8647 2.8455 0.0000 18.6067 0.0000
# 6 0.0000 0.0000 0.0000 1.8259 0.0000 25.7791
#
#
#
# Elastic Compliance Matrix: (Units=1/GPa)
#
#
# Indices 1 2 3 4 5 6 
#
# 1 0.005709 -0.001697 -0.000414 0.000000 0.002879 0.000000
# 2 -0.001697 0.016936 -0.005625 0.000000 -0.004273 0.000000
# 3 -0.000414 -0.005625 0.076543 0.000000 -0.010407 0.000000
# 4 0.000000 0.000000 0.000000 0.036189 0.000000 -0.002563
# 5 0.002879 -0.004273 -0.010407 0.000000 0.057649 0.000000
# 6 0.000000 0.000000 0.000000 -0.002563 0.000000 0.038973
#
#
# Mechanical properties :
#
#
# Convention : Reuss Voigt Hill
#
# Bulk Modulus (GPa) = 11.94524 34.31892 23.13208
# Shear Modulus (GPa) = 18.15697 30.31484 24.23591
#
# Velocity S-wave (km/s) = 2.76814 3.57679 3.19813
# Velocity P-wave (km/s) = 3.90614 5.61615 4.83731
#
# Compressibility (1/GPa) = 0.08371533
#
# Stress axis : x y z
#
# Youngs Moduli (GPa) = 175.16924 59.04425 13.06455
#
# Poissons Ratio (x) = 0.10022 0.00541
# Poissons Ratio (y) = 0.29734 0.07349
# Poissons Ratio (z) = 0.07255 0.33211
#
# Static dielectric constant tensor:
#      x y z
#    x 5.503010 0.000000 -0.027060 
#    y 0.000000 4.135750 0.000000 
#    z -0.027060 0.000000 3.710530 
# 
# 
# High freq. dielectric constant tensor:
#      x y z
#    x 1.957370 0.000000 -0.001980 
#    y 0.000000 1.933270 0.000000 
#    z -0.001980 0.000000 1.876310 
# 
# From -- ./inp_files/53178.got.cif
#   From: 2010.03.12/outbox.cif.g09.slc.cpg/sg14_27_cif.got.tgz:53178.got - 2010.03.31 13:35:05.
