data_PCOD8124288
_publ_section_title
;
Structure prediction by ZEFSAII (Michael W. Deem and Ramdas Pophale) SiO2 
 PCOD8124288
Probable space group: P 21/C
;
_chemical_formula_sum "Si O2"
_cell_formula_units_Z 32
_cell_length_a 8.657601
_cell_length_b 8.843835
_cell_length_c 23.951172
_cell_angle_alpha 90.000000
_cell_angle_beta 54.942628
_cell_angle_gamma 90.000000
_cell_volume 1501.151974
_symmetry_space_group_name_H-M "P 21/C"
_symmetry_group_IT_number 14
_symmetry_cell_setting 'monoclinic'
loop_
_space_group_symop_operation_xyz
x,y,z
-x,1/2+y,1/2-z
-x,-y,-z
x,1/2-y,1/2+z
loop_
_atom_site_type_symbol
_atom_site_label
_atom_site_fract_x
_atom_site_fract_y
_atom_site_fract_z
Si Si1 0.602016 0.829571 0.574837
Si Si2 0.974485 0.668953 0.526215
Si Si3 0.560102 0.831141 0.971405
Si Si4 0.790147 0.400092 0.809084
Si Si5 0.997513 0.284457 0.350202
Si Si6 0.677553 0.716198 0.792433
Si Si7 0.326587 0.671449 0.923929
Si Si8 0.123136 0.093805 0.167813
O O1 0.757314 0.713626 0.565048
O O2 0.538489 0.784212 0.526335
O O3 0.414958 0.820858 0.652210
O O4 0.686737 0.997219 0.556313
O O5 0.034503 0.695315 0.577820
O O6 0.000000 0.500000 0.500000
O O7 0.113118 0.771012 0.459325
O O8 0.424951 0.771931 0.950917
O O9 0.781807 0.829974 0.906568
O O10 0.500000 0.000000 0.000000
O O11 0.762640 0.581163 0.813589
O O12 0.899205 0.365380 0.845050
O O13 0.915052 0.344933 0.729432
O O14 0.224298 0.289221 0.289156
O O15 0.888043 0.415464 0.339659
O O16 0.449241 0.696493 0.840909
O O17 0.735983 0.874227 0.809470
#
# Coordination Sequence:
#
# PCOD8124288 Si02
#       8
#     4   4   4   4   4   4   4   4
#     4  11  22  37  56  81 111 149 189 230 279 338
#     4  12  25  39  55  80 116 155 190 233 288 345
#     4  11  20  34  60  90 115 145 187 234 285 336
#     4   9  18  35  59  81 107 142 186 236 280 329
#     4  10  19  36  58  83 112 146 184 227 279 340
#     4   8  18  35  59  86 109 137 183 237 283 330
#     4  10  21  39  58  79 110 146 187 237 281 332
#     4   9  17  31  55  84 111 138 178 232 280 326
#
# _framework density 21.316965
#
# number of rings (size 3 to 8) (size 9 to 14) (size 15 to 20)
#    0.000    2.000    0.000    4.500    0.000    3.000 
#    0.000    6.250    0.000    0.000    0.000    0.000 
#    0.000    0.000    0.000    0.000    0.000    0.000 
#
# Total GULP energy -396451.211514 kJ/mol
# GULP energy per Si atom -12389.100360 kJ/mol
# Density = 2.126845 g / cm^3
# Si number density = 21.316965 Si / 1000 Ang^3
#
#
#
# Elastic Constant Matrix: (Units=GPa)
#
#
# Indices 1 2 3 4 5 6 
#
# 1 51.2815 12.5677 30.8228 0.0000 -18.8621 0.0000
# 2 12.5677 67.2880 29.1534 0.0000 -8.0099 0.0000
# 3 30.8228 29.1534 147.3195 0.0000 -33.5630 0.0000
# 4 0.0000 0.0000 0.0000 27.8332 0.0000 -4.2555
# 5 -18.8621 -8.0099 -33.5630 0.0000 31.0755 0.0000
# 6 0.0000 0.0000 0.0000 -4.2555 0.0000 29.1285
#
#
#
# Elastic Compliance Matrix: (Units=1/GPa)
#
#
# Indices 1 2 3 4 5 6 
#
# 1 0.026105 -0.002455 -0.002003 0.000000 0.013049 0.000000
# 2 -0.002455 0.016507 -0.002816 0.000000 -0.000277 0.000000
# 3 -0.002003 -0.002816 0.009712 0.000000 0.008547 0.000000
# 4 0.000000 0.000000 0.000000 0.036749 0.000000 0.005369
# 5 0.013049 -0.000277 0.008547 0.000000 0.049260 0.000000
# 6 0.000000 0.000000 0.000000 0.005369 0.000000 0.035115
#
#
# Mechanical properties :
#
#
# Convention : Reuss Voigt Hill
#
# Bulk Modulus (GPa) = 26.47152 45.66409 36.06781
# Shear Modulus (GPa) = 24.92661 30.49709 27.71185
#
# Velocity S-wave (km/s) = 3.42326 3.78650 3.60945
# Velocity P-wave (km/s) = 5.29811 6.37061 5.85895
#
# Compressibility (1/GPa) = 0.03777644
#
# Stress axis : x y z
#
# Youngs Moduli (GPa) = 38.30618 60.57988 102.96908
#
# Poissons Ratio (x) = 0.14870 0.20627
# Poissons Ratio (y) = 0.09402 0.28997
# Poissons Ratio (z) = 0.07674 0.17060
#
# Static dielectric constant tensor:
#      x y z
#    x 3.486520 0.000000 -0.461750 
#    y 0.000000 3.844660 0.000000 
#    z -0.461750 0.000000 4.571970 
# 
# 
# High freq. dielectric constant tensor:
#      x y z
#    x 1.783770 0.000000 -0.033090 
#    y 0.000000 1.835190 0.000000 
#    z -0.033090 0.000000 1.865100 
# 
# From -- ./inp_files/76344.got.cif
#   From: 2010.03.12/outbox.cif.g09.slc.cpg/sg14_39_cif.got.tgz:76344.got - 2010.03.31 13:35:05.
