data_PCOD8124939
_publ_section_title
;
Structure prediction by ZEFSAII (Michael W. Deem and Ramdas Pophale) SiO2 
 PCOD8124939
Probable space group: P 21/C
;
_chemical_formula_sum "Si O2"
_cell_formula_units_Z 28
_cell_length_a 6.646800
_cell_length_b 20.383731
_cell_length_c 8.195504
_cell_angle_alpha 90.000000
_cell_angle_beta 98.170488
_cell_angle_gamma 90.000000
_cell_volume 1099.109986
_symmetry_space_group_name_H-M "P 21/C"
_symmetry_group_IT_number 14
_symmetry_cell_setting 'monoclinic'
loop_
_space_group_symop_operation_xyz
x,y,z
-x,1/2+y,1/2-z
-x,-y,-z
x,1/2-y,1/2+z
loop_
_atom_site_type_symbol
_atom_site_label
_atom_site_fract_x
_atom_site_fract_y
_atom_site_fract_z
Si Si1 0.270690 0.049991 0.480343
Si Si2 0.105385 0.798623 0.699154
Si Si3 0.536890 0.204815 0.033756
Si Si4 0.215386 0.123443 0.167467
Si Si5 0.824858 0.089940 0.531485
Si Si6 0.015740 0.843416 0.164500
Si Si7 0.611864 0.670515 0.821500
O O1 0.256791 0.059042 0.281293
O O2 0.428502 0.101041 0.587446
O O3 0.051600 0.062733 0.534192
O O4 0.328471 0.972626 0.516702
O O5 0.232666 0.792462 0.880092
O O6 0.223332 0.849161 0.593118
O O7 0.089480 0.727997 0.610196
O O8 0.880868 0.824324 0.716505
O O9 0.426853 0.147726 0.121490
O O10 0.415442 0.272768 0.046118
O O11 0.546036 0.185281 0.843877
O O12 0.060406 0.112485 0.997147
O O13 0.809296 0.117257 0.716315
O O14 0.837999 0.828125 0.275359
#
# Coordination Sequence:
#
# PCOD8124939 Si02
#       7
#     4   4   4   4   4   4   4
#     4   9  19  40  62  84 125 166 203 243 300 365
#     4  11  22  37  61  89 124 152 201 251 304 356
#     4  11  23  36  60  91 118 155 201 251 305 352
#     4  10  21  38  59  88 120 159 199 250 296 358
#     4   9  20  37  63  91 120 166 201 245 306 357
#     4  10  20  35  62  92 121 154 200 253 303 353
#     4  10  21  37  59  87 122 160 198 246 304 358
#
# _framework density 25.475156999999999
#
# number of rings (size 3 to 8) (size 9 to 14) (size 15 to 20)
#    0.000    2.000    1.429    1.714   12.000    0.571 
#    0.000    2.857    0.000    0.000    0.000    0.000 
#    0.000    0.000    0.000    0.000    0.000    0.000 
#
# Total GULP energy -347120.647639 kJ/mol
# GULP energy per Si atom -12397.165987 kJ/mol
# Density = 2.541717 g / cm^3
# Si number density = 25.475157 Si / 1000 Ang^3
#
#
#
# Elastic Constant Matrix: (Units=GPa)
#
#
# Indices 1 2 3 4 5 6 
#
# 1 20.4521 12.0648 18.3464 0.0000 -1.0770 0.0000
# 2 12.0648 168.8489 82.1260 0.0000 -2.7160 0.0000
# 3 18.3464 82.1260 157.8684 0.0000 7.4458 0.0000
# 4 0.0000 0.0000 0.0000 36.5922 0.0000 3.3223
# 5 -1.0770 -2.7160 7.4458 0.0000 41.8617 0.0000
# 6 0.0000 0.0000 0.0000 3.3223 0.0000 31.7302
#
#
#
# Elastic Compliance Matrix: (Units=1/GPa)
#
#
# Indices 1 2 3 4 5 6 
#
# 1 0.054975 -0.000972 -0.005997 0.000000 0.002418 0.000000
# 2 -0.000972 0.008012 -0.004113 0.000000 0.001226 0.000000
# 3 -0.005997 -0.004113 0.009269 0.000000 -0.002070 0.000000
# 4 0.000000 0.000000 0.000000 0.027590 0.000000 -0.002889
# 5 0.002418 0.001226 -0.002070 0.000000 0.024398 0.000000
# 6 0.000000 0.000000 0.000000 -0.002889 0.000000 0.031818
#
#
# Mechanical properties :
#
#
# Convention : Reuss Voigt Hill
#
# Bulk Modulus (GPa) = 19.96358 63.58267 41.77313
# Shear Modulus (GPa) = 25.65099 37.67897 31.66498
#
# Velocity S-wave (km/s) = 3.17661 3.85001 3.52941
# Velocity P-wave (km/s) = 4.61606 6.69151 5.74823
#
# Compressibility (1/GPa) = 0.05009121
#
# Stress axis : x y z
#
# Youngs Moduli (GPa) = 18.19002 124.81097 107.89186
#
# Poissons Ratio (x) = 0.12137 0.64703
# Poissons Ratio (y) = 0.01769 0.44375
# Poissons Ratio (z) = 0.10909 0.51333
#
# Static dielectric constant tensor:
#      x y z
#    x 4.505290 0.000000 -0.027620 
#    y 0.000000 4.778560 0.000000 
#    z -0.027620 0.000000 4.703830 
# 
# 
# High freq. dielectric constant tensor:
#      x y z
#    x 2.037870 0.000000 -0.009160 
#    y 0.000000 1.992230 0.000000 
#    z -0.009160 0.000000 2.023090 
# 
# From -- ./inp_files/9532.got.cif
#   From: 2010.03.12/outbox.cif.g09.slc.cpg/sg14_5_cif.got.tgz:9532.got - 2010.03.31 13:35:05.
