data_PCOD8124015
_publ_section_title
;
Structure prediction by ZEFSAII (Michael W. Deem and Ramdas Pophale) SiO2 
 PCOD8124015
Probable space group: P 21/C
;
_chemical_formula_sum "Si O2"
_cell_formula_units_Z 32
_cell_length_a 9.051919
_cell_length_b 25.026235
_cell_length_c 14.699404
_cell_angle_alpha 90.000000
_cell_angle_beta 29.903696
_cell_angle_gamma 90.000000
_cell_volume 1660.118546
_symmetry_space_group_name_H-M "P 21/C"
_symmetry_group_IT_number 14
_symmetry_cell_setting 'monoclinic'
loop_
_space_group_symop_operation_xyz
x,y,z
-x,1/2+y,1/2-z
-x,-y,-z
x,1/2-y,1/2+z
loop_
_atom_site_type_symbol
_atom_site_label
_atom_site_fract_x
_atom_site_fract_y
_atom_site_fract_z
Si Si1 0.654898 0.508041 0.011899
Si Si2 0.798398 0.394704 0.997256
Si Si3 0.732285 0.318317 0.866706
Si Si4 0.288227 0.548871 0.623793
Si Si5 0.406313 0.288736 0.529939
Si Si6 0.547620 0.880740 0.643197
Si Si7 0.235442 0.637849 0.783923
Si Si8 0.525409 0.624324 0.360157
O O1 0.976534 0.525154 0.811716
O O2 0.500000 0.500000 0.000000
O O3 0.651737 0.453381 0.071339
O O4 0.512719 0.555273 0.148226
O O5 0.682415 0.358117 0.977466
O O6 0.705117 0.366076 0.140574
O O7 0.151214 0.402636 0.804925
O O8 0.485416 0.272500 0.006623
O O9 0.675664 0.351135 0.805046
O O10 0.061043 0.293733 0.688674
O O11 0.500000 0.500000 0.500000
O O12 0.391916 0.587415 0.650951
O O13 0.288308 0.583882 0.531204
O O14 0.608309 0.308992 0.337906
O O15 0.478199 0.319733 0.584761
O O16 0.437942 0.865755 0.802647
O O17 0.885271 0.861220 0.447438
#
# Coordination Sequence:
#
# PCOD8124015 Si02
#       8
#     4   4   4   4   4   4   4   4
#     4  11  21  35  55  86 124 157 187 235 284 337
#     4  10  20  37  60  86 118 152 193 231 288 341
#     4  11  22  40  62  82 113 150 187 244 289 343
#     4  10  19  33  58  80 117 156 194 226 274 338
#     4  10  22  41  61  83 114 146 191 242 293 337
#     4  10  21  37  60  86 119 152 194 233 284 342
#     4   9  21  37  58  87 113 151 193 233 281 343
#     4   9  20  38  59  87 113 152 198 235 278 346
#
# _framework density 19.275731
#
# number of rings (size 3 to 8) (size 9 to 14) (size 15 to 20)
#    0.000    2.000    2.500    0.750    1.750    2.500 
#    2.250    3.125    0.000    0.000    0.000    0.000 
#    0.000    0.000    0.000    0.000    0.000    0.000 
#
# Total GULP energy -396808.542557 kJ/mol
# GULP energy per Si atom -12400.266955 kJ/mol
# Density = 1.923186 g / cm^3
# Si number density = 19.275731 Si / 1000 Ang^3
#
#
#
# Elastic Constant Matrix: (Units=GPa)
#
#
# Indices 1 2 3 4 5 6 
#
# 1 139.2091 57.4756 33.7066 0.0000 22.9469 0.0000
# 2 57.4756 117.6624 34.7819 0.0000 1.9532 0.0000
# 3 33.7066 34.7819 53.1511 0.0000 20.1316 0.0000
# 4 0.0000 0.0000 0.0000 19.6911 0.0000 -6.3577
# 5 22.9469 1.9532 20.1316 0.0000 30.1722 0.0000
# 6 0.0000 0.0000 0.0000 -6.3577 0.0000 23.5687
#
#
#
# Elastic Compliance Matrix: (Units=1/GPa)
#
#
# Indices 1 2 3 4 5 6 
#
# 1 0.010539 -0.004777 -0.000855 0.000000 -0.007136 0.000000
# 2 -0.004777 0.013361 -0.009050 0.000000 0.008806 0.000000
# 3 -0.000855 -0.009050 0.033201 0.000000 -0.020916 0.000000
# 4 0.000000 0.000000 0.000000 0.055629 0.000000 0.015006
# 5 -0.007136 0.008806 -0.020916 0.000000 0.051956 0.000000
# 6 0.000000 0.000000 0.000000 0.015006 0.000000 0.046477
#
#
# Mechanical properties :
#
#
# Convention : Reuss Voigt Hill
#
# Bulk Modulus (GPa) = 36.05119 62.43897 49.24508
# Shear Modulus (GPa) = 20.01827 26.95697 23.48762
#
# Velocity S-wave (km/s) = 3.22611 3.74370 3.49450
# Velocity P-wave (km/s) = 5.71144 7.15192 6.47188
#
# Compressibility (1/GPa) = 0.02773834
#
# Stress axis : x y z
#
# Youngs Moduli (GPa) = 94.88690 74.84315 30.11986
#
# Poissons Ratio (x) = 0.35752 0.02574
# Poissons Ratio (y) = 0.45327 0.27257
# Poissons Ratio (z) = 0.08110 0.67731
#
# Static dielectric constant tensor:
#      x y z
#    x 3.478460 0.000000 0.128600 
#    y 0.000000 3.610780 0.000000 
#    z 0.128600 0.000000 3.481530 
# 
# 
# High freq. dielectric constant tensor:
#      x y z
#    x 1.747340 0.000000 0.009320 
#    y 0.000000 1.756300 0.000000 
#    z 0.009320 0.000000 1.741730 
# 
# From -- ./inp_files/11052.got.cif
#   From: 2010.03.12/outbox.cif.g09.slc.cpg/sg14_6_cif.got.tgz:11052.got - 2010.03.31 13:35:05.
