data_PCOD8124084
_publ_section_title
;
Structure prediction by ZEFSAII (Michael W. Deem and Ramdas Pophale) SiO2 
 PCOD8124084
Probable space group: P 21/C
;
_chemical_formula_sum "Si O2"
_cell_formula_units_Z 24
_cell_length_a 14.882307
_cell_length_b 15.680040
_cell_length_c 9.211757
_cell_angle_alpha 90.000000
_cell_angle_beta 147.812142
_cell_angle_gamma 90.000000
_cell_volume 1145.091263
_symmetry_space_group_name_H-M "P 21/C"
_symmetry_group_IT_number 14
_symmetry_cell_setting 'monoclinic'
loop_
_space_group_symop_operation_xyz
x,y,z
-x,1/2+y,1/2-z
-x,-y,-z
x,1/2-y,1/2+z
loop_
_atom_site_type_symbol
_atom_site_label
_atom_site_fract_x
_atom_site_fract_y
_atom_site_fract_z
Si Si1 0.780599 0.165587 0.802855
Si Si2 0.818875 0.821156 0.648947
Si Si3 0.173694 0.161424 0.667471
Si Si4 0.312606 0.512422 0.299104
Si Si5 0.775237 0.168470 0.129895
Si Si6 0.187592 0.503977 0.815736
O O1 0.707397 0.244991 0.611803
O O2 0.713158 0.077033 0.638441
O O3 0.720437 0.169835 0.886770
O O4 0.981122 0.170027 0.060836
O O5 0.747546 0.736211 0.626248
O O6 0.771121 0.812076 0.417100
O O7 0.734188 0.908356 0.597655
O O8 0.974457 0.156387 0.417923
O O9 0.252404 0.069295 0.811294
O O10 0.500000 0.500000 0.500000
O O11 0.313372 0.591565 0.408109
O O12 0.189552 0.526324 0.991313
O O13 0.000000 0.500000 0.500000
#
# Coordination Sequence:
#
# PCOD8124084 Si02
#       6
#     4   4   4   4   4   4
#     4   9  17  31  56  84 107 140 188 234 272 323
#     4   8  16  29  51  82 109 134 180 232 270 315
#     4   9  18  33  54  79 106 143 184 225 271 326
#     4  11  23  38  54  81 118 150 184 233 282 328
#     4  10  19  34  57  84 111 146 189 229 275 334
#     4   9  18  35  56  80 111 147 184 229 275 328
#
# _framework density 20.959026999999999
#
# number of rings (size 3 to 8) (size 9 to 14) (size 15 to 20)
#    0.000    2.667    0.000    2.500    0.000    5.333 
#    0.000    7.500    0.000    0.000    0.000    0.000 
#    0.000    0.000    0.000    0.000    0.000    0.000 
#
# Total GULP energy -297449.390127 kJ/mol
# GULP energy per Si atom -12393.724589 kJ/mol
# Density = 2.091132 g / cm^3
# Si number density = 20.959027 Si / 1000 Ang^3
#
#
#
# Elastic Constant Matrix: (Units=GPa)
#
#
# Indices 1 2 3 4 5 6 
#
# 1 101.5224 91.6926 36.5859 0.0000 -27.5496 0.0000
# 2 91.6926 196.1777 30.8559 0.0000 -33.7312 0.0000
# 3 36.5859 30.8559 37.9981 0.0000 -16.7374 0.0000
# 4 0.0000 0.0000 0.0000 13.7881 0.0000 -19.5061
# 5 -27.5496 -33.7312 -16.7374 0.0000 30.1716 0.0000
# 6 0.0000 0.0000 0.0000 -19.5061 0.0000 48.0366
#
#
#
# Elastic Compliance Matrix: (Units=1/GPa)
#
#
# Indices 1 2 3 4 5 6 
#
# 1 0.023253 -0.007868 -0.013924 0.000000 0.004711 0.000000
# 2 -0.007868 0.009184 0.001953 0.000000 0.004167 0.000000
# 3 -0.013924 0.001953 0.044332 0.000000 0.014062 0.000000
# 4 0.000000 0.000000 0.000000 0.170437 0.000000 0.069209
# 5 0.004711 0.004167 0.014062 0.000000 0.049905 0.000000
# 6 0.000000 0.000000 0.000000 0.069209 0.000000 0.048921
#
#
# Mechanical properties :
#
#
# Convention : Reuss Voigt Hill
#
# Bulk Modulus (GPa) = 26.96091 72.66302 49.81197
# Shear Modulus (GPa) = 12.56052 30.17018 21.36535
#
# Velocity S-wave (km/s) = 2.45069 3.79817 3.19625
# Velocity P-wave (km/s) = 4.57159 7.34705 6.11876
#
# Compressibility (1/GPa) = 0.03709073
#
# Stress axis : x y z
#
# Youngs Moduli (GPa) = 43.00596 108.88307 22.55721
#
# Poissons Ratio (x) = 0.85670 0.31409
# Poissons Ratio (y) = 0.33837 -0.04406
# Poissons Ratio (z) = 0.59882 -0.21267
#
# Static dielectric constant tensor:
#      x y z
#    x 3.560240 0.000000 -0.389920 
#    y 0.000000 4.456310 0.000000 
#    z -0.389920 0.000000 3.592970 
# 
# 
# High freq. dielectric constant tensor:
#      x y z
#    x 1.791460 0.000000 -0.027100 
#    y 0.000000 1.845340 0.000000 
#    z -0.027100 0.000000 1.793820 
# 
# From -- ./inp_files/16332.got.cif
#   From: 2010.03.12/outbox.cif.g09.slc.cpg/sg14_9_cif.got.tgz:16332.got - 2010.03.31 13:35:05.
