data_PCOD8124161
_publ_section_title
;
Structure prediction by ZEFSAII (Michael W. Deem and Ramdas Pophale) SiO2 
 PCOD8124161
Probable space group: P 21/C
;
_chemical_formula_sum "Si O2"
_cell_formula_units_Z 32
_cell_length_a 15.325288
_cell_length_b 19.630873
_cell_length_c 15.066025
_cell_angle_alpha 90.000000
_cell_angle_beta 160.686198
_cell_angle_gamma 90.000000
_cell_volume 1499.118429
_symmetry_space_group_name_H-M "P 21/C"
_symmetry_group_IT_number 14
_symmetry_cell_setting 'monoclinic'
loop_
_space_group_symop_operation_xyz
x,y,z
-x,1/2+y,1/2-z
-x,-y,-z
x,1/2-y,1/2+z
loop_
_atom_site_type_symbol
_atom_site_label
_atom_site_fract_x
_atom_site_fract_y
_atom_site_fract_z
Si Si1 0.277715 0.582870 0.236027
Si Si2 0.624694 0.646275 0.858994
Si Si3 0.990386 0.463112 0.317999
Si Si4 0.741626 0.577709 0.798500
Si Si5 0.044277 0.663748 0.588450
Si Si6 0.922162 0.117412 0.075582
Si Si7 0.521046 0.090191 0.261954
Si Si8 0.518974 0.783520 0.651984
O O1 0.481064 0.610418 0.505043
O O2 0.261401 0.502058 0.220099
O O3 0.378985 0.609687 0.239392
O O4 0.992540 0.612027 0.990013
O O5 0.744125 0.590577 0.906004
O O6 0.558142 0.712836 0.738877
O O7 0.355546 0.618996 0.641683
O O8 0.848940 0.656583 0.149402
O O9 0.975583 0.410414 0.385072
O O10 0.001707 0.538854 0.368153
O O11 0.726655 0.459743 0.006898
O O12 0.237701 0.447189 0.490524
O O13 0.115914 0.654643 0.554601
O O14 0.258471 0.712545 0.841101
O O15 0.766003 0.701806 0.325783
O O16 0.500676 0.161832 0.289648
#
# Coordination Sequence:
#
# PCOD8124161 Si02
#       8
#     4   4   4   4   4   4   4   4
#     4  10  19  35  56  86 113 151 205 240 294 362
#     4  12  25  42  60  90 128 167 204 256 310 358
#     4  10  20  36  64  96 128 155 192 257 324 360
#     4  10  21  35  55  82 121 152 189 254 304 343
#     4  10  22  42  65  91 123 166 199 255 306 372
#     4  12  23  39  66  97 121 156 209 256 308 377
#     4  10  20  37  62  88 120 165 202 250 298 370
#     4  10  23  44  61  82 128 166 206 244 308 359
#
# _framework density 21.345877999999999
#
# number of rings (size 3 to 8) (size 9 to 14) (size 15 to 20)
#    0.000    1.500    0.000    5.625    0.000    2.000 
#    6.750    5.000    0.000    0.000    0.000    0.000 
#    0.000    0.000    0.000    0.000    0.000    0.000 
#
# Total GULP energy -396885.793060 kJ/mol
# GULP energy per Si atom -12402.681033 kJ/mol
# Density = 2.129729 g / cm^3
# Si number density = 21.345878 Si / 1000 Ang^3
#
#
#
# Elastic Constant Matrix: (Units=GPa)
#
#
# Indices 1 2 3 4 5 6 
#
# 1 127.5435 23.4384 50.4147 0.0000 6.4758 0.0000
# 2 23.4384 42.3461 32.1482 0.0000 -2.4643 0.0000
# 3 50.4147 32.1482 126.9046 0.0000 16.8783 0.0000
# 4 0.0000 0.0000 0.0000 23.3176 0.0000 -0.5153
# 5 6.4758 -2.4643 16.8783 0.0000 36.2241 0.0000
# 6 0.0000 0.0000 0.0000 -0.5153 0.0000 14.9961
#
#
#
# Elastic Compliance Matrix: (Units=1/GPa)
#
#
# Indices 1 2 3 4 5 6 
#
# 1 0.009608 -0.003105 -0.002957 0.000000 -0.000551 0.000000
# 2 -0.003105 0.031431 -0.007555 0.000000 0.006214 0.000000
# 3 -0.002957 -0.007555 0.011691 0.000000 -0.005433 0.000000
# 4 0.000000 0.000000 0.000000 0.042919 0.000000 0.001475
# 5 -0.000551 0.006214 -0.005433 0.000000 0.030658 0.000000
# 6 0.000000 0.000000 0.000000 0.001475 0.000000 0.066734
#
#
# Mechanical properties :
#
#
# Convention : Reuss Voigt Hill
#
# Bulk Modulus (GPa) = 39.22269 56.53298 47.87783
# Shear Modulus (GPa) = 21.85562 27.62711 24.74136
#
# Velocity S-wave (km/s) = 3.20328 3.60148 3.40820
# Velocity P-wave (km/s) = 5.66534 6.62088 6.16166
#
# Compressibility (1/GPa) = 0.02549545
#
# Stress axis : x y z
#
# Youngs Moduli (GPa) = 104.08123 31.81587 85.53539
#
# Poissons Ratio (x) = 0.09879 0.25293
# Poissons Ratio (y) = 0.32319 0.64623
# Poissons Ratio (z) = 0.30776 0.24037
#
# Static dielectric constant tensor:
#      x y z
#    x 3.907870 0.000000 0.120570 
#    y 0.000000 3.655940 0.000000 
#    z 0.120570 0.000000 4.265430 
# 
# 
# High freq. dielectric constant tensor:
#      x y z
#    x 1.843800 0.000000 0.006670 
#    y 0.000000 1.820290 0.000000 
#    z 0.006670 0.000000 1.856510 
# 
# From -- ./inp_files/47635.got.cif
#   From: 2010.03.12/outbox.cif.g09.slc.cpg/sg14_24_cif.got.tgz:47635.got - 2010.03.31 13:35:05.
