data_PCOD8124189
_publ_section_title
;
Structure prediction by ZEFSAII (Michael W. Deem and Ramdas Pophale) SiO2 
 PCOD8124189
Probable space group: P 21/C
;
_chemical_formula_sum "Si O2"
_cell_formula_units_Z 28
_cell_length_a 11.903442
_cell_length_b 14.974203
_cell_length_c 8.959731
_cell_angle_alpha 90.000000
_cell_angle_beta 77.519743
_cell_angle_gamma 90.000000
_cell_volume 1559.286468
_symmetry_space_group_name_H-M "P 21/C"
_symmetry_group_IT_number 14
_symmetry_cell_setting 'monoclinic'
loop_
_space_group_symop_operation_xyz
x,y,z
-x,1/2+y,1/2-z
-x,-y,-z
x,1/2-y,1/2+z
loop_
_atom_site_type_symbol
_atom_site_label
_atom_site_fract_x
_atom_site_fract_y
_atom_site_fract_z
Si Si1 0.257900 0.809467 0.338757
Si Si2 0.128676 0.966777 0.476736
Si Si3 0.526007 0.463311 0.829582
Si Si4 0.748508 0.142493 0.336846
Si Si5 0.508333 0.851791 0.193700
Si Si6 0.293056 0.368654 0.874195
Si Si7 0.642836 0.757976 0.898569
O O1 0.159751 0.887091 0.350541
O O2 0.205032 0.715708 0.294826
O O3 0.293427 0.803852 0.503357
O O4 0.372304 0.834111 0.214061
O O5 0.153678 0.929261 0.638191
O O6 0.211750 0.047596 0.413574
O O7 0.000000 0.000000 0.500000
O O8 0.644976 0.410338 0.789840
O O9 0.531422 0.543293 0.709727
O O10 0.426347 0.394911 0.814915
O O11 0.500000 0.500000 0.000000
O O12 0.555964 0.798041 0.321501
O O13 0.570024 0.823891 0.023978
O O14 0.266881 0.312973 0.730796
O O15 0.278569 0.307910 0.025155
#
# Coordination Sequence:
#
# PCOD8124189 Si02
#       7
#     4   4   4   4   4   4   4
#     4  10  19  35  58  85 110 145 193 226 277 337
#     4  10  22  41  61  75 110 153 189 232 283 326
#     4  12  17  32  55  80 119 151 176 218 288 339
#     4  10  20  35  60  84 110 148 184 235 279 336
#     4  11  18  32  52  85 119 152 175 224 280 345
#     4  11  20  39  53  83 112 151 182 226 277 338
#     4  10  22  31  55  83 117 144 182 223 281 340
#
# _framework density 17.956931000000001
#
# number of rings (size 3 to 8) (size 9 to 14) (size 15 to 20)
#    0.857    0.571    5.714    2.571    0.000    0.571 
#    5.143    0.000    0.000    0.857    0.000    0.000 
#    0.000    0.000    0.000    0.000    0.000    0.000 
#
# Total GULP energy -347026.786033 kJ/mol
# GULP energy per Si atom -12393.813787 kJ/mol
# Density = 1.791606 g / cm^3
# Si number density = 17.956931 Si / 1000 Ang^3
#
#
#
# Elastic Constant Matrix: (Units=GPa)
#
#
# Indices 1 2 3 4 5 6 
#
# 1 83.4678 37.5635 17.3027 0.0000 2.5378 0.0000
# 2 37.5635 118.9308 41.8458 0.0000 5.8688 0.0000
# 3 17.3027 41.8458 68.7069 0.0000 8.9544 0.0000
# 4 0.0000 0.0000 0.0000 40.3527 0.0000 4.8451
# 5 2.5378 5.8688 8.9544 0.0000 11.6621 0.0000
# 6 0.0000 0.0000 0.0000 4.8451 0.0000 16.7464
#
#
#
# Elastic Compliance Matrix: (Units=1/GPa)
#
#
# Indices 1 2 3 4 5 6 
#
# 1 0.014027 -0.004056 -0.001034 0.000000 -0.000218 0.000000
# 2 -0.004056 0.011876 -0.006165 0.000000 -0.000360 0.000000
# 3 -0.001034 -0.006165 0.020153 0.000000 -0.012146 0.000000
# 4 0.000000 0.000000 0.000000 0.025673 0.000000 -0.007428
# 5 -0.000218 -0.000360 -0.012146 0.000000 0.095302 0.000000
# 6 0.000000 0.000000 0.000000 -0.007428 0.000000 0.061863
#
#
# Mechanical properties :
#
#
# Convention : Reuss Voigt Hill
#
# Bulk Modulus (GPa) = 42.46896 51.61441 47.04169
# Shear Modulus (GPa) = 19.28623 25.37848 22.33236
#
# Velocity S-wave (km/s) = 3.28079 3.76346 3.53039
# Velocity P-wave (km/s) = 6.16873 6.90585 6.54767
#
# Compressibility (1/GPa) = 0.02354661
#
# Stress axis : x y z
#
# Youngs Moduli (GPa) = 71.29182 84.20277 49.62149
#
# Poissons Ratio (x) = 0.34151 0.05131
# Poissons Ratio (y) = 0.28914 0.30590
# Poissons Ratio (z) = 0.07371 0.51909
#
# Static dielectric constant tensor:
#      x y z
#    x 3.239170 0.000000 0.177160 
#    y 0.000000 3.656890 0.000000 
#    z 0.177160 0.000000 3.262810 
# 
# 
# High freq. dielectric constant tensor:
#      x y z
#    x 1.650210 0.000000 0.013870 
#    y 0.000000 1.717240 0.000000 
#    z 0.013870 0.000000 1.681330 
# 
# From -- ./inp_files/12799.got.cif
#   From: 2010.03.12/outbox.cif.g09.slc.cpg/sg14_7_cif.got.tgz:12799.got - 2010.03.31 13:35:05.
