data_PCOD8124154
_publ_section_title
;
Structure prediction by ZEFSAII (Michael W. Deem and Ramdas Pophale) SiO2 
 PCOD8124154
Probable space group: P 21/C
;
_chemical_formula_sum "Si O2"
_cell_formula_units_Z 24
_cell_length_a 35.540127
_cell_length_b 7.940451
_cell_length_c 10.879835
_cell_angle_alpha 90.000000
_cell_angle_beta 157.646134
_cell_angle_gamma 90.000000
_cell_volume 1167.729527
_symmetry_space_group_name_H-M "P 21/C"
_symmetry_group_IT_number 14
_symmetry_cell_setting 'monoclinic'
loop_
_space_group_symop_operation_xyz
x,y,z
-x,1/2+y,1/2-z
-x,-y,-z
x,1/2-y,1/2+z
loop_
_atom_site_type_symbol
_atom_site_label
_atom_site_fract_x
_atom_site_fract_y
_atom_site_fract_z
Si Si1 0.935758 0.533158 0.684893
Si Si2 0.531296 0.748567 0.092702
Si Si3 0.200405 0.787284 0.099978
Si Si4 0.362099 0.560156 0.686539
Si Si5 0.379768 0.554841 0.009753
Si Si6 0.013344 0.621230 0.422765
O O1 0.835248 0.426574 0.406204
O O2 0.983259 0.476302 0.697383
O O3 0.925002 0.737797 0.646050
O O4 0.000000 0.500000 0.000000
O O5 0.443571 0.709184 0.924960
O O6 0.470042 0.808729 0.786408
O O7 0.604231 0.590437 0.300570
O O8 0.599856 0.899426 0.340880
O O9 0.252595 0.629582 0.326250
O O10 0.277082 0.866067 0.238523
O O11 0.114237 0.721455 0.751279
O O12 0.363968 0.483652 0.827035
O O13 0.000000 0.500000 0.500000
#
# Coordination Sequence:
#
# PCOD8124154 Si02
#       6
#     4   4   4   4   4   4
#     4  10  21  40  63  88 117 152 193 240 296 356
#     4   9  20  34  54  83 109 151 198 232 286 346
#     4  10  22  37  58  89 117 148 192 240 293 353
#     4  10  19  36  57  80 115 151 191 240 288 342
#     4  10  19  35  56  80 115 151 190 241 289 340
#     4  11  23  42  65  88 117 155 196 242 299 358
#
# _framework density 20.552705
#
# number of rings (size 3 to 8) (size 9 to 14) (size 15 to 20)
#    0.000    2.000    0.000    4.000    0.000    2.667 
#    0.000    8.333    0.000    0.000    0.000    0.000 
#    0.000    0.000    0.000    0.000    0.000    0.000 
#
# Total GULP energy -297344.684520 kJ/mol
# GULP energy per Si atom -12389.361855 kJ/mol
# Density = 2.050593 g / cm^3
# Si number density = 20.552705 Si / 1000 Ang^3
#
#
#
# Elastic Constant Matrix: (Units=GPa)
#
#
# Indices 1 2 3 4 5 6 
#
# 1 84.0161 31.6545 36.4862 0.0000 -28.3324 0.0000
# 2 31.6545 121.7893 38.7457 0.0000 3.7562 0.0000
# 3 36.4862 38.7457 80.2539 0.0000 2.3574 0.0000
# 4 0.0000 0.0000 0.0000 36.1185 0.0000 6.1362
# 5 -28.3324 3.7562 2.3574 0.0000 25.2184 0.0000
# 6 0.0000 0.0000 0.0000 6.1362 0.0000 33.8460
#
#
#
# Elastic Compliance Matrix: (Units=1/GPa)
#
#
# Indices 1 2 3 4 5 6 
#
# 1 0.033107 -0.005507 -0.013547 0.000000 0.039282 0.000000
# 2 -0.005507 0.010643 -0.002413 0.000000 -0.007546 0.000000
# 3 -0.013547 -0.002413 0.020276 0.000000 -0.016756 0.000000
# 4 0.000000 0.000000 0.000000 0.028567 0.000000 -0.005179
# 5 0.039282 -0.007546 -0.016756 0.000000 0.086476 0.000000
# 6 0.000000 0.000000 0.000000 -0.005179 0.000000 0.030485
#
#
# Mechanical properties :
#
#
# Convention : Reuss Voigt Hill
#
# Bulk Modulus (GPa) = 47.40891 55.53690 51.47290
# Shear Modulus (GPa) = 19.26650 30.98143 25.12396
#
# Velocity S-wave (km/s) = 3.06505 3.88675 3.50010
# Velocity P-wave (km/s) = 5.97019 6.87189 6.43685
#
# Compressibility (1/GPa) = 0.02109308
#
# Stress axis : x y z
#
# Youngs Moduli (GPa) = 30.20488 93.96253 49.31827
#
# Poissons Ratio (x) = 0.51743 0.66811
# Poissons Ratio (y) = 0.16633 0.11900
# Poissons Ratio (z) = 0.40918 0.22672
#
# Static dielectric constant tensor:
#      x y z
#    x 3.703010 0.000000 0.044810 
#    y 0.000000 4.036940 0.000000 
#    z 0.044810 0.000000 3.694040 
# 
# 
# High freq. dielectric constant tensor:
#      x y z
#    x 1.800250 0.000000 -0.003310 
#    y 0.000000 1.813900 0.000000 
#    z -0.003310 0.000000 1.792980 
# 
# From -- ./inp_files/19969.got.cif
#   From: 2010.03.12/outbox.cif.g09.slc.cpg/sg14_10_cif.got.tgz:19969.got - 2010.03.31 13:35:05.
