data_PCOD8124219
_publ_section_title
;
Structure prediction by ZEFSAII (Michael W. Deem and Ramdas Pophale) SiO2 
 PCOD8124219
Probable space group: P 21/C
;
_chemical_formula_sum "Si O2"
_cell_formula_units_Z 28
_cell_length_a 8.954937
_cell_length_b 28.176793
_cell_length_c 9.095424
_cell_angle_alpha 90.000000
_cell_angle_beta 33.226385
_cell_angle_gamma 90.000000
_cell_volume 1257.525463
_symmetry_space_group_name_H-M "P 21/C"
_symmetry_group_IT_number 14
_symmetry_cell_setting 'monoclinic'
loop_
_space_group_symop_operation_xyz
x,y,z
-x,1/2+y,1/2-z
-x,-y,-z
x,1/2-y,1/2+z
loop_
_atom_site_type_symbol
_atom_site_label
_atom_site_fract_x
_atom_site_fract_y
_atom_site_fract_z
Si Si1 0.271677 0.717745 0.958297
Si Si2 0.022016 0.121420 0.822072
Si Si3 0.542988 0.931786 0.700295
Si Si4 0.242609 0.807250 0.161264
Si Si5 0.169949 0.162824 0.005871
Si Si6 0.699304 0.016768 0.710810
Si Si7 0.577577 0.605384 0.477018
O O1 0.350052 0.770337 0.949845
O O2 0.019875 0.702339 0.266370
O O3 0.162362 0.719308 0.879564
O O4 0.528810 0.683545 0.770175
O O5 0.300801 0.092918 0.562700
O O6 0.035513 0.147156 0.965400
O O7 0.996104 0.161043 0.715390
O O8 0.770503 0.084342 0.031583
O O9 0.587952 0.989295 0.654352
O O10 0.690260 0.919071 0.735890
O O11 0.482268 0.842637 0.006809
O O12 0.184730 0.116225 0.099962
O O13 0.657074 0.074030 0.744411
O O14 0.000000 0.000000 0.500000
O O15 0.500000 0.000000 0.000000
#
# Coordination Sequence:
#
# PCOD8124219 Si02
#       7
#     4   4   4   4   4   4   4
#     4  11  24  40  60  86 117 154 198 246 292 351
#     4  11  22  38  60  85 121 157 195 242 297 355
#     4  10  20  37  60  88 115 154 200 245 293 352
#     4  10  22  40  61  87 116 155 198 243 295 351
#     4  11  24  41  59  87 122 159 197 244 299 351
#     4  10  19  35  60  90 118 152 198 248 293 350
#     4   9  21  39  62  87 118 157 201 246 296 356
#
# _framework density 22.265948999999999
#
# number of rings (size 3 to 8) (size 9 to 14) (size 15 to 20)
#    0.000    1.714    0.000    5.143    0.000   11.429 
#    0.000    1.429    0.000    0.000    0.000    0.000 
#    0.000    0.000    0.000    0.000    0.000    0.000 
#
# Total GULP energy -346918.379700 kJ/mol
# GULP energy per Si atom -12389.942132 kJ/mol
# Density = 2.221527 g / cm^3
# Si number density = 22.265949 Si / 1000 Ang^3
#
#
#
# Elastic Constant Matrix: (Units=GPa)
#
#
# Indices 1 2 3 4 5 6 
#
# 1 99.4646 25.1810 17.0884 0.0000 8.6037 0.0000
# 2 25.1810 76.1953 11.8413 0.0000 -8.9335 0.0000
# 3 17.0884 11.8413 88.4285 0.0000 -9.3328 0.0000
# 4 0.0000 0.0000 0.0000 32.0529 0.0000 -1.7845
# 5 8.6037 -8.9335 -9.3328 0.0000 32.0131 0.0000
# 6 0.0000 0.0000 0.0000 -1.7845 0.0000 10.9355
#
#
#
# Elastic Compliance Matrix: (Units=1/GPa)
#
#
# Indices 1 2 3 4 5 6 
#
# 1 0.011940 -0.004183 -0.002279 0.000000 -0.005041 0.000000
# 2 -0.004183 0.015219 -0.000684 0.000000 0.005172 0.000000
# 3 -0.002279 -0.000684 0.012262 0.000000 0.003997 0.000000
# 4 0.000000 0.000000 0.000000 0.031485 0.000000 0.005138
# 5 -0.005041 0.005172 0.003997 0.000000 0.035200 0.000000
# 6 0.000000 0.000000 0.000000 0.005138 0.000000 0.092284
#
#
# Mechanical properties :
#
#
# Convention : Reuss Voigt Hill
#
# Bulk Modulus (GPa) = 39.79305 41.36774 40.58039
# Shear Modulus (GPa) = 22.61841 28.99882 25.80861
#
# Velocity S-wave (km/s) = 3.19067 3.61277 3.40826
# Velocity P-wave (km/s) = 5.61109 6.00184 5.80975
#
# Compressibility (1/GPa) = 0.02513002
#
# Stress axis : x y z
#
# Youngs Moduli (GPa) = 83.74931 65.70670 81.55001
#
# Poissons Ratio (x) = 0.27484 0.18588
# Poissons Ratio (y) = 0.35031 0.05577
# Poissons Ratio (z) = 0.19089 0.04493
#
# Static dielectric constant tensor:
#      x y z
#    x 4.109750 0.000000 0.209740 
#    y 0.000000 5.006910 0.000000 
#    z 0.209740 0.000000 3.757750 
# 
# 
# High freq. dielectric constant tensor:
#      x y z
#    x 1.863960 0.000000 0.003260 
#    y 0.000000 1.888810 0.000000 
#    z 0.003260 0.000000 1.864460 
# 
# From -- ./inp_files/11316.got.cif
#   From: 2010.03.12/outbox.cif.g09.slc.cpg/sg14_6_cif.got.tgz:11316.got - 2010.03.31 13:35:05.
