data_PCOD8124860
_publ_section_title
;
Structure prediction by ZEFSAII (Michael W. Deem and Ramdas Pophale) SiO2 
 PCOD8124860
Probable space group: P 21/C
;
_chemical_formula_sum "Si O2"
_cell_formula_units_Z 24
_cell_length_a 14.730304
_cell_length_b 9.289722
_cell_length_c 14.783939
_cell_angle_alpha 90.000000
_cell_angle_beta 140.871036
_cell_angle_gamma 90.000000
_cell_volume 1276.676222
_symmetry_space_group_name_H-M "P 21/C"
_symmetry_group_IT_number 14
_symmetry_cell_setting 'monoclinic'
loop_
_space_group_symop_operation_xyz
x,y,z
-x,1/2+y,1/2-z
-x,-y,-z
x,1/2-y,1/2+z
loop_
_atom_site_type_symbol
_atom_site_label
_atom_site_fract_x
_atom_site_fract_y
_atom_site_fract_z
Si Si1 0.693719 0.366225 0.171582
Si Si2 0.187720 0.362463 0.134104
Si Si3 0.102445 0.631323 0.834815
Si Si4 0.128262 0.687240 0.057053
Si Si5 0.832159 0.810849 0.584137
Si Si6 0.369856 0.308845 0.908260
O O1 0.779932 0.323089 0.148011
O O2 0.779483 0.312802 0.325705
O O3 0.674302 0.536881 0.166634
O O4 0.540038 0.289127 0.047855
O O5 0.178158 0.534247 0.135211
O O6 0.314467 0.313200 0.297816
O O7 0.226499 0.312057 0.063134
O O8 0.039441 0.288303 0.050955
O O9 0.087118 0.459815 0.831363
O O10 0.945497 0.683540 0.684584
O O11 0.152646 0.699163 0.968610
O O12 0.695891 0.786571 0.543092
#
# Coordination Sequence:
#
# PCOD8124860 Si02
#       6
#     4   4   4   4   4   4
#     4  10  22  38  55  80 113 144 177 221 271 321
#     4  10  20  35  56  82 109 140 181 224 266 317
#     4  10  20  35  56  80 108 141 180 222 265 317
#     4  10  20  35  56  82 109 140 181 224 266 317
#     4  10  20  35  56  80 108 141 180 222 265 317
#     4  10  22  38  55  80 113 144 177 221 271 321
#
# _framework density 18.798812999999999
#
# number of rings (size 3 to 8) (size 9 to 14) (size 15 to 20)
#    0.000    2.000    3.333    0.000    0.000    4.000 
#    0.000    0.000    0.000    0.000    0.000    0.000 
#    0.000    0.000    0.000    0.000    0.000    0.000 
#
# Total GULP energy -297726.156104 kJ/mol
# GULP energy per Si atom -12405.256504 kJ/mol
# Density = 1.875603 g / cm^3
# Si number density = 18.798813 Si / 1000 Ang^3
#
#
#
# Elastic Constant Matrix: (Units=GPa)
#
#
# Indices 1 2 3 4 5 6 
#
# 1 94.0212 10.8374 21.5238 0.0000 -4.0436 0.0000
# 2 10.8374 17.8481 1.7447 0.0000 -1.4935 0.0000
# 3 21.5238 1.7447 40.6131 0.0000 0.0831 0.0000
# 4 0.0000 0.0000 0.0000 37.8552 0.0000 -3.0894
# 5 -4.0436 -1.4935 0.0831 0.0000 35.1474 0.0000
# 6 0.0000 0.0000 0.0000 -3.0894 0.0000 22.7752
#
#
#
# Elastic Compliance Matrix: (Units=1/GPa)
#
#
# Indices 1 2 3 4 5 6 
#
# 1 0.013024 -0.007162 -0.006597 0.000000 0.001210 0.000000
# 2 -0.007162 0.060406 0.001197 0.000000 0.001740 0.000000
# 3 -0.006597 0.001197 0.028069 0.000000 -0.000774 0.000000
# 4 0.000000 0.000000 0.000000 0.026712 0.000000 0.003623
# 5 0.001210 0.001740 -0.000774 0.000000 0.028667 0.000000
# 6 0.000000 0.000000 0.000000 0.003623 0.000000 0.044399
#
#
# Mechanical properties :
#
#
# Convention : Reuss Voigt Hill
#
# Bulk Modulus (GPa) = 13.09335 24.52160 18.80748
# Shear Modulus (GPa) = 19.85247 27.04732 23.44989
#
# Velocity S-wave (km/s) = 3.25322 3.79724 3.53571
# Velocity P-wave (km/s) = 4.59253 5.68312 5.16668
#
# Compressibility (1/GPa) = 0.07637463
#
# Stress axis : x y z
#
# Youngs Moduli (GPa) = 76.78329 16.55473 35.62656
#
# Poissons Ratio (x) = 0.11856 0.23503
# Poissons Ratio (y) = 0.54992 -0.04265
# Poissons Ratio (z) = 0.50654 -0.01982
#
# Static dielectric constant tensor:
#      x y z
#    x 3.654160 0.000000 -0.089520 
#    y 0.000000 3.348820 0.000000 
#    z -0.089520 0.000000 3.269310 
# 
# 
# High freq. dielectric constant tensor:
#      x y z
#    x 1.742060 0.000000 -0.009520 
#    y 0.000000 1.721680 0.000000 
#    z -0.009520 0.000000 1.720370 
# 
# From -- ./inp_files/39063.got.cif
#   From: 2010.03.12/outbox.cif.g09.slc.cpg/sg14_20_cif.got.tgz:39063.got - 2010.03.31 13:35:05.
