data_PCOD8124663
_publ_section_title
;
Structure prediction by ZEFSAII (Michael W. Deem and Ramdas Pophale) SiO2 
 PCOD8124663
Probable space group: P 21/C
;
_chemical_formula_sum "Si O2"
_cell_formula_units_Z 32
_cell_length_a 8.653549
_cell_length_b 8.818019
_cell_length_c 31.837281
_cell_angle_alpha 90.000000
_cell_angle_beta 138.293118
_cell_angle_gamma 90.000000
_cell_volume 1616.336787
_symmetry_space_group_name_H-M "P 21/C"
_symmetry_group_IT_number 14
_symmetry_cell_setting 'monoclinic'
loop_
_space_group_symop_operation_xyz
x,y,z
-x,1/2+y,1/2-z
-x,-y,-z
x,1/2-y,1/2+z
loop_
_atom_site_type_symbol
_atom_site_label
_atom_site_fract_x
_atom_site_fract_y
_atom_site_fract_z
Si Si1 0.030897 0.651705 0.479828
Si Si2 0.235099 0.389797 0.274195
Si Si3 0.881764 0.377688 0.678377
Si Si4 0.222728 0.582548 0.062893
Si Si5 0.289205 0.762943 0.151159
Si Si6 0.043012 0.043720 0.121312
Si Si7 0.562528 0.341884 0.728843
Si Si8 0.529365 0.700891 0.875269
O O1 0.096801 0.627930 0.444286
O O2 0.784269 0.733212 0.430719
O O3 0.000000 0.500000 0.500000
O O4 0.236247 0.756540 0.541044
O O5 0.127306 0.475730 0.292859
O O6 0.499130 0.330996 0.334460
O O7 0.257498 0.518909 0.242469
O O8 0.078988 0.245371 0.230332
O O9 0.638161 0.289797 0.627365
O O10 0.908269 0.443641 0.637331
O O11 0.196192 0.615314 0.107605
O O12 0.452852 0.475998 0.106502
O O13 0.000000 0.500000 0.000000
O O14 0.373741 0.736216 0.215196
O O15 0.067274 0.872090 0.109696
O O16 0.302190 0.102227 0.180597
O O17 0.575425 0.220250 0.693192
#
# Coordination Sequence:
#
# PCOD8124663 Si02
#       8
#     4   4   4   4   4   4   4   4
#     4  10  19  41  64  85 113 158 222 258 295 350
#     4  10  24  36  59  88 134 166 191 247 310 391
#     4  11  23  40  56  93 131 167 194 238 332 376
#     4  10  22  37  65  88 115 163 214 261 303 344
#     4  11  21  37  64  95 119 158 214 256 305 361
#     4  10  21  36  61  87 119 161 202 258 296 372
#     4   9  20  36  58  91 120 155 206 250 306 353
#     4   9  22  38  59  89 126 156 196 262 308 374
#
# _framework density 19.797854000000001
#
# number of rings (size 3 to 8) (size 9 to 14) (size 15 to 20)
#    0.000    2.000    2.500    0.750    8.750    1.000 
#    0.000    1.250    0.000    0.000    0.000    0.000 
#    0.000    0.000    0.000    0.000    0.000    0.000 
#
# Total GULP energy -396442.553603 kJ/mol
# GULP energy per Si atom -12388.829800 kJ/mol
# Density = 1.975279 g / cm^3
# Si number density = 19.797854 Si / 1000 Ang^3
#
#
#
# Elastic Constant Matrix: (Units=GPa)
#
#
# Indices 1 2 3 4 5 6 
#
# 1 98.4297 27.4800 31.1828 0.0000 -22.6095 0.0000
# 2 27.4800 95.2273 37.1594 0.0000 -9.6550 0.0000
# 3 31.1828 37.1594 86.3488 0.0000 -17.7090 0.0000
# 4 0.0000 0.0000 0.0000 31.0279 0.0000 -1.8431
# 5 -22.6095 -9.6550 -17.7090 0.0000 19.9492 0.0000
# 6 0.0000 0.0000 0.0000 -1.8431 0.0000 30.7537
#
#
#
# Elastic Compliance Matrix: (Units=1/GPa)
#
#
# Indices 1 2 3 4 5 6 
#
# 1 0.014446 -0.002202 -0.001382 0.000000 0.014081 0.000000
# 2 -0.002202 0.012997 -0.004914 0.000000 -0.000568 0.000000
# 3 -0.001382 -0.004914 0.016365 0.000000 0.010583 0.000000
# 4 0.000000 0.000000 0.000000 0.032344 0.000000 0.001938
# 5 0.014081 -0.000568 0.010583 0.000000 0.075205 0.000000
# 6 0.000000 0.000000 0.000000 0.001938 0.000000 0.032633
#
#
# Mechanical properties :
#
#
# Convention : Reuss Voigt Hill
#
# Bulk Modulus (GPa) = 37.29624 52.40557 44.85091
# Shear Modulus (GPa) = 23.81819 28.62508 26.22163
#
# Velocity S-wave (km/s) = 3.47229 3.80658 3.64327
# Velocity P-wave (km/s) = 5.91229 6.77111 6.35622
#
# Compressibility (1/GPa) = 0.02681235
#
# Stress axis : x y z
#
# Youngs Moduli (GPa) = 69.22174 76.94258 61.10547
#
# Poissons Ratio (x) = 0.16944 0.08442
# Poissons Ratio (y) = 0.15243 0.30029
# Poissons Ratio (z) = 0.09563 0.37812
#
# Static dielectric constant tensor:
#      x y z
#    x 3.551210 0.000000 -0.284430 
#    y 0.000000 4.094610 0.000000 
#    z -0.284430 0.000000 6.240100 
# 
# 
# High freq. dielectric constant tensor:
#      x y z
#    x 1.744390 0.000000 -0.012140 
#    y 0.000000 1.787880 0.000000 
#    z -0.012140 0.000000 1.769380 
# 
# From -- ./inp_files/75203.got.cif
#   From: 2010.03.12/outbox.cif.g09.slc.cpg/sg14_38_cif.got.tgz:75203.got - 2010.03.31 13:35:05.
