data_PCOD8124362
_publ_section_title
;
Structure prediction by ZEFSAII (Michael W. Deem and Ramdas Pophale) SiO2 
 PCOD8124362
Probable space group: P 21/C
;
_chemical_formula_sum "Si O2"
_cell_formula_units_Z 24
_cell_length_a 14.402356
_cell_length_b 12.747343
_cell_length_c 11.454313
_cell_angle_alpha 90.000000
_cell_angle_beta 150.323917
_cell_angle_gamma 90.000000
_cell_volume 1041.146169
_symmetry_space_group_name_H-M "P 21/C"
_symmetry_group_IT_number 14
_symmetry_cell_setting 'monoclinic'
loop_
_space_group_symop_operation_xyz
x,y,z
-x,1/2+y,1/2-z
-x,-y,-z
x,1/2-y,1/2+z
loop_
_atom_site_type_symbol
_atom_site_label
_atom_site_fract_x
_atom_site_fract_y
_atom_site_fract_z
Si Si1 0.580781 0.103327 0.644294
Si Si2 0.796754 0.355928 0.984771
Si Si3 0.458719 0.325694 0.466470
Si Si4 0.296532 0.855841 0.984651
Si Si5 0.958531 0.825636 0.466392
Si Si6 0.919372 0.103290 0.855702
O O1 0.442796 0.203827 0.491559
O O2 0.749986 0.145574 0.749817
O O3 0.500000 0.000000 0.500000
O O4 0.641732 0.067323 0.842189
O O5 0.606034 0.390844 0.708958
O O6 0.750111 0.250113 0.000206
O O7 0.858686 0.432811 0.158068
O O8 0.972146 0.338276 0.090411
O O9 0.527991 0.338369 0.409608
O O10 0.250075 0.374979 0.250028
O O11 0.105839 0.890797 0.708860
O O12 0.942562 0.703762 0.491398
O O13 0.000000 0.000000 0.000000
#
# Coordination Sequence:
#
# PCOD8124362 Si02
#       6
#     4   4   4   4   4   4
#     4  11  21  37  56  92 126 152 193 253 303 345
#     4   9  18  37  58  86 123 152 202 249 286 356
#     4  10  19  36  64  88 113 162 202 240 296 356
#     4   9  18  37  58  86 123 152 202 249 286 356
#     4  10  19  36  64  88 113 162 202 240 296 356
#     4  11  21  37  56  92 126 152 193 253 303 345
#
# _framework density 23.051517
#
# number of rings (size 3 to 8) (size 9 to 14) (size 15 to 20)
#    0.000    2.000    6.667    1.000    0.000    5.333 
#    6.000    0.000    0.000    8.000    0.000    0.000 
#    0.000    0.000    0.000    0.000    0.000    0.000 
#
# Total GULP energy -297382.442551 kJ/mol
# GULP energy per Si atom -12390.935106 kJ/mol
# Density = 2.299905 g / cm^3
# Si number density = 23.051517 Si / 1000 Ang^3
#
#
#
# Elastic Constant Matrix: (Units=GPa)
#
#
# Indices 1 2 3 4 5 6 
#
# 1 184.9427 4.1593 107.8555 0.0000 -14.6920 0.0000
# 2 4.1593 44.2635 29.5011 0.0000 -16.2642 0.0000
# 3 107.8555 29.5011 169.1627 0.0000 -6.5882 0.0000
# 4 0.0000 0.0000 0.0000 28.6199 0.0000 -16.4677
# 5 -14.6920 -16.2642 -6.5882 0.0000 57.6648 0.0000
# 6 0.0000 0.0000 0.0000 -16.4677 0.0000 17.7988
#
#
#
# Elastic Compliance Matrix: (Units=1/GPa)
#
#
# Indices 1 2 3 4 5 6 
#
# 1 0.009467 0.004691 -0.006739 0.000000 0.002965 0.000000
# 2 0.004691 0.030783 -0.008010 0.000000 0.008962 0.000000
# 3 -0.006739 -0.008010 0.011501 0.000000 -0.002662 0.000000
# 4 0.000000 0.000000 0.000000 0.074717 0.000000 0.069130
# 5 0.002965 0.008962 -0.002662 0.000000 0.020321 0.000000
# 6 0.000000 0.000000 0.000000 0.069130 0.000000 0.120143
#
#
# Mechanical properties :
#
#
# Convention : Reuss Voigt Hill
#
# Bulk Modulus (GPa) = 31.60992 75.71119 53.66055
# Shear Modulus (GPa) = 16.80143 37.94025 27.37084
#
# Velocity S-wave (km/s) = 2.70268 4.06136 3.44957
# Velocity P-wave (km/s) = 4.84580 7.41003 6.26060
#
# Compressibility (1/GPa) = 0.03163564
#
# Stress axis : x y z
#
# Youngs Moduli (GPa) = 105.62983 32.48533 86.94716
#
# Poissons Ratio (x) = -0.15240 0.58591
# Poissons Ratio (y) = -0.49553 0.69648
# Poissons Ratio (z) = 0.71180 0.26022
#
# Static dielectric constant tensor:
#      x y z
#    x -3.998000 0.000000 3.341150 
#    y 0.000000 3.706850 0.000000 
#    z 3.341150 0.000000 3.305210 
# 
# 
# High freq. dielectric constant tensor:
#      x y z
#    x 1.922250 0.000000 -0.016040 
#    y 0.000000 1.873770 0.000000 
#    z -0.016040 0.000000 1.915300 
# 
# From -- ./inp_files/32657.got.cif
#   From: 2010.03.12/outbox.cif.g09.slc.cpg/sg14_17_cif.got.tgz:32657.got - 2010.03.31 13:35:05.
