data_PCOD8124953
_publ_section_title
;
Structure prediction by ZEFSAII (Michael W. Deem and Ramdas Pophale) SiO2 
 PCOD8124953
Probable space group: P 21/C
;
_chemical_formula_sum "Si O2"
_cell_formula_units_Z 28
_cell_length_a 21.781134
_cell_length_b 8.318758
_cell_length_c 19.893461
_cell_angle_alpha 90.000000
_cell_angle_beta 19.360850
_cell_angle_gamma 90.000000
_cell_volume 1194.963234
_symmetry_space_group_name_H-M "P 21/C"
_symmetry_group_IT_number 14
_symmetry_cell_setting 'monoclinic'
loop_
_space_group_symop_operation_xyz
x,y,z
-x,1/2+y,1/2-z
-x,-y,-z
x,1/2-y,1/2+z
loop_
_atom_site_type_symbol
_atom_site_label
_atom_site_fract_x
_atom_site_fract_y
_atom_site_fract_z
Si Si1 0.951322 0.851990 0.140016
Si Si2 0.677199 0.209118 0.762043
Si Si3 0.142400 0.178865 0.906806
Si Si4 0.481191 0.467329 0.113289
Si Si5 0.634262 0.644583 0.070580
Si Si6 0.762520 0.298268 0.319314
Si Si7 0.510058 0.519771 0.658862
O O1 0.832481 0.875467 0.329869
O O2 0.824862 0.789122 0.207329
O O3 0.058506 0.005415 0.003951
O O4 0.120716 0.731154 0.980666
O O5 0.559904 0.378956 0.893305
O O6 0.704522 0.129371 0.806950
O O7 0.575701 0.077411 0.822274
O O8 0.986209 0.301703 0.096384
O O9 0.334125 0.179191 0.751808
O O10 0.472675 0.548877 0.196314
O O11 0.686645 0.388157 0.896936
O O12 0.638615 0.575655 0.141681
O O13 0.586709 0.832233 0.122843
O O14 0.678997 0.399989 0.466697
#
# Coordination Sequence:
#
# PCOD8124953 Si02
#       7
#     4   4   4   4   4   4   4
#     4   9  18  37  63  96 130 156 205 269 312 383
#     4   9  21  39  64  99 125 161 214 265 329 382
#     4   9  19  34  64 104 122 155 209 257 321 382
#     4  10  20  35  68  94 125 168 204 257 323 389
#     4  11  23  41  63  87 129 178 218 259 326 391
#     4  11  20  39  65  97 131 161 206 272 321 382
#     4  11  25  42  62  87 126 181 217 264 328 388
#
# _framework density 23.431683
#
# number of rings (size 3 to 8) (size 9 to 14) (size 15 to 20)
#    0.000    2.000    1.429    2.571    4.000    0.000 
#    2.571    8.571    3.143    0.000    0.000    0.000 
#    0.000    0.000    0.000    0.000    0.000    0.000 
#
# Total GULP energy -346929.215954 kJ/mol
# GULP energy per Si atom -12390.329141 kJ/mol
# Density = 2.337835 g / cm^3
# Si number density = 23.431683 Si / 1000 Ang^3
#
#
#
# Elastic Constant Matrix: (Units=GPa)
#
#
# Indices 1 2 3 4 5 6 
#
# 1 18.4772 14.4241 10.3480 0.0000 3.0622 0.0000
# 2 14.4241 53.6876 10.2333 0.0000 10.2741 0.0000
# 3 10.3480 10.2333 102.4310 0.0000 11.1618 0.0000
# 4 0.0000 0.0000 0.0000 26.4662 0.0000 5.4482
# 5 3.0622 10.2741 11.1618 0.0000 38.7064 0.0000
# 6 0.0000 0.0000 0.0000 5.4482 0.0000 24.2173
#
#
#
# Elastic Compliance Matrix: (Units=1/GPa)
#
#
# Indices 1 2 3 4 5 6 
#
# 1 0.071312 -0.018267 -0.005465 0.000000 0.000783 0.000000
# 2 -0.018267 0.024510 -0.000053 0.000000 -0.005045 0.000000
# 3 -0.005465 -0.000053 0.010605 0.000000 -0.002612 0.000000
# 4 0.000000 0.000000 0.000000 0.039619 0.000000 -0.008913
# 5 0.000783 -0.005045 -0.002612 0.000000 0.027866 0.000000
# 6 0.000000 0.000000 0.000000 -0.008913 0.000000 0.043298
#
#
# Mechanical properties :
#
#
# Convention : Reuss Voigt Hill
#
# Bulk Modulus (GPa) = 16.99078 27.17854 22.08466
# Shear Modulus (GPa) = 17.58097 27.18399 22.38248
#
# Velocity S-wave (km/s) = 2.74215 3.40978 3.09402
# Velocity P-wave (km/s) = 4.15846 5.20829 4.71270
#
# Compressibility (1/GPa) = 0.05885544
#
# Stress axis : x y z
#
# Youngs Moduli (GPa) = 14.02291 40.79998 94.29826
#
# Poissons Ratio (x) = 0.74531 0.51530
# Poissons Ratio (y) = 0.25616 0.00504
# Poissons Ratio (z) = 0.07663 0.00218
#
# Static dielectric constant tensor:
#      x y z
#    x 4.199270 0.000000 -0.363090 
#    y 0.000000 4.032850 0.000000 
#    z -0.363090 0.000000 4.422500 
# 
# 
# High freq. dielectric constant tensor:
#      x y z
#    x 1.901360 0.000000 -0.002700 
#    y 0.000000 1.915110 0.000000 
#    z -0.002700 0.000000 1.927040 
# 
# From -- ./inp_files/70176.got.cif
#   From: 2010.03.12/outbox.cif.g09.slc.cpg/sg14_36_cif.got.tgz:70176.got - 2010.03.31 13:35:05.
