data_PCOD8124696
_publ_section_title
;
Structure prediction by ZEFSAII (Michael W. Deem and Ramdas Pophale) SiO2 
 PCOD8124696
Probable space group: P 21/C
;
_chemical_formula_sum "Si O2"
_cell_formula_units_Z 32
_cell_length_a 15.599297
_cell_length_b 15.592414
_cell_length_c 13.290811
_cell_angle_alpha 90.000000
_cell_angle_beta 27.796687
_cell_angle_gamma 90.000000
_cell_volume 1507.538233
_symmetry_space_group_name_H-M "P 21/C"
_symmetry_group_IT_number 14
_symmetry_cell_setting 'monoclinic'
loop_
_space_group_symop_operation_xyz
x,y,z
-x,1/2+y,1/2-z
-x,-y,-z
x,1/2-y,1/2+z
loop_
_atom_site_type_symbol
_atom_site_label
_atom_site_fract_x
_atom_site_fract_y
_atom_site_fract_z
Si Si1 0.585643 0.422198 0.347189
Si Si2 0.791713 0.467633 0.438955
Si Si3 0.237859 0.148696 0.120613
Si Si4 0.749781 0.185735 0.844420
Si Si5 0.593245 0.471376 0.120005
Si Si6 0.594164 0.700615 0.751549
Si Si7 0.084680 0.277433 0.422312
Si Si8 0.939444 0.549802 0.659553
O O1 0.500000 0.500000 0.500000
O O2 0.427120 0.355849 0.484495
O O3 0.730907 0.368248 0.260884
O O4 0.674519 0.452860 0.148195
O O5 0.834136 0.553390 0.330658
O O6 0.836072 0.380283 0.334652
O O7 0.577621 0.464513 0.690207
O O8 0.913283 0.472757 0.410400
O O9 0.096785 0.191705 0.343108
O O10 0.278210 0.207583 0.980356
O O11 0.897743 0.263225 0.680682
O O12 0.552594 0.222344 0.085543
O O13 0.521552 0.387413 0.135168
O O14 0.739952 0.519186 0.900394
O O15 0.736060 0.702036 0.697237
O O16 0.060573 0.350650 0.365003
O O17 0.000000 0.500000 0.500000
#
# Coordination Sequence:
#
# PCOD8124696 Si02
#       8
#     4   4   4   4   4   4   4   4
#     4  10  19  42  70  99 130 174 230 269 345 415
#     4  10  25  44  69 102 135 176 233 279 346 421
#     4  10  23  44  66  97 137 176 220 287 336 399
#     4  12  24  41  70 105 137 176 223 288 356 409
#     4  10  24  45  72  92 135 189 224 286 336 408
#     4  10  24  46  65  98 142 175 227 284 336 412
#     4  12  28  40  68 105 133 179 227 286 347 413
#     4  12  27  47  68 100 138 186 238 279 347 419
#
# _framework density 21.226659999999999
#
# number of rings (size 3 to 8) (size 9 to 14) (size 15 to 20)
#    0.000    1.500    3.750    2.250    5.250    6.500 
#    0.000    0.000    0.000    0.000    0.000    0.000 
#    0.000    0.000    0.000    0.000    0.000    0.000 
#
# Total GULP energy -396685.590483 kJ/mol
# GULP energy per Si atom -12396.424703 kJ/mol
# Density = 2.117835 g / cm^3
# Si number density = 21.226660 Si / 1000 Ang^3
#
#
#
# Elastic Constant Matrix: (Units=GPa)
#
#
# Indices 1 2 3 4 5 6 
#
# 1 108.3666 38.3989 26.4895 0.0000 -6.0474 0.0000
# 2 38.3989 88.8899 33.4330 0.0000 6.8109 0.0000
# 3 26.4895 33.4330 70.6376 0.0000 9.2213 0.0000
# 4 0.0000 0.0000 0.0000 43.9871 0.0000 7.2096
# 5 -6.0474 6.8109 9.2213 0.0000 13.6846 0.0000
# 6 0.0000 0.0000 0.0000 7.2096 0.0000 27.1880
#
#
#
# Elastic Compliance Matrix: (Units=1/GPa)
#
#
# Indices 1 2 3 4 5 6 
#
# 1 0.012406 -0.004739 -0.003764 0.000000 0.010378 0.000000
# 2 -0.004739 0.015587 -0.004730 0.000000 -0.006664 0.000000
# 3 -0.003764 -0.004730 0.019426 0.000000 -0.012399 0.000000
# 4 0.000000 0.000000 0.000000 0.023767 0.000000 -0.006302
# 5 0.010378 -0.006664 -0.012399 0.000000 0.089333 0.000000
# 6 0.000000 0.000000 0.000000 -0.006302 0.000000 0.038452
#
#
# Mechanical properties :
#
#
# Convention : Reuss Voigt Hill
#
# Bulk Modulus (GPa) = 47.72714 51.61521 49.67117
# Shear Modulus (GPa) = 21.51264 28.27679 24.89471
#
# Velocity S-wave (km/s) = 3.18696 3.65380 3.42834
# Velocity P-wave (km/s) = 6.00630 6.49379 6.25480
#
# Compressibility (1/GPa) = 0.02095244
#
# Stress axis : x y z
#
# Youngs Moduli (GPa) = 80.60402 64.15758 51.47760
#
# Poissons Ratio (x) = 0.30402 0.19378
# Poissons Ratio (y) = 0.38195 0.24350
# Poissons Ratio (z) = 0.30342 0.30348
#
# Static dielectric constant tensor:
#      x y z
#    x 3.746990 0.000000 0.132850 
#    y 0.000000 3.570790 0.000000 
#    z 0.132850 0.000000 3.792460 
# 
# 
# High freq. dielectric constant tensor:
#      x y z
#    x 1.844970 0.000000 0.003780 
#    y 0.000000 1.833250 0.000000 
#    z 0.003780 0.000000 1.827600 
# 
# From -- ./inp_files/32963.got.cif
#   From: 2010.03.12/outbox.cif.g09.slc.cpg/sg14_17_cif.got.tgz:32963.got - 2010.03.31 13:35:05.
