data_PCOD8124173
_publ_section_title
;
Structure prediction by ZEFSAII (Michael W. Deem and Ramdas Pophale) SiO2 
 PCOD8124173
Probable space group: P 21/C
;
_chemical_formula_sum "Si O2"
_cell_formula_units_Z 20
_cell_length_a 11.170023
_cell_length_b 14.174603
_cell_length_c 5.332540
_cell_angle_alpha 90.000000
_cell_angle_beta 84.863585
_cell_angle_gamma 90.000000
_cell_volume 840.914062
_symmetry_space_group_name_H-M "P 21/C"
_symmetry_group_IT_number 14
_symmetry_cell_setting 'monoclinic'
loop_
_space_group_symop_operation_xyz
x,y,z
-x,1/2+y,1/2-z
-x,-y,-z
x,1/2-y,1/2+z
loop_
_atom_site_type_symbol
_atom_site_label
_atom_site_fract_x
_atom_site_fract_y
_atom_site_fract_z
Si Si1 0.917014 0.387454 0.830957
Si Si2 0.207629 0.872932 0.153164
Si Si3 0.831048 0.560431 0.105269
Si Si4 0.419905 0.141279 0.416115
Si Si5 0.519286 0.149816 0.897568
O O1 0.864982 0.345193 0.583749
O O2 0.061418 0.375172 0.804365
O O3 0.859323 0.332585 0.083315
O O4 0.883935 0.499497 0.860130
O O5 0.339659 0.828748 0.111313
O O6 0.216733 0.986980 0.174468
O O7 0.722990 0.626946 0.036496
O O8 0.485928 0.094607 0.646249
O O9 0.447636 0.251976 0.396159
O O10 0.473542 0.093078 0.152344
#
# Coordination Sequence:
#
# PCOD8124173 Si02
#       5
#     4   4   4   4   4
#     4   9  20  34  57  89 111 140 180 234 286 327
#     4  10  19  35  57  84 116 142 183 226 282 331
#     4   9  21  34  60  86 114 140 187 231 282 326
#     4  10  22  37  57  76 115 153 187 227 272 330
#     4  10  22  38  54  79 114 154 186 224 274 330
#
# _framework density 23.783643999999999
#
# number of rings (size 3 to 8) (size 9 to 14) (size 15 to 20)
#    1.200    1.200    0.000    1.800    2.800    1.600 
#    0.000    0.000    0.000   28.800    0.000    0.000 
#    0.000    0.000    0.000    0.000    0.000    0.000 
#
# Total GULP energy -247831.105098 kJ/mol
# GULP energy per Si atom -12391.555255 kJ/mol
# Density = 2.372951 g / cm^3
# Si number density = 23.783644 Si / 1000 Ang^3
#
#
#
# Elastic Constant Matrix: (Units=GPa)
#
#
# Indices 1 2 3 4 5 6 
#
# 1 161.8620 34.5526 49.3346 0.0000 26.9751 0.0000
# 2 34.5526 31.3792 3.4237 0.0000 5.4399 0.0000
# 3 49.3346 3.4237 222.9566 0.0000 19.2289 0.0000
# 4 0.0000 0.0000 0.0000 65.4031 0.0000 -56.7930
# 5 26.9751 5.4399 19.2289 0.0000 39.0082 0.0000
# 6 0.0000 0.0000 0.0000 -56.7930 0.0000 53.4014
#
#
#
# Elastic Compliance Matrix: (Units=1/GPa)
#
#
# Indices 1 2 3 4 5 6 
#
# 1 0.009397 -0.009412 -0.001554 0.000000 -0.004420 0.000000
# 2 -0.009412 0.042087 0.001443 0.000000 -0.000072 0.000000
# 3 -0.001554 0.001443 0.004942 0.000000 -0.001563 0.000000
# 4 0.000000 0.000000 0.000000 0.199880 0.000000 0.212574
# 5 -0.004420 -0.000072 -0.001563 0.000000 0.029473 0.000000
# 6 0.000000 0.000000 0.000000 0.212574 0.000000 0.244801
#
#
# Mechanical properties :
#
#
# Convention : Reuss Voigt Hill
#
# Bulk Modulus (GPa) = 26.75235 65.64660 46.19948
# Shear Modulus (GPa) = 8.89543 53.48832 31.19187
#
# Velocity S-wave (km/s) = 1.93604 4.74746 3.62537
# Velocity P-wave (km/s) = 4.03365 7.59688 6.08206
#
# Compressibility (1/GPa) = 0.03737989
#
# Stress axis : x y z
#
# Youngs Moduli (GPa) = 106.41145 23.76018 202.36399
#
# Poissons Ratio (x) = 0.22363 0.31441
# Poissons Ratio (y) = 1.00155 -0.29192
# Poissons Ratio (z) = 0.16533 -0.03427
#
# Static dielectric constant tensor:
#      x y z
#    x 4.039800 0.000000 -0.129070 
#    y 0.000000 3.584980 0.000000 
#    z -0.129070 0.000000 5.818560 
# 
# 
# High freq. dielectric constant tensor:
#      x y z
#    x 1.941230 0.000000 0.004800 
#    y 0.000000 1.902820 0.000000 
#    z 0.004800 0.000000 1.953080 
# 
# From -- ./inp_files/2571.got.cif
#   From: 2010.03.12/outbox.cif.g09.slc.cpg/sg14_2_cif.got.tgz:2571.got - 2010.03.31 13:35:05.
