data_PCOD8124947
_publ_section_title
;
Structure prediction by ZEFSAII (Michael W. Deem and Ramdas Pophale) SiO2 
 PCOD8124947
Probable space group: P 21/C
;
_chemical_formula_sum "Si O2"
_cell_formula_units_Z 32
_cell_length_a 10.369749
_cell_length_b 12.046696
_cell_length_c 22.326294
_cell_angle_alpha 90.000000
_cell_angle_beta 32.641355
_cell_angle_gamma 90.000000
_cell_volume 1504.342190
_symmetry_space_group_name_H-M "P 21/C"
_symmetry_group_IT_number 14
_symmetry_cell_setting 'monoclinic'
loop_
_space_group_symop_operation_xyz
x,y,z
-x,1/2+y,1/2-z
-x,-y,-z
x,1/2-y,1/2+z
loop_
_atom_site_type_symbol
_atom_site_label
_atom_site_fract_x
_atom_site_fract_y
_atom_site_fract_z
Si Si1 0.194250 0.153580 0.689182
Si Si2 0.500777 0.512663 0.139258
Si Si3 0.813505 0.171556 0.670016
Si Si4 0.482750 0.357080 0.754643
Si Si5 0.697431 0.612093 0.298600
Si Si6 0.316413 0.292670 0.012313
Si Si7 0.322857 0.612599 0.644965
Si Si8 0.989321 0.562466 0.081115
O O1 0.292324 0.268610 0.676007
O O2 0.288605 0.139090 0.584802
O O3 0.907835 0.150196 0.802378
O O4 0.282475 0.052964 0.695743
O O5 0.421140 0.547309 0.237775
O O6 0.540410 0.627593 0.088596
O O7 0.734432 0.431924 0.045325
O O8 0.622056 0.242018 0.707185
O O9 0.688290 0.141981 0.780940
O O10 0.884277 0.060318 0.605692
O O11 0.056740 0.239926 0.587612
O O12 0.503610 0.391663 0.676254
O O13 0.189989 0.349236 0.882403
O O14 0.637882 0.521030 0.373157
O O15 0.955888 0.581646 0.166319
O O16 0.453785 0.177793 0.970277
#
# Coordination Sequence:
#
# PCOD8124947 Si02
#       8
#     4   4   4   4   4   4   4   4
#     4  11  25  36  64  92 121 159 207 255 300 374
#     4  11  21  38  64  98 113 159 215 256 307 351
#     4   9  18  38  59  91 117 161 202 243 313 360
#     4  10  20  35  64  85 127 153 194 257 310 359
#     4   9  23  39  56  89 122 163 192 256 306 359
#     4  10  22  38  65  87 119 163 205 252 300 371
#     4  10  21  41  60  81 127 162 199 252 305 359
#     4   8  20  36  60  86 124 152 201 260 296 351
#
# _framework density 21.271754999999999
#
# number of rings (size 3 to 8) (size 9 to 14) (size 15 to 20)
#    0.750    1.500    1.250    1.500    5.250    0.500 
#    0.000    0.625    2.750    0.000    0.000    0.000 
#    0.000    0.000    0.000    0.000    0.000    0.000 
#
# Total GULP energy -396469.607054 kJ/mol
# GULP energy per Si atom -12389.675220 kJ/mol
# Density = 2.122334 g / cm^3
# Si number density = 21.271755 Si / 1000 Ang^3
#
#
#
# Elastic Constant Matrix: (Units=GPa)
#
#
# Indices 1 2 3 4 5 6 
#
# 1 100.9073 36.6249 15.6664 0.0000 -13.6938 0.0000
# 2 36.6249 82.6355 16.5305 0.0000 -12.3190 0.0000
# 3 15.6664 16.5305 33.2112 0.0000 -17.5080 0.0000
# 4 0.0000 0.0000 0.0000 22.4278 0.0000 -8.4521
# 5 -13.6938 -12.3190 -17.5080 0.0000 21.5893 0.0000
# 6 0.0000 0.0000 0.0000 -8.4521 0.0000 43.0149
#
#
#
# Elastic Compliance Matrix: (Units=1/GPa)
#
#
# Indices 1 2 3 4 5 6 
#
# 1 0.012344 -0.004584 -0.001385 0.000000 0.004091 0.000000
# 2 -0.004584 0.015334 -0.004175 0.000000 0.002456 0.000000
# 3 -0.001385 -0.004175 0.054364 0.000000 0.040826 0.000000
# 4 0.000000 0.000000 0.000000 0.048153 0.000000 0.009462
# 5 0.004091 0.002456 0.040826 0.000000 0.083424 0.000000
# 6 0.000000 0.000000 0.000000 0.009462 0.000000 0.025107
#
#
# Mechanical properties :
#
#
# Convention : Reuss Voigt Hill
#
# Bulk Modulus (GPa) = 16.19312 39.37750 27.78531
# Shear Modulus (GPa) = 17.88276 27.26856 22.57566
#
# Velocity S-wave (km/s) = 2.90260 3.58427 3.26129
# Velocity P-wave (km/s) = 4.34309 5.97337 5.22224
#
# Compressibility (1/GPa) = 0.06175462
#
# Stress axis : x y z
#
# Youngs Moduli (GPa) = 81.01047 65.21249 18.39458
#
# Poissons Ratio (x) = 0.29895 0.02547
# Poissons Ratio (y) = 0.37137 0.07680
# Poissons Ratio (z) = 0.11216 0.27227
#
# Static dielectric constant tensor:
#      x y z
#    x 3.904940 0.000000 -0.015550 
#    y 0.000000 3.739920 0.000000 
#    z -0.015550 0.000000 3.557680 
# 
# 
# High freq. dielectric constant tensor:
#      x y z
#    x 1.843020 0.000000 0.001270 
#    y 0.000000 1.819700 0.000000 
#    z 0.001270 0.000000 1.799830 
# 
# From -- ./inp_files/77213.got.cif
#   From: 2010.03.12/outbox.cif.g09.slc.cpg/sg14_39_cif.got.tgz:77213.got - 2010.03.31 13:35:05.
