data_PCOD8124456
_publ_section_title
;
Structure prediction by ZEFSAII (Michael W. Deem and Ramdas Pophale) SiO2 
 PCOD8124456
Probable space group: P 21/C
;
_chemical_formula_sum "Si O2"
_cell_formula_units_Z 28
_cell_length_a 9.732071
_cell_length_b 11.423722
_cell_length_c 14.299531
_cell_angle_alpha 90.000000
_cell_angle_beta 119.481540
_cell_angle_gamma 90.000000
_cell_volume 1383.918770
_symmetry_space_group_name_H-M "P 21/C"
_symmetry_group_IT_number 14
_symmetry_cell_setting 'monoclinic'
loop_
_space_group_symop_operation_xyz
x,y,z
-x,1/2+y,1/2-z
-x,-y,-z
x,1/2-y,1/2+z
loop_
_atom_site_type_symbol
_atom_site_label
_atom_site_fract_x
_atom_site_fract_y
_atom_site_fract_z
Si Si1 0.898440 0.049047 0.824727
Si Si2 0.731086 0.409883 0.830860
Si Si3 0.059958 0.478155 0.863502
Si Si4 0.104252 0.352319 0.541599
Si Si5 0.651442 0.268980 0.162439
Si Si6 0.685598 0.634293 0.925560
Si Si7 0.829693 0.218480 0.537063
O O1 0.770116 0.146449 0.757123
O O2 0.945779 0.971239 0.750455
O O3 0.823873 0.962581 0.877958
O O4 0.055733 0.111683 0.919355
O O5 0.629526 0.351883 0.713366
O O6 0.671215 0.540061 0.836153
O O7 0.914138 0.411294 0.860876
O O8 0.716719 0.326101 0.915981
O O9 0.055752 0.613393 0.891933
O O10 0.219693 0.418900 0.955164
O O11 0.230391 0.249426 0.585626
O O12 0.941363 0.322209 0.540550
O O13 0.486073 0.333861 0.094098
O O14 0.718107 0.236793 0.082992
#
# Coordination Sequence:
#
# PCOD8124456 Si02
#       7
#     4   4   4   4   4   4   4
#     4  10  23  36  64  89 126 157 211 257 307 362
#     4  11  20  41  65  84 126 165 208 251 306 368
#     4  10  19  39  64  92 114 163 213 253 299 367
#     4  11  20  41  62  89 121 166 208 254 303 372
#     4  11  24  38  59  98 127 163 201 256 316 358
#     4  11  23  39  63  93 124 162 207 254 307 371
#     4  10  19  37  65  85 119 161 205 255 300 363
#
# _framework density 20.232402
#
# number of rings (size 3 to 8) (size 9 to 14) (size 15 to 20)
#    0.000    1.429    4.286    1.714    2.000    6.286 
#    0.000    0.000    0.000    3.429    0.000    0.000 
#    0.000    0.000    0.000    0.000    0.000    0.000 
#
# Total GULP energy -347241.661292 kJ/mol
# GULP energy per Si atom -12401.487903 kJ/mol
# Density = 2.018635 g / cm^3
# Si number density = 20.232402 Si / 1000 Ang^3
#
#
#
# Elastic Constant Matrix: (Units=GPa)
#
#
# Indices 1 2 3 4 5 6 
#
# 1 82.7614 19.7218 41.3461 0.0000 -11.6711 0.0000
# 2 19.7218 74.6974 28.0438 0.0000 -12.0938 0.0000
# 3 41.3461 28.0438 90.8115 0.0000 -23.4926 0.0000
# 4 0.0000 0.0000 0.0000 33.6060 0.0000 -5.3012
# 5 -11.6711 -12.0938 -23.4926 0.0000 26.2950 0.0000
# 6 0.0000 0.0000 0.0000 -5.3012 0.0000 16.1818
#
#
#
# Elastic Compliance Matrix: (Units=1/GPa)
#
#
# Indices 1 2 3 4 5 6 
#
# 1 0.015824 -0.001639 -0.006603 0.000000 0.000371 0.000000
# 2 -0.001639 0.015583 -0.003122 0.000000 0.003651 0.000000
# 3 -0.006603 -0.003122 0.018017 0.000000 0.011730 0.000000
# 4 0.000000 0.000000 0.000000 0.031378 0.000000 0.010280
# 5 0.000371 0.003651 0.011730 0.000000 0.050354 0.000000
# 6 0.000000 0.000000 0.000000 0.010280 0.000000 0.065165
#
#
# Mechanical properties :
#
#
# Convention : Reuss Voigt Hill
#
# Bulk Modulus (GPa) = 37.45695 47.38819 42.42257
# Shear Modulus (GPa) = 21.93493 25.82713 23.88103
#
# Velocity S-wave (km/s) = 3.29621 3.57672 3.43933
# Velocity P-wave (km/s) = 5.74806 6.36632 6.06508
#
# Compressibility (1/GPa) = 0.02669732
#
# Stress axis : x y z
#
# Youngs Moduli (GPa) = 63.19358 64.17207 55.50465
#
# Poissons Ratio (x) = 0.10518 0.36648
# Poissons Ratio (y) = 0.10358 0.17326
# Poissons Ratio (z) = 0.41725 0.20032
#
# Static dielectric constant tensor:
#      x y z
#    x 3.460750 0.000000 -0.251420 
#    y 0.000000 3.753250 0.000000 
#    z -0.251420 0.000000 3.741010 
# 
# 
# High freq. dielectric constant tensor:
#      x y z
#    x 1.766220 0.000000 -0.018530 
#    y 0.000000 1.799040 0.000000 
#    z -0.018530 0.000000 1.786230 
# 
# From -- ./inp_files/40184.got.cif
#   From: 2010.03.12/outbox.cif.g09.slc.cpg/sg14_21_cif.got.tgz:40184.got - 2010.03.31 13:35:05.
