data_PCOD8124591
_publ_section_title
;
Structure prediction by ZEFSAII (Michael W. Deem and Ramdas Pophale) SiO2 
 PCOD8124591
Probable space group: P 21/C
;
_chemical_formula_sum "Si O2"
_cell_formula_units_Z 32
_cell_length_a 11.855986
_cell_length_b 19.339514
_cell_length_c 9.536375
_cell_angle_alpha 90.000000
_cell_angle_beta 132.024874
_cell_angle_gamma 90.000000
_cell_volume 1624.314700
_symmetry_space_group_name_H-M "P 21/C"
_symmetry_group_IT_number 14
_symmetry_cell_setting 'monoclinic'
loop_
_space_group_symop_operation_xyz
x,y,z
-x,1/2+y,1/2-z
-x,-y,-z
x,1/2-y,1/2+z
loop_
_atom_site_type_symbol
_atom_site_label
_atom_site_fract_x
_atom_site_fract_y
_atom_site_fract_z
Si Si1 0.591243 0.431448 0.042281
Si Si2 0.493183 0.820617 0.170402
Si Si3 0.176781 0.506189 0.950246
Si Si4 0.122084 0.113222 0.180039
Si Si5 0.360733 0.450464 0.345662
Si Si6 0.856285 0.542780 0.605071
Si Si7 0.404262 0.196498 0.433615
Si Si8 0.788347 0.108372 0.970224
O O1 0.475224 0.369894 0.915786
O O2 0.500000 0.500000 0.000000
O O3 0.691067 0.441826 0.987862
O O4 0.697510 0.410065 0.256801
O O5 0.578191 0.890782 0.202878
O O6 0.534538 0.764502 0.089658
O O7 0.551747 0.794844 0.368461
O O8 0.311226 0.836303 0.023115
O O9 0.172807 0.440066 0.843050
O O10 0.019888 0.548914 0.816340
O O11 0.223460 0.487211 0.146831
O O12 0.223450 0.182965 0.268344
O O13 0.134809 0.073067 0.043180
O O14 0.951229 0.140322 0.064083
O O15 0.500000 0.500000 0.500000
O O16 0.277223 0.420307 0.415837
O O17 0.813306 0.461945 0.575513
#
# Coordination Sequence:
#
# PCOD8124591 Si02
#       8
#     4   4   4   4   4   4   4   4
#     4  11  18  35  65  95 123 161 212 268 319 378
#     4  11  25  46  61  92 128 176 217 268 323 391
#     4  11  20  38  61  98 129 164 204 269 328 375
#     4  11  20  39  69  96 124 171 212 269 322 390
#     4  12  25  39  62  97 137 168 212 274 328 380
#     4  11  21  36  65 101 130 161 210 263 334 388
#     4  11  25  41  65  89 130 171 222 264 320 392
#     4  10  19  39  63  94 127 158 211 266 324 381
#
# _framework density 19.700617000000001
#
# number of rings (size 3 to 8) (size 9 to 14) (size 15 to 20)
#    0.000    1.000    6.250    1.875    3.500    0.000 
#    0.000    3.750    0.000    0.000    0.000    0.000 
#    0.000    0.000    0.000    0.000    0.000    0.000 
#
# Total GULP energy -396733.585893 kJ/mol
# GULP energy per Si atom -12397.924559 kJ/mol
# Density = 1.965578 g / cm^3
# Si number density = 19.700617 Si / 1000 Ang^3
#
#
#
# Elastic Constant Matrix: (Units=GPa)
#
#
# Indices 1 2 3 4 5 6 
#
# 1 146.3364 32.1202 46.9608 0.0000 11.5925 0.0000
# 2 32.1202 61.0581 28.6436 0.0000 -0.4223 0.0000
# 3 46.9608 28.6436 101.4661 0.0000 7.2417 0.0000
# 4 0.0000 0.0000 0.0000 17.6728 0.0000 -4.9769
# 5 11.5925 -0.4223 7.2417 0.0000 35.0725 0.0000
# 6 0.0000 0.0000 0.0000 -4.9769 0.0000 42.3948
#
#
#
# Elastic Compliance Matrix: (Units=1/GPa)
#
#
# Indices 1 2 3 4 5 6 
#
# 1 0.008660 -0.003191 -0.002944 0.000000 -0.002293 0.000000
# 2 -0.003191 0.020116 -0.004359 0.000000 0.002197 0.000000
# 3 -0.002944 -0.004359 0.012568 0.000000 -0.001674 0.000000
# 4 0.000000 0.000000 0.000000 0.058519 0.000000 0.006870
# 5 -0.002293 0.002197 -0.001674 0.000000 0.029642 0.000000
# 6 0.000000 0.000000 0.000000 0.006870 0.000000 0.024394
#
#
# Mechanical properties :
#
#
# Convention : Reuss Voigt Hill
#
# Bulk Modulus (GPa) = 49.12093 58.25663 53.68878
# Shear Modulus (GPa) = 27.52206 32.43711 29.97958
#
# Velocity S-wave (km/s) = 3.74172 4.06211 3.90520
# Velocity P-wave (km/s) = 6.60720 7.18583 6.90258
#
# Compressibility (1/GPa) = 0.02035792
#
# Stress axis : x y z
#
# Youngs Moduli (GPa) = 115.47020 49.71084 79.56746
#
# Poissons Ratio (x) = 0.15861 0.23423
# Poissons Ratio (y) = 0.36843 0.34682
# Poissons Ratio (z) = 0.33992 0.21668
#
# Static dielectric constant tensor:
#      x y z
#    x 4.064840 0.000000 0.286580 
#    y 0.000000 3.231410 0.000000 
#    z 0.286580 0.000000 3.579230 
# 
# 
# High freq. dielectric constant tensor:
#      x y z
#    x 1.790310 0.000000 0.008970 
#    y 0.000000 1.726270 0.000000 
#    z 0.008970 0.000000 1.774660 
# 
# From -- ./inp_files/14345.got.cif
#   From: 2010.03.12/outbox.cif.g09.slc.cpg/sg14_8_cif.got.tgz:14345.got - 2010.03.31 13:35:05.
