data_PCOD8124373
_publ_section_title
;
Structure prediction by ZEFSAII (Michael W. Deem and Ramdas Pophale) SiO2 
 PCOD8124373
Probable space group: P 21/C
;
_chemical_formula_sum "Si O2"
_cell_formula_units_Z 32
_cell_length_a 12.201294
_cell_length_b 17.175452
_cell_length_c 14.214034
_cell_angle_alpha 90.000000
_cell_angle_beta 147.995905
_cell_angle_gamma 90.000000
_cell_volume 1578.667959
_symmetry_space_group_name_H-M "P 21/C"
_symmetry_group_IT_number 14
_symmetry_cell_setting 'monoclinic'
loop_
_space_group_symop_operation_xyz
x,y,z
-x,1/2+y,1/2-z
-x,-y,-z
x,1/2-y,1/2+z
loop_
_atom_site_type_symbol
_atom_site_label
_atom_site_fract_x
_atom_site_fract_y
_atom_site_fract_z
Si Si1 0.931836 0.446376 0.034470
Si Si2 0.046446 0.981875 0.883840
Si Si3 0.352213 0.475589 0.018380
Si Si4 0.673541 0.961886 0.060335
Si Si5 0.575120 0.319032 0.144205
Si Si6 0.421238 0.659323 0.255403
Si Si7 0.008651 0.617615 0.528814
Si Si8 0.439941 0.135869 0.348377
O O1 0.137382 0.423029 0.242936
O O2 0.762491 0.495173 0.971060
O O3 0.817963 0.369638 0.908822
O O4 0.000000 0.500000 0.000000
O O5 0.219112 0.972111 0.927727
O O6 0.115210 0.935566 0.025950
O O7 0.819593 0.955517 0.685085
O O8 0.035245 0.072381 0.905905
O O9 0.478341 0.395429 0.124728
O O10 0.507650 0.544031 0.096479
O O11 0.571464 0.900958 0.915988
O O12 0.500000 0.000000 0.000000
O O13 0.513843 0.241343 0.153487
O O14 0.824028 0.317085 0.327136
O O15 0.512905 0.313594 0.989889
O O16 0.451658 0.666659 0.166166
O O17 0.801474 0.653799 0.337236
#
# Coordination Sequence:
#
# PCOD8124373 Si02
#       8
#     4   4   4   4   4   4   4   4
#     4  10  22  42  68  94 123 176 226 262 306 393
#     4  10  19  36  66 101 119 159 220 270 311 377
#     4  10  20  39  68  94 126 160 218 271 311 388
#     4  11  22  41  70  93 128 175 220 262 319 393
#     4  12  25  42  60 101 131 163 214 271 332 389
#     4  11  26  45  61  94 137 173 211 270 338 384
#     4  11  21  35  66  97 125 157 213 272 320 378
#     4  11  22  44  67  91 126 173 215 266 330 386
#
# _framework density 20.270254999999999
#
# number of rings (size 3 to 8) (size 9 to 14) (size 15 to 20)
#    0.000    1.250    5.000    1.875    1.750    1.000 
#    6.750    0.000    0.000    0.000    0.000    0.000 
#    0.000    0.000    0.000    0.000    0.000    0.000 
#
# Total GULP energy -396647.147938 kJ/mol
# GULP energy per Si atom -12395.223373 kJ/mol
# Density = 2.022412 g / cm^3
# Si number density = 20.270255 Si / 1000 Ang^3
#
#
#
# Elastic Constant Matrix: (Units=GPa)
#
#
# Indices 1 2 3 4 5 6 
#
# 1 95.8549 28.8006 33.9546 0.0000 2.7157 0.0000
# 2 28.8006 79.9046 37.7918 0.0000 -3.6822 0.0000
# 3 33.9546 37.7918 149.9289 0.0000 8.0676 0.0000
# 4 0.0000 0.0000 0.0000 22.5524 0.0000 -2.3858
# 5 2.7157 -3.6822 8.0676 0.0000 34.0738 0.0000
# 6 0.0000 0.0000 0.0000 -2.3858 0.0000 21.0042
#
#
#
# Elastic Compliance Matrix: (Units=1/GPa)
#
#
# Indices 1 2 3 4 5 6 
#
# 1 0.012173 -0.003577 -0.001805 0.000000 -0.000929 0.000000
# 2 -0.003577 0.015459 -0.003233 0.000000 0.002721 0.000000
# 3 -0.001805 -0.003233 0.008007 0.000000 -0.002101 0.000000
# 4 0.000000 0.000000 0.000000 0.044880 0.000000 0.005098
# 5 -0.000929 0.002721 -0.002101 0.000000 0.030214 0.000000
# 6 0.000000 0.000000 0.000000 0.005098 0.000000 0.048189
#
#
# Mechanical properties :
#
#
# Convention : Reuss Voigt Hill
#
# Bulk Modulus (GPa) = 54.32299 58.53139 56.42719
# Shear Modulus (GPa) = 27.42936 30.53551 28.98243
#
# Velocity S-wave (km/s) = 3.68255 3.88547 3.78537
# Velocity P-wave (km/s) = 6.70367 7.00481 6.85589
#
# Compressibility (1/GPa) = 0.01840841
#
# Stress axis : x y z
#
# Youngs Moduli (GPa) = 82.15005 64.68933 124.89606
#
# Poissons Ratio (x) = 0.23136 0.22547
# Poissons Ratio (y) = 0.29381 0.40379
# Poissons Ratio (z) = 0.14830 0.20914
#
# Static dielectric constant tensor:
#      x y z
#    x 3.789360 0.000000 -0.017940 
#    y 0.000000 3.260000 0.000000 
#    z -0.017940 0.000000 4.049270 
# 
# 
# High freq. dielectric constant tensor:
#      x y z
#    x 1.802520 0.000000 -0.003820 
#    y 0.000000 1.737450 0.000000 
#    z -0.003820 0.000000 1.820700 
# 
# From -- ./inp_files/45451.got.cif
#   From: 2010.03.12/outbox.cif.g09.slc.cpg/sg14_23_cif.got.tgz:45451.got - 2010.03.31 13:35:05.
