data_PCOD8124919
_publ_section_title
;
Structure prediction by ZEFSAII (Michael W. Deem and Ramdas Pophale) SiO2 
 PCOD8124919
Probable space group: P 21/C
;
_chemical_formula_sum "Si O2"
_cell_formula_units_Z 28
_cell_length_a 31.079713
_cell_length_b 7.507217
_cell_length_c 8.965096
_cell_angle_alpha 90.000000
_cell_angle_beta 139.735249
_cell_angle_gamma 90.000000
_cell_volume 1351.944349
_symmetry_space_group_name_H-M "P 21/C"
_symmetry_group_IT_number 14
_symmetry_cell_setting 'monoclinic'
loop_
_space_group_symop_operation_xyz
x,y,z
-x,1/2+y,1/2-z
-x,-y,-z
x,1/2-y,1/2+z
loop_
_atom_site_type_symbol
_atom_site_label
_atom_site_fract_x
_atom_site_fract_y
_atom_site_fract_z
Si Si1 0.920919 0.489114 0.618993
Si Si2 0.341561 0.385048 0.111881
Si Si3 0.932384 0.373246 0.984050
Si Si4 0.461835 0.367325 0.005398
Si Si5 0.252310 0.223865 0.626493
Si Si6 0.162068 0.341103 0.136918
Si Si7 0.555443 0.073801 0.255193
O O1 0.914724 0.329330 0.482866
O O2 0.864749 0.637369 0.440870
O O3 0.989928 0.593709 0.784368
O O4 0.912606 0.403513 0.760334
O O5 0.402183 0.240574 0.267472
O O6 0.305378 0.398767 0.176789
O O7 0.375536 0.575547 0.158561
O O8 0.288248 0.343517 0.844328
O O9 0.894839 0.514006 0.989982
O O10 0.525768 0.257540 0.236012
O O11 0.427707 0.455531 0.056819
O O12 0.500000 0.500000 0.000000
O O13 0.215399 0.353384 0.411925
O O14 0.197791 0.108444 0.574192
O O15 0.500000 0.000000 0.000000
#
# Coordination Sequence:
#
# PCOD8124919 Si02
#       7
#     4   4   4   4   4   4   4
#     4  11  24  40  66 101 131 165 215 273 333 392
#     4  10  20  40  64  90 121 169 208 245 308 378
#     4  11  24  40  66 100 132 163 215 273 334 389
#     4  11  22  37  63  94 121 152 199 262 320 366
#     4  10  22  39  68  82 128 178 209 244 307 386
#     4  11  22  43  66  96 124 177 217 261 327 382
#     4  10  20  35  60  91 122 150 197 250 313 362
#
# _framework density 20.710910999999999
#
# number of rings (size 3 to 8) (size 9 to 14) (size 15 to 20)
#    0.000    1.429    4.286    1.714    4.000    0.571 
#    0.000    0.000   18.857    0.000    0.000    0.000 
#    0.000    0.000    0.000    0.000    0.000    0.000 
#
# Total GULP energy -346946.680472 kJ/mol
# GULP energy per Si atom -12390.952874 kJ/mol
# Density = 2.066377 g / cm^3
# Si number density = 20.710911 Si / 1000 Ang^3
#
#
#
# Elastic Constant Matrix: (Units=GPa)
#
#
# Indices 1 2 3 4 5 6 
#
# 1 161.4671 34.4593 27.7438 0.0000 7.6268 0.0000
# 2 34.4593 84.2272 20.4134 0.0000 6.0154 0.0000
# 3 27.7438 20.4134 80.5744 0.0000 -2.0413 0.0000
# 4 0.0000 0.0000 0.0000 19.0850 0.0000 -0.6214
# 5 7.6268 6.0154 -2.0413 0.0000 30.6409 0.0000
# 6 0.0000 0.0000 0.0000 -0.6214 0.0000 31.3818
#
#
#
# Elastic Compliance Matrix: (Units=1/GPa)
#
#
# Indices 1 2 3 4 5 6 
#
# 1 0.007084 -0.002340 -0.001882 0.000000 -0.001429 0.000000
# 2 -0.002340 0.013649 -0.002710 0.000000 -0.002278 0.000000
# 3 -0.001882 -0.002710 0.013794 0.000000 0.001920 0.000000
# 4 0.000000 0.000000 0.000000 0.052431 0.000000 0.001038
# 5 -0.001429 -0.002278 0.001920 0.000000 0.033567 0.000000
# 6 0.000000 0.000000 0.000000 0.001038 0.000000 0.031886
#
#
# Mechanical properties :
#
#
# Convention : Reuss Voigt Hill
#
# Bulk Modulus (GPa) = 48.39672 54.61130 51.50401
# Shear Modulus (GPa) = 28.87444 32.46500 30.66972
#
# Velocity S-wave (km/s) = 3.73790 3.96350 3.85235
# Velocity P-wave (km/s) = 6.48442 6.88269 6.68652
#
# Compressibility (1/GPa) = 0.02066256
#
# Stress axis : x y z
#
# Youngs Moduli (GPa) = 141.17309 73.26331 72.49357
#
# Poissons Ratio (x) = 0.17141 0.13647
# Poissons Ratio (y) = 0.33030 0.19647
# Poissons Ratio (z) = 0.26576 0.19855
#
# Static dielectric constant tensor:
#      x y z
#    x 4.299030 0.000000 0.130380 
#    y 0.000000 3.752240 0.000000 
#    z 0.130380 0.000000 3.826730 
# 
# 
# High freq. dielectric constant tensor:
#      x y z
#    x 1.838800 0.000000 -0.001380 
#    y 0.000000 1.772630 0.000000 
#    z -0.001380 0.000000 1.814340 
# 
# From -- ./inp_files/19936.got.cif
#   From: 2010.03.12/outbox.cif.g09.slc.cpg/sg14_10_cif.got.tgz:19936.got - 2010.03.31 13:35:05.
