data_PCOD8124383
_publ_section_title
;
Structure prediction by ZEFSAII (Michael W. Deem and Ramdas Pophale) SiO2 
 PCOD8124383
Probable space group: P 21/C
;
_chemical_formula_sum "Si O2"
_cell_formula_units_Z 32
_cell_length_a 15.730180
_cell_length_b 10.318695
_cell_length_c 20.471942
_cell_angle_alpha 90.000000
_cell_angle_beta 147.726023
_cell_angle_gamma 90.000000
_cell_volume 1774.324530
_symmetry_space_group_name_H-M "P 21/C"
_symmetry_group_IT_number 14
_symmetry_cell_setting 'monoclinic'
loop_
_space_group_symop_operation_xyz
x,y,z
-x,1/2+y,1/2-z
-x,-y,-z
x,1/2-y,1/2+z
loop_
_atom_site_type_symbol
_atom_site_label
_atom_site_fract_x
_atom_site_fract_y
_atom_site_fract_z
Si Si1 0.193105 0.909668 0.339983
Si Si2 0.539236 0.937432 0.922787
Si Si3 0.777057 0.666983 0.207187
Si Si4 0.855866 0.708825 0.621179
Si Si5 0.839681 0.528155 0.046167
Si Si6 0.253235 0.534812 0.148498
Si Si7 0.451770 0.696577 0.499541
Si Si8 0.956625 0.642983 0.904120
O O1 0.291383 0.779657 0.392580
O O2 0.006243 0.884360 0.216814
O O3 0.228243 0.011970 0.304502
O O4 0.240875 0.967904 0.441592
O O5 0.469972 0.868596 0.941314
O O6 0.415742 0.911538 0.783772
O O7 0.703444 0.877539 0.004453
O O8 0.565002 0.089289 0.954660
O O9 0.836857 0.730013 0.179555
O O10 0.902478 0.714797 0.344211
O O11 0.601347 0.712755 0.112878
O O12 0.880216 0.821530 0.583732
O O13 0.001457 0.450450 0.131005
O O14 0.714987 0.517818 0.904567
O O15 0.191576 0.418561 0.154084
O O16 0.114142 0.646996 0.053290
#
# Coordination Sequence:
#
# PCOD8124383 Si02
#       8
#     4   4   4   4   4   4   4   4
#     4  11  22  33  58  84 116 145 178 242 299 329
#     4  10  21  36  56  85 106 150 195 234 270 342
#     4  10  19  37  53  85 114 140 189 231 275 344
#     4  10  21  33  53  81 117 136 182 239 280 328
#     4   9  20  35  53  81 109 146 179 223 287 332
#     4   9  18  35  58  80 106 150 193 224 274 342
#     4  10  22  34  59  81 113 144 189 235 284 334
#     4   9  17  33  60  81 101 149 191 225 269 344
#
# _framework density 18.035032000000001
#
# number of rings (size 3 to 8) (size 9 to 14) (size 15 to 20)
#    0.750    1.500    2.500    0.375    5.250    0.000 
#    2.250    0.000    0.000    3.000    0.000    0.000 
#    0.000    0.000    0.000    0.000    0.000    0.000 
#
# Total GULP energy -396628.532510 kJ/mol
# GULP energy per Si atom -12394.641641 kJ/mol
# Density = 1.799398 g / cm^3
# Si number density = 18.035032 Si / 1000 Ang^3
#
#
#
# Elastic Constant Matrix: (Units=GPa)
#
#
# Indices 1 2 3 4 5 6 
#
# 1 51.0556 27.7222 25.9163 0.0000 4.4767 0.0000
# 2 27.7222 84.8045 42.3862 0.0000 9.5482 0.0000
# 3 25.9163 42.3862 120.5164 0.0000 4.0705 0.0000
# 4 0.0000 0.0000 0.0000 28.5733 0.0000 1.9428
# 5 4.4767 9.5482 4.0705 0.0000 23.5800 0.0000
# 6 0.0000 0.0000 0.0000 1.9428 0.0000 24.6223
#
#
#
# Elastic Compliance Matrix: (Units=1/GPa)
#
#
# Indices 1 2 3 4 5 6 
#
# 1 0.024730 -0.006399 -0.003014 0.000000 -0.001583 0.000000
# 2 -0.006399 0.016562 -0.004288 0.000000 -0.004751 0.000000
# 3 -0.003014 -0.004288 0.010437 0.000000 0.000507 0.000000
# 4 0.000000 0.000000 0.000000 0.035187 0.000000 -0.002776
# 5 -0.001583 -0.004751 0.000507 0.000000 0.044546 0.000000
# 6 0.000000 0.000000 0.000000 -0.002776 0.000000 0.040833
#
#
# Mechanical properties :
#
#
# Convention : Reuss Voigt Hill
#
# Bulk Modulus (GPa) = 41.10888 49.82509 45.46698
# Shear Modulus (GPa) = 24.06095 26.04524 25.05310
#
# Velocity S-wave (km/s) = 3.65653 3.80432 3.73115
# Velocity P-wave (km/s) = 6.37733 6.85448 6.62020
#
# Compressibility (1/GPa) = 0.02432564
#
# Stress axis : x y z
#
# Youngs Moduli (GPa) = 40.43678 60.37887 95.81456
#
# Poissons Ratio (x) = 0.38639 0.28877
# Poissons Ratio (y) = 0.25877 0.41088
# Poissons Ratio (z) = 0.12187 0.25892
#
# Static dielectric constant tensor:
#      x y z
#    x 3.220110 0.000000 -0.032090 
#    y 0.000000 3.265650 0.000000 
#    z -0.032090 0.000000 3.245000 
# 
# 
# High freq. dielectric constant tensor:
#      x y z
#    x 1.685190 0.000000 0.003030 
#    y 0.000000 1.684730 0.000000 
#    z 0.003030 0.000000 1.692400 
# 
# From -- ./inp_files/74186.got.cif
#   From: 2010.03.12/outbox.cif.g09.slc.cpg/sg14_38_cif.got.tgz:74186.got - 2010.03.31 13:35:05.
