data_PCOD8124800
_publ_section_title
;
Structure prediction by ZEFSAII (Michael W. Deem and Ramdas Pophale) SiO2 
 PCOD8124800
Probable space group: P 21/C
;
_chemical_formula_sum "Si O2"
_cell_formula_units_Z 28
_cell_length_a 16.738818
_cell_length_b 8.134376
_cell_length_c 19.917712
_cell_angle_alpha 90.000000
_cell_angle_beta 32.818033
_cell_angle_gamma 90.000000
_cell_volume 1469.825987
_symmetry_space_group_name_H-M "P 21/C"
_symmetry_group_IT_number 14
_symmetry_cell_setting 'monoclinic'
loop_
_space_group_symop_operation_xyz
x,y,z
-x,1/2+y,1/2-z
-x,-y,-z
x,1/2-y,1/2+z
loop_
_atom_site_type_symbol
_atom_site_label
_atom_site_fract_x
_atom_site_fract_y
_atom_site_fract_z
Si Si1 0.106022 0.832418 0.358531
Si Si2 0.655291 0.780621 0.137002
Si Si3 0.070700 0.219389 0.137006
Si Si4 0.460987 0.000513 0.365089
Si Si5 0.279025 0.499996 0.220974
Si Si6 0.191171 0.000502 0.634904
Si Si7 0.823071 0.667569 0.141479
O O1 0.198454 0.665774 0.301499
O O2 0.025480 0.838373 0.343150
O O3 0.992239 0.828678 0.500006
O O4 0.203685 0.999986 0.296320
O O5 0.568142 0.682356 0.141758
O O6 0.711771 0.661635 0.156855
O O7 0.540511 0.909046 0.248055
O O8 0.800333 0.865855 0.999996
O O9 0.148338 0.317657 0.141760
O O10 0.963368 0.090975 0.248067
O O11 0.558519 0.007701 0.363095
O O12 0.302715 0.922042 0.499994
O O13 0.284714 0.492314 0.136898
O O14 0.198569 0.334196 0.301472
#
# Coordination Sequence:
#
# PCOD8124800 Si02
#       7
#     4   4   4   4   4   4   4
#     4   9  18  33  54  81 110 142 185 232 275 326
#     4   9  20  36  54  80 109 141 186 227 273 331
#     4   9  20  36  54  80 109 141 186 227 273 331
#     4  10  21  37  57  81 113 147 181 228 281 331
#     4  10  20  34  56  80 113 148 183 224 283 338
#     4  10  21  37  57  81 113 147 181 228 281 331
#     4   9  18  33  54  81 110 142 185 232 275 326
#
# _framework density 19.049873999999999
#
# number of rings (size 3 to 8) (size 9 to 14) (size 15 to 20)
#    0.000    2.571    0.000    0.857    4.000    2.286 
#    0.000    0.000    0.000    4.286    0.000    0.000 
#    0.000    0.000    0.000    0.000    0.000    0.000 
#
# Total GULP energy -346935.143256 kJ/mol
# GULP energy per Si atom -12390.540831 kJ/mol
# Density = 1.900652 g / cm^3
# Si number density = 19.049874 Si / 1000 Ang^3
#
#
#
# Elastic Constant Matrix: (Units=GPa)
#
#
# Indices 1 2 3 4 5 6 
#
# 1 56.7656 23.2107 36.6725 0.0000 0.0181 0.0000
# 2 23.2107 105.4068 55.6022 0.0000 0.2540 0.0000
# 3 36.6725 55.6022 147.6093 0.0000 0.7309 0.0000
# 4 0.0000 0.0000 0.0000 26.6388 0.0000 -0.0262
# 5 0.0181 0.2540 0.7309 0.0000 11.2585 0.0000
# 6 0.0000 0.0000 0.0000 -0.0262 0.0000 29.6043
#
#
#
# Elastic Compliance Matrix: (Units=1/GPa)
#
#
# Indices 1 2 3 4 5 6 
#
# 1 0.021456 -0.002387 -0.004433 0.000000 0.000307 0.000000
# 2 -0.002387 0.012105 -0.003967 0.000000 -0.000012 0.000000
# 3 -0.004433 -0.003967 0.009373 0.000000 -0.000512 0.000000
# 4 0.000000 0.000000 0.000000 0.037539 0.000000 0.000033
# 5 0.000307 -0.000012 -0.000512 0.000000 0.088855 0.000000
# 6 0.000000 0.000000 0.000000 0.000033 0.000000 0.033779
#
#
# Mechanical properties :
#
#
# Convention : Reuss Voigt Hill
#
# Bulk Modulus (GPa) = 46.81532 60.08360 53.44946
# Shear Modulus (GPa) = 21.57027 26.45340 24.01184
#
# Velocity S-wave (km/s) = 3.36862 3.73049 3.55416
# Velocity P-wave (km/s) = 6.30545 7.08266 6.70532
#
# Compressibility (1/GPa) = 0.02136053
#
# Stress axis : x y z
#
# Youngs Moduli (GPa) = 46.60689 82.60938 106.69245
#
# Poissons Ratio (x) = 0.19719 0.47297
# Poissons Ratio (y) = 0.11125 0.42322
# Poissons Ratio (z) = 0.20661 0.32769
#
# Static dielectric constant tensor:
#      x y z
#    x 3.558220 0.000000 0.000850 
#    y 0.000000 3.310050 0.000000 
#    z 0.000850 0.000000 3.660870 
# 
# 
# High freq. dielectric constant tensor:
#      x y z
#    x 1.748190 0.000000 -0.000020 
#    y 0.000000 1.715000 0.000000 
#    z -0.000020 0.000000 1.745940 
# 
# From -- ./inp_files/41137.got.cif
#   From: 2010.03.12/outbox.cif.g09.slc.cpg/sg14_21_cif.got.tgz:41137.got - 2010.03.31 13:35:05.
