data_PCOD8124707
_publ_section_title
;
Structure prediction by ZEFSAII (Michael W. Deem and Ramdas Pophale) SiO2 
 PCOD8124707
Probable space group: P 21/C
;
_chemical_formula_sum "Si O2"
_cell_formula_units_Z 28
_cell_length_a 14.142640
_cell_length_b 17.381582
_cell_length_c 12.223020
_cell_angle_alpha 90.000000
_cell_angle_beta 149.982370
_cell_angle_gamma 90.000000
_cell_volume 1503.140900
_symmetry_space_group_name_H-M "P 21/C"
_symmetry_group_IT_number 14
_symmetry_cell_setting 'monoclinic'
loop_
_space_group_symop_operation_xyz
x,y,z
-x,1/2+y,1/2-z
-x,-y,-z
x,1/2-y,1/2+z
loop_
_atom_site_type_symbol
_atom_site_label
_atom_site_fract_x
_atom_site_fract_y
_atom_site_fract_z
Si Si1 0.891748 0.869824 0.847090
Si Si2 0.613820 0.555480 0.230102
Si Si3 0.691752 0.398997 0.223543
Si Si4 0.938799 0.693676 0.929701
Si Si5 0.064469 0.302991 0.830794
Si Si6 0.326670 0.331239 0.524213
Si Si7 0.720743 0.239984 0.360834
O O1 0.728344 0.919608 0.735756
O O2 0.877602 0.782521 0.874877
O O3 0.882888 0.868819 0.705054
O O4 0.087786 0.906886 0.081140
O O5 0.627776 0.463048 0.249569
O O6 0.685238 0.591920 0.414352
O O7 0.404412 0.585516 0.990788
O O8 0.638361 0.314977 0.216538
O O9 0.783230 0.649902 0.699121
O O10 0.937633 0.659109 0.050915
O O11 0.149857 0.688028 0.090652
O O12 0.857030 0.267269 0.596800
O O13 0.223181 0.236878 0.985368
O O14 0.545902 0.310543 0.725736
#
# Coordination Sequence:
#
# PCOD8124707 Si02
#       7
#     4   4   4   4   4   4   4
#     4   9  18  32  50  71 102 130 165 204 263 295
#     4  11  19  31  51  77 106 131 166 210 256 312
#     4   9  20  32  48  74 107 135 165 204 259 313
#     4   9  18  32  47  73 101 126 169 215 247 301
#     4   9  18  32  49  71 101 128 166 219 243 305
#     4  10  20  29  51  76 102 134 170 213 255 293
#     4   9  20  32  48  74 102 136 166 205 261 298
#
# _framework density 18.627661
#
# number of rings (size 3 to 8) (size 9 to 14) (size 15 to 20)
#    0.000    3.143    1.429    2.143    4.000    0.000 
#    0.000    0.000    0.000    3.429    0.000   13.000 
#    0.000    0.000    0.000    0.000    0.000    0.000 
#
# Total GULP energy -347014.878772 kJ/mol
# GULP energy per Si atom -12393.388528 kJ/mol
# Density = 1.858526 g / cm^3
# Si number density = 18.627661 Si / 1000 Ang^3
#
#
#
# Elastic Constant Matrix: (Units=GPa)
#
#
# Indices 1 2 3 4 5 6 
#
# 1 93.1819 16.3952 53.6513 0.0000 -16.5294 0.0000
# 2 16.3952 27.2885 13.0469 0.0000 1.6364 0.0000
# 3 53.6513 13.0469 88.3195 0.0000 -12.8556 0.0000
# 4 0.0000 0.0000 0.0000 22.4212 0.0000 -6.2838
# 5 -16.5294 1.6364 -12.8556 0.0000 33.5815 0.0000
# 6 0.0000 0.0000 0.0000 -6.2838 0.0000 14.0237
#
#
#
# Elastic Compliance Matrix: (Units=1/GPa)
#
#
# Indices 1 2 3 4 5 6 
#
# 1 0.018308 -0.006924 -0.009253 0.000000 0.005806 0.000000
# 2 -0.006924 0.042671 -0.003067 0.000000 -0.006661 0.000000
# 3 -0.009253 -0.003067 0.017744 0.000000 0.002388 0.000000
# 4 0.000000 0.000000 0.000000 0.051006 0.000000 0.022855
# 5 0.005806 -0.006661 0.002388 0.000000 0.033875 0.000000
# 6 0.000000 0.000000 0.000000 0.022855 0.000000 0.081549
#
#
# Mechanical properties :
#
#
# Convention : Reuss Voigt Hill
#
# Bulk Modulus (GPa) = 24.85420 41.66409 33.25914
# Shear Modulus (GPa) = 16.83202 22.38505 19.60854
#
# Velocity S-wave (km/s) = 3.00926 3.47033 3.24799
# Velocity P-wave (km/s) = 5.04438 6.20265 5.65326
#
# Compressibility (1/GPa) = 0.04023465
#
# Stress axis : x y z
#
# Youngs Moduli (GPa) = 54.62190 23.43502 56.35604
#
# Poissons Ratio (x) = 0.16225 0.52148
# Poissons Ratio (y) = 0.37818 0.17286
# Poissons Ratio (z) = 0.50544 0.07188
#
# Static dielectric constant tensor:
#      x y z
#    x 3.322590 0.000000 0.027350 
#    y 0.000000 3.039010 0.000000 
#    z 0.027350 0.000000 3.540190 
# 
# 
# High freq. dielectric constant tensor:
#      x y z
#    x 1.709930 0.000000 0.010020 
#    y 0.000000 1.679030 0.000000 
#    z 0.010020 0.000000 1.735510 
# 
# From -- ./inp_files/33108.got.cif
#   From: 2010.03.12/outbox.cif.g09.slc.cpg/sg14_17_cif.got.tgz:33108.got - 2010.03.31 13:35:05.
