data_PCOD8124985
_publ_section_title
;
Structure prediction by ZEFSAII (Michael W. Deem and Ramdas Pophale) SiO2 
 PCOD8124985
Probable space group: P 21/C
;
_chemical_formula_sum "Si O2"
_cell_formula_units_Z 32
_cell_length_a 21.035168
_cell_length_b 13.615238
_cell_length_c 9.140378
_cell_angle_alpha 90.000000
_cell_angle_beta 41.113467
_cell_angle_gamma 90.000000
_cell_volume 1721.336237
_symmetry_space_group_name_H-M "P 21/C"
_symmetry_group_IT_number 14
_symmetry_cell_setting 'monoclinic'
loop_
_space_group_symop_operation_xyz
x,y,z
-x,1/2+y,1/2-z
-x,-y,-z
x,1/2-y,1/2+z
loop_
_atom_site_type_symbol
_atom_site_label
_atom_site_fract_x
_atom_site_fract_y
_atom_site_fract_z
Si Si1 0.030434 0.889916 0.617897
Si Si2 0.868225 0.203990 0.039601
Si Si3 0.183594 0.629149 0.063654
Si Si4 0.353670 0.497148 0.675155
Si Si5 0.525480 0.850717 0.869669
Si Si6 0.349681 0.004422 0.845828
Si Si7 0.868904 0.471953 0.333376
Si Si8 0.484288 0.349244 0.949650
O O1 0.039602 0.771947 0.569995
O O2 0.076858 0.909955 0.698838
O O3 0.098696 0.949537 0.387119
O O4 0.920490 0.927385 0.799143
O O5 0.812765 0.160475 0.274473
O O6 0.793714 0.275185 0.078837
O O7 0.905483 0.116178 0.873280
O O8 0.258315 0.542011 0.911371
O O9 0.380012 0.399833 0.721240
O O10 0.436480 0.577276 0.545271
O O11 0.337207 0.465904 0.536233
O O12 0.546300 0.829625 0.664035
O O13 0.497376 0.751872 0.000551
O O14 0.415523 0.908345 0.713325
O O15 0.396711 0.094553 0.678885
O O16 0.245768 0.983253 0.954962
#
# Coordination Sequence:
#
# PCOD8124985 Si02
#       8
#     4   4   4   4   4   4   4   4
#     4   9  20  37  57  87 115 149 186 234 294 343
#     4  10  20  36  58  87 114 146 196 242 285 342
#     4  10  20  36  57  88 117 149 195 241 286 344
#     4  10  21  36  57  87 119 148 197 237 296 341
#     4  10  22  37  56  84 116 157 188 247 289 349
#     4  10  21  39  60  89 112 157 194 242 291 349
#     4  11  20  37  62  83 119 151 187 242 291 345
#     4  10  22  38  60  82 120 150 200 236 297 346
#
# _framework density 18.590208000000001
#
# number of rings (size 3 to 8) (size 9 to 14) (size 15 to 20)
#    0.750    1.250    2.500    0.750    3.500    2.500 
#    0.000    1.250    8.250    0.000    0.000    0.000 
#    0.000    0.000    0.000    0.000    0.000    0.000 
#
# Total GULP energy -396663.132593 kJ/mol
# GULP energy per Si atom -12395.722894 kJ/mol
# Density = 1.854790 g / cm^3
# Si number density = 18.590208 Si / 1000 Ang^3
#
#
#
# Elastic Constant Matrix: (Units=GPa)
#
#
# Indices 1 2 3 4 5 6 
#
# 1 85.1458 33.4614 40.9098 0.0000 2.0412 0.0000
# 2 33.4614 56.7595 26.8987 0.0000 1.7337 0.0000
# 3 40.9098 26.8987 64.9848 0.0000 -1.4339 0.0000
# 4 0.0000 0.0000 0.0000 28.7289 0.0000 7.7068
# 5 2.0412 1.7337 -1.4339 0.0000 33.4604 0.0000
# 6 0.0000 0.0000 0.0000 7.7068 0.0000 23.4792
#
#
#
# Elastic Compliance Matrix: (Units=1/GPa)
#
#
# Indices 1 2 3 4 5 6 
#
# 1 0.018772 -0.006740 -0.009054 0.000000 -0.001184 0.000000
# 2 -0.006740 0.024415 -0.005888 0.000000 -0.001106 0.000000
# 3 -0.009054 -0.005888 0.023566 0.000000 0.001867 0.000000
# 4 0.000000 0.000000 0.000000 0.038169 0.000000 -0.012529
# 5 -0.001184 -0.001106 0.001867 0.000000 0.030096 0.000000
# 6 0.000000 0.000000 0.000000 -0.012529 0.000000 0.046703
#
#
# Mechanical properties :
#
#
# Convention : Reuss Voigt Hill
#
# Bulk Modulus (GPa) = 42.75156 45.49221 44.12189
# Shear Modulus (GPa) = 21.47029 24.17504 22.82267
#
# Velocity S-wave (km/s) = 3.40211 3.61004 3.50762
# Velocity P-wave (km/s) = 6.20316 6.47308 6.33955
#
# Compressibility (1/GPa) = 0.02339096
#
# Stress axis : x y z
#
# Youngs Moduli (GPa) = 53.27224 40.95771 42.43400
#
# Poissons Ratio (x) = 0.27604 0.38418
# Poissons Ratio (y) = 0.35903 0.24984
# Poissons Ratio (z) = 0.48231 0.24115
#
# Static dielectric constant tensor:
#      x y z
#    x 3.508290 0.000000 0.164180 
#    y 0.000000 3.413080 0.000000 
#    z 0.164180 0.000000 3.176300 
# 
# 
# High freq. dielectric constant tensor:
#      x y z
#    x 1.723370 0.000000 0.017960 
#    y 0.000000 1.716560 0.000000 
#    z 0.017960 0.000000 1.704100 
# 
# From -- ./inp_files/19061.got.cif
#   From: 2010.03.12/outbox.cif.g09.slc.cpg/sg14_10_cif.got.tgz:19061.got - 2010.03.31 13:35:05.
