data_PCOD8124233
_publ_section_title
;
Structure prediction by ZEFSAII (Michael W. Deem and Ramdas Pophale) SiO2 
 PCOD8124233
Probable space group: P 21/C
;
_chemical_formula_sum "Si O2"
_cell_formula_units_Z 32
_cell_length_a 10.139539
_cell_length_b 16.881464
_cell_length_c 9.811572
_cell_angle_alpha 90.000000
_cell_angle_beta 90.000715
_cell_angle_gamma 90.000000
_cell_volume 1679.449356
_symmetry_space_group_name_H-M "P 21/C"
_symmetry_group_IT_number 14
_symmetry_cell_setting 'monoclinic'
loop_
_space_group_symop_operation_xyz
x,y,z
-x,1/2+y,1/2-z
-x,-y,-z
x,1/2-y,1/2+z
loop_
_atom_site_type_symbol
_atom_site_label
_atom_site_fract_x
_atom_site_fract_y
_atom_site_fract_z
Si Si1 0.250005 0.914584 0.136061
Si Si2 0.249998 0.466610 0.410216
Si Si3 0.966617 0.236897 0.169620
Si Si4 0.749998 0.119887 0.274876
Si Si5 0.529059 0.840014 0.091690
Si Si6 0.533378 0.263106 0.669612
Si Si7 0.250002 0.856336 0.419650
Si Si8 0.029051 0.340016 0.408322
O O1 0.375236 0.863669 0.087339
O O2 0.250004 0.923324 0.300180
O O3 0.124772 0.863671 0.087332
O O4 0.250009 0.000276 0.065129
O O5 0.249993 0.537581 0.303749
O O6 0.380838 0.416161 0.385323
O O7 0.119151 0.416164 0.385338
O O8 0.879897 0.168948 0.239325
O O9 0.878687 0.302434 0.094348
O O10 0.055494 0.278096 0.286114
O O11 0.062179 0.199474 0.054515
O O12 0.620092 0.168941 0.239313
O O13 0.749995 0.099999 0.435600
O O14 0.555500 0.778094 0.213898
O O15 0.562187 0.800524 0.945498
O O16 0.621312 0.197570 0.594344
#
# Coordination Sequence:
#
# PCOD8124233 Si02
#       8
#     4   4   4   4   4   4   4   4
#     4  10  20  38  61  86 120 152 200 239 290 359
#     4  12  25  37  59  91 129 156 189 250 313 355
#     4  10  19  35  62  86 116 156 203 244 287 353
#     4  11  19  35  62  92 117 152 205 251 287 345
#     4  11  22  39  61  90 119 156 204 244 298 351
#     4  10  19  35  62  86 116 156 203 244 287 353
#     4   9  18  34  60  93 106 148 210 250 268 343
#     4  11  22  39  61  90 119 156 204 244 298 351
#
# _framework density 19.053864000000001
#
# number of rings (size 3 to 8) (size 9 to 14) (size 15 to 20)
#    0.000    1.500    5.000    2.250    0.000    1.000 
#    0.000    7.500    0.000    0.000    0.000    0.000 
#    0.000    0.000    0.000    0.000    0.000    0.000 
#
# Total GULP energy -396837.691865 kJ/mol
# GULP energy per Si atom -12401.177871 kJ/mol
# Density = 1.901050 g / cm^3
# Si number density = 19.053864 Si / 1000 Ang^3
#
#
#
# Elastic Constant Matrix: (Units=GPa)
#
#
# Indices 1 2 3 4 5 6 
#
# 1 56.0334 40.7312 31.4084 0.0000 -0.0069 0.0000
# 2 40.7312 127.4351 83.0191 0.0000 -0.0126 0.0000
# 3 31.4084 83.0191 173.6870 0.0000 -0.0112 0.0000
# 4 0.0000 0.0000 0.0000 43.6696 0.0000 -0.0123
# 5 -0.0069 -0.0126 -0.0112 0.0000 8.6857 0.0000
# 6 0.0000 0.0000 0.0000 -0.0123 0.0000 19.2665
#
#
#
# Elastic Compliance Matrix: (Units=1/GPa)
#
#
# Indices 1 2 3 4 5 6 
#
# 1 0.023356 -0.006845 -0.000952 0.000000 0.000007 0.000000
# 2 -0.006845 0.013402 -0.005168 0.000000 0.000007 0.000000
# 3 -0.000952 -0.005168 0.008400 0.000000 0.000003 0.000000
# 4 0.000000 0.000000 0.000000 0.022899 0.000000 0.000015
# 5 0.000007 0.000007 0.000003 0.000000 0.115131 0.000000
# 6 0.000000 0.000000 0.000000 0.000015 0.000000 0.051904
#
#
# Mechanical properties :
#
#
# Convention : Reuss Voigt Hill
#
# Bulk Modulus (GPa) = 52.00804 74.16364 63.08584
# Shear Modulus (GPa) = 18.69648 27.79081 23.24364
#
# Velocity S-wave (km/s) = 3.13588 3.82323 3.49648
# Velocity P-wave (km/s) = 6.36130 7.64834 7.03432
#
# Compressibility (1/GPa) = 0.01922780
#
# Stress axis : x y z
#
# Youngs Moduli (GPa) = 42.81620 74.61751 119.05100
#
# Poissons Ratio (x) = 0.51076 0.11330
# Poissons Ratio (y) = 0.29308 0.61525
# Poissons Ratio (z) = 0.04075 0.38562
#
# Static dielectric constant tensor:
#      x y z
#    x 3.122680 0.000000 -0.000020 
#    y 0.000000 3.381660 0.000000 
#    z -0.000020 0.000000 3.801790 
# 
# 
# High freq. dielectric constant tensor:
#      x y z
#    x 1.709070 0.000000 0.000000 
#    y 0.000000 1.726570 0.000000 
#    z 0.000000 0.000000 1.759340 
# 
# From -- ./inp_files/13312.got.cif
#   From: 2010.03.12/outbox.cif.g09.slc.cpg/sg14_7_cif.got.tgz:13312.got - 2010.03.31 13:35:05.
