data_PCOD8124521
_publ_section_title
;
Structure prediction by ZEFSAII (Michael W. Deem and Ramdas Pophale) SiO2 
 PCOD8124521
Probable space group: P 21/C
;
_chemical_formula_sum "Si O2"
_cell_formula_units_Z 28
_cell_length_a 22.772126
_cell_length_b 8.726413
_cell_length_c 20.241663
_cell_angle_alpha 90.000000
_cell_angle_beta 159.887448
_cell_angle_gamma 90.000000
_cell_volume 1383.165132
_symmetry_space_group_name_H-M "P 21/C"
_symmetry_group_IT_number 14
_symmetry_cell_setting 'monoclinic'
loop_
_space_group_symop_operation_xyz
x,y,z
-x,1/2+y,1/2-z
-x,-y,-z
x,1/2-y,1/2+z
loop_
_atom_site_type_symbol
_atom_site_label
_atom_site_fract_x
_atom_site_fract_y
_atom_site_fract_z
Si Si1 0.975648 0.727074 0.877705
Si Si2 0.695371 0.593941 0.149629
Si Si3 0.147624 0.546755 0.323196
Si Si4 0.321602 0.391836 0.614715
Si Si5 0.309444 0.905048 0.226817
Si Si6 0.127593 0.387365 0.865392
Si Si7 0.703952 0.129818 0.541236
O O1 0.843681 0.780330 0.795337
O O2 0.939567 0.545485 0.829847
O O3 0.933661 0.807249 0.765164
O O4 0.174381 0.769399 0.102410
O O5 0.706189 0.540412 0.236299
O O6 0.736794 0.452296 0.145447
O O7 0.504259 0.660908 0.932679
O O8 0.313925 0.464620 0.532042
O O9 0.183743 0.717043 0.337173
O O10 0.024535 0.535282 0.256169
O O11 0.265508 0.518225 0.609936
O O12 0.211032 0.237033 0.502372
O O13 0.508141 0.328041 0.826621
O O14 0.251559 0.525530 0.975004
#
# Coordination Sequence:
#
# PCOD8124521 Si02
#       7
#     4   4   4   4   4   4   4
#     4  10  20  36  56  82 110 147 185 234 282 335
#     4   9  21  37  62  82 106 151 198 238 275 340
#     4  11  21  35  54  82 119 143 184 234 291 349
#     4  10  20  34  57  83 106 150 186 236 291 332
#     4  10  19  38  62  82 111 147 198 234 285 340
#     4  10  20  34  53  81 113 145 185 225 286 347
#     4  10  20  36  55  80 115 145 190 235 282 346
#
# _framework density 20.243424999999998
#
# number of rings (size 3 to 8) (size 9 to 14) (size 15 to 20)
#    0.000    2.000    1.429    3.000    2.000    1.143 
#    2.571    0.714    0.000    2.571    0.000    0.000 
#    0.000    0.000    0.000    0.000    0.000    0.000 
#
# Total GULP energy -347071.085148 kJ/mol
# GULP energy per Si atom -12395.395898 kJ/mol
# Density = 2.019735 g / cm^3
# Si number density = 20.243425 Si / 1000 Ang^3
#
#
#
# Elastic Constant Matrix: (Units=GPa)
#
#
# Indices 1 2 3 4 5 6 
#
# 1 54.0389 5.4465 16.3715 0.0000 16.7193 0.0000
# 2 5.4465 83.9664 27.9009 0.0000 9.8650 0.0000
# 3 16.3715 27.9009 69.8925 0.0000 12.1634 0.0000
# 4 0.0000 0.0000 0.0000 26.8510 0.0000 1.4188
# 5 16.7193 9.8650 12.1634 0.0000 30.1377 0.0000
# 6 0.0000 0.0000 0.0000 1.4188 0.0000 8.3823
#
#
#
# Elastic Compliance Matrix: (Units=1/GPa)
#
#
# Indices 1 2 3 4 5 6 
#
# 1 0.023169 0.001149 -0.003854 0.000000 -0.011674 0.000000
# 2 0.001149 0.013959 -0.005308 0.000000 -0.003064 0.000000
# 3 -0.003854 -0.005308 0.017913 0.000000 -0.003354 0.000000
# 4 0.000000 0.000000 0.000000 0.037579 0.000000 -0.006361
# 5 -0.011674 -0.003064 -0.003354 0.000000 0.042014 0.000000
# 6 0.000000 0.000000 0.000000 -0.006361 0.000000 0.120375
#
#
# Mechanical properties :
#
#
# Convention : Reuss Voigt Hill
#
# Bulk Modulus (GPa) = 25.63137 34.14838 29.88987
# Shear Modulus (GPa) = 17.60317 23.61947 20.61132
#
# Velocity S-wave (km/s) = 2.95205 3.41951 3.19434
# Velocity P-wave (km/s) = 4.93037 5.70055 5.32939
#
# Compressibility (1/GPa) = 0.03901470
#
# Stress axis : x y z
#
# Youngs Moduli (GPa) = 43.16143 71.63900 55.82464
#
# Poissons Ratio (x) = -0.08234 0.21516
# Poissons Ratio (y) = -0.04961 0.29633
# Poissons Ratio (z) = 0.16636 0.38028
#
# Static dielectric constant tensor:
#      x y z
#    x 3.646910 0.000000 0.195480 
#    y 0.000000 3.617490 0.000000 
#    z 0.195480 0.000000 3.768350 
# 
# 
# High freq. dielectric constant tensor:
#      x y z
#    x 1.781500 0.000000 0.012400 
#    y 0.000000 1.770770 0.000000 
#    z 0.012400 0.000000 1.794140 
# 
# From -- ./inp_files/64515.got.cif
#   From: 2010.03.12/outbox.cif.g09.slc.cpg/sg14_33_cif.got.tgz:64515.got - 2010.03.31 13:35:05.
