data_PCOD8124635
_publ_section_title
;
Structure prediction by ZEFSAII (Michael W. Deem and Ramdas Pophale) SiO2 
 PCOD8124635
Probable space group: P 21/C
;
_chemical_formula_sum "Si O2"
_cell_formula_units_Z 32
_cell_length_a 12.833288
_cell_length_b 12.062095
_cell_length_c 11.736987
_cell_angle_alpha 90.000000
_cell_angle_beta 118.476714
_cell_angle_gamma 90.000000
_cell_volume 1597.024585
_symmetry_space_group_name_H-M "P 21/C"
_symmetry_group_IT_number 14
_symmetry_cell_setting 'monoclinic'
loop_
_space_group_symop_operation_xyz
x,y,z
-x,1/2+y,1/2-z
-x,-y,-z
x,1/2-y,1/2+z
loop_
_atom_site_type_symbol
_atom_site_label
_atom_site_fract_x
_atom_site_fract_y
_atom_site_fract_z
Si Si1 0.415290 0.666583 0.979904
Si Si2 0.772373 0.917182 0.801576
Si Si3 0.990477 0.891010 0.424177
Si Si4 0.935674 0.811360 0.054726
Si Si5 0.783271 0.808105 0.184017
Si Si6 0.844106 0.108028 0.689296
Si Si7 0.463662 0.397563 0.406400
Si Si8 0.482639 0.982732 0.313140
O O1 0.277715 0.676811 0.873283
O O2 0.486293 0.615684 0.909004
O O3 0.454915 0.790141 0.031583
O O4 0.436695 0.584661 0.099067
O O5 0.749790 0.792082 0.750386
O O6 0.650655 0.973212 0.781483
O O7 0.820498 0.982426 0.716828
O O8 0.871405 0.913075 0.953676
O O9 0.976244 0.783294 0.491652
O O10 0.877380 0.896258 0.282645
O O11 0.111084 0.885494 0.415871
O O12 0.000000 0.000000 0.500000
O O13 0.838988 0.764661 0.094342
O O14 0.059131 0.844516 0.174559
O O15 0.664223 0.875158 0.107079
O O16 0.500000 0.500000 0.500000
O O17 0.461796 0.431916 0.272540
#
# Coordination Sequence:
#
# PCOD8124635 Si02
#       8
#     4   4   4   4   4   4   4   4
#     4  10  24  43  63  94 131 174 210 267 335 394
#     4  10  19  40  64  86 119 170 210 262 318 383
#     4  10  22  37  59  89 117 165 203 259 315 371
#     4  10  21  38  62  89 126 162 209 265 318 374
#     4  10  22  39  59  90 123 160 217 260 303 392
#     4  10  22  38  61  92 124 161 210 256 326 383
#     4  12  26  40  67 100 129 169 222 276 321 388
#     4  10  23  43  66  92 128 173 216 269 334 384
#
# _framework density 20.037261999999998
#
# number of rings (size 3 to 8) (size 9 to 14) (size 15 to 20)
#    0.000    1.750    1.250    1.875    3.500    5.000 
#    0.000    3.750    0.000    0.000    0.000    0.000 
#    0.000    0.000    0.000    0.000    0.000    0.000 
#
# Total GULP energy -396703.694495 kJ/mol
# GULP energy per Si atom -12396.990453 kJ/mol
# Density = 1.999166 g / cm^3
# Si number density = 20.037262 Si / 1000 Ang^3
#
#
#
# Elastic Constant Matrix: (Units=GPa)
#
#
# Indices 1 2 3 4 5 6 
#
# 1 105.2733 28.4572 42.7130 0.0000 10.1940 0.0000
# 2 28.4572 88.5657 39.6324 0.0000 7.5788 0.0000
# 3 42.7130 39.6324 103.3423 0.0000 2.0860 0.0000
# 4 0.0000 0.0000 0.0000 37.0450 0.0000 -4.1441
# 5 10.1940 7.5788 2.0860 0.0000 34.7322 0.0000
# 6 0.0000 0.0000 0.0000 -4.1441 0.0000 24.5461
#
#
#
# Elastic Compliance Matrix: (Units=1/GPa)
#
#
# Indices 1 2 3 4 5 6 
#
# 1 0.011955 -0.001701 -0.004230 0.000000 -0.002883 0.000000
# 2 -0.001701 0.014123 -0.004667 0.000000 -0.002302 0.000000
# 3 -0.004230 -0.004667 0.013185 0.000000 0.001468 0.000000
# 4 0.000000 0.000000 0.000000 0.027514 0.000000 0.004645
# 5 -0.002883 -0.002302 0.001468 0.000000 0.030052 0.000000
# 6 0.000000 0.000000 0.000000 0.004645 0.000000 0.041524
#
#
# Mechanical properties :
#
#
# Convention : Reuss Voigt Hill
#
# Bulk Modulus (GPa) = 55.35235 57.64295 56.49765
# Shear Modulus (GPa) = 30.19851 31.68991 30.94421
#
# Velocity S-wave (km/s) = 3.88637 3.98118 3.93406
# Velocity P-wave (km/s) = 6.91543 7.06848 6.99238
#
# Compressibility (1/GPa) = 0.01806608
#
# Stress axis : x y z
#
# Youngs Moduli (GPa) = 83.64980 70.80657 75.84334
#
# Poissons Ratio (x) = 0.12047 0.32084
# Poissons Ratio (y) = 0.14232 0.35393
# Poissons Ratio (z) = 0.35387 0.33042
#
# Static dielectric constant tensor:
#      x y z
#    x 3.976540 0.000000 -0.109590 
#    y 0.000000 3.274300 0.000000 
#    z -0.109590 0.000000 4.081550 
# 
# 
# High freq. dielectric constant tensor:
#      x y z
#    x 1.789760 0.000000 0.004000 
#    y 0.000000 1.774760 0.000000 
#    z 0.004000 0.000000 1.792990 
# 
# From -- ./inp_files/29381.got.cif
#   From: 2010.03.12/outbox.cif.g09.slc.cpg/sg14_15_cif.got.tgz:29381.got - 2010.03.31 13:35:05.
