data_PCOD8124469
_publ_section_title
;
Structure prediction by ZEFSAII (Michael W. Deem and Ramdas Pophale) SiO2 
 PCOD8124469
Probable space group: P 21/C
;
_chemical_formula_sum "Si O2"
_cell_formula_units_Z 28
_cell_length_a 14.514904
_cell_length_b 7.166977
_cell_length_c 20.949813
_cell_angle_alpha 90.000000
_cell_angle_beta 150.951993
_cell_angle_gamma 90.000000
_cell_volume 1058.174714
_symmetry_space_group_name_H-M "P 21/C"
_symmetry_group_IT_number 14
_symmetry_cell_setting 'monoclinic'
loop_
_space_group_symop_operation_xyz
x,y,z
-x,1/2+y,1/2-z
-x,-y,-z
x,1/2-y,1/2+z
loop_
_atom_site_type_symbol
_atom_site_label
_atom_site_fract_x
_atom_site_fract_y
_atom_site_fract_z
Si Si1 0.870650 0.820806 0.219333
Si Si2 0.535931 0.849010 0.346034
Si Si3 0.272708 0.971654 0.078063
Si Si4 0.111709 0.955257 0.472781
Si Si5 0.375855 0.376132 0.836410
Si Si6 0.082157 0.283343 0.555053
Si Si7 0.245818 0.845202 0.926414
O O1 0.756302 0.642466 0.180345
O O2 0.938539 0.955779 0.318126
O O3 0.048402 0.750625 0.283498
O O4 0.736069 0.947919 0.092994
O O5 0.429091 0.868601 0.214571
O O6 0.691276 0.015759 0.444284
O O7 0.412468 0.907056 0.335058
O O8 0.629571 0.645426 0.401411
O O9 0.090137 0.033526 0.013135
O O10 0.203962 0.843073 0.977901
O O11 0.102831 0.762231 0.511553
O O12 0.087173 0.119741 0.507516
O O13 0.274346 0.276428 0.714026
O O14 0.565243 0.268832 0.973420
#
# Coordination Sequence:
#
# PCOD8124469 Si02
#       7
#     4   4   4   4   4   4   4
#     4  11  26  41  66  91 126 171 220 256 319 378
#     4  10  19  37  66  94 128 168 203 268 326 374
#     4  10  21  37  63  94 128 167 211 255 328 381
#     4   9  16  34  59  89 125 156 202 256 306 371
#     4  10  21  45  65  95 126 165 210 270 319 382
#     4   8  17  32  62  94 120 155 204 253 318 371
#     4  12  25  44  64  91 129 175 212 265 311 380
#
# _framework density 26.460659
#
# number of rings (size 3 to 8) (size 9 to 14) (size 15 to 20)
#    0.000    2.000    1.429    3.000    4.000    0.000 
#    2.571    6.429    0.000    0.000    0.000    0.000 
#    0.000    0.000    0.000    0.000    0.000    0.000 
#
# Total GULP energy -346952.986967 kJ/mol
# GULP energy per Si atom -12391.178106 kJ/mol
# Density = 2.640043 g / cm^3
# Si number density = 26.460659 Si / 1000 Ang^3
#
#
#
# Elastic Constant Matrix: (Units=GPa)
#
#
# Indices 1 2 3 4 5 6 
#
# 1 63.3074 3.6761 16.2209 0.0000 9.5179 0.0000
# 2 3.6761 77.1627 6.9017 0.0000 -3.5260 0.0000
# 3 16.2209 6.9017 70.4615 0.0000 8.2228 0.0000
# 4 0.0000 0.0000 0.0000 33.8191 0.0000 -1.3941
# 5 9.5179 -3.5260 8.2228 0.0000 40.1655 0.0000
# 6 0.0000 0.0000 0.0000 -1.3941 0.0000 38.0902
#
#
#
# Elastic Compliance Matrix: (Units=1/GPa)
#
#
# Indices 1 2 3 4 5 6 
#
# 1 0.017248 -0.000665 -0.003506 0.000000 -0.003428 0.000000
# 2 -0.000665 0.013182 -0.001323 0.000000 0.001586 0.000000
# 3 -0.003506 -0.001323 0.015414 0.000000 -0.002441 0.000000
# 4 0.000000 0.000000 0.000000 0.029614 0.000000 0.001084
# 5 -0.003428 0.001586 -0.002441 0.000000 0.026348 0.000000
# 6 0.000000 0.000000 0.000000 0.001084 0.000000 0.026293
#
#
# Mechanical properties :
#
#
# Convention : Reuss Voigt Hill
#
# Bulk Modulus (GPa) = 28.68879 29.39210 29.04045
# Shear Modulus (GPa) = 33.17741 34.69048 33.93395
#
# Velocity S-wave (km/s) = 3.54480 3.62473 3.58499
# Velocity P-wave (km/s) = 5.25545 5.35259 5.30424
#
# Compressibility (1/GPa) = 0.03485682
#
# Stress axis : x y z
#
# Youngs Moduli (GPa) = 57.97732 75.86039 64.87774
#
# Poissons Ratio (x) = 0.05043 0.22743
# Poissons Ratio (y) = 0.03854 0.08584
# Poissons Ratio (z) = 0.20324 0.10038
#
# Static dielectric constant tensor:
#      x y z
#    x 5.252040 0.000000 0.301080 
#    y 0.000000 4.961990 0.000000 
#    z 0.301080 0.000000 4.800910 
# 
# 
# High freq. dielectric constant tensor:
#      x y z
#    x 2.078680 0.000000 0.008410 
#    y 0.000000 2.080990 0.000000 
#    z 0.008410 0.000000 2.051090 
# 
# From -- ./inp_files/68365.got.cif
#   From: 2010.03.12/outbox.cif.g09.slc.cpg/sg14_35_cif.got.tgz:68365.got - 2010.03.31 13:35:05.
