data_PCOD8124938
_publ_section_title
;
Structure prediction by ZEFSAII (Michael W. Deem and Ramdas Pophale) SiO2 
 PCOD8124938
Probable space group: P 21/C
;
_chemical_formula_sum "Si O2"
_cell_formula_units_Z 32
_cell_length_a 8.970753
_cell_length_b 8.772906
_cell_length_c 20.655506
_cell_angle_alpha 90.000000
_cell_angle_beta 110.354057
_cell_angle_gamma 90.000000
_cell_volume 1524.080254
_symmetry_space_group_name_H-M "P 21/C"
_symmetry_group_IT_number 14
_symmetry_cell_setting 'monoclinic'
loop_
_space_group_symop_operation_xyz
x,y,z
-x,1/2+y,1/2-z
-x,-y,-z
x,1/2-y,1/2+z
loop_
_atom_site_type_symbol
_atom_site_label
_atom_site_fract_x
_atom_site_fract_y
_atom_site_fract_z
Si Si1 0.772509 0.978383 0.341298
Si Si2 0.025489 0.370591 0.452142
Si Si3 0.186592 0.464515 0.762226
Si Si4 0.362218 0.345127 0.299099
Si Si5 0.281064 0.686405 0.663477
Si Si6 0.170782 0.064125 0.510710
Si Si7 0.858418 0.048002 0.150316
Si Si8 0.860745 0.381887 0.114862
O O1 0.658798 0.873196 0.280990
O O2 0.719243 0.962707 0.409031
O O3 0.952889 0.921359 0.360824
O O4 0.742590 0.147587 0.308029
O O5 0.847905 0.309258 0.413577
O O6 0.000000 0.500000 0.500000
O O7 0.149504 0.244451 0.496016
O O8 0.094981 0.421617 0.394383
O O9 0.277689 0.314658 0.799096
O O10 0.259204 0.548654 0.710743
O O11 0.205008 0.576041 0.825175
O O12 0.003316 0.420474 0.721607
O O13 0.547537 0.332501 0.343721
O O14 0.289302 0.481811 0.331257
O O15 0.233569 0.973146 0.456505
O O16 0.000000 0.000000 0.500000
O O17 0.823211 0.201835 0.104267
#
# Coordination Sequence:
#
# PCOD8124938 Si02
#       8
#     4   4   4   4   4   4   4   4
#     4  11  21  39  64  92 129 167 211 263 316 389
#     4  11  22  39  67  97 123 164 221 265 315 393
#     4  11  22  37  63  93 125 168 216 264 317 383
#     4  12  24  41  62  97 134 166 211 270 335 385
#     4  11  25  40  62  95 134 169 203 268 340 379
#     4  10  20  35  62  92 119 164 210 264 307 369
#     4  11  22  37  66  94 124 165 218 272 310 380
#     4  11  20  37  64  94 119 161 221 265 312 363
#
# _framework density 20.996269999999999
#
# number of rings (size 3 to 8) (size 9 to 14) (size 15 to 20)
#    0.000    1.000    5.000    3.750    3.500    0.000 
#    0.000    0.625    0.000    3.750    0.000    0.000 
#    0.000    0.000    0.000    0.000    0.000    0.000 
#
# Total GULP energy -396706.237673 kJ/mol
# GULP energy per Si atom -12397.069927 kJ/mol
# Density = 2.094848 g / cm^3
# Si number density = 20.996270 Si / 1000 Ang^3
#
#
#
# Elastic Constant Matrix: (Units=GPa)
#
#
# Indices 1 2 3 4 5 6 
#
# 1 77.6040 33.9389 20.9702 0.0000 0.9819 0.0000
# 2 33.9389 125.2435 17.7701 0.0000 -4.3341 0.0000
# 3 20.9702 17.7701 85.9210 0.0000 -8.0596 0.0000
# 4 0.0000 0.0000 0.0000 38.7196 0.0000 -10.6483
# 5 0.9819 -4.3341 -8.0596 0.0000 17.4213 0.0000
# 6 0.0000 0.0000 0.0000 -10.6483 0.0000 20.8757
#
#
#
# Elastic Compliance Matrix: (Units=1/GPa)
#
#
# Indices 1 2 3 4 5 6 
#
# 1 0.015504 -0.003849 -0.003303 0.000000 -0.003360 0.000000
# 2 -0.003849 0.009210 -0.000763 0.000000 0.002155 0.000000
# 3 -0.003303 -0.000763 0.013174 0.000000 0.006091 0.000000
# 4 0.000000 0.000000 0.000000 0.030041 0.000000 0.015323
# 5 -0.003360 0.002155 0.006091 0.000000 0.060945 0.000000
# 6 0.000000 0.000000 0.000000 0.015323 0.000000 0.055719
#
#
# Mechanical properties :
#
#
# Convention : Reuss Voigt Hill
#
# Bulk Modulus (GPa) = 45.33553 48.23633 46.78593
# Shear Modulus (GPa) = 24.06438 29.80926 26.93682
#
# Velocity S-wave (km/s) = 3.38912 3.77203 3.58569
# Velocity P-wave (km/s) = 6.07897 6.48032 6.28285
#
# Compressibility (1/GPa) = 0.02205776
#
# Stress axis : x y z
#
# Youngs Moduli (GPa) = 64.49812 108.57353 75.90721
#
# Poissons Ratio (x) = 0.41790 0.25073
# Poissons Ratio (y) = 0.24825 0.05794
# Poissons Ratio (z) = 0.21305 0.08287
#
# Static dielectric constant tensor:
#      x y z
#    x 3.444400 0.000000 -0.025090 
#    y 0.000000 2.877890 0.000000 
#    z -0.025090 0.000000 4.439170 
# 
# 
# High freq. dielectric constant tensor:
#      x y z
#    x 1.779300 0.000000 -0.013310 
#    y 0.000000 1.841220 0.000000 
#    z -0.013310 0.000000 1.827490 
# 
# From -- ./inp_files/64873.got.cif
#   From: 2010.03.12/outbox.cif.g09.slc.cpg/sg14_33_cif.got.tgz:64873.got - 2010.03.31 13:35:05.
