data_PCOD8124615
_publ_section_title
;
Structure prediction by ZEFSAII (Michael W. Deem and Ramdas Pophale) SiO2 
 PCOD8124615
Probable space group: P 21/C
;
_chemical_formula_sum "Si O2"
_cell_formula_units_Z 20
_cell_length_a 7.635406
_cell_length_b 14.145424
_cell_length_c 15.432618
_cell_angle_alpha 90.000000
_cell_angle_beta 34.583625
_cell_angle_gamma 90.000000
_cell_volume 946.098991
_symmetry_space_group_name_H-M "P 21/C"
_symmetry_group_IT_number 14
_symmetry_cell_setting 'monoclinic'
loop_
_space_group_symop_operation_xyz
x,y,z
-x,1/2+y,1/2-z
-x,-y,-z
x,1/2-y,1/2+z
loop_
_atom_site_type_symbol
_atom_site_label
_atom_site_fract_x
_atom_site_fract_y
_atom_site_fract_z
Si Si1 0.246684 0.076465 0.576536
Si Si2 0.331300 0.683119 0.406377
Si Si3 0.303702 0.573190 0.243311
Si Si4 0.757351 0.551015 0.338699
Si Si5 0.274051 0.146513 0.745639
O O1 0.374076 0.112784 0.431459
O O2 0.241242 0.155490 0.654211
O O3 0.500000 0.000000 0.500000
O O4 0.912476 0.025586 0.709703
O O5 0.241468 0.628767 0.356077
O O6 0.616156 0.633370 0.338527
O O7 0.437501 0.789863 0.341104
O O8 0.036325 0.687680 0.587389
O O9 0.327708 0.461279 0.253980
O O10 0.014576 0.593775 0.298185
O O11 0.500000 0.500000 0.500000
#
# Coordination Sequence:
#
# PCOD8124615 Si02
#       5
#     4   4   4   4   4
#     4   8  18  40  64  88 122 160 210 253 313 374
#     4  12  24  42  65  95 129 168 215 265 315 375
#     4  10  23  45  65  93 130 167 217 256 316 386
#     4  10  19  39  68  88 119 170 203 259 321 369
#     4  10  23  41  63  94 130 164 212 266 311 377
#
# _framework density 21.139436
#
# number of rings (size 3 to 8) (size 9 to 14) (size 15 to 20)
#    0.000    2.400    4.000    0.600    8.400    0.800 
#    3.600    2.000    0.000    0.000    0.000    0.000 
#    0.000    0.000    0.000    0.000    0.000    0.000 
#
# Total GULP energy -247878.564679 kJ/mol
# GULP energy per Si atom -12393.928234 kJ/mol
# Density = 2.109132 g / cm^3
# Si number density = 21.139436 Si / 1000 Ang^3
#
#
#
# Elastic Constant Matrix: (Units=GPa)
#
#
# Indices 1 2 3 4 5 6 
#
# 1 81.3818 28.7189 34.6003 0.0000 6.6304 0.0000
# 2 28.7189 49.8768 22.9901 0.0000 3.8953 0.0000
# 3 34.6003 22.9901 175.8589 0.0000 1.2326 0.0000
# 4 0.0000 0.0000 0.0000 23.9406 0.0000 -8.5428
# 5 6.6304 3.8953 1.2326 0.0000 20.7704 0.0000
# 6 0.0000 0.0000 0.0000 -8.5428 0.0000 28.9750
#
#
#
# Elastic Compliance Matrix: (Units=1/GPa)
#
#
# Indices 1 2 3 4 5 6 
#
# 1 0.016363 -0.008163 -0.002127 0.000000 -0.003566 0.000000
# 2 -0.008163 0.025717 -0.001741 0.000000 -0.002114 0.000000
# 3 -0.002127 -0.001741 0.006328 0.000000 0.000630 0.000000
# 4 0.000000 0.000000 0.000000 0.046681 0.000000 0.013763
# 5 -0.003566 -0.002114 0.000630 0.000000 0.049643 0.000000
# 6 0.000000 0.000000 0.000000 0.013763 0.000000 0.038570
#
#
# Mechanical properties :
#
#
# Convention : Reuss Voigt Hill
#
# Bulk Modulus (GPa) = 41.07456 53.30399 47.18928
# Shear Modulus (GPa) = 23.20387 29.45775 26.33081
#
# Velocity S-wave (km/s) = 3.31669 3.73701 3.53310
# Velocity P-wave (km/s) = 5.84292 6.62499 6.24621
#
# Compressibility (1/GPa) = 0.02434597
#
# Stress axis : x y z
#
# Youngs Moduli (GPa) = 61.11201 38.88452 158.02419
#
# Poissons Ratio (x) = 0.31741 0.33618
# Poissons Ratio (y) = 0.49885 0.27514
# Poissons Ratio (z) = 0.13001 0.06770
#
# Static dielectric constant tensor:
#      x y z
#    x 3.712130 0.000000 0.374090 
#    y 0.000000 3.686600 0.000000 
#    z 0.374090 0.000000 5.005290 
# 
# 
# High freq. dielectric constant tensor:
#      x y z
#    x 1.798740 0.000000 0.007380 
#    y 0.000000 1.805390 0.000000 
#    z 0.007380 0.000000 1.862270 
# 
# From -- ./inp_files/55689.got.cif
#   From: 2010.03.12/outbox.cif.g09.slc.cpg/sg14_28_cif.got.tgz:55689.got - 2010.03.31 13:35:05.
