data_PCOD8124165
_publ_section_title
;
Structure prediction by ZEFSAII (Michael W. Deem and Ramdas Pophale) SiO2 
 PCOD8124165
Probable space group: P 21/C
;
_chemical_formula_sum "Si O2"
_cell_formula_units_Z 24
_cell_length_a 15.220368
_cell_length_b 13.737511
_cell_length_c 8.925167
_cell_angle_alpha 90.000000
_cell_angle_beta 140.370091
_cell_angle_gamma 90.000000
_cell_volume 1190.287456
_symmetry_space_group_name_H-M "P 21/C"
_symmetry_group_IT_number 14
_symmetry_cell_setting 'monoclinic'
loop_
_space_group_symop_operation_xyz
x,y,z
-x,1/2+y,1/2-z
-x,-y,-z
x,1/2-y,1/2+z
loop_
_atom_site_type_symbol
_atom_site_label
_atom_site_fract_x
_atom_site_fract_y
_atom_site_fract_z
Si Si1 0.526009 0.018117 0.204645
Si Si2 0.193661 0.279868 0.970379
Si Si3 0.612137 0.708549 0.523583
Si Si4 0.217792 0.553735 0.770201
Si Si5 0.439084 0.596683 0.842895
Si Si6 0.940989 0.867731 0.977870
O O1 0.492815 0.132192 0.186861
O O2 0.680938 0.006450 0.471455
O O3 0.423189 0.940530 0.150838
O O4 0.500000 0.000000 0.000000
O O5 0.093524 0.349824 0.744345
O O6 0.271228 0.218299 0.946981
O O7 0.311133 0.333538 0.225815
O O8 0.103453 0.214097 0.963595
O O9 0.537887 0.809289 0.473777
O O10 0.297514 0.617102 0.746677
O O11 0.137579 0.466728 0.580195
O O12 0.106405 0.622251 0.706531
O O13 0.500000 0.500000 0.000000
#
# Coordination Sequence:
#
# PCOD8124165 Si02
#       6
#     4   4   4   4   4   4
#     4  11  21  34  56  86 113 138 181 240 284 321
#     4  10  19  35  57  79 104 142 188 220 271 328
#     4  11  20  34  57  82 109 141 184 235 279 330
#     4  10  21  38  55  77 112 149 184 217 280 340
#     4  10  20  36  57  80 111 149 183 227 283 334
#     4  10  21  37  57  77 107 150 185 224 265 337
#
# _framework density 20.163195000000002
#
# number of rings (size 3 to 8) (size 9 to 14) (size 15 to 20)
#    0.000    1.667    0.000    9.000    0.000    1.333 
#    0.000    3.333    0.000   12.000    0.000    0.000 
#    0.000    0.000    0.000    0.000    0.000    0.000 
#
# Total GULP energy -297318.419821 kJ/mol
# GULP energy per Si atom -12388.267493 kJ/mol
# Density = 2.011730 g / cm^3
# Si number density = 20.163195 Si / 1000 Ang^3
#
#
#
# Elastic Constant Matrix: (Units=GPa)
#
#
# Indices 1 2 3 4 5 6 
#
# 1 128.2934 18.4154 58.3987 0.0000 6.6502 0.0000
# 2 18.4154 57.5632 12.1054 0.0000 13.5191 0.0000
# 3 58.3987 12.1054 83.3184 0.0000 0.7463 0.0000
# 4 0.0000 0.0000 0.0000 30.8717 0.0000 1.2444
# 5 6.6502 13.5191 0.7463 0.0000 36.9547 0.0000
# 6 0.0000 0.0000 0.0000 1.2444 0.0000 22.3735
#
#
#
# Elastic Compliance Matrix: (Units=1/GPa)
#
#
# Indices 1 2 3 4 5 6 
#
# 1 0.011740 -0.001776 -0.007959 0.000000 -0.001302 0.000000
# 2 -0.001776 0.019901 -0.001584 0.000000 -0.006929 0.000000
# 3 -0.007959 -0.001584 0.017796 0.000000 0.001652 0.000000
# 4 0.000000 0.000000 0.000000 0.032465 0.000000 -0.001806
# 5 -0.001302 -0.006929 0.001652 0.000000 0.029796 0.000000
# 6 0.000000 0.000000 0.000000 -0.001806 0.000000 0.044796
#
#
# Mechanical properties :
#
#
# Convention : Reuss Voigt Hill
#
# Bulk Modulus (GPa) = 37.31649 49.66821 43.49235
# Shear Modulus (GPa) = 26.58648 30.05701 28.32175
#
# Velocity S-wave (km/s) = 3.63514 3.86513 3.75190
# Velocity P-wave (km/s) = 6.01385 6.67874 6.35500
#
# Compressibility (1/GPa) = 0.02679780
#
# Stress axis : x y z
#
# Youngs Moduli (GPa) = 85.17909 50.24906 56.19231
#
# Poissons Ratio (x) = 0.08925 0.44723
# Poissons Ratio (y) = 0.15130 0.08903
# Poissons Ratio (z) = 0.67793 0.07961
#
# Static dielectric constant tensor:
#      x y z
#    x 4.621440 0.000000 -0.540590 
#    y 0.000000 21.170890 0.000000 
#    z -0.540590 0.000000 4.288900 
# 
# 
# High freq. dielectric constant tensor:
#      x y z
#    x 1.800250 0.000000 -0.008940 
#    y 0.000000 1.777480 0.000000 
#    z -0.008940 0.000000 1.774650 
# 
# From -- ./inp_files/8514.got.cif
#   From: 2010.03.12/outbox.cif.g09.slc.cpg/sg14_5_cif.got.tgz:8514.got - 2010.03.31 13:35:05.
