data_PCOD8124203
_publ_section_title
;
Structure prediction by ZEFSAII (Michael W. Deem and Ramdas Pophale) SiO2 
 PCOD8124203
Probable space group: P 21/C
;
_chemical_formula_sum "Si O2"
_cell_formula_units_Z 24
_cell_length_a 16.494910
_cell_length_b 10.084142
_cell_length_c 22.429116
_cell_angle_alpha 90.000000
_cell_angle_beta 17.984716
_cell_angle_gamma 90.000000
_cell_volume 1151.931648
_symmetry_space_group_name_H-M "P 21/C"
_symmetry_group_IT_number 14
_symmetry_cell_setting 'monoclinic'
loop_
_space_group_symop_operation_xyz
x,y,z
-x,1/2+y,1/2-z
-x,-y,-z
x,1/2-y,1/2+z
loop_
_atom_site_type_symbol
_atom_site_label
_atom_site_fract_x
_atom_site_fract_y
_atom_site_fract_z
Si Si1 0.976084 0.387561 0.568235
Si Si2 0.417644 0.104802 0.508191
Si Si3 0.703698 0.030976 0.519422
Si Si4 0.369667 0.208450 0.237418
Si Si5 0.907861 0.698761 0.186900
Si Si6 0.320538 0.920795 0.882837
O O1 0.681976 0.348795 0.790265
O O2 0.000000 0.500000 0.500000
O O3 0.111733 0.250317 0.454944
O O4 0.127585 0.451277 0.519752
O O5 0.263164 0.226547 0.644116
O O6 0.500000 0.000000 0.500000
O O7 0.227188 0.044098 0.590401
O O8 0.552501 0.163003 0.604386
O O9 0.969967 0.067773 0.368311
O O10 0.524096 0.936692 0.686155
O O11 0.283904 0.155706 0.232649
O O12 0.521561 0.090519 0.165401
O O13 0.144486 0.789316 0.995421
#
# Coordination Sequence:
#
# PCOD8124203 Si02
#       6
#     4   4   4   4   4   4
#     4  11  17  36  59  84 109 151 201 237 274 351
#     4  12  19  36  60  84 115 155 190 248 285 342
#     4  10  21  37  56  85 118 151 197 240 285 352
#     4  10  19  35  59  85 111 148 198 241 285 344
#     4  11  21  36  60  88 115 153 194 239 300 340
#     4  10  19  36  59  84 111 151 193 244 282 344
#
# _framework density 20.834568999999998
#
# number of rings (size 3 to 8) (size 9 to 14) (size 15 to 20)
#    0.000    1.333    8.333    0.000    0.000    0.667 
#    3.000    1.667    0.000    5.000    0.000    0.000 
#    0.000    0.000    0.000    0.000    0.000    0.000 
#
# Total GULP energy -297514.069863 kJ/mol
# GULP energy per Si atom -12396.419578 kJ/mol
# Density = 2.078715 g / cm^3
# Si number density = 20.834569 Si / 1000 Ang^3
#
#
#
# Elastic Constant Matrix: (Units=GPa)
#
#
# Indices 1 2 3 4 5 6 
#
# 1 181.1230 44.3565 50.4133 0.0000 -22.3572 0.0000
# 2 44.3565 38.6714 33.5638 0.0000 0.0480 0.0000
# 3 50.4133 33.5638 94.0519 0.0000 -2.3850 0.0000
# 4 0.0000 0.0000 0.0000 23.3318 0.0000 -8.4586
# 5 -22.3572 0.0480 -2.3850 0.0000 28.5478 0.0000
# 6 0.0000 0.0000 0.0000 -8.4586 0.0000 28.8762
#
#
#
# Elastic Compliance Matrix: (Units=1/GPa)
#
#
# Indices 1 2 3 4 5 6 
#
# 1 0.009001 -0.009124 -0.001392 0.000000 0.006948 0.000000
# 2 -0.009124 0.046751 -0.012002 0.000000 -0.008227 0.000000
# 3 -0.001392 -0.012002 0.015668 0.000000 0.000239 0.000000
# 4 0.000000 0.000000 0.000000 0.047952 0.000000 0.014046
# 5 0.006948 -0.008227 0.000239 0.000000 0.040504 0.000000
# 6 0.000000 0.000000 0.000000 0.014046 0.000000 0.038745
#
#
# Mechanical properties :
#
#
# Convention : Reuss Voigt Hill
#
# Bulk Modulus (GPa) = 37.90272 63.39041 50.64656
# Shear Modulus (GPa) = 19.80572 28.51867 24.16220
#
# Velocity S-wave (km/s) = 3.08655 3.70376 3.40916
# Velocity P-wave (km/s) = 5.56185 6.98442 6.31333
#
# Compressibility (1/GPa) = 0.02638333
#
# Stress axis : x y z
#
# Youngs Moduli (GPa) = 111.10182 21.38974 63.82528
#
# Poissons Ratio (x) = 0.19517 0.08886
# Poissons Ratio (y) = 1.01372 0.76602
# Poissons Ratio (z) = 0.15468 0.25672
#
# Static dielectric constant tensor:
#      x y z
#    x 4.125680 0.000000 -0.258630 
#    y 0.000000 3.420940 0.000000 
#    z -0.258630 0.000000 4.004600 
# 
# 
# High freq. dielectric constant tensor:
#      x y z
#    x 1.829430 0.000000 -0.012460 
#    y 0.000000 1.765070 0.000000 
#    z -0.012460 0.000000 1.811500 
# 
# From -- ./inp_files/24176.got.cif
#   From: 2010.03.12/outbox.cif.g09.slc.cpg/sg14_13_cif.got.tgz:24176.got - 2010.03.31 13:35:05.
