data_PCOD8124417
_publ_section_title
;
Structure prediction by ZEFSAII (Michael W. Deem and Ramdas Pophale) SiO2 
 PCOD8124417
Probable space group: P 21/C
;
_chemical_formula_sum "Si O2"
_cell_formula_units_Z 28
_cell_length_a 7.379993
_cell_length_b 13.950546
_cell_length_c 16.185977
_cell_angle_alpha 90.000000
_cell_angle_beta 46.591806
_cell_angle_gamma 90.000000
_cell_volume 1210.619279
_symmetry_space_group_name_H-M "P 21/C"
_symmetry_group_IT_number 14
_symmetry_cell_setting 'monoclinic'
loop_
_space_group_symop_operation_xyz
x,y,z
-x,1/2+y,1/2-z
-x,-y,-z
x,1/2-y,1/2+z
loop_
_atom_site_type_symbol
_atom_site_label
_atom_site_fract_x
_atom_site_fract_y
_atom_site_fract_z
Si Si1 0.116822 0.682083 0.042404
Si Si2 0.669350 0.801681 0.378079
Si Si3 0.433584 0.595383 0.635035
Si Si4 0.121304 0.714327 0.857612
Si Si5 0.006167 0.884105 0.141813
Si Si6 0.030801 0.086891 0.100677
Si Si7 0.774692 0.898437 0.781438
O O1 0.394827 0.667160 0.992353
O O2 0.116225 0.657445 0.945419
O O3 0.011746 0.789824 0.084323
O O4 0.947289 0.608215 0.146042
O O5 0.850364 0.793756 0.399873
O O6 0.631513 0.701028 0.341623
O O7 0.787740 0.878223 0.278132
O O8 0.276046 0.606784 0.600450
O O9 0.715670 0.618972 0.524105
O O10 0.414183 0.486317 0.674591
O O11 0.340669 0.670792 0.732913
O O12 0.171341 0.829289 0.855449
O O13 0.951733 0.977535 0.100447
O O14 0.055026 0.079598 0.192429
#
# Coordination Sequence:
#
# PCOD8124417 Si02
#       7
#     4   4   4   4   4   4   4
#     4  11  21  37  59  86 119 148 181 235 286 335
#     4   9  19  38  57  83 118 151 185 233 280 328
#     4  10  19  37  60  83 114 151 188 235 283 330
#     4  10  23  36  56  87 115 147 190 228 283 344
#     4   9  18  34  59  84 111 150 197 230 274 339
#     4  10  19  37  60  83 112 150 192 239 276 323
#     4   9  19  35  60  85 110 151 194 225 280 342
#
# _framework density 23.128658999999999
#
# number of rings (size 3 to 8) (size 9 to 14) (size 15 to 20)
#    0.000    2.286    0.000    5.143    0.000    3.429 
#    0.000    9.286    0.000    1.714    0.000    0.000 
#    0.000    0.000    0.000    0.000    0.000    0.000 
#
# Total GULP energy -347136.005783 kJ/mol
# GULP energy per Si atom -12397.714492 kJ/mol
# Density = 2.307602 g / cm^3
# Si number density = 23.128659 Si / 1000 Ang^3
#
#
#
# Elastic Constant Matrix: (Units=GPa)
#
#
# Indices 1 2 3 4 5 6 
#
# 1 31.9515 11.0845 19.6430 0.0000 8.3975 0.0000
# 2 11.0845 96.8221 44.8287 0.0000 -13.4515 0.0000
# 3 19.6430 44.8287 113.2562 0.0000 6.0310 0.0000
# 4 0.0000 0.0000 0.0000 35.1248 0.0000 -1.7105
# 5 8.3975 -13.4515 6.0310 0.0000 19.6730 0.0000
# 6 0.0000 0.0000 0.0000 -1.7105 0.0000 14.4195
#
#
#
# Elastic Compliance Matrix: (Units=1/GPa)
#
#
# Indices 1 2 3 4 5 6 
#
# 1 0.040923 -0.005773 -0.003733 0.000000 -0.020271 0.000000
# 2 -0.005773 0.015940 -0.006119 0.000000 0.015239 0.000000
# 3 -0.003733 -0.006119 0.012237 0.000000 -0.006342 0.000000
# 4 0.000000 0.000000 0.000000 0.028635 0.000000 0.003397
# 5 -0.020271 0.015239 -0.006342 0.000000 0.071847 0.000000
# 6 0.000000 0.000000 0.000000 0.003397 0.000000 0.069754
#
#
# Mechanical properties :
#
#
# Convention : Reuss Voigt Hill
#
# Bulk Modulus (GPa) = 26.42110 43.68245 35.05178
# Shear Modulus (GPa) = 17.65523 24.94170 21.29847
#
# Velocity S-wave (km/s) = 2.76587 3.28745 3.03787
# Velocity P-wave (km/s) = 4.65279 5.77386 5.24337
#
# Compressibility (1/GPa) = 0.03784853
#
# Stress axis : x y z
#
# Youngs Moduli (GPa) = 24.43633 62.73713 81.72006
#
# Poissons Ratio (x) = 0.36216 0.30508
# Poissons Ratio (y) = 0.14106 0.50008
# Poissons Ratio (z) = 0.09123 0.38391
#
# Static dielectric constant tensor:
#      x y z
#    x 3.738290 0.000000 0.101610 
#    y 0.000000 4.524180 0.000000 
#    z 0.101610 0.000000 4.148500 
# 
# 
# High freq. dielectric constant tensor:
#      x y z
#    x 1.882320 0.000000 0.007800 
#    y 0.000000 1.911700 0.000000 
#    z 0.007800 0.000000 1.920030 
# 
# From -- ./inp_files/25280.got.cif
#   From: 2010.03.12/outbox.cif.g09.slc.cpg/sg14_13_cif.got.tgz:25280.got - 2010.03.31 13:35:05.
