data_PCOD8124703
_publ_section_title
;
Structure prediction by ZEFSAII (Michael W. Deem and Ramdas Pophale) SiO2 
 PCOD8124703
Probable space group: P 21/C
;
_chemical_formula_sum "Si O2"
_cell_formula_units_Z 32
_cell_length_a 18.915855
_cell_length_b 14.832095
_cell_length_c 11.751957
_cell_angle_alpha 90.000000
_cell_angle_beta 26.681630
_cell_angle_gamma 90.000000
_cell_volume 1480.527532
_symmetry_space_group_name_H-M "P 21/C"
_symmetry_group_IT_number 14
_symmetry_cell_setting 'monoclinic'
loop_
_space_group_symop_operation_xyz
x,y,z
-x,1/2+y,1/2-z
-x,-y,-z
x,1/2-y,1/2+z
loop_
_atom_site_type_symbol
_atom_site_label
_atom_site_fract_x
_atom_site_fract_y
_atom_site_fract_z
Si Si1 0.252565 0.022144 0.288865
Si Si2 0.298377 0.747029 0.425680
Si Si3 0.963245 0.556871 0.325682
Si Si4 0.175253 0.140189 0.195468
Si Si5 0.992535 0.191719 0.030041
Si Si6 0.541276 0.133484 0.965364
Si Si7 0.490887 0.800973 0.339510
Si Si8 0.784560 0.388997 0.648799
O O1 0.160235 0.063298 0.313877
O O2 0.359856 0.935584 0.097303
O O3 0.376939 0.093617 0.159074
O O4 0.124493 0.998440 0.570710
O O5 0.328514 0.842697 0.318841
O O6 0.451892 0.738609 0.285582
O O7 0.269164 0.664572 0.384871
O O8 0.150133 0.747521 0.721814
O O9 0.934787 0.616082 0.253230
O O10 0.967899 0.618813 0.430574
O O11 0.816303 0.490416 0.561597
O O12 0.134776 0.239253 0.302410
O O13 0.353833 0.141144 0.897755
O O14 0.945450 0.145625 0.977655
O O15 0.491436 0.229698 0.085549
O O16 0.356189 0.876854 0.557257
#
# Coordination Sequence:
#
# PCOD8124703 Si02
#       8
#     4   4   4   4   4   4   4   4
#     4  11  24  43  66  99 130 173 229 274 331 385
#     4  10  19  43  67  93 130 178 217 270 328 392
#     4  12  26  43  68  98 138 170 224 281 331 388
#     4  12  27  42  66 103 133 176 220 274 329 406
#     4  11  24  42  67  95 134 175 220 264 340 395
#     4  10  22  41  69  93 131 179 221 274 325 396
#     4  10  24  42  69  95 136 177 221 261 339 396
#     4  10  24  42  69  97 130 175 221 274 328 395
#
# _framework density 21.613917000000001
#
# number of rings (size 3 to 8) (size 9 to 14) (size 15 to 20)
#    0.000    1.250    2.500    2.250    8.750    0.500 
#    2.250    0.000    0.000    0.000    0.000    0.000 
#    0.000    0.000    0.000    0.000    0.000    0.000 
#
# Total GULP energy -396606.312083 kJ/mol
# GULP energy per Si atom -12393.947253 kJ/mol
# Density = 2.156472 g / cm^3
# Si number density = 21.613917 Si / 1000 Ang^3
#
#
#
# Elastic Constant Matrix: (Units=GPa)
#
#
# Indices 1 2 3 4 5 6 
#
# 1 80.2443 16.4344 8.9434 0.0000 4.4782 0.0000
# 2 16.4344 85.5704 35.5419 0.0000 5.7599 0.0000
# 3 8.9434 35.5419 70.6802 0.0000 2.4789 0.0000
# 4 0.0000 0.0000 0.0000 34.7523 0.0000 3.8706
# 5 4.4782 5.7599 2.4789 0.0000 25.9163 0.0000
# 6 0.0000 0.0000 0.0000 3.8706 0.0000 35.7750
#
#
#
# Elastic Compliance Matrix: (Units=1/GPa)
#
#
# Indices 1 2 3 4 5 6 
#
# 1 0.013061 -0.002188 -0.000492 0.000000 -0.001724 0.000000
# 2 -0.002188 0.015312 -0.007341 0.000000 -0.002323 0.000000
# 3 -0.000492 -0.007341 0.017902 0.000000 0.000004 0.000000
# 4 0.000000 0.000000 0.000000 0.029126 0.000000 -0.003151
# 5 -0.001724 -0.002323 0.000004 0.000000 0.039399 0.000000
# 6 0.000000 0.000000 0.000000 -0.003151 0.000000 0.028293
#
#
# Mechanical properties :
#
#
# Convention : Reuss Voigt Hill
#
# Bulk Modulus (GPa) = 38.12099 39.81493 38.96796
# Shear Modulus (GPa) = 29.08984 30.99373 30.04179
#
# Velocity S-wave (km/s) = 3.67261 3.79089 3.73222
# Velocity P-wave (km/s) = 5.97157 6.13368 6.05317
#
# Compressibility (1/GPa) = 0.02623227
#
# Stress axis : x y z
#
# Youngs Moduli (GPa) = 76.56329 65.30752 55.85963
#
# Poissons Ratio (x) = 0.14290 0.02748
# Poissons Ratio (y) = 0.16753 0.41009
# Poissons Ratio (z) = 0.03766 0.47945
#
# Static dielectric constant tensor:
#      x y z
#    x 4.009310 0.000000 0.060800 
#    y 0.000000 3.783290 0.000000 
#    z 0.060800 0.000000 4.011480 
# 
# 
# High freq. dielectric constant tensor:
#      x y z
#    x 1.854030 0.000000 -0.000910 
#    y 0.000000 1.841780 0.000000 
#    z -0.000910 0.000000 1.849430 
# 
# From -- ./inp_files/34151.got.cif
#   From: 2010.03.12/outbox.cif.g09.slc.cpg/sg14_18_cif.got.tgz:34151.got - 2010.03.31 13:35:05.
