data_PCOD8124190
_publ_section_title
;
Structure prediction by ZEFSAII (Michael W. Deem and Ramdas Pophale) SiO2 
 PCOD8124190
Probable space group: P 21/C
;
_chemical_formula_sum "Si O2"
_cell_formula_units_Z 28
_cell_length_a 19.302995
_cell_length_b 4.999467
_cell_length_c 22.407924
_cell_angle_alpha 90.000000
_cell_angle_beta 44.643663
_cell_angle_gamma 90.000000
_cell_volume 1519.557622
_symmetry_space_group_name_H-M "P 21/C"
_symmetry_group_IT_number 14
_symmetry_cell_setting 'monoclinic'
loop_
_space_group_symop_operation_xyz
x,y,z
-x,1/2+y,1/2-z
-x,-y,-z
x,1/2-y,1/2+z
loop_
_atom_site_type_symbol
_atom_site_label
_atom_site_fract_x
_atom_site_fract_y
_atom_site_fract_z
Si Si1 0.297688 0.724939 0.673459
Si Si2 0.385330 0.277861 0.176816
Si Si3 0.113320 0.176329 0.144081
Si Si4 0.609549 0.277618 0.511712
Si Si5 0.434069 0.291064 0.781403
Si Si6 0.107420 0.675775 0.227496
Si Si7 0.313156 0.277511 0.969947
O O1 0.314153 0.425997 0.686163
O O2 0.350240 0.779252 0.578447
O O3 0.180301 0.770190 0.738063
O O4 0.342118 0.926231 0.694964
O O5 0.492903 0.261560 0.082119
O O6 0.385502 0.212339 0.246440
O O7 0.125927 0.378972 0.191569
O O8 0.005238 0.209043 0.180785
O O9 0.129742 0.880207 0.159824
O O10 0.195323 0.232627 0.043588
O O11 0.632529 0.579730 0.517298
O O12 0.660595 0.077741 0.527026
O O13 0.476679 0.582983 0.768885
O O14 0.349134 0.222282 0.880930
#
# Coordination Sequence:
#
# PCOD8124190 Si02
#       7
#     4   4   4   4   4   4   4
#     4  12  22  37  55  83 120 149 177 227 288 347
#     4  12  24  37  54  80 117 158 184 219 281 338
#     4  10  19  35  58  86 108 144 183 233 287 322
#     4  12  22  36  56  86 114 150 179 232 283 337
#     4  12  23  41  58  78 111 154 198 235 261 318
#     4  10  20  35  57  83 116 141 181 230 284 342
#     4  12  20  37  62  82 114 142 192 238 278 316
#
# _framework density 18.426416
#
# number of rings (size 3 to 8) (size 9 to 14) (size 15 to 20)
#    0.000    0.571    5.714    4.286    0.000    0.000 
#    0.000    0.000    0.000    1.714    0.000    0.000 
#    0.000    0.000    0.000    0.000    0.000    0.000 
#
# Total GULP energy -347382.047446 kJ/mol
# GULP energy per Si atom -12406.501694 kJ/mol
# Density = 1.838448 g / cm^3
# Si number density = 18.426416 Si / 1000 Ang^3
#
#
#
# Elastic Constant Matrix: (Units=GPa)
#
#
# Indices 1 2 3 4 5 6 
#
# 1 94.7908 8.9695 43.2760 0.0000 -10.6491 0.0000
# 2 8.9695 66.4943 9.6226 0.0000 1.9059 0.0000
# 3 43.2760 9.6226 88.0062 0.0000 -13.7363 0.0000
# 4 0.0000 0.0000 0.0000 18.5592 0.0000 -0.5373
# 5 -10.6491 1.9059 -13.7363 0.0000 25.6593 0.0000
# 6 0.0000 0.0000 0.0000 -0.5373 0.0000 34.9649
#
#
#
# Elastic Compliance Matrix: (Units=1/GPa)
#
#
# Indices 1 2 3 4 5 6 
#
# 1 0.013791 -0.001020 -0.006291 0.000000 0.002432 0.000000
# 2 -0.001020 0.015472 -0.001567 0.000000 -0.002411 0.000000
# 3 -0.006291 -0.001567 0.015536 0.000000 0.005823 0.000000
# 4 0.000000 0.000000 0.000000 0.053906 0.000000 0.000828
# 5 0.002432 -0.002411 0.005823 0.000000 0.043278 0.000000
# 6 0.000000 0.000000 0.000000 0.000828 0.000000 0.028613
#
#
# Mechanical properties :
#
#
# Convention : Reuss Voigt Hill
#
# Bulk Modulus (GPa) = 36.97425 41.44749 39.21087
# Shear Modulus (GPa) = 25.33379 28.33157 26.83268
#
# Velocity S-wave (km/s) = 3.71194 3.92542 3.82017
# Velocity P-wave (km/s) = 6.20329 6.56411 6.38625
#
# Compressibility (1/GPa) = 0.02704585
#
# Stress axis : x y z
#
# Youngs Moduli (GPa) = 72.51032 64.63187 64.36551
#
# Poissons Ratio (x) = 0.06590 0.40490
# Poissons Ratio (y) = 0.07394 0.10084
# Poissons Ratio (z) = 0.45613 0.10126
#
# Static dielectric constant tensor:
#      x y z
#    x 3.363080 0.000000 -0.213090 
#    y 0.000000 3.619180 0.000000 
#    z -0.213090 0.000000 3.394720 
# 
# 
# High freq. dielectric constant tensor:
#      x y z
#    x 1.701000 0.000000 -0.017330 
#    y 0.000000 1.739250 0.000000 
#    z -0.017330 0.000000 1.695780 
# 
# From -- ./inp_files/68910.got.cif
#   From: 2010.03.12/outbox.cif.g09.slc.cpg/sg14_35_cif.got.tgz:68910.got - 2010.03.31 13:35:05.
