data_PCOD8124900
_publ_section_title
;
Structure prediction by ZEFSAII (Michael W. Deem and Ramdas Pophale) SiO2 
 PCOD8124900
Probable space group: P 21/C
;
_chemical_formula_sum "Si O2"
_cell_formula_units_Z 28
_cell_length_a 16.809897
_cell_length_b 15.714152
_cell_length_c 14.002166
_cell_angle_alpha 90.000000
_cell_angle_beta 157.546619
_cell_angle_gamma 90.000000
_cell_volume 1412.657245
_symmetry_space_group_name_H-M "P 21/C"
_symmetry_group_IT_number 14
_symmetry_cell_setting 'monoclinic'
loop_
_space_group_symop_operation_xyz
x,y,z
-x,1/2+y,1/2-z
-x,-y,-z
x,1/2-y,1/2+z
loop_
_atom_site_type_symbol
_atom_site_label
_atom_site_fract_x
_atom_site_fract_y
_atom_site_fract_z
Si Si1 0.921030 0.637955 0.068334
Si Si2 0.998428 0.622547 0.367407
Si Si3 0.786032 0.455273 0.733668
Si Si4 0.357540 0.528271 0.229787
Si Si5 0.171713 0.312407 0.630592
Si Si6 0.584803 0.406926 0.079094
Si Si7 0.842523 0.432980 0.184501
O O1 0.956279 0.663459 0.217619
O O2 0.145806 0.612987 0.270835
O O3 0.749708 0.563701 0.873631
O O4 0.836241 0.717247 0.916109
O O5 0.915153 0.684589 0.357772
O O6 0.887626 0.531283 0.256974
O O7 0.244602 0.610405 0.650516
O O8 0.606484 0.516447 0.488869
O O9 0.685342 0.417642 0.720340
O O10 0.000000 0.500000 0.000000
O O11 0.254000 0.578753 0.027668
O O12 0.411997 0.335847 0.899320
O O13 0.051350 0.377187 0.426097
O O14 0.500000 0.500000 0.000000
O O15 0.677536 0.397362 0.076385
#
# Coordination Sequence:
#
# PCOD8124900 Si02
#       7
#     4   4   4   4   4   4   4
#     4  10  23  37  58  83 121 159 184 239 303 350
#     4  10  21  38  57  86 113 152 198 241 289 352
#     4   9  19  38  59  81 112 153 195 234 282 339
#     4   9  20  37  61  87 111 152 204 236 282 361
#     4  11  22  38  55  88 123 147 194 244 296 352
#     4  11  19  34  63  86 108 150 195 248 295 336
#     4  10  20  35  59  87 112 143 199 246 287 354
#
# _framework density 19.820800999999999
#
# number of rings (size 3 to 8) (size 9 to 14) (size 15 to 20)
#    0.000    2.000    2.857    0.857    2.000    4.571 
#    0.000    5.714    0.000    0.000    0.000    0.000 
#    0.000    0.000    0.000    0.000    0.000    0.000 
#
# Total GULP energy -347096.988774 kJ/mol
# GULP energy per Si atom -12396.321028 kJ/mol
# Density = 1.977569 g / cm^3
# Si number density = 19.820801 Si / 1000 Ang^3
#
#
#
# Elastic Constant Matrix: (Units=GPa)
#
#
# Indices 1 2 3 4 5 6 
#
# 1 110.6016 32.8164 55.6710 0.0000 -14.6579 0.0000
# 2 32.8164 49.1657 11.2979 0.0000 3.6761 0.0000
# 3 55.6710 11.2979 121.9094 0.0000 5.4160 0.0000
# 4 0.0000 0.0000 0.0000 25.6907 0.0000 -4.6663
# 5 -14.6579 3.6761 5.4160 0.0000 39.2045 0.0000
# 6 0.0000 0.0000 0.0000 -4.6663 0.0000 28.5355
#
#
#
# Elastic Compliance Matrix: (Units=1/GPa)
#
#
# Indices 1 2 3 4 5 6 
#
# 1 0.016664 -0.010115 -0.007034 0.000000 0.008150 0.000000
# 2 -0.010115 0.027035 0.002409 0.000000 -0.006650 0.000000
# 3 -0.007034 0.002409 0.011389 0.000000 -0.004429 0.000000
# 4 0.000000 0.000000 0.000000 0.040116 0.000000 0.006560
# 5 0.008150 -0.006650 -0.004429 0.000000 0.029790 0.000000
# 6 0.000000 0.000000 0.000000 0.006560 0.000000 0.036117
#
#
# Mechanical properties :
#
#
# Convention : Reuss Voigt Hill
#
# Bulk Modulus (GPa) = 39.05317 53.47190 46.26253
# Shear Modulus (GPa) = 25.10977 30.81223 27.96100
#
# Velocity S-wave (km/s) = 3.56313 3.94704 3.75999
# Velocity P-wave (km/s) = 6.05589 6.91436 6.49931
#
# Compressibility (1/GPa) = 0.02560612
#
# Stress axis : x y z
#
# Youngs Moduli (GPa) = 60.01110 36.98963 87.80746
#
# Poissons Ratio (x) = 0.37416 0.61766
# Poissons Ratio (y) = 0.60703 -0.21155
# Poissons Ratio (z) = 0.42213 -0.08912
#
# Static dielectric constant tensor:
#      x y z
#    x 3.988270 0.000000 0.099330 
#    y 0.000000 3.507090 0.000000 
#    z 0.099330 0.000000 3.958660 
# 
# 
# High freq. dielectric constant tensor:
#      x y z
#    x 1.784770 0.000000 -0.000140 
#    y 0.000000 1.731370 0.000000 
#    z -0.000140 0.000000 1.787870 
# 
# From -- ./inp_files/49253.got.cif
#   From: 2010.03.12/outbox.cif.g09.slc.cpg/sg14_25_cif.got.tgz:49253.got - 2010.03.31 13:35:05.
