data_PCOD8124816
_publ_section_title
;
Structure prediction by ZEFSAII (Michael W. Deem and Ramdas Pophale) SiO2 
 PCOD8124816
Probable space group: P 21/C
;
_chemical_formula_sum "Si O2"
_cell_formula_units_Z 28
_cell_length_a 15.312638
_cell_length_b 15.738288
_cell_length_c 8.573185
_cell_angle_alpha 90.000000
_cell_angle_beta 140.102366
_cell_angle_gamma 90.000000
_cell_volume 1325.228630
_symmetry_space_group_name_H-M "P 21/C"
_symmetry_group_IT_number 14
_symmetry_cell_setting 'monoclinic'
loop_
_space_group_symop_operation_xyz
x,y,z
-x,1/2+y,1/2-z
-x,-y,-z
x,1/2-y,1/2+z
loop_
_atom_site_type_symbol
_atom_site_label
_atom_site_fract_x
_atom_site_fract_y
_atom_site_fract_z
Si Si1 0.362572 0.711957 0.606273
Si Si2 0.408321 0.629894 0.994740
Si Si3 0.218720 0.025720 0.280184
Si Si4 0.379627 0.048034 0.024397
Si Si5 0.984934 0.473131 0.237463
Si Si6 0.423859 0.394706 0.260941
Si Si7 0.139868 0.917602 0.734083
O O1 0.350706 0.813202 0.561258
O O2 0.473378 0.681793 0.630466
O O3 0.215935 0.670116 0.371974
O O4 0.412605 0.687294 0.846262
O O5 0.563677 0.601058 0.248405
O O6 0.310439 0.549397 0.830272
O O7 0.139335 0.985661 0.317090
O O8 0.306384 0.104035 0.467562
O O9 0.115350 0.063293 0.010138
O O10 0.500841 0.984147 0.151996
O O11 0.361228 0.110695 0.849803
O O12 0.240949 0.999286 0.871772
O O13 0.028901 0.562671 0.216159
O O14 0.936328 0.407923 0.036562
#
# Coordination Sequence:
#
# PCOD8124816 Si02
#       7
#     4   4   4   4   4   4   4
#     4  11  23  36  57  83 114 147 182 234 291 337
#     4  11  23  36  57  83 114 147 182 234 291 337
#     4  10  20  36  59  87 113 143 194 232 273 324
#     4   9  18  33  56  82 109 139 178 229 278 322
#     4  10  20  34  58  86 110 146 184 234 270 324
#     4   9  18  33  56  82 109 139 178 229 278 322
#     4  10  20  36  59  87 113 143 194 232 273 324
#
# _framework density 21.128430999999999
#
# number of rings (size 3 to 8) (size 9 to 14) (size 15 to 20)
#    0.000    2.000    2.857    0.857    6.000    1.714 
#    0.000    0.000    0.000   10.286    0.000    0.000 
#    0.000    0.000    0.000    0.000    0.000    0.000 
#
# Total GULP energy -347063.149893 kJ/mol
# GULP energy per Si atom -12395.112496 kJ/mol
# Density = 2.108034 g / cm^3
# Si number density = 21.128431 Si / 1000 Ang^3
#
#
#
# Elastic Constant Matrix: (Units=GPa)
#
#
# Indices 1 2 3 4 5 6 
#
# 1 42.9675 -6.4563 5.1834 0.0000 -10.9825 0.0000
# 2 -6.4563 42.1476 22.9266 0.0000 0.2793 0.0000
# 3 5.1834 22.9266 125.7570 0.0000 -16.7967 0.0000
# 4 0.0000 0.0000 0.0000 19.2314 0.0000 -5.0810
# 5 -10.9825 0.2793 -16.7967 0.0000 30.9489 0.0000
# 6 0.0000 0.0000 0.0000 -5.0810 0.0000 22.0901
#
#
#
# Elastic Compliance Matrix: (Units=1/GPa)
#
#
# Indices 1 2 3 4 5 6 
#
# 1 0.026287 0.004339 -0.000683 0.000000 0.008918 0.000000
# 2 0.004339 0.027327 -0.005378 0.000000 -0.001625 0.000000
# 3 -0.000683 -0.005378 0.009633 0.000000 0.005034 0.000000
# 4 0.000000 0.000000 0.000000 0.055363 0.000000 0.012734
# 5 0.008918 -0.001625 0.005034 0.000000 0.038223 0.000000
# 6 0.000000 0.000000 0.000000 0.012734 0.000000 0.048198
#
#
# Mechanical properties :
#
#
# Convention : Reuss Voigt Hill
#
# Bulk Modulus (GPa) = 16.72144 28.24216 22.48180
# Shear Modulus (GPa) = 21.89053 27.06862 24.47957
#
# Velocity S-wave (km/s) = 3.22230 3.58319 3.40753
# Velocity P-wave (km/s) = 4.66644 5.52403 5.11325
#
# Compressibility (1/GPa) = 0.05980345
#
# Stress axis : x y z
#
# Youngs Moduli (GPa) = 38.04097 36.59383 103.81184
#
# Poissons Ratio (x) = -0.15880 0.07095
# Poissons Ratio (y) = -0.16508 0.55829
# Poissons Ratio (z) = 0.02600 0.19680
#
# Static dielectric constant tensor:
#      x y z
#    x 3.802320 0.000000 -0.130480 
#    y 0.000000 3.332050 0.000000 
#    z -0.130480 0.000000 4.197070 
# 
# 
# High freq. dielectric constant tensor:
#      x y z
#    x 1.827750 0.000000 -0.018220 
#    y 0.000000 1.768250 0.000000 
#    z -0.018220 0.000000 1.850020 
# 
# From -- ./inp_files/16681.got.cif
#   From: 2010.03.12/outbox.cif.g09.slc.cpg/sg14_9_cif.got.tgz:16681.got - 2010.03.31 13:35:05.
