data_PCOD8124603
_publ_section_title
;
Structure prediction by ZEFSAII (Michael W. Deem and Ramdas Pophale) SiO2 
 PCOD8124603
Probable space group: P 21/C
;
_chemical_formula_sum "Si O2"
_cell_formula_units_Z 20
_cell_length_a 8.692763
_cell_length_b 7.343943
_cell_length_c 18.216797
_cell_angle_alpha 90.000000
_cell_angle_beta 129.834748
_cell_angle_gamma 90.000000
_cell_volume 893.019814
_symmetry_space_group_name_H-M "P 21/C"
_symmetry_group_IT_number 14
_symmetry_cell_setting 'monoclinic'
loop_
_space_group_symop_operation_xyz
x,y,z
-x,1/2+y,1/2-z
-x,-y,-z
x,1/2-y,1/2+z
loop_
_atom_site_type_symbol
_atom_site_label
_atom_site_fract_x
_atom_site_fract_y
_atom_site_fract_z
Si Si1 0.724114 0.517854 0.645116
Si Si2 0.814656 0.706822 0.054682
Si Si3 0.594610 0.652737 0.355245
Si Si4 0.761208 0.383024 0.297151
Si Si5 0.128143 0.879927 0.329400
O O1 0.686679 0.652110 0.565420
O O2 0.521111 0.491751 0.628541
O O3 0.887881 0.605244 0.750239
O O4 0.806818 0.327274 0.637530
O O5 0.789975 0.503719 0.079230
O O6 0.047667 0.760232 0.124711
O O7 0.723959 0.709861 0.945334
O O8 0.749589 0.550449 0.349531
O O9 0.439495 0.762908 0.257288
O O10 0.778469 0.452972 0.218780
#
# Coordination Sequence:
#
# PCOD8124603 Si02
#       5
#     4   4   4   4   4
#     4  10  20  37  64  94 118 167 204 252 305 361
#     4  11  22  42  65  89 124 165 210 254 300 372
#     4  11  23  41  61  93 126 159 209 253 312 371
#     4  10  24  40  62  93 128 164 198 259 318 357
#     4  10  19  39  65  88 125 160 211 247 308 359
#
# _framework density 22.395921000000001
#
# number of rings (size 3 to 8) (size 9 to 14) (size 15 to 20)
#    0.000    1.600    6.000    1.200    2.800    3.200 
#    3.600    1.000    0.000    0.000    0.000    0.000 
#    0.000    0.000    0.000    0.000    0.000    0.000 
#
# Total GULP energy -248023.608314 kJ/mol
# GULP energy per Si atom -12401.180416 kJ/mol
# Density = 2.234495 g / cm^3
# Si number density = 22.395921 Si / 1000 Ang^3
#
#
#
# Elastic Constant Matrix: (Units=GPa)
#
#
# Indices 1 2 3 4 5 6 
#
# 1 34.9511 -12.0075 1.5670 0.0000 13.2791 0.0000
# 2 -12.0075 42.8376 -2.5560 0.0000 -0.8578 0.0000
# 3 1.5670 -2.5560 61.8606 0.0000 5.7615 0.0000
# 4 0.0000 0.0000 0.0000 29.7306 0.0000 -2.0708
# 5 13.2791 -0.8578 5.7615 0.0000 15.6389 0.0000
# 6 0.0000 0.0000 0.0000 -2.0708 0.0000 28.5010
#
#
#
# Elastic Compliance Matrix: (Units=1/GPa)
#
#
# Indices 1 2 3 4 5 6 
#
# 1 0.048911 0.013060 0.003212 0.000000 -0.041998 0.000000
# 2 0.013060 0.026903 0.001736 0.000000 -0.010254 0.000000
# 3 0.003212 0.001736 0.016984 0.000000 -0.008889 0.000000
# 4 0.000000 0.000000 0.000000 0.033806 0.000000 0.002456
# 5 -0.041998 -0.010254 -0.008889 0.000000 0.102316 0.000000
# 6 0.000000 0.000000 0.000000 0.002456 0.000000 0.035265
#
#
# Mechanical properties :
#
#
# Convention : Reuss Voigt Hill
#
# Bulk Modulus (GPa) = 7.76311 12.62847 10.19579
# Shear Modulus (GPa) = 18.44294 24.95048 21.69671
#
# Velocity S-wave (km/s) = 2.87277 3.34138 3.11590
# Velocity P-wave (km/s) = 3.80494 4.53182 4.18420
#
# Compressibility (1/GPa) = 0.12881437
#
# Stress axis : x y z
#
# Youngs Moduli (GPa) = 20.44543 37.17042 58.88019
#
# Poissons Ratio (x) = -0.48546 -0.18914
# Poissons Ratio (y) = -0.26703 -0.10220
# Poissons Ratio (z) = -0.06568 -0.06452
#
# Static dielectric constant tensor:
#      x y z
#    x 3.974960 0.000000 0.081210 
#    y 0.000000 3.929630 0.000000 
#    z 0.081210 0.000000 3.957260 
# 
# 
# High freq. dielectric constant tensor:
#      x y z
#    x 1.873990 0.000000 0.010610 
#    y 0.000000 1.871260 0.000000 
#    z 0.010610 0.000000 1.876720 
# 
# From -- ./inp_files/38720.got.cif
#   From: 2010.03.12/outbox.cif.g09.slc.cpg/sg14_20_cif.got.tgz:38720.got - 2010.03.31 13:35:05.
