data_PCOD8124610
_publ_section_title
;
Structure prediction by ZEFSAII (Michael W. Deem and Ramdas Pophale) SiO2 
 PCOD8124610
Probable space group: P 21/C
;
_chemical_formula_sum "Si O2"
_cell_formula_units_Z 32
_cell_length_a 12.035912
_cell_length_b 8.183343
_cell_length_c 15.019713
_cell_angle_alpha 90.000000
_cell_angle_beta 77.805688
_cell_angle_gamma 90.000000
_cell_volume 1445.972752
_symmetry_space_group_name_H-M "P 21/C"
_symmetry_group_IT_number 14
_symmetry_cell_setting 'monoclinic'
loop_
_space_group_symop_operation_xyz
x,y,z
-x,1/2+y,1/2-z
-x,-y,-z
x,1/2-y,1/2+z
loop_
_atom_site_type_symbol
_atom_site_label
_atom_site_fract_x
_atom_site_fract_y
_atom_site_fract_z
Si Si1 0.325436 0.035787 0.021242
Si Si2 0.051430 0.724672 0.843324
Si Si3 0.130341 0.207501 0.972656
Si Si4 0.473566 0.759015 0.052468
Si Si5 0.502960 0.434043 0.123393
Si Si6 0.691203 0.729675 0.296568
Si Si7 0.089291 0.085967 0.790071
Si Si8 0.747261 0.999729 0.630244
O O1 0.304086 0.153084 0.107416
O O2 0.354005 0.850072 0.048839
O O3 0.209744 0.049073 0.982474
O O4 0.432702 0.099676 0.943573
O O5 0.152212 0.626000 0.871693
O O6 0.009162 0.625879 0.763972
O O7 0.098371 0.893734 0.799256
O O8 0.956613 0.755802 0.934017
O O9 0.065336 0.171147 0.890475
O O10 0.212094 0.364483 0.947758
O O11 0.464313 0.626760 0.134451
O O12 0.525050 0.647524 0.966045
O O13 0.424965 0.330391 0.205133
O O14 0.636860 0.405180 0.114413
O O15 0.793229 0.856353 0.271206
O O16 0.704588 0.581089 0.227756
#
# Coordination Sequence:
#
# PCOD8124610 Si02
#       8
#     4   4   4   4   4   4   4   4
#     4  10  19  39  66  94 133 177 218 277 343 404
#     4  12  26  46  71  98 138 180 231 291 348 409
#     4  11  23  45  71  97 137 180 232 287 344 418
#     4   9  20  36  64  97 131 175 222 276 336 409
#     4  10  21  41  62  99 136 175 225 278 343 412
#     4  10  23  42  63  91 137 173 217 284 338 410
#     4  11  25  46  67 100 133 176 231 288 343 416
#     4  11  25  43  65  97 133 179 229 281 345 408
#
# _framework density 22.130428999999999
#
# number of rings (size 3 to 8) (size 9 to 14) (size 15 to 20)
#    0.000    1.500    2.500    2.250    1.750    3.000 
#    4.500    0.000    0.000    0.000    0.000    0.000 
#    0.000    0.000    0.000    0.000    0.000    0.000 
#
# Total GULP energy -396659.435427 kJ/mol
# GULP energy per Si atom -12395.607357 kJ/mol
# Density = 2.208006 g / cm^3
# Si number density = 22.130429 Si / 1000 Ang^3
#
#
#
# Elastic Constant Matrix: (Units=GPa)
#
#
# Indices 1 2 3 4 5 6 
#
# 1 93.0142 42.8274 12.4543 0.0000 6.9352 0.0000
# 2 42.8274 94.4312 21.2598 0.0000 -6.5657 0.0000
# 3 12.4543 21.2598 62.7210 0.0000 -0.5320 0.0000
# 4 0.0000 0.0000 0.0000 22.0505 0.0000 -1.5774
# 5 6.9352 -6.5657 -0.5320 0.0000 23.6252 0.0000
# 6 0.0000 0.0000 0.0000 -1.5774 0.0000 51.2379
#
#
#
# Elastic Compliance Matrix: (Units=1/GPa)
#
#
# Indices 1 2 3 4 5 6 
#
# 1 0.014441 -0.006842 -0.000601 0.000000 -0.006154 0.000000
# 2 -0.006842 0.014938 -0.003653 0.000000 0.006078 0.000000
# 3 -0.000601 -0.003653 0.017297 0.000000 -0.000449 0.000000
# 4 0.000000 0.000000 0.000000 0.045451 0.000000 0.001399
# 5 -0.006154 0.006078 -0.000449 0.000000 0.045813 0.000000
# 6 0.000000 0.000000 0.000000 0.001399 0.000000 0.019560
#
#
# Mechanical properties :
#
#
# Convention : Reuss Voigt Hill
#
# Bulk Modulus (GPa) = 40.84212 44.80548 42.82380
# Shear Modulus (GPa) = 26.61675 30.95774 28.78724
#
# Velocity S-wave (km/s) = 3.47179 3.74421 3.61057
# Velocity P-wave (km/s) = 5.87932 6.24357 6.06418
#
# Compressibility (1/GPa) = 0.02448452
#
# Stress axis : x y z
#
# Youngs Moduli (GPa) = 69.24925 66.94448 57.81248
#
# Poissons Ratio (x) = 0.45803 0.03472
# Poissons Ratio (y) = 0.47380 0.21120
# Poissons Ratio (z) = 0.04158 0.24456
#
# Static dielectric constant tensor:
#      x y z
#    x 4.139000 0.000000 0.010480 
#    y 0.000000 4.140690 0.000000 
#    z 0.010480 0.000000 3.936600 
# 
# 
# High freq. dielectric constant tensor:
#      x y z
#    x 1.870280 0.000000 -0.000250 
#    y 0.000000 1.876150 0.000000 
#    z -0.000250 0.000000 1.861880 
# 
# From -- ./inp_files/43699.got.cif
#   From: 2010.03.12/outbox.cif.g09.slc.cpg/sg14_22_cif.got.tgz:43699.got - 2010.03.31 13:35:05.
