data_PCOD8124409
_publ_section_title
;
Structure prediction by ZEFSAII (Michael W. Deem and Ramdas Pophale) SiO2 
 PCOD8124409
Probable space group: P 21/C
;
_chemical_formula_sum "Si O2"
_cell_formula_units_Z 32
_cell_length_a 13.833215
_cell_length_b 8.403609
_cell_length_c 23.673122
_cell_angle_alpha 90.000000
_cell_angle_beta 31.549053
_cell_angle_gamma 90.000000
_cell_volume 1439.911391
_symmetry_space_group_name_H-M "P 21/C"
_symmetry_group_IT_number 14
_symmetry_cell_setting 'monoclinic'
loop_
_space_group_symop_operation_xyz
x,y,z
-x,1/2+y,1/2-z
-x,-y,-z
x,1/2-y,1/2+z
loop_
_atom_site_type_symbol
_atom_site_label
_atom_site_fract_x
_atom_site_fract_y
_atom_site_fract_z
Si Si1 0.548163 0.637973 0.907039
Si Si2 0.137028 0.139284 0.498850
Si Si3 0.979107 0.709937 0.061637
Si Si4 0.506846 0.516166 0.806981
Si Si5 0.336942 0.418428 0.710466
Si Si6 0.069433 0.844642 0.290419
Si Si7 0.345812 0.855142 0.868151
Si Si8 0.805480 0.065104 0.354544
O O1 0.585170 0.545029 0.830316
O O2 0.594931 0.824431 0.878640
O O3 0.684528 0.570622 0.885644
O O4 0.330315 0.636631 0.030486
O O5 0.068872 0.244399 0.480040
O O6 0.356719 0.124909 0.386482
O O7 0.073826 0.216403 0.590228
O O8 0.050688 0.966064 0.536751
O O9 0.795277 0.712295 0.191454
O O10 0.138224 0.839767 0.998071
O O11 0.419699 0.675493 0.823533
O O12 0.664669 0.446854 0.686704
O O13 0.246139 0.583238 0.735839
O O14 0.515239 0.455303 0.660885
O O15 0.128330 0.698665 0.222078
O O16 0.981810 0.985889 0.296433
#
# Coordination Sequence:
#
# PCOD8124409 Si02
#       8
#     4   4   4   4   4   4   4   4
#     4  10  23  42  62  86 128 169 212 260 334 368
#     4   9  17  34  59  88 115 162 203 242 312 378
#     4   9  18  33  60  89 127 157 199 244 305 393
#     4  10  19  37  59  87 126 165 199 253 309 385
#     4  10  21  39  63  93 126 168 200 256 326 388
#     4  11  23  40  68  90 121 163 222 269 322 376
#     4  10  21  34  60  92 128 163 201 248 310 390
#     4  11  24  43  65  89 120 166 220 280 312 372
#
# _framework density 22.223590000000002
#
# number of rings (size 3 to 8) (size 9 to 14) (size 15 to 20)
#    0.000    2.000    2.500    0.750    5.250    0.500 
#    0.000    3.750    0.000    0.000    0.000    0.000 
#    0.000    0.000    0.000    0.000    0.000    0.000 
#
# Total GULP energy -396597.572791 kJ/mol
# GULP energy per Si atom -12393.674150 kJ/mol
# Density = 2.217301 g / cm^3
# Si number density = 22.223590 Si / 1000 Ang^3
#
#
#
# Elastic Constant Matrix: (Units=GPa)
#
#
# Indices 1 2 3 4 5 6 
#
# 1 82.2395 7.4261 20.2956 0.0000 2.7691 0.0000
# 2 7.4261 26.9417 11.9359 0.0000 11.2548 0.0000
# 3 20.2956 11.9359 52.8317 0.0000 7.7693 0.0000
# 4 0.0000 0.0000 0.0000 30.8967 0.0000 12.3267
# 5 2.7691 11.2548 7.7693 0.0000 37.4001 0.0000
# 6 0.0000 0.0000 0.0000 12.3267 0.0000 32.4351
#
#
#
# Elastic Compliance Matrix: (Units=1/GPa)
#
#
# Indices 1 2 3 4 5 6 
#
# 1 0.013503 -0.001798 -0.004862 0.000000 0.000551 0.000000
# 2 -0.001798 0.046203 -0.007966 0.000000 -0.012116 0.000000
# 3 -0.004862 -0.007966 0.022889 0.000000 -0.001998 0.000000
# 4 0.000000 0.000000 0.000000 0.038150 0.000000 -0.014499
# 5 0.000551 -0.012116 -0.001998 0.000000 0.030758 0.000000
# 6 0.000000 0.000000 0.000000 -0.014499 0.000000 0.036341
#
#
# Mechanical properties :
#
#
# Convention : Reuss Voigt Hill
#
# Bulk Modulus (GPa) = 18.74644 26.81421 22.78032
# Shear Modulus (GPa) = 21.28753 28.30340 24.79547
#
# Velocity S-wave (km/s) = 3.09832 3.57259 3.34387
# Velocity P-wave (km/s) = 4.61011 5.39534 5.01811
#
# Compressibility (1/GPa) = 0.05334348
#
# Stress axis : x y z
#
# Youngs Moduli (GPa) = 74.05572 21.64344 43.68851
#
# Poissons Ratio (x) = 0.03892 0.21242
# Poissons Ratio (y) = 0.13317 0.34801
# Poissons Ratio (z) = 0.36007 0.17241
#
# Static dielectric constant tensor:
#      x y z
#    x 4.040290 0.000000 0.014520 
#    y 0.000000 3.561630 0.000000 
#    z 0.014520 0.000000 4.358070 
# 
# 
# High freq. dielectric constant tensor:
#      x y z
#    x 1.875560 0.000000 -0.001330 
#    y 0.000000 1.841730 0.000000 
#    z -0.001330 0.000000 1.880160 
# 
# From -- ./inp_files/77490.got.cif
#   From: 2010.03.12/outbox.cif.g09.slc.cpg/sg14_39_cif.got.tgz:77490.got - 2010.03.31 13:35:05.
