data_PCOD8124399
_publ_section_title
;
Structure prediction by ZEFSAII (Michael W. Deem and Ramdas Pophale) SiO2 
 PCOD8124399
Probable space group: P 21/C
;
_chemical_formula_sum "Si O2"
_cell_formula_units_Z 32
_cell_length_a 26.559487
_cell_length_b 7.896886
_cell_length_c 13.049138
_cell_angle_alpha 90.000000
_cell_angle_beta 33.995850
_cell_angle_gamma 90.000000
_cell_volume 1530.285229
_symmetry_space_group_name_H-M "P 21/C"
_symmetry_group_IT_number 14
_symmetry_cell_setting 'monoclinic'
loop_
_space_group_symop_operation_xyz
x,y,z
-x,1/2+y,1/2-z
-x,-y,-z
x,1/2-y,1/2+z
loop_
_atom_site_type_symbol
_atom_site_label
_atom_site_fract_x
_atom_site_fract_y
_atom_site_fract_z
Si Si1 0.694610 0.793875 0.984317
Si Si2 0.558234 0.538636 0.110684
Si Si3 0.413609 0.297613 0.145491
Si Si4 0.086889 0.477522 0.048206
Si Si5 0.567833 0.318451 0.523997
Si Si6 0.281073 0.041401 0.262951
Si Si7 0.113307 0.324092 0.344088
Si Si8 0.036592 0.851488 0.071760
O O1 0.720191 0.932447 0.857713
O O2 0.785416 0.700061 0.869522
O O3 0.633471 0.649095 0.037259
O O4 0.638767 0.886011 0.170425
O O5 0.467151 0.544847 0.332565
O O6 0.585436 0.344784 0.063263
O O7 0.545510 0.581014 0.010691
O O8 0.496952 0.192913 0.050452
O O9 0.334174 0.185903 0.232187
O O10 0.176343 0.471148 0.970449
O O11 0.089039 0.332946 0.958524
O O12 0.083083 0.669058 0.010571
O O13 0.999755 0.435391 0.262557
O O14 0.662867 0.369673 0.313236
O O15 0.106675 0.508868 0.409919
O O16 0.045735 0.317795 0.364417
#
# Coordination Sequence:
#
# PCOD8124399 Si02
#       8
#     4   4   4   4   4   4   4   4
#     4   9  20  38  58  82 115 150 190 237 293 338
#     4  10  21  35  58  82 114 154 193 234 287 341
#     4  10  19  37  58  82 117 155 190 235 291 342
#     4  11  22  41  63  93 122 159 202 255 302 368
#     4  11  21  36  56  83 115 154 193 236 284 346
#     4  10  22  36  57  84 117 149 195 239 289 345
#     4  10  22  40  63  89 122 161 196 255 299 368
#     4  11  22  39  66  88 121 156 206 243 317 361
#
# _framework density 20.911134000000001
#
# number of rings (size 3 to 8) (size 9 to 14) (size 15 to 20)
#    0.000    1.750    1.250    4.125    1.750    1.000 
#    0.000    0.000    5.500    0.000    0.000    0.000 
#    0.000    0.000    0.000    0.000    0.000    0.000 
#
# Total GULP energy -396535.026437 kJ/mol
# GULP energy per Si atom -12391.719576 kJ/mol
# Density = 2.086354 g / cm^3
# Si number density = 20.911134 Si / 1000 Ang^3
#
#
#
# Elastic Constant Matrix: (Units=GPa)
#
#
# Indices 1 2 3 4 5 6 
#
# 1 64.3345 -0.5581 8.3999 0.0000 -1.3696 0.0000
# 2 -0.5581 72.5720 -13.5916 0.0000 -1.2191 0.0000
# 3 8.3999 -13.5916 44.5389 0.0000 -3.5594 0.0000
# 4 0.0000 0.0000 0.0000 24.2959 0.0000 1.9382
# 5 -1.3696 -1.2191 -3.5594 0.0000 26.0137 0.0000
# 6 0.0000 0.0000 0.0000 1.9382 0.0000 18.3732
#
#
#
# Elastic Compliance Matrix: (Units=1/GPa)
#
#
# Indices 1 2 3 4 5 6 
#
# 1 0.015955 -0.000454 -0.003116 0.000000 0.000392 0.000000
# 2 -0.000454 0.014672 0.004667 0.000000 0.001302 0.000000
# 3 -0.003116 0.004667 0.024739 0.000000 0.003440 0.000000
# 4 0.000000 0.000000 0.000000 0.041509 0.000000 -0.004379
# 5 0.000392 0.001302 0.003440 0.000000 0.038994 0.000000
# 6 0.000000 0.000000 0.000000 -0.004379 0.000000 0.054889
#
#
# Mechanical properties :
#
#
# Convention : Reuss Voigt Hill
#
# Bulk Modulus (GPa) = 17.37359 18.88289 18.12824
# Shear Modulus (GPa) = 24.06730 26.21624 25.14177
#
# Velocity S-wave (km/s) = 3.39622 3.54460 3.47120
# Velocity P-wave (km/s) = 4.86882 5.07956 4.97531
#
# Compressibility (1/GPa) = 0.05755864
#
# Stress axis : x y z
#
# Youngs Moduli (GPa) = 62.67602 68.15769 40.42182
#
# Poissons Ratio (x) = 0.03097 0.12597
# Poissons Ratio (y) = 0.02848 -0.18865
# Poissons Ratio (z) = 0.19532 -0.31810
#
# Static dielectric constant tensor:
#      x y z
#    x 3.882040 0.000000 0.042750 
#    y 0.000000 3.643940 0.000000 
#    z 0.042750 0.000000 4.080800 
# 
# 
# High freq. dielectric constant tensor:
#      x y z
#    x 1.825100 0.000000 0.001020 
#    y 0.000000 1.809320 0.000000 
#    z 0.001020 0.000000 1.823660 
# 
# From -- ./inp_files/33676.got.cif
#   From: 2010.03.12/outbox.cif.g09.slc.cpg/sg14_17_cif.got.tgz:33676.got - 2010.03.31 13:35:05.
