data_PCOD8124672
_publ_section_title
;
Structure prediction by ZEFSAII (Michael W. Deem and Ramdas Pophale) SiO2 
 PCOD8124672
Probable space group: P 21/C
;
_chemical_formula_sum "Si O2"
_cell_formula_units_Z 28
_cell_length_a 19.940109
_cell_length_b 14.179309
_cell_length_c 13.213461
_cell_angle_alpha 90.000000
_cell_angle_beta 21.556272
_cell_angle_gamma 90.000000
_cell_volume 1372.637560
_symmetry_space_group_name_H-M "P 21/C"
_symmetry_group_IT_number 14
_symmetry_cell_setting 'monoclinic'
loop_
_space_group_symop_operation_xyz
x,y,z
-x,1/2+y,1/2-z
-x,-y,-z
x,1/2-y,1/2+z
loop_
_atom_site_type_symbol
_atom_site_label
_atom_site_fract_x
_atom_site_fract_y
_atom_site_fract_z
Si Si1 0.487428 0.611608 0.309715
Si Si2 0.884929 0.911653 0.198529
Si Si3 0.947541 0.675897 0.411177
Si Si4 0.004443 0.966075 0.236991
Si Si5 0.650887 0.539741 0.362524
Si Si6 0.273142 0.818754 0.927321
Si Si7 0.417284 0.227294 0.123420
O O1 0.367548 0.519358 0.508164
O O2 0.371307 0.676622 0.397768
O O3 0.540898 0.676665 0.329459
O O4 0.667126 0.570978 0.001741
O O5 0.940713 0.893932 0.237035
O O6 0.926507 0.825061 0.063586
O O7 0.000000 0.000000 0.000000
O O8 0.771190 0.716632 0.602340
O O9 0.965835 0.570013 0.346119
O O10 0.123348 0.736666 0.137047
O O11 0.853760 0.972043 0.535439
O O12 0.187855 0.921517 0.025167
O O13 0.500000 0.500000 0.500000
O O14 0.607060 0.651048 0.434139
O O15 0.418231 0.796890 0.635542
#
# Coordination Sequence:
#
# PCOD8124672 Si02
#       7
#     4   4   4   4   4   4   4
#     4  11  23  43  66  99 133 174 233 278 333 405
#     4  10  21  40  66  92 128 176 220 272 341 405
#     4  11  23  44  66  95 136 180 223 278 341 395
#     4  11  23  44  66  96 135 176 225 279 337 404
#     4  10  19  41  68  88 123 177 221 266 334 394
#     4  12  26  43  65 106 135 173 235 279 334 404
#     4  11  23  44  68  93 136 182 221 277 340 405
#
# _framework density 20.398683999999999
#
# number of rings (size 3 to 8) (size 9 to 14) (size 15 to 20)
#    0.000    1.143    5.714    1.714    4.000    1.143 
#    5.143    0.000    0.000    0.000    0.000    0.000 
#    0.000    0.000    0.000    0.000    0.000    0.000 
#
# Total GULP energy -347100.700374 kJ/mol
# GULP energy per Si atom -12396.453585 kJ/mol
# Density = 2.035226 g / cm^3
# Si number density = 20.398684 Si / 1000 Ang^3
#
#
#
# Elastic Constant Matrix: (Units=GPa)
#
#
# Indices 1 2 3 4 5 6 
#
# 1 77.1205 33.2152 43.7890 0.0000 -8.9647 0.0000
# 2 33.2152 94.1028 51.9413 0.0000 -11.8005 0.0000
# 3 43.7890 51.9413 151.0660 0.0000 -7.5142 0.0000
# 4 0.0000 0.0000 0.0000 36.5423 0.0000 -4.9385
# 5 -8.9647 -11.8005 -7.5142 0.0000 26.5683 0.0000
# 6 0.0000 0.0000 0.0000 -4.9385 0.0000 30.8973
#
#
#
# Elastic Compliance Matrix: (Units=1/GPa)
#
#
# Indices 1 2 3 4 5 6 
#
# 1 0.016874 -0.003646 -0.003484 0.000000 0.003089 0.000000
# 2 -0.003646 0.014486 -0.003718 0.000000 0.004153 0.000000
# 3 -0.003484 -0.003718 0.008892 0.000000 -0.000312 0.000000
# 4 0.000000 0.000000 0.000000 0.027970 0.000000 0.004471
# 5 0.003089 0.004153 -0.000312 0.000000 0.040437 0.000000
# 6 0.000000 0.000000 0.000000 0.004471 0.000000 0.033080
#
#
# Mechanical properties :
#
#
# Convention : Reuss Voigt Hill
#
# Bulk Modulus (GPa) = 53.88466 64.46446 59.17456
# Shear Modulus (GPa) = 29.47765 31.69117 30.58441
#
# Velocity S-wave (km/s) = 3.80554 3.94584 3.87632
# Velocity P-wave (km/s) = 6.76628 7.24088 7.00760
#
# Compressibility (1/GPa) = 0.01855816
#
# Stress axis : x y z
#
# Youngs Moduli (GPa) = 59.26200 69.03167 112.45743
#
# Poissons Ratio (x) = 0.25166 0.39182
# Poissons Ratio (y) = 0.21604 0.41806
# Poissons Ratio (z) = 0.20648 0.25663
#
# Static dielectric constant tensor:
#      x y z
#    x 3.844660 0.000000 0.146500 
#    y 0.000000 3.875710 0.000000 
#    z 0.146500 0.000000 3.931870 
# 
# 
# High freq. dielectric constant tensor:
#      x y z
#    x 1.782990 0.000000 0.003230 
#    y 0.000000 1.792990 0.000000 
#    z 0.003230 0.000000 1.815880 
# 
# From -- ./inp_files/50562.got.cif
#   From: 2010.03.12/outbox.cif.g09.slc.cpg/sg14_26_cif.got.tgz:50562.got - 2010.03.31 13:35:05.
