data_PCOD8124618
_publ_section_title
;
Structure prediction by ZEFSAII (Michael W. Deem and Ramdas Pophale) SiO2 
 PCOD8124618
Probable space group: P 21/C
;
_chemical_formula_sum "Si O2"
_cell_formula_units_Z 28
_cell_length_a 5.534758
_cell_length_b 13.115031
_cell_length_c 19.579691
_cell_angle_alpha 90.000000
_cell_angle_beta 116.938783
_cell_angle_gamma 90.000000
_cell_volume 1267.041361
_symmetry_space_group_name_H-M "P 21/C"
_symmetry_group_IT_number 14
_symmetry_cell_setting 'monoclinic'
loop_
_space_group_symop_operation_xyz
x,y,z
-x,1/2+y,1/2-z
-x,-y,-z
x,1/2-y,1/2+z
loop_
_atom_site_type_symbol
_atom_site_label
_atom_site_fract_x
_atom_site_fract_y
_atom_site_fract_z
Si Si1 0.390688 0.014115 0.104731
Si Si2 0.897734 0.493688 0.766630
Si Si3 0.580824 0.780881 0.959705
Si Si4 0.296503 0.796325 0.698785
Si Si5 0.809431 0.193887 0.682046
Si Si6 0.149332 0.374603 0.686917
Si Si7 0.773783 0.295429 0.455275
O O1 0.625055 0.983342 0.189003
O O2 0.494669 0.100240 0.065618
O O3 0.142642 0.065437 0.114677
O O4 0.272319 0.916553 0.051903
O O5 0.853669 0.406550 0.818603
O O6 0.016282 0.595303 0.816724
O O7 0.131345 0.455585 0.745723
O O8 0.492421 0.697573 0.889593
O O9 0.420280 0.751594 0.009404
O O10 0.907080 0.768400 0.002991
O O11 0.158176 0.712578 0.731984
O O12 0.583077 0.808654 0.771243
O O13 0.333494 0.755209 0.628078
O O14 0.908025 0.294608 0.654315
#
# Coordination Sequence:
#
# PCOD8124618 Si02
#       7
#     4   4   4   4   4   4   4
#     4  11  22  42  65 106 132 180 220 289 349 412
#     4  10  22  38  73 100 126 178 242 287 333 395
#     4  12  26  44  65 102 147 177 221 280 354 415
#     4  10  23  43  65  97 132 178 241 279 330 419
#     4  11  22  42  69  94 136 181 227 286 336 408
#     4  10  19  39  69  95 135 164 239 285 333 394
#     4  12  28  42  70 100 144 184 216 283 355 411
#
# _framework density 22.098728000000001
#
# number of rings (size 3 to 8) (size 9 to 14) (size 15 to 20)
#    0.000    1.143    4.286    3.429    8.000    1.143 
#    0.000    1.429    0.000    0.000    0.000    0.000 
#    0.000    0.000    0.000    0.000    0.000    0.000 
#
# Total GULP energy -346969.552973 kJ/mol
# GULP energy per Si atom -12391.769749 kJ/mol
# Density = 2.204843 g / cm^3
# Si number density = 22.098728 Si / 1000 Ang^3
#
#
#
# Elastic Constant Matrix: (Units=GPa)
#
#
# Indices 1 2 3 4 5 6 
#
# 1 108.4688 18.6188 21.0793 0.0000 -18.1048 0.0000
# 2 18.6188 57.7539 19.7669 0.0000 -8.0350 0.0000
# 3 21.0793 19.7669 61.5725 0.0000 -22.2859 0.0000
# 4 0.0000 0.0000 0.0000 26.7898 0.0000 2.4335
# 5 -18.1048 -8.0350 -22.2859 0.0000 34.1382 0.0000
# 6 0.0000 0.0000 0.0000 2.4335 0.0000 22.6420
#
#
#
# Elastic Compliance Matrix: (Units=1/GPa)
#
#
# Indices 1 2 3 4 5 6 
#
# 1 0.010585 -0.002369 -0.001353 0.000000 0.004173 0.000000
# 2 -0.002369 0.019994 -0.005708 0.000000 -0.000277 0.000000
# 3 -0.001353 -0.005708 0.023295 0.000000 0.013146 0.000000
# 4 0.000000 0.000000 0.000000 0.037696 0.000000 -0.004051
# 5 0.004173 -0.000277 0.013146 0.000000 0.040023 0.000000
# 6 0.000000 0.000000 0.000000 -0.004051 0.000000 0.044601
#
#
# Mechanical properties :
#
#
# Convention : Reuss Voigt Hill
#
# Bulk Modulus (GPa) = 28.55960 38.52500 33.54230
# Shear Modulus (GPa) = 24.18687 27.93603 26.06145
#
# Velocity S-wave (km/s) = 3.31190 3.55934 3.43785
# Velocity P-wave (km/s) = 5.25134 5.86198 5.56504
#
# Compressibility (1/GPa) = 0.03501450
#
# Stress axis : x y z
#
# Youngs Moduli (GPa) = 94.47044 50.01605 42.92809
#
# Poissons Ratio (x) = 0.11848 0.05808
# Poissons Ratio (y) = 0.22379 0.24502
# Poissons Ratio (z) = 0.12782 0.28548
#
# Static dielectric constant tensor:
#      x y z
#    x 4.308680 0.000000 -0.077450 
#    y 0.000000 3.816770 0.000000 
#    z -0.077450 0.000000 3.805270 
# 
# 
# High freq. dielectric constant tensor:
#      x y z
#    x 1.885690 0.000000 0.000770 
#    y 0.000000 1.848710 0.000000 
#    z 0.000770 0.000000 1.857270 
# 
# From -- ./inp_files/53517.got.cif
#   From: 2010.03.12/outbox.cif.g09.slc.cpg/sg14_27_cif.got.tgz:53517.got - 2010.03.31 13:35:05.
