data_PCOD8124163
_publ_section_title
;
Structure prediction by ZEFSAII (Michael W. Deem and Ramdas Pophale) SiO2 
 PCOD8124163
Probable space group: P 21/C
;
_chemical_formula_sum "Si O2"
_cell_formula_units_Z 32
_cell_length_a 21.362145
_cell_length_b 9.107409
_cell_length_c 17.062924
_cell_angle_alpha 90.000000
_cell_angle_beta 152.916885
_cell_angle_gamma 90.000000
_cell_volume 1511.381680
_symmetry_space_group_name_H-M "P 21/C"
_symmetry_group_IT_number 14
_symmetry_cell_setting 'monoclinic'
loop_
_space_group_symop_operation_xyz
x,y,z
-x,1/2+y,1/2-z
-x,-y,-z
x,1/2-y,1/2+z
loop_
_atom_site_type_symbol
_atom_site_label
_atom_site_fract_x
_atom_site_fract_y
_atom_site_fract_z
Si Si1 0.918843 0.375549 0.660385
Si Si2 0.275427 0.692844 0.773448
Si Si3 0.305934 0.668020 0.155409
Si Si4 0.797768 0.912519 0.912448
Si Si5 0.480704 0.331497 0.835710
Si Si6 0.076270 0.787922 0.186109
Si Si7 0.794601 0.948845 0.573325
Si Si8 0.481107 0.142120 0.693685
O O1 0.835146 0.247079 0.526033
O O2 0.864406 0.532602 0.569483
O O3 0.903988 0.357186 0.737801
O O4 0.078764 0.352280 0.815790
O O5 0.308979 0.831682 0.753814
O O6 0.247194 0.550263 0.689613
O O7 0.141290 0.738930 0.673592
O O8 0.404238 0.652870 0.970519
O O9 0.293607 0.510098 0.100104
O O10 0.444799 0.751390 0.284875
O O11 0.667264 0.810475 0.787233
O O12 0.913848 0.821270 0.995331
O O13 0.522136 0.193615 0.827437
O O14 0.470836 0.476112 0.769727
O O15 0.156484 0.924087 0.314026
O O16 0.685670 0.847346 0.499395
#
# Coordination Sequence:
#
# PCOD8124163 Si02
#       8
#     4   4   4   4   4   4   4   4
#     4   9  18  35  59  80 115 149 194 242 293 337
#     4  11  21  36  57  83 120 156 191 241 299 343
#     4  10  21  37  58  88 119 154 197 249 291 348
#     4  10  21  34  57  85 116 145 197 244 286 350
#     4  12  23  37  63  86 116 154 202 243 297 347
#     4  10  19  35  56  88 111 154 193 244 289 347
#     4  10  20  37  60  86 116 153 202 247 288 346
#     4  12  21  39  61  88 116 157 200 250 286 351
#
# _framework density 21.17268
#
# number of rings (size 3 to 8) (size 9 to 14) (size 15 to 20)
#    0.000    1.500    5.000    2.250    0.000    0.000 
#    0.000    1.250    0.000    0.000    0.000    0.000 
#    0.000    0.000    0.000    0.000    0.000    0.000 
#
# Total GULP energy -396616.013899 kJ/mol
# GULP energy per Si atom -12394.250434 kJ/mol
# Density = 2.112449 g / cm^3
# Si number density = 21.172680 Si / 1000 Ang^3
#
#
#
# Elastic Constant Matrix: (Units=GPa)
#
#
# Indices 1 2 3 4 5 6 
#
# 1 159.0625 26.5618 65.4106 0.0000 22.5231 0.0000
# 2 26.5618 30.3686 27.4106 0.0000 4.1365 0.0000
# 3 65.4106 27.4106 104.1004 0.0000 24.2307 0.0000
# 4 0.0000 0.0000 0.0000 10.7525 0.0000 1.7144
# 5 22.5231 4.1365 24.2307 0.0000 42.6567 0.0000
# 6 0.0000 0.0000 0.0000 1.7144 0.0000 27.0723
#
#
#
# Elastic Compliance Matrix: (Units=1/GPa)
#
#
# Indices 1 2 3 4 5 6 
#
# 1 0.008899 -0.003782 -0.004134 0.000000 -0.001984 0.000000
# 2 -0.003782 0.045057 -0.010297 0.000000 0.003477 0.000000
# 3 -0.004134 -0.010297 0.016334 0.000000 -0.006097 0.000000
# 4 0.000000 0.000000 0.000000 0.093950 0.000000 -0.005950
# 5 -0.001984 0.003477 -0.006097 0.000000 0.027617 0.000000
# 6 0.000000 0.000000 0.000000 -0.005950 0.000000 0.037315
#
#
# Mechanical properties :
#
#
# Convention : Reuss Voigt Hill
#
# Bulk Modulus (GPa) = 29.52949 59.14416 44.33682
# Shear Modulus (GPa) = 18.05795 27.70622 22.88209
#
# Velocity S-wave (km/s) = 2.92360 3.62136 3.29102
# Velocity P-wave (km/s) = 5.03724 6.74392 5.95207
#
# Compressibility (1/GPa) = 0.03386446
#
# Stress axis : x y z
#
# Youngs Moduli (GPa) = 112.36683 22.19416 61.22097
#
# Poissons Ratio (x) = 0.08394 0.25310
# Poissons Ratio (y) = 0.42498 0.63038
# Poissons Ratio (z) = 0.46456 0.22853
#
# Static dielectric constant tensor:
#      x y z
#    x 4.222690 0.000000 0.188670 
#    y 0.000000 3.596850 0.000000 
#    z 0.188670 0.000000 3.965530 
# 
# 
# High freq. dielectric constant tensor:
#      x y z
#    x 1.838100 0.000000 0.025160 
#    y 0.000000 1.790090 0.000000 
#    z 0.025160 0.000000 1.831280 
# 
# From -- ./inp_files/61223.got.cif
#   From: 2010.03.12/outbox.cif.g09.slc.cpg/sg14_31_cif.got.tgz:61223.got - 2010.03.31 13:35:05.
