data_PCOD8124921
_publ_section_title
;
Structure prediction by ZEFSAII (Michael W. Deem and Ramdas Pophale) SiO2 
 PCOD8124921
Probable space group: P 21/C
;
_chemical_formula_sum "Si O2"
_cell_formula_units_Z 20
_cell_length_a 11.286589
_cell_length_b 5.081504
_cell_length_c 26.063474
_cell_angle_alpha 90.000000
_cell_angle_beta 138.842889
_cell_angle_gamma 90.000000
_cell_volume 983.776327
_symmetry_space_group_name_H-M "P 21/C"
_symmetry_group_IT_number 14
_symmetry_cell_setting 'monoclinic'
loop_
_space_group_symop_operation_xyz
x,y,z
-x,1/2+y,1/2-z
-x,-y,-z
x,1/2-y,1/2+z
loop_
_atom_site_type_symbol
_atom_site_label
_atom_site_fract_x
_atom_site_fract_y
_atom_site_fract_z
Si Si1 0.924423 0.537479 0.300835
Si Si2 0.794806 0.742526 0.466992
Si Si3 0.385581 0.696283 0.855737
Si Si4 0.219231 0.290463 0.339520
Si Si5 0.990173 0.242043 0.564019
O O1 0.104992 0.358645 0.353412
O O2 0.919342 0.692158 0.352277
O O3 0.745009 0.356948 0.236101
O O4 0.924982 0.753275 0.254522
O O5 0.587616 0.820271 0.401832
O O6 0.832834 0.451613 0.500768
O O7 0.851504 0.750057 0.426102
O O8 0.907377 0.950317 0.537780
O O9 0.341034 0.473105 0.884680
O O10 0.357146 0.977508 0.871787
#
# Coordination Sequence:
#
# PCOD8124921 Si02
#       5
#     4   4   4   4   4
#     4  10  21  38  62  88 114 161 197 239 302 356
#     4  10  22  43  55  86 121 154 198 247 294 349
#     4  10  20  37  60  84 121 150 192 258 285 346
#     4  10  20  35  61  84 122 148 193 252 294 347
#     4  10  23  39  63  79 119 164 193 239 303 360
#
# _framework density 20.329823000000001
#
# number of rings (size 3 to 8) (size 9 to 14) (size 15 to 20)
#    1.200    0.800    2.000    1.200    2.800    0.000 
#    3.600    6.000    0.000    0.000    0.000    0.000 
#    0.000    0.000    0.000    0.000    0.000    0.000 
#
# Total GULP energy -247895.874271 kJ/mol
# GULP energy per Si atom -12394.793714 kJ/mol
# Density = 2.028355 g / cm^3
# Si number density = 20.329823 Si / 1000 Ang^3
#
#
#
# Elastic Constant Matrix: (Units=GPa)
#
#
# Indices 1 2 3 4 5 6 
#
# 1 59.1768 12.4957 17.9844 0.0000 23.1770 0.0000
# 2 12.4957 98.0308 -5.0242 0.0000 6.4882 0.0000
# 3 17.9844 -5.0242 30.9067 0.0000 7.7972 0.0000
# 4 0.0000 0.0000 0.0000 19.3944 0.0000 0.3974
# 5 23.1770 6.4882 7.7972 0.0000 28.4799 0.0000
# 6 0.0000 0.0000 0.0000 0.3974 0.0000 31.5181
#
#
#
# Elastic Compliance Matrix: (Units=1/GPa)
#
#
# Indices 1 2 3 4 5 6 
#
# 1 0.028934 -0.003037 -0.012423 0.000000 -0.019454 0.000000
# 2 -0.003037 0.010851 0.003793 0.000000 -0.001039 0.000000
# 3 -0.012423 0.003793 0.040678 0.000000 -0.001891 0.000000
# 4 0.000000 0.000000 0.000000 0.051575 0.000000 -0.000650
# 5 -0.019454 -0.001039 -0.001891 0.000000 0.051699 0.000000
# 6 0.000000 0.000000 0.000000 -0.000650 0.000000 0.031736
#
#
# Mechanical properties :
#
#
# Convention : Reuss Voigt Hill
#
# Bulk Modulus (GPa) = 17.50375 26.55846 22.03110
# Shear Modulus (GPa) = 19.39118 26.72238 23.05678
#
# Velocity S-wave (km/s) = 3.09176 3.62946 3.37135
# Velocity P-wave (km/s) = 4.62319 5.53679 5.10049
#
# Compressibility (1/GPa) = 0.05713062
#
# Stress axis : x y z
#
# Youngs Moduli (GPa) = 34.56085 92.15556 24.58340
#
# Poissons Ratio (x) = 0.27990 0.30539
# Poissons Ratio (y) = 0.10497 -0.09326
# Poissons Ratio (z) = 0.42934 -0.34959
#
# Static dielectric constant tensor:
#      x y z
#    x 3.501300 0.000000 0.037100 
#    y 0.000000 3.851430 0.000000 
#    z 0.037100 0.000000 3.210250 
# 
# 
# High freq. dielectric constant tensor:
#      x y z
#    x 1.789150 0.000000 0.009730 
#    y 0.000000 1.812820 0.000000 
#    z 0.009730 0.000000 1.755390 
# 
# From -- ./inp_files/60859.got.cif
#   From: 2010.03.12/outbox.cif.g09.slc.cpg/sg14_31_cif.got.tgz:60859.got - 2010.03.31 13:35:05.
