data_PCOD8124446
_publ_section_title
;
Structure prediction by ZEFSAII (Michael W. Deem and Ramdas Pophale) SiO2 
 PCOD8124446
Probable space group: P 21/C
;
_chemical_formula_sum "Si O2"
_cell_formula_units_Z 32
_cell_length_a 7.850087
_cell_length_b 20.851521
_cell_length_c 9.771006
_cell_angle_alpha 90.000000
_cell_angle_beta 82.676932
_cell_angle_gamma 90.000000
_cell_volume 1586.333559
_symmetry_space_group_name_H-M "P 21/C"
_symmetry_group_IT_number 14
_symmetry_cell_setting 'monoclinic'
loop_
_space_group_symop_operation_xyz
x,y,z
-x,1/2+y,1/2-z
-x,-y,-z
x,1/2-y,1/2+z
loop_
_atom_site_type_symbol
_atom_site_label
_atom_site_fract_x
_atom_site_fract_y
_atom_site_fract_z
Si Si1 0.358892 0.369361 0.565594
Si Si2 0.244022 0.376468 0.277076
Si Si3 0.139295 0.628059 0.579210
Si Si4 0.707034 0.126623 0.203869
Si Si5 0.413970 0.499415 0.155716
Si Si6 0.366940 0.753614 0.159896
Si Si7 0.603948 0.735784 0.883681
Si Si8 0.347229 0.503592 0.625966
O O1 0.368696 0.367496 0.397428
O O2 0.552839 0.371231 0.606746
O O3 0.285932 0.302746 0.636714
O O4 0.254817 0.433082 0.623544
O O5 0.277600 0.442827 0.195137
O O6 0.268031 0.322412 0.158086
O O7 0.051528 0.369954 0.346678
O O8 0.128455 0.626088 0.414237
O O9 0.240038 0.691054 0.621398
O O10 0.216330 0.560500 0.618854
O O11 0.730468 0.186510 0.303131
O O12 0.688159 0.064633 0.301502
O O13 0.578266 0.487965 0.232349
O O14 0.500000 0.500000 0.000000
O O15 0.446886 0.773380 0.296030
O O16 0.522643 0.736465 0.042460
O O17 0.500000 0.500000 0.500000
#
# Coordination Sequence:
#
# PCOD8124446 Si02
#       8
#     4   4   4   4   4   4   4   4
#     4  10  19  37  63  89 114 163 211 248 292 367
#     4  12  24  37  61  96 132 158 198 263 317 361
#     4  12  23  38  61  97 128 159 205 256 316 365
#     4  10  20  38  65  90 119 160 213 257 294 367
#     4  11  22  40  66  96 120 158 211 255 308 369
#     4  11  20  39  65  88 119 164 214 247 294 374
#     4  11  20  39  64  89 120 162 216 247 296 370
#     4  11  18  40  69  88 118 162 214 250 290 378
#
# _framework density 20.172301000000001
#
# number of rings (size 3 to 8) (size 9 to 14) (size 15 to 20)
#    0.000    1.000    7.500    1.500    0.000    3.000 
#    0.000    0.625    0.000    0.000    0.000    0.000 
#    0.000    0.000    0.000    0.000    0.000    0.000 
#
# Total GULP energy -396476.001134 kJ/mol
# GULP energy per Si atom -12389.875035 kJ/mol
# Density = 2.012639 g / cm^3
# Si number density = 20.172301 Si / 1000 Ang^3
#
#
#
# Elastic Constant Matrix: (Units=GPa)
#
#
# Indices 1 2 3 4 5 6 
#
# 1 49.4989 44.4990 35.4937 0.0000 -21.0127 0.0000
# 2 44.4990 205.4163 59.6208 0.0000 -20.4015 0.0000
# 3 35.4937 59.6208 111.0600 0.0000 -15.0225 0.0000
# 4 0.0000 0.0000 0.0000 41.1578 0.0000 -2.2568
# 5 -21.0127 -20.4015 -15.0225 0.0000 27.9617 0.0000
# 6 0.0000 0.0000 0.0000 -2.2568 0.0000 21.5573
#
#
#
# Elastic Compliance Matrix: (Units=1/GPa)
#
#
# Indices 1 2 3 4 5 6 
#
# 1 0.038251 -0.004048 -0.007077 0.000000 0.021989 0.000000
# 2 -0.004048 0.006397 -0.002071 0.000000 0.000513 0.000000
# 3 -0.007077 -0.002071 0.012352 0.000000 -0.000194 0.000000
# 4 0.000000 0.000000 0.000000 0.024437 0.000000 0.002558
# 5 0.021989 0.000513 -0.000194 0.000000 0.052558 0.000000
# 6 0.000000 0.000000 0.000000 0.002558 0.000000 0.046656
#
#
# Mechanical properties :
#
#
# Convention : Reuss Voigt Hill
#
# Bulk Modulus (GPa) = 32.67238 71.68914 52.18076
# Shear Modulus (GPa) = 23.01545 33.22615 28.12080
#
# Velocity S-wave (km/s) = 3.38145 4.06287 3.73772
# Velocity P-wave (km/s) = 5.61047 7.59110 6.67466
#
# Compressibility (1/GPa) = 0.03060689
#
# Stress axis : x y z
#
# Youngs Moduli (GPa) = 26.14307 156.31921 80.96146
#
# Poissons Ratio (x) = 0.63283 0.57297
# Poissons Ratio (y) = 0.10583 0.16768
# Poissons Ratio (z) = 0.18502 0.32375
#
# Static dielectric constant tensor:
#      x y z
#    x 3.258470 0.000000 0.091970 
#    y 0.000000 4.629250 0.000000 
#    z 0.091970 0.000000 3.897730 
# 
# 
# High freq. dielectric constant tensor:
#      x y z
#    x 1.737720 0.000000 -0.000190 
#    y 0.000000 1.822580 0.000000 
#    z -0.000190 0.000000 1.787980 
# 
# From -- ./inp_files/10205.got.cif
#   From: 2010.03.12/outbox.cif.g09.slc.cpg/sg14_6_cif.got.tgz:10205.got - 2010.03.31 13:35:05.
