data_PCOD8124167
_publ_section_title
;
Structure prediction by ZEFSAII (Michael W. Deem and Ramdas Pophale) SiO2 
 PCOD8124167
Probable space group: P 21/C
;
_chemical_formula_sum "Si O2"
_cell_formula_units_Z 32
_cell_length_a 23.659671
_cell_length_b 5.015883
_cell_length_c 17.792984
_cell_angle_alpha 90.000000
_cell_angle_beta 133.457397
_cell_angle_gamma 90.000000
_cell_volume 1532.757008
_symmetry_space_group_name_H-M "P 21/C"
_symmetry_group_IT_number 14
_symmetry_cell_setting 'monoclinic'
loop_
_space_group_symop_operation_xyz
x,y,z
-x,1/2+y,1/2-z
-x,-y,-z
x,1/2-y,1/2+z
loop_
_atom_site_type_symbol
_atom_site_label
_atom_site_fract_x
_atom_site_fract_y
_atom_site_fract_z
Si Si1 0.221892 0.979068 0.330338
Si Si2 0.069396 0.671620 0.745898
Si Si3 0.256598 0.351916 0.021926
Si Si4 0.369524 0.486809 0.250242
Si Si5 0.461887 0.520320 0.786058
Si Si6 0.597608 0.875277 0.916819
Si Si7 0.906668 0.676414 0.633592
Si Si8 0.689252 0.513251 0.638762
O O1 0.129480 0.913618 0.234230
O O2 0.272481 0.776827 0.327816
O O3 0.237167 0.948166 0.434551
O O4 0.244702 0.274531 0.325050
O O5 0.079403 0.473265 0.824314
O O6 0.977505 0.638076 0.637713
O O7 0.089877 0.967278 0.794473
O O8 0.293786 0.500805 0.127216
O O9 0.320116 0.146243 0.049590
O O10 0.180653 0.183327 0.980732
O O11 0.409502 0.773221 0.284853
O O12 0.341098 0.417888 0.307116
O O13 0.435322 0.272791 0.286771
O O14 0.552586 0.590219 0.885895
O O15 0.452521 0.561898 0.686140
O O16 0.614214 0.991765 0.014524
#
# Coordination Sequence:
#
# PCOD8124167 Si02
#       8
#     4   4   4   4   4   4   4   4
#     4  10  19  35  57  81 107 142 183 221 261 314
#     4   9  16  29  49  79 110 134 172 221 268 309
#     4   9  19  35  57  80 107 140 181 221 264 317
#     4  11  24  39  55  80 112 144 178 222 272 319
#     4  11  23  39  58  80 108 142 180 224 270 318
#     4  10  21  38  60  82 106 139 183 223 266 319
#     4   9  17  28  49  80 109 135 169 222 270 309
#     4  11  23  37  57  81 109 144 180 221 267 317
#
# _framework density 20.877410000000001
#
# number of rings (size 3 to 8) (size 9 to 14) (size 15 to 20)
#    0.000    2.000    0.000    5.250    0.000    7.000 
#    0.000    0.000    0.000    1.500    0.000    0.000 
#    0.000    0.000    0.000    0.000    0.000    0.000 
#
# Total GULP energy -396436.535490 kJ/mol
# GULP energy per Si atom -12388.641734 kJ/mol
# Density = 2.082989 g / cm^3
# Si number density = 20.877410 Si / 1000 Ang^3
#
#
#
# Elastic Constant Matrix: (Units=GPa)
#
#
# Indices 1 2 3 4 5 6 
#
# 1 108.2345 10.6565 51.4011 0.0000 9.2052 0.0000
# 2 10.6565 58.4835 4.8405 0.0000 4.7014 0.0000
# 3 51.4011 4.8405 64.1546 0.0000 12.3678 0.0000
# 4 0.0000 0.0000 0.0000 17.9733 0.0000 4.2406
# 5 9.2052 4.7014 12.3678 0.0000 43.3258 0.0000
# 6 0.0000 0.0000 0.0000 4.2406 0.0000 29.7890
#
#
#
# Elastic Compliance Matrix: (Units=1/GPa)
#
#
# Indices 1 2 3 4 5 6 
#
# 1 0.015099 -0.001788 -0.012044 0.000000 0.000424 0.000000
# 2 -0.001788 0.017521 0.000428 0.000000 -0.001643 0.000000
# 3 -0.012044 0.000428 0.026160 0.000000 -0.004955 0.000000
# 4 0.000000 0.000000 0.000000 0.057572 0.000000 -0.008196
# 5 0.000424 -0.001643 -0.004955 0.000000 0.024584 0.000000
# 6 0.000000 0.000000 0.000000 -0.008196 0.000000 0.034736
#
#
# Mechanical properties :
#
#
# Convention : Reuss Voigt Hill
#
# Bulk Modulus (GPa) = 31.27858 40.51873 35.89866
# Shear Modulus (GPa) = 23.45877 29.14923 26.30400
#
# Velocity S-wave (km/s) = 3.35572 3.74064 3.55340
# Velocity P-wave (km/s) = 5.47987 6.17305 5.83676
#
# Compressibility (1/GPa) = 0.03197076
#
# Stress axis : x y z
#
# Youngs Moduli (GPa) = 66.22887 57.07294 38.22572
#
# Poissons Ratio (x) = 0.10207 0.46041
# Poissons Ratio (y) = 0.11845 -0.01635
# Poissons Ratio (z) = 0.79769 -0.02441
#
# Static dielectric constant tensor:
#      x y z
#    x 3.992740 0.000000 0.590980 
#    y 0.000000 3.648960 0.000000 
#    z 0.590980 0.000000 4.108160 
# 
# 
# High freq. dielectric constant tensor:
#      x y z
#    x 1.816760 0.000000 0.042730 
#    y 0.000000 1.821500 0.000000 
#    z 0.042730 0.000000 1.782180 
# 
# From -- ./inp_files/61599.got.cif
#   From: 2010.03.12/outbox.cif.g09.slc.cpg/sg14_31_cif.got.tgz:61599.got - 2010.03.31 13:35:05.
