data_PCOD8124378
_publ_section_title
;
Structure prediction by ZEFSAII (Michael W. Deem and Ramdas Pophale) SiO2 
 PCOD8124378
Probable space group: P 21/C
;
_chemical_formula_sum "Si O2"
_cell_formula_units_Z 16
_cell_length_a 7.279558
_cell_length_b 17.532023
_cell_length_c 5.762458
_cell_angle_alpha 90.000000
_cell_angle_beta 55.544225
_cell_angle_gamma 90.000000
_cell_volume 606.413317
_symmetry_space_group_name_H-M "P 21/C"
_symmetry_group_IT_number 14
_symmetry_cell_setting 'monoclinic'
loop_
_space_group_symop_operation_xyz
x,y,z
-x,1/2+y,1/2-z
-x,-y,-z
x,1/2-y,1/2+z
loop_
_atom_site_type_symbol
_atom_site_label
_atom_site_fract_x
_atom_site_fract_y
_atom_site_fract_z
Si Si1 0.163752 0.953622 0.725864
Si Si2 0.123870 0.717699 0.188516
Si Si3 0.576529 0.555829 0.251547
Si Si4 0.369126 0.227168 0.197270
O O1 0.067723 0.872420 0.712611
O O2 0.396576 0.933163 0.679656
O O3 0.200346 0.014618 0.495672
O O4 0.000000 0.000000 0.000000
O O5 0.025783 0.749576 0.510175
O O6 0.388333 0.733993 0.991910
O O7 0.500000 0.500000 0.500000
O O8 0.623987 0.637010 0.326898
O O9 0.250168 0.250802 0.532090
#
# Coordination Sequence:
#
# PCOD8124378 Si02
#       4
#     4   4   4   4
#     4  11  25  42  65 101 134 173 221 278 336 397
#     4  10  19  39  66  89 128 179 218 266 334 393
#     4  11  23  41  69  95 132 175 221 275 335 397
#     4  10  19  36  66  92 124 176 224 266 326 395
#
# _framework density 26.384641999999999
#
# number of rings (size 3 to 8) (size 9 to 14) (size 15 to 20)
#    0.000    1.500    5.000    3.000    3.500    1.000 
#    0.000    2.500    0.000    0.000    0.000    0.000 
#    0.000    0.000    0.000    0.000    0.000    0.000 
#
# Total GULP energy -198329.880169 kJ/mol
# GULP energy per Si atom -12395.617511 kJ/mol
# Density = 2.632459 g / cm^3
# Si number density = 26.384642 Si / 1000 Ang^3
#
#
#
# Elastic Constant Matrix: (Units=GPa)
#
#
# Indices 1 2 3 4 5 6 
#
# 1 132.2265 22.6045 39.4444 0.0000 25.8280 0.0000
# 2 22.6045 231.0035 74.3242 0.0000 -6.2411 0.0000
# 3 39.4444 74.3242 243.4786 0.0000 3.3633 0.0000
# 4 0.0000 0.0000 0.0000 63.9996 0.0000 10.2288
# 5 25.8280 -6.2411 3.3633 0.0000 21.0529 0.0000
# 6 0.0000 0.0000 0.0000 10.2288 0.0000 17.8261
#
#
#
# Elastic Compliance Matrix: (Units=1/GPa)
#
#
# Indices 1 2 3 4 5 6 
#
# 1 0.010684 -0.001003 -0.001242 0.000000 -0.013207 0.000000
# 2 -0.001003 0.004953 -0.001390 0.000000 0.002920 0.000000
# 3 -0.001242 -0.001390 0.004728 0.000000 0.000357 0.000000
# 4 0.000000 0.000000 0.000000 0.017203 0.000000 -0.009871
# 5 -0.013207 0.002920 0.000357 0.000000 0.064510 0.000000
# 6 0.000000 0.000000 0.000000 -0.009871 0.000000 0.061762
#
#
# Mechanical properties :
#
#
# Convention : Reuss Voigt Hill
#
# Bulk Modulus (GPa) = 76.36200 97.71722 87.03961
# Shear Modulus (GPa) = 28.49407 51.93140 40.21274
#
# Velocity S-wave (km/s) = 3.28982 4.44130 3.90820
# Velocity P-wave (km/s) = 6.59054 7.96343 7.30929
#
# Compressibility (1/GPa) = 0.01309552
#
# Stress axis : x y z
#
# Youngs Moduli (GPa) = 93.59375 201.89203 211.51600
#
# Poissons Ratio (x) = 0.20241 0.26280
# Poissons Ratio (y) = 0.09383 0.29399
# Poissons Ratio (z) = 0.11629 0.28061
#
# Static dielectric constant tensor:
#      x y z
#    x 5.653380 0.000000 0.248060 
#    y 0.000000 4.402500 0.000000 
#    z 0.248060 0.000000 5.428890 
# 
# 
# High freq. dielectric constant tensor:
#      x y z
#    x 2.099930 0.000000 -0.001840 
#    y 0.000000 2.060420 0.000000 
#    z -0.001840 0.000000 2.101520 
# 
# From -- ./inp_files/867.got.cif
#   From: 2010.03.12/outbox.cif.g09.slc.cpg/sg14_1_cif.got.tgz:867.got - 2010.03.31 13:35:05.
