data_PCOD8124376
_publ_section_title
;
Structure prediction by ZEFSAII (Michael W. Deem and Ramdas Pophale) SiO2 
 PCOD8124376
Probable space group: P 21/C
;
_chemical_formula_sum "Si O2"
_cell_formula_units_Z 28
_cell_length_a 7.795847
_cell_length_b 17.896659
_cell_length_c 17.564472
_cell_angle_alpha 90.000000
_cell_angle_beta 32.393586
_cell_angle_gamma 90.000000
_cell_volume 1312.859282
_symmetry_space_group_name_H-M "P 21/C"
_symmetry_group_IT_number 14
_symmetry_cell_setting 'monoclinic'
loop_
_space_group_symop_operation_xyz
x,y,z
-x,1/2+y,1/2-z
-x,-y,-z
x,1/2-y,1/2+z
loop_
_atom_site_type_symbol
_atom_site_label
_atom_site_fract_x
_atom_site_fract_y
_atom_site_fract_z
Si Si1 0.754006 0.602686 0.079124
Si Si2 0.660665 0.282109 0.680223
Si Si3 0.591031 0.146205 0.606464
Si Si4 0.290390 0.480338 0.291725
Si Si5 0.812829 0.905696 0.012049
Si Si6 0.572529 0.830590 0.490153
Si Si7 0.262213 0.802287 0.195715
O O1 0.629717 0.667763 0.181888
O O2 0.625914 0.522957 0.153348
O O3 0.644461 0.613070 0.032069
O O4 0.132477 0.607007 0.946972
O O5 0.557011 0.233284 0.645203
O O6 0.744594 0.222654 0.713854
O O7 0.970766 0.333527 0.545928
O O8 0.279907 0.094417 0.743819
O O9 0.659832 0.138546 0.489830
O O10 0.271081 0.457104 0.385952
O O11 0.004138 0.540466 0.380699
O O12 0.479094 0.876288 0.102423
O O13 0.405237 0.757534 0.584882
O O14 0.888651 0.815562 0.319584
#
# Coordination Sequence:
#
# PCOD8124376 Si02
#       7
#     4   4   4   4   4   4   4
#     4  10  22  42  60  91 130 173 205 263 320 383
#     4  10  19  36  66  91 123 163 213 262 322 365
#     4  12  23  38  64  95 127 163 219 273 307 383
#     4  10  22  37  64  95 129 171 221 251 324 387
#     4  10  19  38  67  92 127 175 209 264 319 388
#     4  11  25  36  66  95 127 166 219 261 329 369
#     4  11  19  41  60  95 127 167 207 271 316 380
#
# _framework density 21.327494999999999
#
# number of rings (size 3 to 8) (size 9 to 14) (size 15 to 20)
#    0.000    1.429    4.286    1.286    2.000    0.571 
#    0.000    0.714    0.000    0.000    0.000    0.000 
#    0.000    0.000    0.000    0.000    0.000    0.000 
#
# Total GULP energy -346985.762047 kJ/mol
# GULP energy per Si atom -12392.348645 kJ/mol
# Density = 2.127895 g / cm^3
# Si number density = 21.327495 Si / 1000 Ang^3
#
#
#
# Elastic Constant Matrix: (Units=GPa)
#
#
# Indices 1 2 3 4 5 6 
#
# 1 78.6288 24.5439 24.2472 0.0000 26.6371 0.0000
# 2 24.5439 101.5041 41.7360 0.0000 7.4539 0.0000
# 3 24.2472 41.7360 89.5904 0.0000 7.8600 0.0000
# 4 0.0000 0.0000 0.0000 40.2311 0.0000 -0.0421
# 5 26.6371 7.4539 7.8600 0.0000 26.0389 0.0000
# 6 0.0000 0.0000 0.0000 -0.0421 0.0000 13.0253
#
#
#
# Elastic Compliance Matrix: (Units=1/GPa)
#
#
# Indices 1 2 3 4 5 6 
#
# 1 0.021168 -0.002489 -0.002807 0.000000 -0.020094 0.000000
# 2 -0.002489 0.012563 -0.005225 0.000000 0.000527 0.000000
# 3 -0.002807 -0.005225 0.014353 0.000000 0.000034 0.000000
# 4 0.000000 0.000000 0.000000 0.024856 0.000000 0.000080
# 5 -0.020094 0.000527 0.000034 0.000000 0.058799 0.000000
# 6 0.000000 0.000000 0.000000 0.000080 0.000000 0.076774
#
#
# Mechanical properties :
#
#
# Convention : Reuss Voigt Hill
#
# Bulk Modulus (GPa) = 36.97896 50.08637 43.53266
# Shear Modulus (GPa) = 20.95831 27.80547 24.38189
#
# Velocity S-wave (km/s) = 3.13819 3.61465 3.38481
# Velocity P-wave (km/s) = 5.52334 6.39971 5.97761
#
# Compressibility (1/GPa) = 0.02704241
#
# Stress axis : x y z
#
# Youngs Moduli (GPa) = 47.24183 79.59584 69.67307
#
# Poissons Ratio (x) = 0.19810 0.19554
# Poissons Ratio (y) = 0.11757 0.36407
# Poissons Ratio (z) = 0.13259 0.41592
#
# Static dielectric constant tensor:
#      x y z
#    x 3.510660 0.000000 -0.114340 
#    y 0.000000 4.060950 0.000000 
#    z -0.114340 0.000000 4.090270 
# 
# 
# High freq. dielectric constant tensor:
#      x y z
#    x 1.794630 0.000000 -0.001730 
#    y 0.000000 1.843610 0.000000 
#    z -0.001730 0.000000 1.853240 
# 
# From -- ./inp_files/56201.got.cif
#   From: 2010.03.12/outbox.cif.g09.slc.cpg/sg14_29_cif.got.tgz:56201.got - 2010.03.31 13:35:05.
