data_PCOD8124528
_publ_section_title
;
Structure prediction by ZEFSAII (Michael W. Deem and Ramdas Pophale) SiO2 
 PCOD8124528
Probable space group: P 21/C
;
_chemical_formula_sum "Si O2"
_cell_formula_units_Z 20
_cell_length_a 21.654248
_cell_length_b 5.407606
_cell_length_c 11.893569
_cell_angle_alpha 90.000000
_cell_angle_beta 32.195659
_cell_angle_gamma 90.000000
_cell_volume 742.052230
_symmetry_space_group_name_H-M "P 21/C"
_symmetry_group_IT_number 14
_symmetry_cell_setting 'monoclinic'
loop_
_space_group_symop_operation_xyz
x,y,z
-x,1/2+y,1/2-z
-x,-y,-z
x,1/2-y,1/2+z
loop_
_atom_site_type_symbol
_atom_site_label
_atom_site_fract_x
_atom_site_fract_y
_atom_site_fract_z
Si Si1 0.567777 0.480054 0.629457
Si Si2 0.863559 0.120447 0.032457
Si Si3 0.751766 0.619517 0.192705
Si Si4 0.811527 0.390853 0.350495
Si Si5 0.885211 0.890425 0.269552
O O1 0.500596 0.219890 0.717107
O O2 0.617184 0.572113 0.431246
O O3 0.673881 0.422433 0.550242
O O4 0.816469 0.384285 0.158717
O O5 0.793238 0.878463 0.182705
O O6 0.838288 0.159399 0.939903
O O7 0.001041 0.081850 0.830505
O O8 0.774043 0.617198 0.025204
O O9 0.880896 0.637865 0.205023
O O10 0.870110 0.130133 0.208195
#
# Coordination Sequence:
#
# PCOD8124528 Si02
#       5
#     4   4   4   4   4
#     4  12  26  44  57  78 117 158 198 248 280 312
#     4  10  19  38  62  91 120 144 177 234 290 352
#     4  10  20  37  60  84 115 153 191 230 283 342
#     4  10  20  37  60  84 115 153 191 230 283 342
#     4  10  19  38  62  91 120 144 177 234 290 352
#
# _framework density 26.952278
#
# number of rings (size 3 to 8) (size 9 to 14) (size 15 to 20)
#    0.000    1.600    0.000    8.400    0.000    0.000 
#    0.000   35.000    0.000    0.000    0.000    0.000 
#    0.000    0.000    0.000    0.000    0.000    0.000 
#
# Total GULP energy -247948.659174 kJ/mol
# GULP energy per Si atom -12397.432959 kJ/mol
# Density = 2.689093 g / cm^3
# Si number density = 26.952278 Si / 1000 Ang^3
#
#
#
# Elastic Constant Matrix: (Units=GPa)
#
#
# Indices 1 2 3 4 5 6 
#
# 1 83.5979 42.9463 15.6843 0.0000 -4.9953 0.0000
# 2 42.9463 255.2775 15.1719 0.0000 -9.3081 0.0000
# 3 15.6843 15.1719 76.4622 0.0000 -0.8606 0.0000
# 4 0.0000 0.0000 0.0000 45.7728 0.0000 -4.2412
# 5 -4.9953 -9.3081 -0.8606 0.0000 51.8121 0.0000
# 6 0.0000 0.0000 0.0000 -4.2412 0.0000 45.8816
#
#
#
# Elastic Compliance Matrix: (Units=1/GPa)
#
#
# Indices 1 2 3 4 5 6 
#
# 1 0.013537 -0.002105 -0.002349 0.000000 0.000888 0.000000
# 2 -0.002105 0.004317 -0.000418 0.000000 0.000566 0.000000
# 3 -0.002349 -0.000418 0.013642 0.000000 -0.000075 0.000000
# 4 0.000000 0.000000 0.000000 0.022036 0.000000 0.002037
# 5 0.000888 0.000566 -0.000075 0.000000 0.019486 0.000000
# 6 0.000000 0.000000 0.000000 0.002037 0.000000 0.021984
#
#
# Mechanical properties :
#
#
# Convention : Reuss Voigt Hill
#
# Bulk Modulus (GPa) = 45.97486 62.54917 54.26202
# Shear Modulus (GPa) = 44.64335 51.46230 48.05282
#
# Velocity S-wave (km/s) = 4.07429 4.37439 4.22700
# Velocity P-wave (km/s) = 6.26322 6.98366 6.63323
#
# Compressibility (1/GPa) = 0.02175102
#
# Stress axis : x y z
#
# Youngs Moduli (GPa) = 73.86922 231.64211 73.30098
#
# Poissons Ratio (x) = 0.48771 0.17219
# Poissons Ratio (y) = 0.15553 0.03067
# Poissons Ratio (z) = 0.17353 0.09691
#
# Static dielectric constant tensor:
#      x y z
#    x 5.162880 0.000000 0.311920 
#    y 0.000000 6.799370 0.000000 
#    z 0.311920 0.000000 4.650820 
# 
# 
# High freq. dielectric constant tensor:
#      x y z
#    x 2.120290 0.000000 0.029340 
#    y 0.000000 2.148310 0.000000 
#    z 0.029340 0.000000 2.059570 
# 
# From -- ./inp_files/56503.got.cif
#   From: 2010.03.12/outbox.cif.g09.slc.cpg/sg14_29_cif.got.tgz:56503.got - 2010.03.31 13:35:05.
