data_PCOD8124325
_publ_section_title
;
Structure prediction by ZEFSAII (Michael W. Deem and Ramdas Pophale) SiO2 
 PCOD8124325
Probable space group: P 21/C
;
_chemical_formula_sum "Si O2"
_cell_formula_units_Z 20
_cell_length_a 8.246130
_cell_length_b 5.132913
_cell_length_c 22.499960
_cell_angle_alpha 90.000000
_cell_angle_beta 102.516080
_cell_angle_gamma 90.000000
_cell_volume 929.715990
_symmetry_space_group_name_H-M "P 21/C"
_symmetry_group_IT_number 14
_symmetry_cell_setting 'monoclinic'
loop_
_space_group_symop_operation_xyz
x,y,z
-x,1/2+y,1/2-z
-x,-y,-z
x,1/2-y,1/2+z
loop_
_atom_site_type_symbol
_atom_site_label
_atom_site_fract_x
_atom_site_fract_y
_atom_site_fract_z
Si Si1 0.582519 0.960118 0.780477
Si Si2 0.277869 0.300556 0.470589
Si Si3 0.949811 0.794607 0.779999
Si Si4 0.489490 0.423512 0.592061
Si Si5 0.177032 0.792103 0.406665
O O1 0.450725 0.735475 0.753861
O O2 0.580804 0.014617 0.850619
O O3 0.758785 0.858592 0.773098
O O4 0.339434 0.287776 0.543581
O O5 0.442088 0.328269 0.440816
O O6 0.156192 0.546775 0.449452
O O7 0.170847 0.048294 0.446491
O O8 0.029664 0.697924 0.847644
O O9 0.956838 0.555470 0.734255
O O10 0.644212 0.223619 0.612927
#
# Coordination Sequence:
#
# PCOD8124325 Si02
#       5
#     4   4   4   4   4
#     4  12  27  42  64  96 125 167 213 268 309 373
#     4   9  20  34  65  90 119 166 204 250 308 375
#     4  12  25  43  62  90 129 173 208 257 323 379
#     4   9  21  37  63  89 127 156 217 246 308 370
#     4  10  19  36  60  88 119 163 206 245 311 370
#
# _framework density 21.511944
#
# number of rings (size 3 to 8) (size 9 to 14) (size 15 to 20)
#    1.200    0.400    0.000    5.400    5.600    0.000 
#    0.000    2.000    0.000    0.000    0.000    0.000 
#    0.000    0.000    0.000    0.000    0.000    0.000 
#
# Total GULP energy -247944.245665 kJ/mol
# GULP energy per Si atom -12397.212283 kJ/mol
# Density = 2.146298 g / cm^3
# Si number density = 21.511944 Si / 1000 Ang^3
#
#
#
# Elastic Constant Matrix: (Units=GPa)
#
#
# Indices 1 2 3 4 5 6 
#
# 1 41.6724 3.1817 23.6488 0.0000 9.3515 0.0000
# 2 3.1817 111.6190 17.8264 0.0000 -1.2889 0.0000
# 3 23.6488 17.8264 115.0866 0.0000 3.4388 0.0000
# 4 0.0000 0.0000 0.0000 28.2249 0.0000 9.0519
# 5 9.3515 -1.2889 3.4388 0.0000 33.5254 0.0000
# 6 0.0000 0.0000 0.0000 9.0519 0.0000 22.5053
#
#
#
# Elastic Compliance Matrix: (Units=1/GPa)
#
#
# Indices 1 2 3 4 5 6 
#
# 1 0.028921 0.000003 -0.005720 0.000000 -0.007480 0.000000
# 2 0.000003 0.009195 -0.001440 0.000000 0.000500 0.000000
# 3 -0.005720 -0.001440 0.010072 0.000000 0.000507 0.000000
# 4 0.000000 0.000000 0.000000 0.040677 0.000000 -0.016361
# 5 -0.007480 0.000500 0.000507 0.000000 0.031882 0.000000
# 6 0.000000 0.000000 0.000000 -0.016361 0.000000 0.051014
#
#
# Mechanical properties :
#
#
# Convention : Reuss Voigt Hill
#
# Bulk Modulus (GPa) = 29.52079 39.74354 34.63216
# Shear Modulus (GPa) = 25.33362 31.76586 28.54974
#
# Velocity S-wave (km/s) = 3.43542 3.84690 3.64697
# Velocity P-wave (km/s) = 5.43037 6.18440 5.81961
#
# Compressibility (1/GPa) = 0.03387443
#
# Stress axis : x y z
#
# Youngs Moduli (GPa) = 34.57687 108.75854 99.28200
#
# Poissons Ratio (x) = -0.00030 0.56787
# Poissons Ratio (y) = -0.00009 0.14294
# Poissons Ratio (z) = 0.19777 0.15658
#
# Static dielectric constant tensor:
#      x y z
#    x 3.470250 0.000000 0.169170 
#    y 0.000000 3.849460 0.000000 
#    z 0.169170 0.000000 3.726510 
# 
# 
# High freq. dielectric constant tensor:
#      x y z
#    x 1.813560 0.000000 0.021910 
#    y 0.000000 1.844460 0.000000 
#    z 0.021910 0.000000 1.847680 
# 
# From -- ./inp_files/64189.got.cif
#   From: 2010.03.12/outbox.cif.g09.slc.cpg/sg14_33_cif.got.tgz:64189.got - 2010.03.31 13:35:05.
