data_PCOD8124334
_publ_section_title
;
Structure prediction by ZEFSAII (Michael W. Deem and Ramdas Pophale) SiO2 
 PCOD8124334
Probable space group: P 21/C
;
_chemical_formula_sum "Si O2"
_cell_formula_units_Z 32
_cell_length_a 8.871441
_cell_length_b 18.597414
_cell_length_c 17.330689
_cell_angle_alpha 90.000000
_cell_angle_beta 147.616737
_cell_angle_gamma 90.000000
_cell_volume 1531.394255
_symmetry_space_group_name_H-M "P 21/C"
_symmetry_group_IT_number 14
_symmetry_cell_setting 'monoclinic'
loop_
_space_group_symop_operation_xyz
x,y,z
-x,1/2+y,1/2-z
-x,-y,-z
x,1/2-y,1/2+z
loop_
_atom_site_type_symbol
_atom_site_label
_atom_site_fract_x
_atom_site_fract_y
_atom_site_fract_z
Si Si1 0.814173 0.196114 0.042163
Si Si2 0.887807 0.600073 0.971458
Si Si3 0.454594 0.616024 0.448385
Si Si4 0.491419 0.628346 0.292118
Si Si5 0.930009 0.980841 0.204817
Si Si6 0.234787 0.966550 0.491292
Si Si7 0.209358 0.438194 0.702783
Si Si8 0.329698 0.227023 0.712740
O O1 0.577901 0.202690 0.875277
O O2 0.664909 0.187994 0.061468
O O3 0.969611 0.120962 0.098476
O O4 0.033814 0.262673 0.132263
O O5 0.705673 0.545869 0.945884
O O6 0.703696 0.669927 0.870974
O O7 0.158675 0.621311 0.138767
O O8 0.971586 0.565292 0.925231
O O9 0.569729 0.638023 0.414745
O O10 0.221145 0.554617 0.336004
O O11 0.713882 0.585169 0.610499
O O12 0.657326 0.558484 0.326614
O O13 0.600888 0.696908 0.293879
O O14 0.167203 0.966379 0.371495
O O15 0.071591 0.989946 0.180574
O O16 0.518317 0.919047 0.625083
#
# Coordination Sequence:
#
# PCOD8124334 Si02
#       8
#     4   4   4   4   4   4   4   4
#     4  10  22  41  62  86 116 161 203 249 305 369
#     4  10  20  36  62  91 115 166 203 249 313 363
#     4  10  21  38  59  88 123 158 202 253 308 361
#     4  10  20  40  59  85 124 158 205 257 296 368
#     4  10  19  36  61  87 125 162 196 254 309 365
#     4  10  19  36  62  90 123 157 209 252 304 374
#     4   9  21  37  58  91 120 156 200 250 305 361
#     4  11  21  42  65  83 120 161 207 253 309 363
#
# _framework density 20.895990999999999
#
# number of rings (size 3 to 8) (size 9 to 14) (size 15 to 20)
#    0.000    2.000    2.500    1.125    0.000    0.500 
#    6.750    0.000    2.750    0.000    0.000    0.000 
#    0.000    0.000    0.000    0.000    0.000    0.000 
#
# Total GULP energy -396547.856630 kJ/mol
# GULP energy per Si atom -12392.120520 kJ/mol
# Density = 2.084843 g / cm^3
# Si number density = 20.895991 Si / 1000 Ang^3
#
#
#
# Elastic Constant Matrix: (Units=GPa)
#
#
# Indices 1 2 3 4 5 6 
#
# 1 104.2909 25.7960 47.1032 0.0000 -14.0571 0.0000
# 2 25.7960 56.9001 31.4630 0.0000 -7.3010 0.0000
# 3 47.1032 31.4630 105.7900 0.0000 -1.3679 0.0000
# 4 0.0000 0.0000 0.0000 28.6872 0.0000 -0.3448
# 5 -14.0571 -7.3010 -1.3679 0.0000 29.5528 0.0000
# 6 0.0000 0.0000 0.0000 -0.3448 0.0000 28.0076
#
#
#
# Elastic Compliance Matrix: (Units=1/GPa)
#
#
# Indices 1 2 3 4 5 6 
#
# 1 0.013233 -0.002491 -0.005081 0.000000 0.005444 0.000000
# 2 -0.002491 0.022240 -0.005453 0.000000 0.004057 0.000000
# 3 -0.005081 -0.005453 0.013296 0.000000 -0.003148 0.000000
# 4 0.000000 0.000000 0.000000 0.034864 0.000000 0.000429
# 5 0.005444 0.004057 -0.003148 0.000000 0.037284 0.000000
# 6 0.000000 0.000000 0.000000 0.000429 0.000000 0.035710
#
#
# Mechanical properties :
#
#
# Convention : Reuss Voigt Hill
#
# Bulk Modulus (GPa) = 44.01535 52.85614 48.43575
# Shear Modulus (GPa) = 26.28133 28.09077 27.18605
#
# Velocity S-wave (km/s) = 3.55028 3.67047 3.61087
# Velocity P-wave (km/s) = 6.15758 6.58125 6.37294
#
# Compressibility (1/GPa) = 0.02271935
#
# Stress axis : x y z
#
# Youngs Moduli (GPa) = 75.56677 44.96458 75.21140
#
# Poissons Ratio (x) = 0.11203 0.38213
# Poissons Ratio (y) = 0.18827 0.41009
# Poissons Ratio (z) = 0.38394 0.24517
#
# Static dielectric constant tensor:
#      x y z
#    x 3.995040 0.000000 0.217910 
#    y 0.000000 3.689640 0.000000 
#    z 0.217910 0.000000 3.736680 
# 
# 
# High freq. dielectric constant tensor:
#      x y z
#    x 1.813420 0.000000 0.007010 
#    y 0.000000 1.790280 0.000000 
#    z 0.007010 0.000000 1.823840 
# 
# From -- ./inp_files/56236.got.cif
#   From: 2010.03.12/outbox.cif.g09.slc.cpg/sg14_29_cif.got.tgz:56236.got - 2010.03.31 13:35:05.
