data_PCOD8124263
_publ_section_title
;
Structure prediction by ZEFSAII (Michael W. Deem and Ramdas Pophale) SiO2 
 PCOD8124263
Probable space group: P 21/C
;
_chemical_formula_sum "Si O2"
_cell_formula_units_Z 28
_cell_length_a 18.186777
_cell_length_b 8.729809
_cell_length_c 19.462601
_cell_angle_alpha 90.000000
_cell_angle_beta 25.782384
_cell_angle_gamma 90.000000
_cell_volume 1344.017616
_symmetry_space_group_name_H-M "P 21/C"
_symmetry_group_IT_number 14
_symmetry_cell_setting 'monoclinic'
loop_
_space_group_symop_operation_xyz
x,y,z
-x,1/2+y,1/2-z
-x,-y,-z
x,1/2-y,1/2+z
loop_
_atom_site_type_symbol
_atom_site_label
_atom_site_fract_x
_atom_site_fract_y
_atom_site_fract_z
Si Si1 0.541388 0.386823 0.748319
Si Si2 0.966250 0.753826 0.039661
Si Si3 0.891214 0.499616 0.490421
Si Si4 0.759092 0.484561 0.179318
Si Si5 0.180716 0.019437 0.533055
Si Si6 0.927021 0.834313 0.821481
Si Si7 0.430214 0.423151 0.399955
O O1 0.693867 0.452955 0.666453
O O2 0.584515 0.421559 0.632295
O O3 0.523026 0.204598 0.773424
O O4 0.362881 0.467996 0.916879
O O5 0.813981 0.632004 0.178274
O O6 0.926399 0.854971 0.007486
O O7 0.987689 0.858580 0.089328
O O8 0.140145 0.662690 0.878211
O O9 0.934167 0.541032 0.376487
O O10 0.556760 0.455105 0.357568
O O11 0.804251 0.517710 0.061568
O O12 0.066616 0.164753 0.652305
O O13 0.086687 0.864533 0.637453
O O14 0.754192 0.863534 0.922778
#
# Coordination Sequence:
#
# PCOD8124263 Si02
#       7
#     4   4   4   4   4   4   4
#     4   9  18  32  53  78 105 132 174 224 261 304
#     4  10  20  32  58  78 106 140 178 220 250 312
#     4  10  19  36  55  83 103 139 179 217 262 307
#     4  10  19  36  55  83 103 139 179 217 262 307
#     4  10  21  35  54  80 109 136 170 221 270 314
#     4  10  21  35  54  80 109 136 170 221 270 314
#     4   9  18  32  53  78 105 132 174 224 261 304
#
# _framework density 20.833058999999999
#
# number of rings (size 3 to 8) (size 9 to 14) (size 15 to 20)
#    0.000    2.286    2.857    0.000    4.000    1.143 
#    0.000    0.000    0.000   10.286    0.000    0.000 
#    0.000    0.000    0.000    0.000    0.000    0.000 
#
# Total GULP energy -347009.904019 kJ/mol
# GULP energy per Si atom -12393.210858 kJ/mol
# Density = 2.078564 g / cm^3
# Si number density = 20.833059 Si / 1000 Ang^3
#
#
#
# Elastic Constant Matrix: (Units=GPa)
#
#
# Indices 1 2 3 4 5 6 
#
# 1 62.5174 18.8357 24.7228 0.0000 -30.1874 0.0000
# 2 18.8357 74.2440 1.8455 0.0000 -12.0300 0.0000
# 3 24.7228 1.8455 46.9708 0.0000 -15.5210 0.0000
# 4 0.0000 0.0000 0.0000 26.2905 0.0000 -4.8180
# 5 -30.1874 -12.0300 -15.5210 0.0000 33.5752 0.0000
# 6 0.0000 0.0000 0.0000 -4.8180 0.0000 36.1549
#
#
#
# Elastic Compliance Matrix: (Units=1/GPa)
#
#
# Indices 1 2 3 4 5 6 
#
# 1 0.031957 -0.004145 -0.009034 0.000000 0.023071 0.000000
# 2 -0.004145 0.014908 0.002513 0.000000 0.002777 0.000000
# 3 -0.009034 0.002513 0.027807 0.000000 0.005633 0.000000
# 4 0.000000 0.000000 0.000000 0.038989 0.000000 0.005196
# 5 0.023071 0.002777 0.005633 0.000000 0.054126 0.000000
# 6 0.000000 0.000000 0.000000 0.005196 0.000000 0.028351
#
#
# Mechanical properties :
#
#
# Convention : Reuss Voigt Hill
#
# Bulk Modulus (GPa) = 18.74686 30.50446 24.62566
# Shear Modulus (GPa) = 21.25404 28.42601 24.84003
#
# Velocity S-wave (km/s) = 3.19753 3.69788 3.45677
# Velocity P-wave (km/s) = 4.75925 5.73642 5.27053
#
# Compressibility (1/GPa) = 0.05334226
#
# Stress axis : x y z
#
# Youngs Moduli (GPa) = 31.29201 67.07774 35.96176
#
# Poissons Ratio (x) = 0.27801 0.32487
# Poissons Ratio (y) = 0.12969 -0.09039
# Poissons Ratio (z) = 0.28269 -0.16859
#
# Static dielectric constant tensor:
#      x y z
#    x 3.682700 0.000000 -0.596770 
#    y 0.000000 3.954940 0.000000 
#    z -0.596770 0.000000 3.681050 
# 
# 
# High freq. dielectric constant tensor:
#      x y z
#    x 1.791480 0.000000 -0.046290 
#    y 0.000000 1.832590 0.000000 
#    z -0.046290 0.000000 1.789210 
# 
# From -- ./inp_files/54806.got.cif
#   From: 2010.03.12/outbox.cif.g09.slc.cpg/sg14_28_cif.got.tgz:54806.got - 2010.03.31 13:35:05.
