data_PCOD8124162
_publ_section_title
;
Structure prediction by ZEFSAII (Michael W. Deem and Ramdas Pophale) SiO2 
 PCOD8124162
Probable space group: P 21/C
;
_chemical_formula_sum "Si O2"
_cell_formula_units_Z 28
_cell_length_a 14.063757
_cell_length_b 6.059380
_cell_length_c 19.178968
_cell_angle_alpha 90.000000
_cell_angle_beta 61.400571
_cell_angle_gamma 90.000000
_cell_volume 1434.971356
_symmetry_space_group_name_H-M "P 21/C"
_symmetry_group_IT_number 14
_symmetry_cell_setting 'monoclinic'
loop_
_space_group_symop_operation_xyz
x,y,z
-x,1/2+y,1/2-z
-x,-y,-z
x,1/2-y,1/2+z
loop_
_atom_site_type_symbol
_atom_site_label
_atom_site_fract_x
_atom_site_fract_y
_atom_site_fract_z
Si Si1 0.607345 0.201388 0.161328
Si Si2 0.544382 0.310177 0.435106
Si Si3 0.642392 0.478946 0.014917
Si Si4 0.627079 0.542833 0.271246
Si Si5 0.061437 0.685264 0.437560
Si Si6 0.858062 0.565269 0.002346
Si Si7 0.230914 0.132510 0.846028
O O1 0.654617 0.363624 0.203161
O O2 0.479743 0.172331 0.214241
O O3 0.665811 0.967514 0.149802
O O4 0.629586 0.292715 0.077184
O O5 0.500000 0.500000 0.500000
O O6 0.441712 0.177488 0.440486
O O7 0.615361 0.423828 0.349787
O O8 0.621254 0.134889 0.447671
O O9 0.765540 0.571029 0.975091
O O10 0.725294 0.724135 0.235653
O O11 0.146320 0.564610 0.354384
O O12 0.000000 0.500000 0.500000
O O13 0.972573 0.843083 0.430293
O O14 0.128361 0.818510 0.472886
O O15 0.827686 0.709696 0.079390
#
# Coordination Sequence:
#
# PCOD8124162 Si02
#       7
#     4   4   4   4   4   4   4
#     4  12  21  34  57  84 119 159 200 243 299 353
#     4  11  25  38  53  81 132 164 200 243 295 370
#     4  11  22  38  57  81 122 166 204 247 301 364
#     4  12  22  33  53  83 120 165 202 238 297 366
#     4   9  19  33  55  87 123 139 185 257 311 349
#     4  10  19  35  56  86 120 148 195 250 309 358
#     4  11  20  32  55  85 124 149 189 253 308 361
#
# _framework density 19.512584
#
# number of rings (size 3 to 8) (size 9 to 14) (size 15 to 20)
#    0.000    1.143    5.714    1.714    0.000    0.000 
#    0.000    0.000    0.000    0.000    0.000    0.000 
#  192.857    0.000    0.000    0.000    0.000    0.000 
#
# Total GULP energy -347023.736171 kJ/mol
# GULP energy per Si atom -12393.704863 kJ/mol
# Density = 1.946817 g / cm^3
# Si number density = 19.512584 Si / 1000 Ang^3
#
#
#
# Elastic Constant Matrix: (Units=GPa)
#
#
# Indices 1 2 3 4 5 6 
#
# 1 123.7737 45.1019 42.1130 0.0000 -13.5480 0.0000
# 2 45.1019 98.4535 45.4632 0.0000 -9.6227 0.0000
# 3 42.1130 45.4632 80.1888 0.0000 -7.0779 0.0000
# 4 0.0000 0.0000 0.0000 43.4554 0.0000 -14.2390
# 5 -13.5480 -9.6227 -7.0779 0.0000 26.0535 0.0000
# 6 0.0000 0.0000 0.0000 -14.2390 0.0000 41.7682
#
#
#
# Elastic Compliance Matrix: (Units=1/GPa)
#
#
# Indices 1 2 3 4 5 6 
#
# 1 0.010779 -0.002875 -0.003719 0.000000 0.003533 0.000000
# 2 -0.002875 0.014765 -0.006671 0.000000 0.002146 0.000000
# 3 -0.003719 -0.006671 0.018256 0.000000 0.000562 0.000000
# 4 0.000000 0.000000 0.000000 0.025906 0.000000 0.008831
# 5 0.003533 0.002146 0.000562 0.000000 0.041165 0.000000
# 6 0.000000 0.000000 0.000000 0.008831 0.000000 0.026952
#
#
# Mechanical properties :
#
#
# Convention : Reuss Voigt Hill
#
# Bulk Modulus (GPa) = 57.91049 63.08582 60.49816
# Shear Modulus (GPa) = 29.39285 33.57128 31.48207
#
# Velocity S-wave (km/s) = 3.88539 4.15238 4.02110
# Velocity P-wave (km/s) = 7.06196 7.44250 7.25472
#
# Compressibility (1/GPa) = 0.01726803
#
# Stress axis : x y z
#
# Youngs Moduli (GPa) = 92.77292 67.72918 54.77787
#
# Poissons Ratio (x) = 0.19475 0.20371
# Poissons Ratio (y) = 0.26675 0.36545
# Poissons Ratio (z) = 0.34501 0.45185
#
# Static dielectric constant tensor:
#      x y z
#    x 4.174310 0.000000 -0.158620 
#    y 0.000000 4.303650 0.000000 
#    z -0.158620 0.000000 3.825840 
# 
# 
# High freq. dielectric constant tensor:
#      x y z
#    x 1.747750 0.000000 -0.032830 
#    y 0.000000 1.790100 0.000000 
#    z -0.032830 0.000000 1.720100 
# 
# From -- ./inp_files/58470.got.cif
#   From: 2010.03.12/outbox.cif.g09.slc.cpg/sg14_30_cif.got.tgz:58470.got - 2010.03.31 13:35:05.
