data_PCOD8124296
_publ_section_title
;
Structure prediction by ZEFSAII (Michael W. Deem and Ramdas Pophale) SiO2 
 PCOD8124296
Probable space group: P 21/C
;
_chemical_formula_sum "Si O2"
_cell_formula_units_Z 32
_cell_length_a 11.155250
_cell_length_b 8.862286
_cell_length_c 20.298272
_cell_angle_alpha 90.000000
_cell_angle_beta 53.048405
_cell_angle_gamma 90.000000
_cell_volume 1603.647797
_symmetry_space_group_name_H-M "P 21/C"
_symmetry_group_IT_number 14
_symmetry_cell_setting 'monoclinic'
loop_
_space_group_symop_operation_xyz
x,y,z
-x,1/2+y,1/2-z
-x,-y,-z
x,1/2-y,1/2+z
loop_
_atom_site_type_symbol
_atom_site_label
_atom_site_fract_x
_atom_site_fract_y
_atom_site_fract_z
Si Si1 0.731356 0.158530 0.534226
Si Si2 0.491309 0.490939 0.717154
Si Si3 0.220603 0.995917 0.948307
Si Si4 0.963770 0.094601 0.111290
Si Si5 0.178527 0.913572 0.353382
Si Si6 0.578357 0.835329 0.308167
Si Si7 0.910091 0.625755 0.744257
Si Si8 0.944997 0.079179 0.353734
O O1 0.790401 0.328554 0.518983
O O2 0.795594 0.069126 0.576889
O O3 0.550364 0.148623 0.593489
O O4 0.791346 0.091098 0.446066
O O5 0.605802 0.542891 0.621064
O O6 0.337571 0.584257 0.762524
O O7 0.458252 0.312959 0.723326
O O8 0.571256 0.521763 0.761165
O O9 0.135157 0.003473 0.906622
O O10 0.136138 0.105789 0.027526
O O11 0.901252 0.260546 0.141212
O O12 0.962417 0.010001 0.180735
O O13 0.079036 0.053592 0.361875
O O14 0.738050 0.825228 0.290441
O O15 0.928712 0.565263 0.812073
O O16 0.018890 0.768789 0.698515
#
# Coordination Sequence:
#
# PCOD8124296 Si02
#       8
#     4   4   4   4   4   4   4   4
#     4   9  20  38  63  92 122 155 205 265 310 358
#     4  10  19  36  61  93 127 156 197 253 317 366
#     4   9  17  33  62  88 123 154 194 253 311 366
#     4  10  19  36  58  92 117 157 207 246 307 366
#     4  10  21  37  62  93 126 154 208 260 307 368
#     4  10  21  38  62  94 123 162 199 258 317 365
#     4  12  24  40  63  84 129 169 209 252 306 376
#     4  12  24  42  59  87 124 172 208 253 305 369
#
# _framework density 19.954505999999999
#
# number of rings (size 3 to 8) (size 9 to 14) (size 15 to 20)
#    0.000    1.750    3.750    1.875    0.000    0.500 
#    4.500    0.000    0.000    6.000    0.000    0.000 
#    0.000    0.000    0.000    0.000    0.000    0.000 
#
# Total GULP energy -396768.677608 kJ/mol
# GULP energy per Si atom -12399.021175 kJ/mol
# Density = 1.990909 g / cm^3
# Si number density = 19.954506 Si / 1000 Ang^3
#
#
#
# Elastic Constant Matrix: (Units=GPa)
#
#
# Indices 1 2 3 4 5 6 
#
# 1 53.4732 17.7597 50.4387 0.0000 -6.6685 0.0000
# 2 17.7597 66.9387 55.6453 0.0000 1.7590 0.0000
# 3 50.4387 55.6453 159.8507 0.0000 -22.8889 0.0000
# 4 0.0000 0.0000 0.0000 34.3810 0.0000 -1.7858
# 5 -6.6685 1.7590 -22.8889 0.0000 25.7422 0.0000
# 6 0.0000 0.0000 0.0000 -1.7858 0.0000 26.0814
#
#
#
# Elastic Compliance Matrix: (Units=1/GPa)
#
#
# Indices 1 2 3 4 5 6 
#
# 1 0.026635 0.000023 -0.008508 0.000000 -0.000667 0.000000
# 2 0.000023 0.023065 -0.009466 0.000000 -0.009987 0.000000
# 3 -0.008508 -0.009466 0.013765 0.000000 0.010682 0.000000
# 4 0.000000 0.000000 0.000000 0.029190 0.000000 0.001999
# 5 -0.000667 -0.009987 0.010682 0.000000 0.048855 0.000000
# 6 0.000000 0.000000 0.000000 0.001999 0.000000 0.038478
#
#
# Mechanical properties :
#
#
# Convention : Reuss Voigt Hill
#
# Bulk Modulus (GPa) = 36.28026 58.66112 47.47069
# Shear Modulus (GPa) = 22.21458 27.66887 24.94173
#
# Velocity S-wave (km/s) = 3.34018 3.72774 3.53927
# Velocity P-wave (km/s) = 5.75297 6.92743 6.36734
#
# Compressibility (1/GPa) = 0.02756320
#
# Stress axis : x y z
#
# Youngs Moduli (GPa) = 37.54435 43.35659 72.64616
#
# Poissons Ratio (x) = -0.00102 0.61807
# Poissons Ratio (y) = -0.00088 0.68770
# Poissons Ratio (z) = 0.31943 0.41043
#
# Static dielectric constant tensor:
#      x y z
#    x 3.421430 0.000000 -0.258330 
#    y 0.000000 3.458040 0.000000 
#    z -0.258330 0.000000 3.785890 
# 
# 
# High freq. dielectric constant tensor:
#      x y z
#    x 1.751770 0.000000 -0.022800 
#    y 0.000000 1.769580 0.000000 
#    z -0.022800 0.000000 1.788470 
# 
# From -- ./inp_files/67016.got.cif
#   From: 2010.03.12/outbox.cif.g09.slc.cpg/sg14_34_cif.got.tgz:67016.got - 2010.03.31 13:35:05.
