data_PCOD8124881
_publ_section_title
;
Structure prediction by ZEFSAII (Michael W. Deem and Ramdas Pophale) SiO2 
 PCOD8124881
Probable space group: P 21/C
;
_chemical_formula_sum "Si O2"
_cell_formula_units_Z 24
_cell_length_a 17.488151
_cell_length_b 8.722675
_cell_length_c 17.965551
_cell_angle_alpha 90.000000
_cell_angle_beta 156.961166
_cell_angle_gamma 90.000000
_cell_volume 1072.518882
_symmetry_space_group_name_H-M "P 21/C"
_symmetry_group_IT_number 14
_symmetry_cell_setting 'monoclinic'
loop_
_space_group_symop_operation_xyz
x,y,z
-x,1/2+y,1/2-z
-x,-y,-z
x,1/2-y,1/2+z
loop_
_atom_site_type_symbol
_atom_site_label
_atom_site_fract_x
_atom_site_fract_y
_atom_site_fract_z
Si Si1 0.710813 0.747377 0.417769
Si Si2 0.898329 0.256842 0.644546
Si Si3 0.314917 0.913520 0.416961
Si Si4 0.363687 0.915401 0.687520
Si Si5 0.903586 0.484583 0.525880
Si Si6 0.605811 0.173523 0.669644
O O1 0.521192 0.656632 0.273311
O O2 0.808503 0.653438 0.437633
O O3 0.873582 0.764171 0.628663
O O4 0.633130 0.902369 0.310111
O O5 0.756316 0.212087 0.586640
O O6 0.851725 0.132763 0.537377
O O7 0.851491 0.420265 0.563388
O O8 0.418306 0.822878 0.441096
O O9 0.134297 0.008236 0.221607
O O10 0.458605 0.048070 0.576292
O O11 0.415673 0.844635 0.815558
O O12 0.823054 0.379671 0.387704
#
# Coordination Sequence:
#
# PCOD8124881 Si02
#       6
#     4   4   4   4   4   4
#     4  11  21  34  57  85 114 147 193 241 282 333
#     4  10  20  36  58  83 110 147 194 237 279 332
#     4  10  20  37  60  85 114 149 189 233 283 338
#     4  11  21  36  58  85 114 150 193 236 285 337
#     4  10  20  35  57  83 112 150 191 234 282 337
#     4  10  21  36  58  84 115 151 186 230 287 344
#
# _framework density 22.377227999999999
#
# number of rings (size 3 to 8) (size 9 to 14) (size 15 to 20)
#    0.000    1.667    0.000    7.500    0.000    0.000 
#    0.000    3.333    0.000   22.000    0.000    0.000 
#    0.000    0.000    0.000    0.000    0.000    0.000 
#
# Total GULP energy -297316.809254 kJ/mol
# GULP energy per Si atom -12388.200386 kJ/mol
# Density = 2.232630 g / cm^3
# Si number density = 22.377228 Si / 1000 Ang^3
#
#
#
# Elastic Constant Matrix: (Units=GPa)
#
#
# Indices 1 2 3 4 5 6 
#
# 1 65.9434 22.6096 10.6302 0.0000 -4.1971 0.0000
# 2 22.6096 94.9173 25.3137 0.0000 0.7466 0.0000
# 3 10.6302 25.3137 81.7428 0.0000 2.5088 0.0000
# 4 0.0000 0.0000 0.0000 25.2881 0.0000 -3.5381
# 5 -4.1971 0.7466 2.5088 0.0000 23.6527 0.0000
# 6 0.0000 0.0000 0.0000 -3.5381 0.0000 23.1581
#
#
#
# Elastic Compliance Matrix: (Units=1/GPa)
#
#
# Indices 1 2 3 4 5 6 
#
# 1 0.016832 -0.003733 -0.001132 0.000000 0.003225 0.000000
# 2 -0.003733 0.012312 -0.003306 0.000000 -0.000700 0.000000
# 3 -0.001132 -0.003306 0.013451 0.000000 -0.001523 0.000000
# 4 0.000000 0.000000 0.000000 0.040408 0.000000 0.006174
# 5 0.003225 -0.000700 -0.001523 0.000000 0.043034 0.000000
# 6 0.000000 0.000000 0.000000 0.006174 0.000000 0.044125
#
#
# Mechanical properties :
#
#
# Convention : Reuss Voigt Hill
#
# Bulk Modulus (GPa) = 38.08955 39.96785 39.02870
# Shear Modulus (GPa) = 25.60762 26.68979 26.14871
#
# Velocity S-wave (km/s) = 3.38651 3.45733 3.42210
# Velocity P-wave (km/s) = 5.68769 5.81697 5.75269
#
# Compressibility (1/GPa) = 0.02625392
#
# Stress axis : x y z
#
# Youngs Moduli (GPa) = 59.41029 81.22288 74.34319
#
# Poissons Ratio (x) = 0.30320 0.08415
# Poissons Ratio (y) = 0.22178 0.24576
# Poissons Ratio (z) = 0.06725 0.26850
#
# Static dielectric constant tensor:
#      x y z
#    x 3.695750 0.000000 -0.044910 
#    y 0.000000 4.044210 0.000000 
#    z -0.044910 0.000000 4.409040 
# 
# 
# High freq. dielectric constant tensor:
#      x y z
#    x 1.848550 0.000000 -0.003140 
#    y 0.000000 1.868120 0.000000 
#    z -0.003140 0.000000 1.904200 
# 
# From -- ./inp_files/69822.got.cif
#   From: 2010.03.12/outbox.cif.g09.slc.cpg/sg14_35_cif.got.tgz:69822.got - 2010.03.31 13:35:05.
