data_PCOD8124220
_publ_section_title
;
Structure prediction by ZEFSAII (Michael W. Deem and Ramdas Pophale) SiO2 
 PCOD8124220
Probable space group: P 21/C
;
_chemical_formula_sum "Si O2"
_cell_formula_units_Z 32
_cell_length_a 14.069518
_cell_length_b 21.830816
_cell_length_c 13.989992
_cell_angle_alpha 90.000000
_cell_angle_beta 20.377213
_cell_angle_gamma 90.000000
_cell_volume 1496.216682
_symmetry_space_group_name_H-M "P 21/C"
_symmetry_group_IT_number 14
_symmetry_cell_setting 'monoclinic'
loop_
_space_group_symop_operation_xyz
x,y,z
-x,1/2+y,1/2-z
-x,-y,-z
x,1/2-y,1/2+z
loop_
_atom_site_type_symbol
_atom_site_label
_atom_site_fract_x
_atom_site_fract_y
_atom_site_fract_z
Si Si1 0.089183 0.220597 0.920449
Si Si2 0.592773 0.970065 0.109592
Si Si3 0.576453 0.111889 0.123390
Si Si4 0.562143 0.174251 0.335860
Si Si5 0.968907 0.448410 0.952233
Si Si6 0.908709 0.605731 0.467067
Si Si7 0.034790 0.354759 0.042258
Si Si8 0.546231 0.431754 0.980482
O O1 0.313670 0.203626 0.628952
O O2 0.074327 0.179227 0.032484
O O3 0.132602 0.286876 0.924666
O O4 0.812036 0.219727 0.120069
O O5 0.270991 0.959384 0.398222
O O6 0.650548 0.041471 0.084244
O O7 0.741596 0.950637 0.872836
O O8 0.704884 0.920911 0.080143
O O9 0.517176 0.159741 0.266288
O O10 0.300031 0.106868 0.323578
O O11 0.814325 0.141691 0.835079
O O12 0.646427 0.107498 0.296202
O O13 0.918969 0.384416 0.053824
O O14 0.000000 0.500000 0.000000
O O15 0.757585 0.588814 0.707575
O O16 0.210753 0.576207 0.169815
O O17 0.500000 0.500000 0.000000
#
# Coordination Sequence:
#
# PCOD8124220 Si02
#       8
#     4   4   4   4   4   4   4   4
#     4  10  23  46  62  88 134 170 216 251 317 393
#     4  12  23  40  66  99 131 157 218 270 319 393
#     4  12  23  40  67  98 124 161 215 271 321 374
#     4  10  22  40  65  92 126 164 211 264 306 386
#     4  12  23  43  64  91 130 168 210 268 329 377
#     4  10  22  38  61  90 127 166 199 262 311 368
#     4  12  25  43  67  88 129 177 212 266 321 372
#     4  10  19  35  60  91 127 164 199 243 321 378
#
# _framework density 21.387277000000001
#
# number of rings (size 3 to 8) (size 9 to 14) (size 15 to 20)
#    0.000    1.000    2.500    4.500    0.000    3.000 
#    6.750    0.000    0.000    0.000    0.000    0.000 
#    0.000    0.000    0.000    0.000    0.000    0.000 
#
# Total GULP energy -396468.464863 kJ/mol
# GULP energy per Si atom -12389.639527 kJ/mol
# Density = 2.133860 g / cm^3
# Si number density = 21.387277 Si / 1000 Ang^3
#
#
#
# Elastic Constant Matrix: (Units=GPa)
#
#
# Indices 1 2 3 4 5 6 
#
# 1 77.6407 40.8954 22.9081 0.0000 2.6020 0.0000
# 2 40.8954 120.5949 22.1992 0.0000 4.6021 0.0000
# 3 22.9081 22.1992 113.6326 0.0000 -3.1605 0.0000
# 4 0.0000 0.0000 0.0000 25.7073 0.0000 -1.5222
# 5 2.6020 4.6021 -3.1605 0.0000 33.8078 0.0000
# 6 0.0000 0.0000 0.0000 -1.5222 0.0000 26.8910
#
#
#
# Elastic Compliance Matrix: (Units=1/GPa)
#
#
# Indices 1 2 3 4 5 6 
#
# 1 0.016251 -0.005056 -0.002310 0.000000 -0.000778 0.000000
# 2 -0.005056 0.010235 -0.001011 0.000000 -0.001099 0.000000
# 3 -0.002310 -0.001011 0.009497 0.000000 0.001203 0.000000
# 4 0.000000 0.000000 0.000000 0.039030 0.000000 0.002209
# 5 -0.000778 -0.001099 0.001203 0.000000 0.029901 0.000000
# 6 0.000000 0.000000 0.000000 0.002209 0.000000 0.037312
#
#
# Mechanical properties :
#
#
# Convention : Reuss Voigt Hill
#
# Bulk Modulus (GPa) = 52.00497 53.76374 52.88436
# Shear Modulus (GPa) = 30.23183 32.33890 31.28537
#
# Velocity S-wave (km/s) = 3.76379 3.89274 3.82881
# Velocity P-wave (km/s) = 6.57699 6.73776 6.65786
#
# Compressibility (1/GPa) = 0.01922893
#
# Stress axis : x y z
#
# Youngs Moduli (GPa) = 61.53635 97.70669 105.29743
#
# Poissons Ratio (x) = 0.49399 0.24324
# Poissons Ratio (y) = 0.31112 0.10643
# Poissons Ratio (z) = 0.14215 0.09876
#
# Static dielectric constant tensor:
#      x y z
#    x 3.630500 0.000000 -0.156780 
#    y 0.000000 3.620450 0.000000 
#    z -0.156780 0.000000 3.714270 
# 
# 
# High freq. dielectric constant tensor:
#      x y z
#    x 1.827430 0.000000 -0.002640 
#    y 0.000000 1.835620 0.000000 
#    z -0.002640 0.000000 1.860430 
# 
# From -- ./inp_files/47656.got.cif
#   From: 2010.03.12/outbox.cif.g09.slc.cpg/sg14_24_cif.got.tgz:47656.got - 2010.03.31 13:35:05.
