data_PCOD8124282
_publ_section_title
;
Structure prediction by ZEFSAII (Michael W. Deem and Ramdas Pophale) SiO2 
 PCOD8124282
Probable space group: P 21/C
;
_chemical_formula_sum "Si O2"
_cell_formula_units_Z 32
_cell_length_a 12.922786
_cell_length_b 20.002268
_cell_length_c 13.789761
_cell_angle_alpha 90.000000
_cell_angle_beta 153.499926
_cell_angle_gamma 90.000000
_cell_volume 1590.452474
_symmetry_space_group_name_H-M "P 21/C"
_symmetry_group_IT_number 14
_symmetry_cell_setting 'monoclinic'
loop_
_space_group_symop_operation_xyz
x,y,z
-x,1/2+y,1/2-z
-x,-y,-z
x,1/2-y,1/2+z
loop_
_atom_site_type_symbol
_atom_site_label
_atom_site_fract_x
_atom_site_fract_y
_atom_site_fract_z
Si Si1 0.747741 0.892670 0.919511
Si Si2 0.396449 0.803710 0.530462
Si Si3 0.559181 0.671102 0.570101
Si Si4 0.449512 0.487375 0.111187
Si Si5 0.986969 0.845689 0.309363
Si Si6 0.232248 0.573892 0.771308
Si Si7 0.219780 0.920355 0.673133
Si Si8 0.256172 0.062939 0.637578
O O1 0.629864 0.823230 0.785291
O O2 0.553260 0.949718 0.756776
O O3 0.847516 0.885903 0.110664
O O4 0.958590 0.913729 0.024989
O O5 0.426871 0.735047 0.499283
O O6 0.352173 0.859757 0.412825
O O7 0.175276 0.796408 0.417692
O O8 0.803187 0.693039 0.724175
O O9 0.408317 0.634193 0.361741
O O10 0.595580 0.621908 0.690679
O O11 0.655664 0.443600 0.237701
O O12 0.314001 0.440246 0.072329
O O13 0.272974 0.512646 0.880367
O O14 0.120237 0.901188 0.483933
O O15 0.016487 0.921619 0.582528
O O16 0.324673 0.994605 0.751293
#
# Coordination Sequence:
#
# PCOD8124282 Si02
#       8
#     4   4   4   4   4   4   4   4
#     4  10  19  37  63  83 114 155 198 237 294 355
#     4  10  22  40  56  87 117 155 202 240 284 358
#     4  11  23  40  57  88 119 158 197 243 295 352
#     4  10  19  36  57  92 119 150 195 246 298 350
#     4  10  21  38  63  85 108 161 196 242 296 353
#     4   9  20  36  59  84 120 158 197 240 293 350
#     4  10  21  40  60  86 117 153 195 244 296 360
#     4  10  21  35  58  89 119 147 193 248 298 346
#
# _framework density 20.120061
#
# number of rings (size 3 to 8) (size 9 to 14) (size 15 to 20)
#    0.000    2.000    0.000    4.500    0.000    7.000 
#    9.000    0.000    0.000    0.000    0.000    0.000 
#    0.000    0.000    0.000    0.000    0.000    0.000 
#
# Total GULP energy -396850.862583 kJ/mol
# GULP energy per Si atom -12401.589456 kJ/mol
# Density = 2.007427 g / cm^3
# Si number density = 20.120061 Si / 1000 Ang^3
#
#
#
# Elastic Constant Matrix: (Units=GPa)
#
#
# Indices 1 2 3 4 5 6 
#
# 1 133.1647 37.7327 29.1869 0.0000 13.2251 0.0000
# 2 37.7327 77.9177 14.6969 0.0000 8.3869 0.0000
# 3 29.1869 14.6969 70.0497 0.0000 11.7423 0.0000
# 4 0.0000 0.0000 0.0000 20.0897 0.0000 4.8837
# 5 13.2251 8.3869 11.7423 0.0000 27.3469 0.0000
# 6 0.0000 0.0000 0.0000 4.8837 0.0000 30.1822
#
#
#
# Elastic Compliance Matrix: (Units=1/GPa)
#
#
# Indices 1 2 3 4 5 6 
#
# 1 0.009408 -0.003800 -0.002754 0.000000 -0.002202 0.000000
# 2 -0.003800 0.015149 -0.001212 0.000000 -0.002288 0.000000
# 3 -0.002754 -0.001212 0.016585 0.000000 -0.005418 0.000000
# 4 0.000000 0.000000 0.000000 0.051815 0.000000 -0.008384
# 5 -0.002202 -0.002288 -0.005418 0.000000 0.040660 0.000000
# 6 0.000000 0.000000 0.000000 -0.008384 0.000000 0.034489
#
#
# Mechanical properties :
#
#
# Convention : Reuss Voigt Hill
#
# Bulk Modulus (GPa) = 39.04322 49.37389 44.20856
# Shear Modulus (GPa) = 26.01802 28.82479 27.42140
#
# Velocity S-wave (km/s) = 3.59992 3.78913 3.69574
# Velocity P-wave (km/s) = 6.06024 6.61334 6.34282
#
# Compressibility (1/GPa) = 0.02561264
#
# Stress axis : x y z
#
# Youngs Moduli (GPa) = 106.28759 66.01123 60.29406
#
# Poissons Ratio (x) = 0.25082 0.16604
# Poissons Ratio (y) = 0.40386 0.07305
# Poissons Ratio (z) = 0.29269 0.07998
#
# Static dielectric constant tensor:
#      x y z
#    x 3.835020 0.000000 0.222060 
#    y 0.000000 3.347260 0.000000 
#    z 0.222060 0.000000 3.691140 
# 
# 
# High freq. dielectric constant tensor:
#      x y z
#    x 1.798300 0.000000 0.011090 
#    y 0.000000 1.755580 0.000000 
#    z 0.011090 0.000000 1.785550 
# 
# From -- ./inp_files/30752.got.cif
#   From: 2010.03.12/outbox.cif.g09.slc.cpg/sg14_16_cif.got.tgz:30752.got - 2010.03.31 13:35:05.
