data_PCOD8124510
_publ_section_title
;
Structure prediction by ZEFSAII (Michael W. Deem and Ramdas Pophale) SiO2 
 PCOD8124510
Probable space group: P 21/C
;
_chemical_formula_sum "Si O2"
_cell_formula_units_Z 32
_cell_length_a 5.129354
_cell_length_b 29.962552
_cell_length_c 11.400715
_cell_angle_alpha 90.000000
_cell_angle_beta 117.135774
_cell_angle_gamma 90.000000
_cell_volume 1559.295882
_symmetry_space_group_name_H-M "P 21/C"
_symmetry_group_IT_number 14
_symmetry_cell_setting 'monoclinic'
loop_
_space_group_symop_operation_xyz
x,y,z
-x,1/2+y,1/2-z
-x,-y,-z
x,1/2-y,1/2+z
loop_
_atom_site_type_symbol
_atom_site_label
_atom_site_fract_x
_atom_site_fract_y
_atom_site_fract_z
Si Si1 0.084910 0.177537 0.293551
Si Si2 0.088628 0.590461 0.375955
Si Si3 0.745014 0.441777 0.014486
Si Si4 0.914854 0.533435 0.140719
Si Si5 0.447025 0.207991 0.155607
Si Si6 0.272302 0.379119 0.485474
Si Si7 0.033574 0.855738 0.311867
Si Si8 0.628375 0.808451 0.405208
O O1 0.004793 0.128367 0.234880
O O2 0.331789 0.199644 0.263087
O O3 0.206142 0.172276 0.448515
O O4 0.797542 0.208297 0.231963
O O5 0.029748 0.544145 0.295413
O O6 0.896099 0.591520 0.453082
O O7 0.425537 0.595971 0.481145
O O8 0.886612 0.480020 0.125460
O O9 0.846876 0.393871 0.078578
O O10 0.394957 0.443255 0.949755
O O11 0.845126 0.448342 0.901262
O O12 0.321602 0.171188 0.040804
O O13 0.335195 0.255267 0.086409
O O14 0.079292 0.378106 0.329896
O O15 0.768656 0.829343 0.317636
O O16 0.288139 0.820789 0.335648
#
# Coordination Sequence:
#
# PCOD8124510 Si02
#       8
#     4   4   4   4   4   4   4   4
#     4  10  21  39  56  84 109 143 198 243 278 340
#     4  10  19  38  61  82 113 159 196 234 284 350
#     4  10  21  37  61  94 124 150 189 254 294 346
#     4  10  20  37  65  91 120 152 195 245 298 341
#     4  10  23  38  57  80 112 149 195 241 284 339
#     4  10  23  39  57  81 121 157 191 241 291 346
#     4  12  24  41  58  89 119 157 193 239 303 354
#     4  12  25  37  63  83 112 159 191 247 292 346
#
# _framework density 20.522085000000001
#
# number of rings (size 3 to 8) (size 9 to 14) (size 15 to 20)
#    0.000    1.500    0.000    5.250    3.500    2.000 
#    0.000    1.250    0.000    0.000    0.000    0.000 
#    0.000    0.000    0.000    0.000    0.000    0.000 
#
# Total GULP energy -397023.807065 kJ/mol
# GULP energy per Si atom -12406.993971 kJ/mol
# Density = 2.047538 g / cm^3
# Si number density = 20.522085 Si / 1000 Ang^3
#
#
#
# Elastic Constant Matrix: (Units=GPa)
#
#
# Indices 1 2 3 4 5 6 
#
# 1 84.4672 18.9205 0.7869 0.0000 -1.7717 0.0000
# 2 18.9205 44.2897 -18.7725 0.0000 2.5002 0.0000
# 3 0.7869 -18.7725 51.0731 0.0000 -1.5260 0.0000
# 4 0.0000 0.0000 0.0000 19.4234 0.0000 1.0842
# 5 -1.7717 2.5002 -1.5260 0.0000 19.8709 0.0000
# 6 0.0000 0.0000 0.0000 1.0842 0.0000 18.9176
#
#
#
# Elastic Compliance Matrix: (Units=1/GPa)
#
#
# Indices 1 2 3 4 5 6 
#
# 1 0.013476 -0.007021 -0.002732 0.000000 0.001875 0.000000
# 2 -0.007021 0.030540 0.011226 0.000000 -0.003607 0.000000
# 3 -0.002732 0.011226 0.023753 0.000000 0.000168 0.000000
# 4 0.000000 0.000000 0.000000 0.051649 0.000000 -0.002960
# 5 0.001875 -0.003607 0.000168 0.000000 0.050959 0.000000
# 6 0.000000 0.000000 0.000000 -0.002960 0.000000 0.053030
#
#
# Mechanical properties :
#
#
# Convention : Reuss Voigt Hill
#
# Bulk Modulus (GPa) = 14.14157 20.18887 17.16522
# Shear Modulus (GPa) = 20.48894 23.56873 22.02884
#
# Velocity S-wave (km/s) = 3.16315 3.39257 3.27986
# Velocity P-wave (km/s) = 4.49962 5.02046 4.76716
#
# Compressibility (1/GPa) = 0.07071349
#
# Stress axis : x y z
#
# Youngs Moduli (GPa) = 74.20388 32.74438 42.10005
#
# Poissons Ratio (x) = 0.22990 0.11503
# Poissons Ratio (y) = 0.52099 -0.47260
# Poissons Ratio (z) = 0.20274 -0.36757
#
# Static dielectric constant tensor:
#      x y z
#    x 3.992860 0.000000 0.021990 
#    y 0.000000 3.655390 0.000000 
#    z 0.021990 0.000000 3.497520 
# 
# 
# High freq. dielectric constant tensor:
#      x y z
#    x 1.823660 0.000000 0.000740 
#    y 0.000000 1.794890 0.000000 
#    z 0.000740 0.000000 1.793070 
# 
# From -- ./inp_files/22370.got.cif
#   From: 2010.03.12/outbox.cif.g09.slc.cpg/sg14_12_cif.got.tgz:22370.got - 2010.03.31 13:35:05.
