data_PCOD8124206
_publ_section_title
;
Structure prediction by ZEFSAII (Michael W. Deem and Ramdas Pophale) SiO2 
 PCOD8124206
Probable space group: P 21/C
;
_chemical_formula_sum "Si O2"
_cell_formula_units_Z 32
_cell_length_a 10.497955
_cell_length_b 8.912483
_cell_length_c 18.095575
_cell_angle_alpha 90.000000
_cell_angle_beta 70.434267
_cell_angle_gamma 90.000000
_cell_volume 1595.311883
_symmetry_space_group_name_H-M "P 21/C"
_symmetry_group_IT_number 14
_symmetry_cell_setting 'monoclinic'
loop_
_space_group_symop_operation_xyz
x,y,z
-x,1/2+y,1/2-z
-x,-y,-z
x,1/2-y,1/2+z
loop_
_atom_site_type_symbol
_atom_site_label
_atom_site_fract_x
_atom_site_fract_y
_atom_site_fract_z
Si Si1 0.281307 0.583048 0.686511
Si Si2 0.800111 0.841444 0.914935
Si Si3 0.392645 0.352787 0.133465
Si Si4 0.520317 0.333368 0.858078
Si Si5 0.479869 0.605000 0.309966
Si Si6 0.857936 0.884810 0.215435
Si Si7 0.046680 0.719688 0.280601
Si Si8 0.726664 0.866419 0.092064
O O1 0.210708 0.488242 0.635122
O O2 0.378825 0.706847 0.629202
O O3 0.373175 0.475421 0.719457
O O4 0.170888 0.663324 0.760822
O O5 0.676601 0.725341 0.924164
O O6 0.943974 0.760715 0.869985
O O7 0.798174 0.892547 0.999780
O O8 0.452832 0.515142 0.100508
O O9 0.515982 0.254415 0.141072
O O10 0.288002 0.358607 0.221248
O O11 0.562913 0.358598 0.764690
O O12 0.363920 0.284561 0.893513
O O13 0.367577 0.505618 0.370602
O O14 0.845305 0.859965 0.129930
O O15 0.962578 0.758187 0.222614
O O16 0.903212 0.049643 0.232256
#
# Coordination Sequence:
#
# PCOD8124206 Si02
#       8
#     4   4   4   4   4   4   4   4
#     4  10  20  36  61  85 116 159 201 238 291 364
#     4  10  24  39  57  91 123 158 196 245 301 353
#     4  10  19  35  59  92 117 153 199 239 294 354
#     4  11  19  34  64  91 117 154 198 244 298 350
#     4  10  19  35  61  91 118 154 196 243 298 360
#     4  11  21  37  64  86 115 154 202 249 285 354
#     4  11  21  39  62  87 111 162 208 242 286 358
#     4  11  23  39  60  92 126 151 192 251 306 349
#
# _framework density 20.058774
#
# number of rings (size 3 to 8) (size 9 to 14) (size 15 to 20)
#    0.000    1.500    5.000    0.750    0.000    5.500 
#    0.000    0.000    0.000    6.750    0.000    0.000 
#    0.000    0.000    0.000    0.000    0.000    0.000 
#
# Total GULP energy -396758.127277 kJ/mol
# GULP energy per Si atom -12398.691477 kJ/mol
# Density = 2.001312 g / cm^3
# Si number density = 20.058774 Si / 1000 Ang^3
#
#
#
# Elastic Constant Matrix: (Units=GPa)
#
#
# Indices 1 2 3 4 5 6 
#
# 1 81.3067 36.2240 29.9549 0.0000 1.0214 0.0000
# 2 36.2240 113.6038 25.1188 0.0000 4.0246 0.0000
# 3 29.9549 25.1188 85.7408 0.0000 6.9857 0.0000
# 4 0.0000 0.0000 0.0000 16.8303 0.0000 -2.6514
# 5 1.0214 4.0246 6.9857 0.0000 20.5152 0.0000
# 6 0.0000 0.0000 0.0000 -2.6514 0.0000 35.0708
#
#
#
# Elastic Compliance Matrix: (Units=1/GPa)
#
#
# Indices 1 2 3 4 5 6 
#
# 1 0.015732 -0.004093 -0.004422 0.000000 0.001525 0.000000
# 2 -0.004093 0.010494 -0.001536 0.000000 -0.001332 0.000000
# 3 -0.004422 -0.001536 0.014004 0.000000 -0.004247 0.000000
# 4 0.000000 0.000000 0.000000 0.060133 0.000000 0.004546
# 5 0.001525 -0.001332 -0.004247 0.000000 0.050376 0.000000
# 6 0.000000 0.000000 0.000000 0.004546 0.000000 0.028857
#
#
# Mechanical properties :
#
#
# Convention : Reuss Voigt Hill
#
# Bulk Modulus (GPa) = 49.67787 51.47184 50.57486
# Shear Modulus (GPa) = 24.22391 27.10684 25.66538
#
# Velocity S-wave (km/s) = 3.47889 3.68009 3.58090
# Velocity P-wave (km/s) = 6.39975 6.61616 6.50886
#
# Compressibility (1/GPa) = 0.02012969
#
# Stress axis : x y z
#
# Youngs Moduli (GPa) = 63.56305 95.28889 71.40902
#
# Poissons Ratio (x) = 0.39000 0.31574
# Poissons Ratio (y) = 0.26015 0.10969
# Poissons Ratio (z) = 0.28105 0.14637
#
# Static dielectric constant tensor:
#      x y z
#    x 3.844730 0.000000 0.017410 
#    y 0.000000 3.911640 0.000000 
#    z 0.017410 0.000000 3.237060 
# 
# 
# High freq. dielectric constant tensor:
#      x y z
#    x 1.787430 0.000000 0.000940 
#    y 0.000000 1.795010 0.000000 
#    z 0.000940 0.000000 1.741180 
# 
# From -- ./inp_files/57048.got.cif
#   From: 2010.03.12/outbox.cif.g09.slc.cpg/sg14_29_cif.got.tgz:57048.got - 2010.03.31 13:35:05.
