data_PCOD8124152
_publ_section_title
;
Structure prediction by ZEFSAII (Michael W. Deem and Ramdas Pophale) SiO2 
 PCOD8124152
Probable space group: P 21/C
;
_chemical_formula_sum "Si O2"
_cell_formula_units_Z 32
_cell_length_a 27.721478
_cell_length_b 8.501080
_cell_length_c 12.544096
_cell_angle_alpha 90.000000
_cell_angle_beta 31.343315
_cell_angle_gamma 90.000000
_cell_volume 1537.697534
_symmetry_space_group_name_H-M "P 21/C"
_symmetry_group_IT_number 14
_symmetry_cell_setting 'monoclinic'
loop_
_space_group_symop_operation_xyz
x,y,z
-x,1/2+y,1/2-z
-x,-y,-z
x,1/2-y,1/2+z
loop_
_atom_site_type_symbol
_atom_site_label
_atom_site_fract_x
_atom_site_fract_y
_atom_site_fract_z
Si Si1 0.029077 0.758710 0.950058
Si Si2 0.321505 0.473289 0.237469
Si Si3 0.591305 0.689584 0.330345
Si Si4 0.400967 0.436812 0.451515
Si Si5 0.915608 0.964764 0.015336
Si Si6 0.437652 0.747673 0.966536
Si Si7 0.891479 0.532893 0.317615
Si Si8 0.282889 0.177305 0.594540
O O1 0.000874 0.867333 0.903190
O O2 0.938576 0.689660 0.180999
O O3 0.090793 0.616220 0.791107
O O4 0.089998 0.865031 0.916326
O O5 0.390780 0.375331 0.181684
O O6 0.218148 0.442183 0.474207
O O7 0.332292 0.419392 0.094990
O O8 0.350631 0.655997 0.182757
O O9 0.597858 0.594749 0.425502
O O10 0.491967 0.667970 0.461261
O O11 0.672153 0.622512 0.100957
O O12 0.493041 0.372969 0.221681
O O13 0.400727 0.627110 0.448106
O O14 0.309002 0.361939 0.569480
O O15 0.825828 0.855901 0.203478
O O16 0.931955 0.995836 0.859535
#
# Coordination Sequence:
#
# PCOD8124152 Si02
#       8
#     4   4   4   4   4   4   4   4
#     4  10  21  37  62  87 112 153 197 235 298 368
#     4  10  21  36  55  80 114 147 187 238 287 339
#     4  10  19  35  56  78 108 149 190 235 282 333
#     4  10  21  36  55  79 112 150 192 237 285 340
#     4  10  20  38  61  86 117 152 191 243 297 355
#     4  11  21  36  54  79 110 149 195 236 283 336
#     4  10  21  39  57  85 121 150 190 246 296 354
#     4   9  20  37  56  82 113 146 186 238 290 343
#
# _framework density 20.810334000000001
#
# number of rings (size 3 to 8) (size 9 to 14) (size 15 to 20)
#    0.000    2.000    0.000    4.500    0.000    2.000 
#    0.000   15.000    0.000    0.000    0.000    0.000 
#    0.000    0.000    0.000    0.000    0.000    0.000 
#
# Total GULP energy -396739.426227 kJ/mol
# GULP energy per Si atom -12398.107070 kJ/mol
# Density = 2.076297 g / cm^3
# Si number density = 20.810334 Si / 1000 Ang^3
#
#
#
# Elastic Constant Matrix: (Units=GPa)
#
#
# Indices 1 2 3 4 5 6 
#
# 1 65.5804 15.9429 20.4983 0.0000 5.6635 0.0000
# 2 15.9429 95.6604 21.0853 0.0000 -15.4964 0.0000
# 3 20.4983 21.0853 79.6730 0.0000 5.0425 0.0000
# 4 0.0000 0.0000 0.0000 26.4997 0.0000 2.4171
# 5 5.6635 -15.4964 5.0425 0.0000 30.2281 0.0000
# 6 0.0000 0.0000 0.0000 2.4171 0.0000 34.6824
#
#
#
# Elastic Compliance Matrix: (Units=1/GPa)
#
#
# Indices 1 2 3 4 5 6 
#
# 1 0.017367 -0.002795 -0.003468 0.000000 -0.004108 0.000000
# 2 -0.002795 0.012856 -0.003167 0.000000 0.007642 0.000000
# 3 -0.003468 -0.003167 0.014496 0.000000 -0.003392 0.000000
# 4 0.000000 0.000000 0.000000 0.037978 0.000000 -0.002647
# 5 -0.004108 0.007642 -0.003392 0.000000 0.038335 0.000000
# 6 0.000000 0.000000 0.000000 -0.002647 0.000000 0.029018
#
#
# Mechanical properties :
#
#
# Convention : Reuss Voigt Hill
#
# Bulk Modulus (GPa) = 38.67286 39.55187 39.11237
# Shear Modulus (GPa) = 28.16433 30.50786 29.33609
#
# Velocity S-wave (km/s) = 3.68282 3.83299 3.75866
# Velocity P-wave (km/s) = 6.05872 6.21580 6.13776
#
# Compressibility (1/GPa) = 0.02585793
#
# Stress axis : x y z
#
# Youngs Moduli (GPa) = 57.58066 77.78731 68.98286
#
# Poissons Ratio (x) = 0.21745 0.23926
# Poissons Ratio (y) = 0.16096 0.21845
# Poissons Ratio (z) = 0.19971 0.24633
#
# Static dielectric constant tensor:
#      x y z
#    x 3.838980 0.000000 0.214740 
#    y 0.000000 3.787510 0.000000 
#    z 0.214740 0.000000 3.648800 
# 
# 
# High freq. dielectric constant tensor:
#      x y z
#    x 1.815740 0.000000 0.017200 
#    y 0.000000 1.811200 0.000000 
#    z 0.017200 0.000000 1.808510 
# 
# From -- ./inp_files/36465.got.cif
#   From: 2010.03.12/outbox.cif.g09.slc.cpg/sg14_19_cif.got.tgz:36465.got - 2010.03.31 13:35:05.
