data_PCOD8124780
_publ_section_title
;
Structure prediction by ZEFSAII (Michael W. Deem and Ramdas Pophale) SiO2 
 PCOD8124780
Probable space group: P 21/C
;
_chemical_formula_sum "Si O2"
_cell_formula_units_Z 24
_cell_length_a 18.199496
_cell_length_b 8.423197
_cell_length_c 24.589176
_cell_angle_alpha 90.000000
_cell_angle_beta 19.408919
_cell_angle_gamma 90.000000
_cell_volume 1252.624879
_symmetry_space_group_name_H-M "P 21/C"
_symmetry_group_IT_number 14
_symmetry_cell_setting 'monoclinic'
loop_
_space_group_symop_operation_xyz
x,y,z
-x,1/2+y,1/2-z
-x,-y,-z
x,1/2-y,1/2+z
loop_
_atom_site_type_symbol
_atom_site_label
_atom_site_fract_x
_atom_site_fract_y
_atom_site_fract_z
Si Si1 0.011262 0.901205 0.072582
Si Si2 0.381920 0.692582 0.623089
Si Si3 0.836834 0.925159 0.394510
Si Si4 0.666822 0.414311 0.746367
Si Si5 0.052251 0.884674 0.785227
Si Si6 0.829605 0.617296 0.265773
O O1 0.953530 0.735016 0.139471
O O2 0.232221 0.877331 0.883096
O O3 0.804136 0.945113 0.178898
O O4 0.062413 0.036679 0.081921
O O5 0.319278 0.758268 0.725855
O O6 0.273729 0.793681 0.649561
O O7 0.647010 0.705517 0.430718
O O8 0.299978 0.511869 0.679998
O O9 0.585596 0.967039 0.584984
O O10 0.888555 0.739794 0.369978
O O11 0.883801 0.970355 0.299088
O O12 0.985581 0.037224 0.327115
#
# Coordination Sequence:
#
# PCOD8124780 Si02
#       6
#     4   4   4   4   4   4
#     4  10  21  37  54  75 107 144 176 210 260 316
#     4   9  19  36  56  79 105 136 175 216 260 313
#     4  11  21  34  55  81 106 135 175 221 263 306
#     4  10  21  36  54  76 106 143 178 213 257 311
#     4  10  20  34  54  78 106 138 174 217 262 309
#     4  10  20  35  57  82 106 135 174 219 264 308
#
# _framework density 19.159766999999999
#
# number of rings (size 3 to 8) (size 9 to 14) (size 15 to 20)
#    0.000    2.000    0.000    4.000    0.000    4.667 
#    0.000    1.667    0.000    0.000    0.000    0.000 
#    0.000    0.000    0.000    0.000    0.000    0.000 
#
# Total GULP energy -297662.963233 kJ/mol
# GULP energy per Si atom -12402.623468 kJ/mol
# Density = 1.911616 g / cm^3
# Si number density = 19.159767 Si / 1000 Ang^3
#
#
#
# Elastic Constant Matrix: (Units=GPa)
#
#
# Indices 1 2 3 4 5 6 
#
# 1 83.8798 48.6507 66.0980 0.0000 13.2096 0.0000
# 2 48.6507 80.1843 31.9905 0.0000 15.8491 0.0000
# 3 66.0980 31.9905 137.2494 0.0000 14.1679 0.0000
# 4 0.0000 0.0000 0.0000 25.8133 0.0000 2.1223
# 5 13.2096 15.8491 14.1679 0.0000 36.7101 0.0000
# 6 0.0000 0.0000 0.0000 2.1223 0.0000 21.8274
#
#
#
# Elastic Compliance Matrix: (Units=1/GPa)
#
#
# Indices 1 2 3 4 5 6 
#
# 1 0.027145 -0.012316 -0.010147 0.000000 -0.000534 0.000000
# 2 -0.012316 0.020237 0.001728 0.000000 -0.004972 0.000000
# 3 -0.010147 0.001728 0.011946 0.000000 -0.001705 0.000000
# 4 0.000000 0.000000 0.000000 0.039052 0.000000 -0.003797
# 5 -0.000534 -0.004972 -0.001705 0.000000 0.030237 0.000000
# 6 0.000000 0.000000 0.000000 -0.003797 0.000000 0.046183
#
#
# Mechanical properties :
#
#
# Convention : Reuss Voigt Hill
#
# Bulk Modulus (GPa) = 55.99848 66.08798 61.04323
# Shear Modulus (GPa) = 22.49968 27.17512 24.83740
#
# Velocity S-wave (km/s) = 3.43055 3.77018 3.60437
# Velocity P-wave (km/s) = 6.70687 7.31576 7.01792
#
# Compressibility (1/GPa) = 0.01785763
#
# Stress axis : x y z
#
# Youngs Moduli (GPa) = 36.83863 49.41327 83.70934
#
# Poissons Ratio (x) = 0.60858 0.84941
# Poissons Ratio (y) = 0.45371 -0.14462
# Poissons Ratio (z) = 0.37381 -0.08537
#
# Static dielectric constant tensor:
#      x y z
#    x 3.564360 0.000000 -0.058720 
#    y 0.000000 3.555810 0.000000 
#    z -0.058720 0.000000 3.493530 
# 
# 
# High freq. dielectric constant tensor:
#      x y z
#    x 1.750480 0.000000 -0.006070 
#    y 0.000000 1.750190 0.000000 
#    z -0.006070 0.000000 1.737160 
# 
# From -- ./inp_files/38891.got.cif
#   From: 2010.03.12/outbox.cif.g09.slc.cpg/sg14_20_cif.got.tgz:38891.got - 2010.03.31 13:35:05.
