data_PCOD8124119
_publ_section_title
;
Structure prediction by ZEFSAII (Michael W. Deem and Ramdas Pophale) SiO2 
 PCOD8124119
Probable space group: P 21/C
;
_chemical_formula_sum "Si O2"
_cell_formula_units_Z 32
_cell_length_a 9.058763
_cell_length_b 6.680415
_cell_length_c 27.199902
_cell_angle_alpha 90.000000
_cell_angle_beta 92.024227
_cell_angle_gamma 90.000000
_cell_volume 1645.010168
_symmetry_space_group_name_H-M "P 21/C"
_symmetry_group_IT_number 14
_symmetry_cell_setting 'monoclinic'
loop_
_space_group_symop_operation_xyz
x,y,z
-x,1/2+y,1/2-z
-x,-y,-z
x,1/2-y,1/2+z
loop_
_atom_site_type_symbol
_atom_site_label
_atom_site_fract_x
_atom_site_fract_y
_atom_site_fract_z
Si Si1 0.363587 0.604925 0.202567
Si Si2 0.773412 0.940193 0.627904
Si Si3 0.878764 0.715489 0.959180
Si Si4 0.799958 0.127844 0.528787
Si Si5 0.540763 0.890394 0.134250
Si Si6 0.118653 0.907550 0.623481
Si Si7 0.603242 0.220432 0.693034
Si Si8 0.286362 0.882194 0.057098
O O1 0.451540 0.777767 0.175648
O O2 0.204463 0.572479 0.175836
O O3 0.334380 0.673741 0.257688
O O4 0.450834 0.395082 0.202630
O O5 0.727954 0.077967 0.580579
O O6 0.725271 0.062989 0.675648
O O7 0.690661 0.728051 0.624128
O O8 0.945956 0.892261 0.632594
O O9 0.840790 0.600708 0.908325
O O10 0.053438 0.765148 0.962498
O O11 0.777114 0.907769 0.960733
O O12 0.844128 0.585830 0.006849
O O13 0.689488 0.245952 0.491371
O O14 0.446100 0.903379 0.083346
O O15 0.575705 0.114190 0.151265
O O16 0.168780 0.712719 0.593621
#
# Coordination Sequence:
#
# PCOD8124119 Si02
#       8
#     4   4   4   4   4   4   4   4
#     4  10  20  39  63  81 106 145 193 234 279 340
#     4  10  23  39  53  83 123 149 177 234 295 330
#     4   9  17  33  57  85 112 155 192 229 275 331
#     4   9  19  34  54  81 123 152 186 234 278 328
#     4  10  22  38  58  85 112 148 188 236 283 338
#     4   9  20  38  57  86 117 143 186 241 278 333
#     4  11  21  39  61  80 108 148 187 233 288 339
#     4  10  19  34  62  87 108 153 204 224 270 338
#
# _framework density 19.452767999999999
#
# number of rings (size 3 to 8) (size 9 to 14) (size 15 to 20)
#    0.000    2.250    1.250    1.875    0.000    4.500 
#    2.250    1.250    0.000    0.000    0.000    0.000 
#    0.000    0.000    0.000    0.000    0.000    0.000 
#
# Total GULP energy -396854.937038 kJ/mol
# GULP energy per Si atom -12401.716782 kJ/mol
# Density = 1.940849 g / cm^3
# Si number density = 19.452768 Si / 1000 Ang^3
#
#
#
# Elastic Constant Matrix: (Units=GPa)
#
#
# Indices 1 2 3 4 5 6 
#
# 1 95.5463 32.3726 48.6953 0.0000 8.9407 0.0000
# 2 32.3726 79.2275 26.9699 0.0000 4.7549 0.0000
# 3 48.6953 26.9699 100.9354 0.0000 13.9328 0.0000
# 4 0.0000 0.0000 0.0000 28.6825 0.0000 3.1406
# 5 8.9407 4.7549 13.9328 0.0000 29.7935 0.0000
# 6 0.0000 0.0000 0.0000 3.1406 0.0000 23.6750
#
#
#
# Elastic Compliance Matrix: (Units=1/GPa)
#
#
# Indices 1 2 3 4 5 6 
#
# 1 0.014989 -0.004015 -0.006015 0.000000 -0.001045 0.000000
# 2 -0.004015 0.014967 -0.002030 0.000000 -0.000235 0.000000
# 3 -0.006015 -0.002030 0.013959 0.000000 -0.004399 0.000000
# 4 0.000000 0.000000 0.000000 0.035378 0.000000 -0.004693
# 5 -0.001045 -0.000235 -0.004399 0.000000 0.035972 0.000000
# 6 0.000000 0.000000 0.000000 -0.004693 0.000000 0.042861
#
#
# Mechanical properties :
#
#
# Convention : Reuss Voigt Hill
#
# Bulk Modulus (GPa) = 50.51293 54.64275 52.57784
# Shear Modulus (GPa) = 26.47672 27.60828 27.04250
#
# Velocity S-wave (km/s) = 3.69328 3.77138 3.73253
# Velocity P-wave (km/s) = 6.64909 6.86406 6.75743
#
# Compressibility (1/GPa) = 0.01979691
#
# Stress axis : x y z
#
# Youngs Moduli (GPa) = 66.71358 66.81186 71.64018
#
# Poissons Ratio (x) = 0.26822 0.43089
# Poissons Ratio (y) = 0.26783 0.14544
# Poissons Ratio (z) = 0.40126 0.13563
#
# Static dielectric constant tensor:
#      x y z
#    x 3.372190 0.000000 0.147480 
#    y 0.000000 3.472190 0.000000 
#    z 0.147480 0.000000 3.600230 
# 
# 
# High freq. dielectric constant tensor:
#      x y z
#    x 1.741550 0.000000 0.010910 
#    y 0.000000 1.759380 0.000000 
#    z 0.010910 0.000000 1.761630 
# 
# From -- ./inp_files/79261.got.cif
#   From: 2010.03.12/outbox.cif.g09.slc.cpg/sg14_40_cif.got.tgz:79261.got - 2010.03.31 13:35:05.
