data_PCOD8124253
_publ_section_title
;
Structure prediction by ZEFSAII (Michael W. Deem and Ramdas Pophale) SiO2 
 PCOD8124253
Probable space group: P 21/C
;
_chemical_formula_sum "Si O2"
_cell_formula_units_Z 28
_cell_length_a 6.393808
_cell_length_b 7.706250
_cell_length_c 24.567592
_cell_angle_alpha 90.000000
_cell_angle_beta 112.760210
_cell_angle_gamma 90.000000
_cell_volume 1116.242080
_symmetry_space_group_name_H-M "P 21/C"
_symmetry_group_IT_number 14
_symmetry_cell_setting 'monoclinic'
loop_
_space_group_symop_operation_xyz
x,y,z
-x,1/2+y,1/2-z
-x,-y,-z
x,1/2-y,1/2+z
loop_
_atom_site_type_symbol
_atom_site_label
_atom_site_fract_x
_atom_site_fract_y
_atom_site_fract_z
Si Si1 0.985424 0.454421 0.785685
Si Si2 0.889146 0.686131 0.554419
Si Si3 0.515799 0.895714 0.693153
Si Si4 0.542588 0.499658 0.312469
Si Si5 0.970461 0.920394 0.173053
Si Si6 0.908898 0.953597 0.393192
Si Si7 0.232187 0.384771 0.569722
O O1 0.238145 0.479352 0.787688
O O2 0.840965 0.499930 0.714235
O O3 0.923584 0.264189 0.799398
O O4 0.968457 0.584414 0.835252
O O5 0.801140 0.612998 0.604508
O O6 0.940821 0.892200 0.565320
O O7 0.112271 0.573931 0.560830
O O8 0.706021 0.656492 0.487566
O O9 0.532842 0.694415 0.682228
O O10 0.414129 0.927054 0.745050
O O11 0.353437 0.984942 0.632790
O O12 0.811480 0.527156 0.324793
O O13 0.539891 0.610338 0.369114
O O14 0.934867 0.774903 0.428933
#
# Coordination Sequence:
#
# PCOD8124253 Si02
#       7
#     4   4   4   4   4   4   4
#     4  10  22  33  58  87 118 155 184 250 304 348
#     4   9  19  37  58  92 113 155 210 234 287 363
#     4  11  21  36  56  88 126 150 196 247 301 362
#     4  10  20  35  55  89 116 156 201 237 300 362
#     4   9  19  35  52  85 114 144 197 229 294 351
#     4  11  21  39  61  90 117 155 199 242 303 352
#     4  10  19  35  65  85 116 160 199 244 290 347
#
# _framework density 25.084161999999999
#
# number of rings (size 3 to 8) (size 9 to 14) (size 15 to 20)
#    0.000    2.000    4.286    1.286    8.000    0.000 
#    0.000    0.000    0.000   11.143    0.000    0.000 
#    0.000    0.000    0.000    0.000    0.000    0.000 
#
# Total GULP energy -346908.087670 kJ/mol
# GULP energy per Si atom -12389.574560 kJ/mol
# Density = 2.502707 g / cm^3
# Si number density = 25.084162 Si / 1000 Ang^3
#
#
#
# Elastic Constant Matrix: (Units=GPa)
#
#
# Indices 1 2 3 4 5 6 
#
# 1 34.5029 4.9805 18.3384 0.0000 -9.9453 0.0000
# 2 4.9805 88.3495 38.9347 0.0000 -12.5611 0.0000
# 3 18.3384 38.9347 189.9101 0.0000 -23.4069 0.0000
# 4 0.0000 0.0000 0.0000 36.6352 0.0000 -4.9657
# 5 -9.9453 -12.5611 -23.4069 0.0000 31.9886 0.0000
# 6 0.0000 0.0000 0.0000 -4.9657 0.0000 24.4340
#
#
#
# Elastic Compliance Matrix: (Units=1/GPa)
#
#
# Indices 1 2 3 4 5 6 
#
# 1 0.032580 0.000345 -0.002145 0.000000 0.008695 0.000000
# 2 0.000345 0.012776 -0.002221 0.000000 0.003498 0.000000
# 3 -0.002145 -0.002221 0.006307 0.000000 0.003076 0.000000
# 4 0.000000 0.000000 0.000000 0.028069 0.000000 0.005705
# 5 0.008695 0.003498 0.003076 0.000000 0.037589 0.000000
# 6 0.000000 0.000000 0.000000 0.005705 0.000000 0.042086
#
#
# Mechanical properties :
#
#
# Convention : Reuss Voigt Hill
#
# Bulk Modulus (GPa) = 22.92546 48.58551 35.75549
# Shear Modulus (GPa) = 27.47408 35.31213 31.39311
#
# Velocity S-wave (km/s) = 3.31309 3.75606 3.54151
# Velocity P-wave (km/s) = 4.87798 6.18237 5.56850
#
# Compressibility (1/GPa) = 0.04361963
#
# Stress axis : x y z
#
# Youngs Moduli (GPa) = 30.69399 78.27455 158.54575
#
# Poissons Ratio (x) = -0.02700 0.34009
# Poissons Ratio (y) = -0.01059 0.35218
# Poissons Ratio (z) = 0.06584 0.17387
#
# Static dielectric constant tensor:
#      x y z
#    x 4.359460 0.000000 -0.186390 
#    y 0.000000 4.282660 0.000000 
#    z -0.186390 0.000000 5.340640 
# 
# 
# High freq. dielectric constant tensor:
#      x y z
#    x 1.976460 0.000000 -0.010660 
#    y 0.000000 1.992670 0.000000 
#    z -0.010660 0.000000 2.020330 
# 
# From -- ./inp_files/71806.got.cif
#   From: 2010.03.12/outbox.cif.g09.slc.cpg/sg14_36_cif.got.tgz:71806.got - 2010.03.31 13:35:05.
