data_PCOD8124897
_publ_section_title
;
Structure prediction by ZEFSAII (Michael W. Deem and Ramdas Pophale) SiO2 
 PCOD8124897
Probable space group: P 21/C
;
_chemical_formula_sum "Si O2"
_cell_formula_units_Z 32
_cell_length_a 6.896241
_cell_length_b 9.021583
_cell_length_c 27.014965
_cell_angle_alpha 90.000000
_cell_angle_beta 84.912694
_cell_angle_gamma 90.000000
_cell_volume 1674.115468
_symmetry_space_group_name_H-M "P 21/C"
_symmetry_group_IT_number 14
_symmetry_cell_setting 'monoclinic'
loop_
_space_group_symop_operation_xyz
x,y,z
-x,1/2+y,1/2-z
-x,-y,-z
x,1/2-y,1/2+z
loop_
_atom_site_type_symbol
_atom_site_label
_atom_site_fract_x
_atom_site_fract_y
_atom_site_fract_z
Si Si1 0.838246 0.331456 0.202324
Si Si2 0.912495 0.847166 0.734498
Si Si3 0.160356 0.141121 0.046572
Si Si4 0.590643 0.740873 0.310775
Si Si5 0.855556 0.895553 0.381464
Si Si6 0.899793 0.229964 0.371627
Si Si7 0.167507 0.085092 0.935071
Si Si8 0.583105 0.471015 0.382408
O O1 0.886663 0.476351 0.233689
O O2 0.611912 0.311294 0.199590
O O3 0.919934 0.187292 0.228957
O O4 0.937202 0.348342 0.146456
O O5 0.713837 0.770159 0.757371
O O6 0.969398 0.780342 0.680351
O O7 0.163333 0.309061 0.066420
O O8 0.321009 0.046789 0.072068
O O9 0.220747 0.145811 0.988070
O O10 0.944523 0.072045 0.058495
O O11 0.686970 0.854864 0.346656
O O12 0.578939 0.578940 0.335425
O O13 0.835493 0.069103 0.392430
O O14 0.706469 0.325603 0.364922
O O15 0.027535 0.298135 0.412162
O O16 0.362479 0.070444 0.899260
#
# Coordination Sequence:
#
# PCOD8124897 Si02
#       8
#     4   4   4   4   4   4   4   4
#     4  10  21  37  56  79 106 143 181 221 272 320
#     4  10  22  37  53  78 110 139 179 226 263 317
#     4   9  19  37  58  81 108 142 183 226 269 324
#     4  10  21  36  58  79 103 147 185 217 269 324
#     4   9  20  38  54  78 114 141 178 227 270 323
#     4  10  22  36  52  79 113 142 175 226 274 318
#     4  10  20  35  59  83 107 144 183 222 275 325
#     4  10  20  36  57  82 109 139 183 229 267 320
#
# _framework density 19.114571999999999
#
# number of rings (size 3 to 8) (size 9 to 14) (size 15 to 20)
#    0.000    2.250    0.000    1.875    0.000   10.500 
#    0.000    0.625    0.000    0.000    0.000    0.000 
#    0.000    0.000    0.000    0.000    0.000    0.000 
#
# Total GULP energy -396880.423745 kJ/mol
# GULP energy per Si atom -12402.513242 kJ/mol
# Density = 1.907107 g / cm^3
# Si number density = 19.114572 Si / 1000 Ang^3
#
#
#
# Elastic Constant Matrix: (Units=GPa)
#
#
# Indices 1 2 3 4 5 6 
#
# 1 118.5581 44.9343 19.0299 0.0000 -7.7195 0.0000
# 2 44.9343 124.3173 41.3646 0.0000 -1.2221 0.0000
# 3 19.0299 41.3646 60.1918 0.0000 -4.6954 0.0000
# 4 0.0000 0.0000 0.0000 21.5512 0.0000 -3.3153
# 5 -7.7195 -1.2221 -4.6954 0.0000 17.8070 0.0000
# 6 0.0000 0.0000 0.0000 -3.3153 0.0000 17.9541
#
#
#
# Elastic Compliance Matrix: (Units=1/GPa)
#
#
# Indices 1 2 3 4 5 6 
#
# 1 0.010078 -0.003432 -0.000516 0.000000 0.003997 0.000000
# 2 -0.003432 0.011622 -0.007102 0.000000 -0.002563 0.000000
# 3 -0.000516 -0.007102 0.022055 0.000000 0.005105 0.000000
# 4 0.000000 0.000000 0.000000 0.047758 0.000000 0.008819
# 5 0.003997 -0.002563 0.005105 0.000000 0.059061 0.000000
# 6 0.000000 0.000000 0.000000 0.008819 0.000000 0.057326
#
#
# Mechanical properties :
#
#
# Convention : Reuss Voigt Hill
#
# Bulk Modulus (GPa) = 46.17552 57.08051 51.62802
# Shear Modulus (GPa) = 21.07757 24.64503 22.86130
#
# Velocity S-wave (km/s) = 3.32429 3.59462 3.46210
# Velocity P-wave (km/s) = 6.24053 6.86699 6.56124
#
# Compressibility (1/GPa) = 0.02165650
#
# Stress axis : x y z
#
# Youngs Moduli (GPa) = 99.22123 86.04228 45.34035
#
# Poissons Ratio (x) = 0.29528 0.02340
# Poissons Ratio (y) = 0.34051 0.32200
# Poissons Ratio (z) = 0.05121 0.61106
#
# Static dielectric constant tensor:
#      x y z
#    x 3.463060 0.000000 -0.058310 
#    y 0.000000 3.504100 0.000000 
#    z -0.058310 0.000000 3.462050 
# 
# 
# High freq. dielectric constant tensor:
#      x y z
#    x 1.745230 0.000000 -0.001820 
#    y 0.000000 1.742660 0.000000 
#    z -0.001820 0.000000 1.742480 
# 
# From -- ./inp_files/78797.got.cif
#   From: 2010.03.12/outbox.cif.g09.slc.cpg/sg14_40_cif.got.tgz:78797.got - 2010.03.31 13:35:05.
