data_PCOD8124852
_publ_section_title
;
Structure prediction by ZEFSAII (Michael W. Deem and Ramdas Pophale) SiO2 
 PCOD8124852
Probable space group: P 21/C
;
_chemical_formula_sum "Si O2"
_cell_formula_units_Z 32
_cell_length_a 11.243345
_cell_length_b 24.051446
_cell_length_c 11.000503
_cell_angle_alpha 90.000000
_cell_angle_beta 34.466236
_cell_angle_gamma 90.000000
_cell_volume 1683.467315
_symmetry_space_group_name_H-M "P 21/C"
_symmetry_group_IT_number 14
_symmetry_cell_setting 'monoclinic'
loop_
_space_group_symop_operation_xyz
x,y,z
-x,1/2+y,1/2-z
-x,-y,-z
x,1/2-y,1/2+z
loop_
_atom_site_type_symbol
_atom_site_label
_atom_site_fract_x
_atom_site_fract_y
_atom_site_fract_z
Si Si1 0.960579 0.064991 0.160655
Si Si2 0.547111 0.390897 0.899237
Si Si3 0.165515 0.771355 0.510600
Si Si4 0.570211 0.313743 0.425921
Si Si5 0.449345 0.206572 0.650719
Si Si6 0.797847 0.661345 0.423638
Si Si7 0.879852 0.557964 0.742508
Si Si8 0.798866 0.354648 0.458353
O O1 0.723162 0.086086 0.342357
O O2 0.087428 0.103179 0.147897
O O3 0.955732 0.003031 0.220335
O O4 0.082430 0.066458 0.931659
O O5 0.635056 0.377842 0.693164
O O6 0.441026 0.336544 0.046969
O O7 0.369044 0.437097 0.027155
O O8 0.251694 0.781713 0.302238
O O9 0.326742 0.797209 0.471344
O O10 0.127058 0.706109 0.562348
O O11 0.943468 0.800549 0.717114
O O12 0.425787 0.268590 0.617808
O O13 0.417041 0.350299 0.469664
O O14 0.686519 0.354163 0.422151
O O15 0.257519 0.193792 0.904448
O O16 0.001771 0.604430 0.718261
#
# Coordination Sequence:
#
# PCOD8124852 Si02
#       8
#     4   4   4   4   4   4   4   4
#     4  10  21  38  57  90 112 146 200 235 289 342
#     4  11  19  36  60  84 115 148 182 243 289 333
#     4  10  21  36  56  84 117 156 185 235 281 343
#     4  10  23  38  55  86 122 156 191 226 284 354
#     4  10  20  35  55  87 117 143 191 228 283 344
#     4  11  22  36  62  85 116 155 187 237 286 341
#     4  10  22  36  60  84 117 149 188 247 289 331
#     4  10  23  37  57  85 119 151 193 233 285 348
#
# _framework density 19.008389000000001
#
# number of rings (size 3 to 8) (size 9 to 14) (size 15 to 20)
#    0.000    1.750    3.750    0.375    1.750    3.000 
#    0.000    0.625    0.000    1.500    0.000    0.000 
#    0.000    0.000    0.000    0.000    0.000    0.000 
#
# Total GULP energy -396891.491958 kJ/mol
# GULP energy per Si atom -12402.859124 kJ/mol
# Density = 1.896512 g / cm^3
# Si number density = 19.008389 Si / 1000 Ang^3
#
#
#
# Elastic Constant Matrix: (Units=GPa)
#
#
# Indices 1 2 3 4 5 6 
#
# 1 101.6942 50.5317 36.6181 0.0000 -6.3376 0.0000
# 2 50.5317 106.4591 38.6478 0.0000 -13.8410 0.0000
# 3 36.6181 38.6478 79.5873 0.0000 -8.6944 0.0000
# 4 0.0000 0.0000 0.0000 20.2785 0.0000 -1.8367
# 5 -6.3376 -13.8410 -8.6944 0.0000 20.7579 0.0000
# 6 0.0000 0.0000 0.0000 -1.8367 0.0000 25.9449
#
#
#
# Elastic Compliance Matrix: (Units=1/GPa)
#
#
# Indices 1 2 3 4 5 6 
#
# 1 0.013787 -0.005250 -0.003895 0.000000 -0.000923 0.000000
# 2 -0.005250 0.014045 -0.003727 0.000000 0.006201 0.000000
# 3 -0.003895 -0.003727 0.016521 0.000000 0.003246 0.000000
# 4 0.000000 0.000000 0.000000 0.049632 0.000000 0.003514
# 5 -0.000923 0.006201 0.003246 0.000000 0.053387 0.000000
# 6 0.000000 0.000000 0.000000 0.003514 0.000000 0.038792
#
#
# Mechanical properties :
#
#
# Convention : Reuss Voigt Hill
#
# Bulk Modulus (GPa) = 53.73789 59.92622 56.83206
# Shear Modulus (GPa) = 22.92421 24.19246 23.55834
#
# Velocity S-wave (km/s) = 3.47653 3.57140 3.52428
# Velocity P-wave (km/s) = 6.66686 6.97145 6.82085
#
# Compressibility (1/GPa) = 0.01860884
#
# Stress axis : x y z
#
# Youngs Moduli (GPa) = 72.53126 71.20203 60.52820
#
# Poissons Ratio (x) = 0.37383 0.23574
# Poissons Ratio (y) = 0.38081 0.22559
# Poissons Ratio (z) = 0.28249 0.26537
#
# Static dielectric constant tensor:
#      x y z
#    x 3.398840 0.000000 -0.027280 
#    y 0.000000 3.435360 0.000000 
#    z -0.027280 0.000000 3.487840 
# 
# 
# High freq. dielectric constant tensor:
#      x y z
#    x 1.725780 0.000000 -0.008040 
#    y 0.000000 1.726200 0.000000 
#    z -0.008040 0.000000 1.744440 
# 
# From -- ./inp_files/22076.got.cif
#   From: 2010.03.12/outbox.cif.g09.slc.cpg/sg14_12_cif.got.tgz:22076.got - 2010.03.31 13:35:05.
