data_PCOD8124975
_publ_section_title
;
Structure prediction by ZEFSAII (Michael W. Deem and Ramdas Pophale) SiO2 
 PCOD8124975
Probable space group: P 21/C
;
_chemical_formula_sum "Si O2"
_cell_formula_units_Z 28
_cell_length_a 12.501991
_cell_length_b 8.577918
_cell_length_c 15.153039
_cell_angle_alpha 90.000000
_cell_angle_beta 121.804434
_cell_angle_gamma 90.000000
_cell_volume 1381.033038
_symmetry_space_group_name_H-M "P 21/C"
_symmetry_group_IT_number 14
_symmetry_cell_setting 'monoclinic'
loop_
_space_group_symop_operation_xyz
x,y,z
-x,1/2+y,1/2-z
-x,-y,-z
x,1/2-y,1/2+z
loop_
_atom_site_type_symbol
_atom_site_label
_atom_site_fract_x
_atom_site_fract_y
_atom_site_fract_z
Si Si1 0.674301 0.869588 0.083221
Si Si2 0.825529 0.594927 0.478288
Si Si3 0.751881 0.524718 0.126620
Si Si4 0.718862 0.109878 0.258420
Si Si5 0.529243 0.189157 0.585042
Si Si6 0.277622 0.418990 0.068889
Si Si7 0.888043 0.116024 0.846453
O O1 0.743072 0.709365 0.139724
O O2 0.708797 0.989996 0.174107
O O3 0.728825 0.942535 0.015589
O O4 0.524453 0.825757 0.005228
O O5 0.792756 0.765665 0.424778
O O6 0.813353 0.468168 0.394677
O O7 0.964864 0.596338 0.577945
O O8 0.614504 0.441753 0.074896
O O9 0.854232 0.459878 0.238026
O O10 0.800600 0.500078 0.046015
O O11 0.611949 0.238319 0.198986
O O12 0.852018 0.200781 0.323908
O O13 0.693063 0.031881 0.339640
O O14 0.408701 0.118164 0.579026
#
# Coordination Sequence:
#
# PCOD8124975 Si02
#       7
#     4   4   4   4   4   4   4
#     4  10  20  36  57  82 110 141 180 226 268 317
#     4   9  21  40  58  76 107 143 181 224 272 321
#     4   9  19  37  58  78 108 145 181 219 270 323
#     4  11  23  34  55  85 111 141 182 224 266 320
#     4   9  20  36  55  80 111 148 179 217 270 320
#     4  10  21  37  55  81 110 143 179 220 266 316
#     4  10  21  38  57  80 107 142 180 223 274 323
#
# _framework density 20.274677000000001
#
# number of rings (size 3 to 8) (size 9 to 14) (size 15 to 20)
#    0.000    2.571    0.000    3.000    0.000   12.000 
#    0.000    2.857    0.000    0.000    0.000    0.000 
#    0.000    0.000    0.000    0.000    0.000    0.000 
#
# Total GULP energy -346938.532252 kJ/mol
# GULP energy per Si atom -12390.661866 kJ/mol
# Density = 2.022853 g / cm^3
# Si number density = 20.274677 Si / 1000 Ang^3
#
#
#
# Elastic Constant Matrix: (Units=GPa)
#
#
# Indices 1 2 3 4 5 6 
#
# 1 47.4265 23.6467 24.6766 0.0000 -8.9374 0.0000
# 2 23.6467 79.3017 39.4935 0.0000 -18.3308 0.0000
# 3 24.6766 39.4935 97.2732 0.0000 -20.4333 0.0000
# 4 0.0000 0.0000 0.0000 34.0493 0.0000 0.7094
# 5 -8.9374 -18.3308 -20.4333 0.0000 31.3910 0.0000
# 6 0.0000 0.0000 0.0000 0.7094 0.0000 16.5504
#
#
#
# Elastic Compliance Matrix: (Units=1/GPa)
#
#
# Indices 1 2 3 4 5 6 
#
# 1 0.026225 -0.005389 -0.004121 0.000000 0.001637 0.000000
# 2 -0.005389 0.017900 -0.004665 0.000000 0.005882 0.000000
# 3 -0.004121 -0.004665 0.014365 0.000000 0.005453 0.000000
# 4 0.000000 0.000000 0.000000 0.029395 0.000000 -0.001260
# 5 0.001637 0.005882 0.005453 0.000000 0.039307 0.000000
# 6 0.000000 0.000000 0.000000 -0.001260 0.000000 0.060476
#
#
# Mechanical properties :
#
#
# Convention : Reuss Voigt Hill
#
# Bulk Modulus (GPa) = 33.17827 44.40390 38.79109
# Shear Modulus (GPa) = 22.11761 25.47711 23.79736
#
# Velocity S-wave (km/s) = 3.30646 3.54870 3.42972
# Velocity P-wave (km/s) = 5.56568 6.22412 5.90409
#
# Compressibility (1/GPa) = 0.03014021
#
# Stress axis : x y z
#
# Youngs Moduli (GPa) = 38.13160 55.86657 69.61276
#
# Poissons Ratio (x) = 0.30108 0.28687
# Poissons Ratio (y) = 0.20550 0.32472
# Poissons Ratio (z) = 0.15714 0.26060
#
# Static dielectric constant tensor:
#      x y z
#    x 3.438300 0.000000 -0.006810 
#    y 0.000000 3.918330 0.000000 
#    z -0.006810 0.000000 4.112160 
# 
# 
# High freq. dielectric constant tensor:
#      x y z
#    x 1.766500 0.000000 0.002060 
#    y 0.000000 1.797230 0.000000 
#    z 0.002060 0.000000 1.810500 
# 
# From -- ./inp_files/43824.got.cif
#   From: 2010.03.12/outbox.cif.g09.slc.cpg/sg14_22_cif.got.tgz:43824.got - 2010.03.31 13:35:05.
