data_PCOD8124784
_publ_section_title
;
Structure prediction by ZEFSAII (Michael W. Deem and Ramdas Pophale) SiO2 
 PCOD8124784
Probable space group: P 21/C
;
_chemical_formula_sum "Si O2"
_cell_formula_units_Z 16
_cell_length_a 14.244996
_cell_length_b 8.764354
_cell_length_c 9.859831
_cell_angle_alpha 90.000000
_cell_angle_beta 28.481624
_cell_angle_gamma 90.000000
_cell_volume 587.026870
_symmetry_space_group_name_H-M "P 21/C"
_symmetry_group_IT_number 14
_symmetry_cell_setting 'monoclinic'
loop_
_space_group_symop_operation_xyz
x,y,z
-x,1/2+y,1/2-z
-x,-y,-z
x,1/2-y,1/2+z
loop_
_atom_site_type_symbol
_atom_site_label
_atom_site_fract_x
_atom_site_fract_y
_atom_site_fract_z
Si Si1 0.054607 0.314784 0.564930
Si Si2 0.278892 0.904464 0.683048
Si Si3 0.747529 0.859636 0.917465
Si Si4 0.595721 0.151032 0.201168
O O1 0.108515 0.487361 0.459745
O O2 0.100624 0.287634 0.664599
O O3 0.817069 0.305357 0.825167
O O4 0.180286 0.191834 0.321523
O O5 0.328365 0.791310 0.747047
O O6 0.454964 0.008809 0.415068
O O7 0.528055 0.780508 0.223190
O O8 0.749665 0.044821 0.918363
#
# Coordination Sequence:
#
# PCOD8124784 Si02
#       4
#     4   4   4   4
#     4   9  18  33  53  77 106 138 178 219 261 312
#     4   8  16  34  55  72 102 151 180 196 257 345
#     4  10  20  34  54  80 108 142 178 218 262 310
#     4   9  18  33  56  80 104 138 180 218 258 312
#
# _framework density 27.255991999999999
#
# number of rings (size 3 to 8) (size 9 to 14) (size 15 to 20)
#    0.000    3.000    0.000    1.500    0.000    3.000 
#    0.000    0.000    0.000   27.000    0.000    0.000 
#    0.000    0.000    0.000    0.000    0.000    0.000 
#
# Total GULP energy -198237.101514 kJ/mol
# GULP energy per Si atom -12389.818845 kJ/mol
# Density = 2.719396 g / cm^3
# Si number density = 27.255992 Si / 1000 Ang^3
#
#
#
# Elastic Constant Matrix: (Units=GPa)
#
#
# Indices 1 2 3 4 5 6 
#
# 1 161.9990 51.9815 23.6506 0.0000 -11.0979 0.0000
# 2 51.9815 90.1176 8.8623 0.0000 11.1362 0.0000
# 3 23.6506 8.8623 41.6532 0.0000 -20.9310 0.0000
# 4 0.0000 0.0000 0.0000 22.5310 0.0000 5.8169
# 5 -11.0979 11.1362 -20.9310 0.0000 33.4538 0.0000
# 6 0.0000 0.0000 0.0000 5.8169 0.0000 43.9858
#
#
#
# Elastic Compliance Matrix: (Units=1/GPa)
#
#
# Indices 1 2 3 4 5 6 
#
# 1 0.008279 -0.004949 -0.002100 0.000000 0.003080 0.000000
# 2 -0.004949 0.015840 -0.005885 0.000000 -0.010596 0.000000
# 3 -0.002100 -0.005885 0.039508 0.000000 0.025981 0.000000
# 4 0.000000 0.000000 0.000000 0.045952 0.000000 -0.006077
# 5 0.003080 -0.010596 0.025981 0.000000 0.050697 0.000000
# 6 0.000000 0.000000 0.000000 -0.006077 0.000000 0.023538
#
#
# Mechanical properties :
#
#
# Convention : Reuss Voigt Hill
#
# Bulk Modulus (GPa) = 26.48421 51.41761 38.95091
# Shear Modulus (GPa) = 22.49553 33.94582 28.22068
#
# Velocity S-wave (km/s) = 2.87599 3.53291 3.22124
# Velocity P-wave (km/s) = 4.55702 5.96218 5.30632
#
# Compressibility (1/GPa) = 0.03775835
#
# Stress axis : x y z
#
# Youngs Moduli (GPa) = 120.79409 63.13276 25.31160
#
# Poissons Ratio (x) = 0.31247 0.05315
# Poissons Ratio (y) = 0.59785 0.14895
# Poissons Ratio (z) = 0.25363 0.37151
#
# Static dielectric constant tensor:
#      x y z
#    x 5.594640 0.000000 -0.598720 
#    y 0.000000 5.476270 0.000000 
#    z -0.598720 0.000000 5.421980 
# 
# 
# High freq. dielectric constant tensor:
#      x y z
#    x 2.108710 0.000000 -0.021670 
#    y 0.000000 2.102180 0.000000 
#    z -0.021670 0.000000 2.119710 
# 
# From -- ./inp_files/7389.got.cif
#   From: 2010.03.12/outbox.cif.g09.slc.cpg/sg14_4_cif.got.tgz:7389.got - 2010.03.31 13:35:05.
