data_PCOD8124918
_publ_section_title
;
Structure prediction by ZEFSAII (Michael W. Deem and Ramdas Pophale) SiO2 
 PCOD8124918
Probable space group: P 21/C
;
_chemical_formula_sum "Si O2"
_cell_formula_units_Z 32
_cell_length_a 10.148904
_cell_length_b 8.646492
_cell_length_c 19.133896
_cell_angle_alpha 90.000000
_cell_angle_beta 72.471600
_cell_angle_gamma 90.000000
_cell_volume 1601.083812
_symmetry_space_group_name_H-M "P 21/C"
_symmetry_group_IT_number 14
_symmetry_cell_setting 'monoclinic'
loop_
_space_group_symop_operation_xyz
x,y,z
-x,1/2+y,1/2-z
-x,-y,-z
x,1/2-y,1/2+z
loop_
_atom_site_type_symbol
_atom_site_label
_atom_site_fract_x
_atom_site_fract_y
_atom_site_fract_z
Si Si1 0.852115 0.446896 0.761764
Si Si2 0.906387 0.805304 0.452177
Si Si3 0.174399 0.896154 0.887470
Si Si4 0.813575 0.374630 0.913406
Si Si5 0.089854 0.244560 0.897626
Si Si6 0.150246 0.188776 0.239301
Si Si7 0.320129 0.395676 0.586419
Si Si8 0.625866 0.177958 0.021048
O O1 0.779328 0.392354 0.701498
O O2 0.766544 0.372965 0.839759
O O3 0.853401 0.629456 0.775008
O O4 0.009263 0.388240 0.735912
O O5 0.875539 0.841111 0.538484
O O6 0.793500 0.689609 0.440864
O O7 0.058683 0.732943 0.420407
O O8 0.895816 0.967066 0.414648
O O9 0.304924 0.870145 0.916834
O O10 0.119617 0.067195 0.910159
O O11 0.926583 0.240057 0.906459
O O12 0.684158 0.343664 0.985055
O O13 0.172791 0.324721 0.819800
O O14 0.271500 0.103423 0.175689
O O15 0.342533 0.563954 0.549334
O O16 0.463960 0.302664 0.560077
#
# Coordination Sequence:
#
# PCOD8124918 Si02
#       8
#     4   4   4   4   4   4   4   4
#     4  10  20  35  60  91 119 152 192 251 305 351
#     4  12  20  37  62  91 121 151 199 254 296 348
#     4  11  20  37  63  89 117 157 204 245 292 353
#     4  11  22  36  58  94 123 150 197 250 307 350
#     4  10  21  34  62  91 119 147 200 251 296 347
#     4  10  21  37  59  89 122 150 194 249 302 350
#     4  11  23  43  61  84 120 163 201 241 303 357
#     4  11  25  40  62  85 120 166 204 243 288 376
#
# _framework density 19.986460000000001
#
# number of rings (size 3 to 8) (size 9 to 14) (size 15 to 20)
#    0.000    1.250    5.000    1.500    3.500    0.500 
#    0.000    1.250    2.750    0.000    0.000    0.000 
#    0.000    0.000    0.000    0.000    0.000    0.000 
#
# Total GULP energy -396625.477601 kJ/mol
# GULP energy per Si atom -12394.546175 kJ/mol
# Density = 1.994097 g / cm^3
# Si number density = 19.986460 Si / 1000 Ang^3
#
#
#
# Elastic Constant Matrix: (Units=GPa)
#
#
# Indices 1 2 3 4 5 6 
#
# 1 45.2723 -4.4808 18.4679 0.0000 -4.1244 0.0000
# 2 -4.4808 27.3442 15.3585 0.0000 1.0233 0.0000
# 3 18.4679 15.3585 146.7486 0.0000 12.8529 0.0000
# 4 0.0000 0.0000 0.0000 25.2605 0.0000 -1.2375
# 5 -4.1244 1.0233 12.8529 0.0000 27.3618 0.0000
# 6 0.0000 0.0000 0.0000 -1.2375 0.0000 14.1715
#
#
#
# Elastic Compliance Matrix: (Units=1/GPa)
#
#
# Indices 1 2 3 4 5 6 
#
# 1 0.024964 0.006290 -0.004285 0.000000 0.005541 0.000000
# 2 0.006290 0.040446 -0.005189 0.000000 0.001873 0.000000
# 3 -0.004285 -0.005189 0.008277 0.000000 -0.004340 0.000000
# 4 0.000000 0.000000 0.000000 0.039758 0.000000 0.003472
# 5 0.005541 0.001873 -0.004340 0.000000 0.039351 0.000000
# 6 0.000000 0.000000 0.000000 0.003472 0.000000 0.070867
#
#
# Mechanical properties :
#
#
# Convention : Reuss Voigt Hill
#
# Bulk Modulus (GPa) = 14.85455 30.89514 22.87485
# Shear Modulus (GPa) = 19.80437 26.02673 22.91555
#
# Velocity S-wave (km/s) = 3.15125 3.61254 3.38975
# Velocity P-wave (km/s) = 4.54851 5.73517 5.17596
#
# Compressibility (1/GPa) = 0.06731942
#
# Stress axis : x y z
#
# Youngs Moduli (GPa) = 40.05773 24.72441 120.81969
#
# Poissons Ratio (x) = -0.15552 0.51774
# Poissons Ratio (y) = -0.25197 0.62689
# Poissons Ratio (z) = 0.17166 0.12829
#
# Static dielectric constant tensor:
#      x y z
#    x 3.383970 0.000000 0.178980 
#    y 0.000000 3.612870 0.000000 
#    z 0.178980 0.000000 4.230520 
# 
# 
# High freq. dielectric constant tensor:
#      x y z
#    x 1.740430 0.000000 0.015520 
#    y 0.000000 1.777280 0.000000 
#    z 0.015520 0.000000 1.804810 
# 
# From -- ./inp_files/64800.got.cif
#   From: 2010.03.12/outbox.cif.g09.slc.cpg/sg14_33_cif.got.tgz:64800.got - 2010.03.31 13:35:05.
