data_PCOD8124941
_publ_section_title
;
Structure prediction by ZEFSAII (Michael W. Deem and Ramdas Pophale) SiO2 
 PCOD8124941
Probable space group: P 21/C
;
_chemical_formula_sum "Si O2"
_cell_formula_units_Z 32
_cell_length_a 7.940808
_cell_length_b 11.200292
_cell_length_c 13.385917
_cell_angle_alpha 90.000000
_cell_angle_beta 94.410881
_cell_angle_gamma 90.000000
_cell_volume 1187.008834
_symmetry_space_group_name_H-M "P 21/C"
_symmetry_group_IT_number 14
_symmetry_cell_setting 'monoclinic'
loop_
_space_group_symop_operation_xyz
x,y,z
-x,1/2+y,1/2-z
-x,-y,-z
x,1/2-y,1/2+z
loop_
_atom_site_type_symbol
_atom_site_label
_atom_site_fract_x
_atom_site_fract_y
_atom_site_fract_z
Si Si1 0.927903 0.082433 0.689640
Si Si2 0.082401 0.856434 0.640907
Si Si3 0.901881 0.516543 0.600977
Si Si4 0.630492 0.823455 0.364838
Si Si5 0.632033 0.139105 0.196181
Si Si6 0.749084 0.739814 0.653238
Si Si7 0.030741 0.270003 0.553134
Si Si8 0.424982 0.034251 0.345944
O O1 0.737020 0.048939 0.660568
O O2 0.064942 0.001546 0.633947
O O3 0.970860 0.063427 0.808078
O O4 0.953544 0.220907 0.655060
O O5 0.251421 0.815055 0.705779
O O6 0.911911 0.818479 0.693416
O O7 0.084097 0.797483 0.532693
O O8 0.745804 0.435094 0.625595
O O9 0.810492 0.645468 0.567672
O O10 0.008085 0.417594 0.536807
O O11 0.457496 0.747810 0.364915
O O12 0.689923 0.829893 0.250206
O O13 0.773196 0.769505 0.442632
O O14 0.580142 0.958033 0.401142
O O15 0.478245 0.059740 0.233318
O O16 0.608751 0.834619 0.605256
#
# Coordination Sequence:
#
# PCOD8124941 Si02
#       8
#     4   4   4   4   4   4   4   4
#     4  10  21  38  63  94 122 168 215 273 320 385
#     4  10  23  41  61  88 135 171 210 262 341 397
#     4  11  21  38  65  91 125 165 224 260 318 401
#     4  11  20  38  64  95 120 163 226 269 320 383
#     4  10  20  38  61  93 123 160 207 278 320 380
#     4  10  21  40  60  89 129 169 207 269 322 396
#     4  12  23  40  64  95 124 175 218 266 328 405
#     4  10  20  35  62  93 120 157 211 271 332 362
#
# _framework density 26.958517000000001
#
# number of rings (size 3 to 8) (size 9 to 14) (size 15 to 20)
#    0.000    1.500    2.500    4.875    1.750    0.500 
#    0.000   10.625    0.000    3.750    0.000    0.000 
#    0.000    0.000    0.000    0.000    0.000    0.000 
#
# Total GULP energy -396424.279217 kJ/mol
# GULP energy per Si atom -12388.258726 kJ/mol
# Density = 2.689716 g / cm^3
# Si number density = 26.958517 Si / 1000 Ang^3
#
#
#
# Elastic Constant Matrix: (Units=GPa)
#
#
# Indices 1 2 3 4 5 6 
#
# 1 129.5463 58.7496 34.5479 0.0000 -7.1244 0.0000
# 2 58.7496 210.5306 65.9115 0.0000 -4.5678 0.0000
# 3 34.5479 65.9115 71.7256 0.0000 9.5648 0.0000
# 4 0.0000 0.0000 0.0000 49.7669 0.0000 -2.5684
# 5 -7.1244 -4.5678 9.5648 0.0000 36.6174 0.0000
# 6 0.0000 0.0000 0.0000 -2.5684 0.0000 35.8655
#
#
#
# Elastic Compliance Matrix: (Units=1/GPa)
#
#
# Indices 1 2 3 4 5 6 
#
# 1 0.009479 -0.001476 -0.003554 0.000000 0.002589 0.000000
# 2 -0.001476 0.007131 -0.006136 0.000000 0.002205 0.000000
# 3 -0.003554 -0.006136 0.022262 0.000000 -0.007272 0.000000
# 4 0.000000 0.000000 0.000000 0.020168 0.000000 0.001444
# 5 0.002589 0.002205 -0.007272 0.000000 0.029988 0.000000
# 6 0.000000 0.000000 0.000000 0.001444 0.000000 0.027985
#
#
# Mechanical properties :
#
#
# Convention : Reuss Voigt Hill
#
# Bulk Modulus (GPa) = 60.46211 81.13560 70.79885
# Shear Modulus (GPa) = 34.51656 41.28953 37.90305
#
# Velocity S-wave (km/s) = 3.58209 3.91781 3.75370
# Velocity P-wave (km/s) = 6.29166 7.11529 6.71612
#
# Compressibility (1/GPa) = 0.01653929
#
# Stress axis : x y z
#
# Youngs Moduli (GPa) = 105.49688 140.24126 44.91965
#
# Poissons Ratio (x) = 0.20703 0.15966
# Poissons Ratio (y) = 0.15574 0.27561
# Poissons Ratio (z) = 0.37497 0.86046
#
# Static dielectric constant tensor:
#      x y z
#    x 5.080810 0.000000 -0.365300 
#    y 0.000000 5.696980 0.000000 
#    z -0.365300 0.000000 4.580250 
# 
# 
# High freq. dielectric constant tensor:
#      x y z
#    x 2.093480 0.000000 -0.028030 
#    y 0.000000 2.121370 0.000000 
#    z -0.028030 0.000000 2.061840 
# 
# From -- ./inp_files/55431.got.cif
#   From: 2010.03.12/outbox.cif.g09.slc.cpg/sg14_28_cif.got.tgz:55431.got - 2010.03.31 13:35:05.
