data_PCOD8124585
_publ_section_title
;
Structure prediction by ZEFSAII (Michael W. Deem and Ramdas Pophale) SiO2 
 PCOD8124585
Probable space group: P 21/C
;
_chemical_formula_sum "Si O2"
_cell_formula_units_Z 32
_cell_length_a 16.871634
_cell_length_b 13.037882
_cell_length_c 14.758146
_cell_angle_alpha 90.000000
_cell_angle_beta 150.607646
_cell_angle_gamma 90.000000
_cell_volume 1593.270357
_symmetry_space_group_name_H-M "P 21/C"
_symmetry_group_IT_number 14
_symmetry_cell_setting 'monoclinic'
loop_
_space_group_symop_operation_xyz
x,y,z
-x,1/2+y,1/2-z
-x,-y,-z
x,1/2-y,1/2+z
loop_
_atom_site_type_symbol
_atom_site_label
_atom_site_fract_x
_atom_site_fract_y
_atom_site_fract_z
Si Si1 0.817474 0.831537 0.289601
Si Si2 0.979455 0.206704 0.339083
Si Si3 0.431815 0.839120 0.272672
Si Si4 0.240822 0.242918 0.959224
Si Si5 0.685664 0.190632 0.487089
Si Si6 0.540664 0.272137 0.519662
Si Si7 0.430365 0.044858 0.183897
Si Si8 0.732623 0.045821 0.146675
O O1 0.855876 0.788431 0.227901
O O2 0.645441 0.794797 0.152897
O O3 0.953007 0.787714 0.491595
O O4 0.818429 0.955607 0.288668
O O5 0.865592 0.106397 0.219352
O O6 0.122335 0.197611 0.408894
O O7 0.869380 0.308852 0.209310
O O8 0.615236 0.819131 0.423593
O O9 0.312369 0.775415 0.089822
O O10 0.399224 0.806188 0.343233
O O11 0.395698 0.960125 0.226340
O O12 0.310168 0.140976 0.077096
O O13 0.561411 0.221049 0.442806
O O14 0.617854 0.083352 0.379524
O O15 0.644759 0.377068 0.629132
O O16 0.404165 0.999338 0.057247
#
# Coordination Sequence:
#
# PCOD8124585 Si02
#       8
#     4   4   4   4   4   4   4   4
#     4  10  20  36  60  89 120 157 198 242 303 360
#     4  11  21  38  57  86 131 156 180 254 310 354
#     4  10  19  39  63  85 115 160 204 253 290 345
#     4   9  22  38  59  88 121 160 197 241 303 356
#     4  10  22  38  58  89 117 158 202 241 300 355
#     4  10  20  37  64  87 119 154 197 259 296 341
#     4  10  19  40  62  83 116 155 209 247 280 359
#     4  10  21  38  60  95 117 154 207 250 298 353
#
# _framework density 20.084477
#
# number of rings (size 3 to 8) (size 9 to 14) (size 15 to 20)
#    0.000    2.000    2.500    3.000    0.000    2.500 
#    4.500    0.000    0.000    4.500    0.000    0.000 
#    0.000    0.000    0.000    0.000    0.000    0.000 
#
# Total GULP energy -396689.045852 kJ/mol
# GULP energy per Si atom -12396.532683 kJ/mol
# Density = 2.003876 g / cm^3
# Si number density = 20.084477 Si / 1000 Ang^3
#
#
#
# Elastic Constant Matrix: (Units=GPa)
#
#
# Indices 1 2 3 4 5 6 
#
# 1 52.5857 17.2763 23.7307 0.0000 -7.4228 0.0000
# 2 17.2763 63.1756 32.1145 0.0000 -2.8147 0.0000
# 3 23.7307 32.1145 113.1833 0.0000 -11.9619 0.0000
# 4 0.0000 0.0000 0.0000 36.9832 0.0000 -6.2271
# 5 -7.4228 -2.8147 -11.9619 0.0000 22.9898 0.0000
# 6 0.0000 0.0000 0.0000 -6.2271 0.0000 18.5230
#
#
#
# Elastic Compliance Matrix: (Units=1/GPa)
#
#
# Indices 1 2 3 4 5 6 
#
# 1 0.022527 -0.004449 -0.002910 0.000000 0.005215 0.000000
# 2 -0.004449 0.019381 -0.004727 0.000000 -0.001523 0.000000
# 3 -0.002910 -0.004727 0.011244 0.000000 0.004332 0.000000
# 4 0.000000 0.000000 0.000000 0.028662 0.000000 0.009635
# 5 0.005215 -0.001523 0.004332 0.000000 0.047249 0.000000
# 6 0.000000 0.000000 0.000000 0.009635 0.000000 0.057226
#
#
# Mechanical properties :
#
#
# Convention : Reuss Voigt Hill
#
# Bulk Modulus (GPa) = 34.50580 41.68752 38.09666
# Shear Modulus (GPa) = 22.71472 26.08741 24.40107
#
# Velocity S-wave (km/s) = 3.36662 3.60791 3.48935
# Velocity P-wave (km/s) = 5.68593 6.17715 5.93662
#
# Compressibility (1/GPa) = 0.02898063
#
# Stress axis : x y z
#
# Youngs Moduli (GPa) = 44.39031 51.59777 88.93257
#
# Poissons Ratio (x) = 0.22956 0.25877
# Poissons Ratio (y) = 0.19749 0.42040
# Poissons Ratio (z) = 0.12917 0.24391
#
# Static dielectric constant tensor:
#      x y z
#    x 3.464410 0.000000 -0.186800 
#    y 0.000000 3.667610 0.000000 
#    z -0.186800 0.000000 3.930700 
# 
# 
# High freq. dielectric constant tensor:
#      x y z
#    x 1.767290 0.000000 -0.013430 
#    y 0.000000 1.768470 0.000000 
#    z -0.013430 0.000000 1.791860 
# 
# From -- ./inp_files/48916.got.cif
#   From: 2010.03.12/outbox.cif.g09.slc.cpg/sg14_25_cif.got.tgz:48916.got - 2010.03.31 13:35:05.
