data_PCOD8124647
_publ_section_title
;
Structure prediction by ZEFSAII (Michael W. Deem and Ramdas Pophale) SiO2 
 PCOD8124647
Probable space group: P 21/C
;
_chemical_formula_sum "Si O2"
_cell_formula_units_Z 32
_cell_length_a 13.469936
_cell_length_b 9.504775
_cell_length_c 24.522675
_cell_angle_alpha 90.000000
_cell_angle_beta 29.167488
_cell_angle_gamma 90.000000
_cell_volume 1530.131947
_symmetry_space_group_name_H-M "P 21/C"
_symmetry_group_IT_number 14
_symmetry_cell_setting 'monoclinic'
loop_
_space_group_symop_operation_xyz
x,y,z
-x,1/2+y,1/2-z
-x,-y,-z
x,1/2-y,1/2+z
loop_
_atom_site_type_symbol
_atom_site_label
_atom_site_fract_x
_atom_site_fract_y
_atom_site_fract_z
Si Si1 0.801251 0.711477 0.042798
Si Si2 0.855098 0.376134 0.194066
Si Si3 0.844032 0.019099 0.274851
Si Si4 0.271719 0.967876 0.895324
Si Si5 0.870413 0.566201 0.643507
Si Si6 0.708263 0.641445 0.205975
Si Si7 0.119256 0.225263 0.660842
Si Si8 0.513017 0.697325 0.087655
O O1 0.793619 0.629234 0.103513
O O2 0.649528 0.636680 0.071980
O O3 0.727969 0.871146 0.085062
O O4 0.031893 0.710124 0.908663
O O5 0.826906 0.534588 0.187714
O O6 0.638463 0.311533 0.314052
O O7 0.996331 0.377440 0.179543
O O8 0.920362 0.012181 0.175723
O O9 0.850627 0.865694 0.298783
O O10 0.610791 0.073402 0.383704
O O11 0.991730 0.132094 0.233984
O O12 0.469008 0.887868 0.820970
O O13 0.254233 0.963497 0.837737
O O14 0.079570 0.887002 0.013553
O O15 0.739051 0.705674 0.717460
O O16 0.337499 0.266023 0.529591
#
# Coordination Sequence:
#
# PCOD8124647 Si02
#       8
#     4   4   4   4   4   4   4   4
#     4  10  20  36  62  92 123 170 201 261 317 384
#     4  10  21  38  62  89 125 161 214 257 317 378
#     4  11  23  43  65  91 124 165 212 272 319 379
#     4  10  20  42  62  90 131 167 210 250 323 395
#     4  10  23  40  63  90 128 168 207 265 321 373
#     4  11  22  36  61  94 128 162 211 263 311 389
#     4  10  24  41  68  89 123 163 214 265 325 374
#     4  10  19  40  67  88 120 167 207 254 319 386
#
# _framework density 20.913229999999999
#
# number of rings (size 3 to 8) (size 9 to 14) (size 15 to 20)
#    0.000    1.750    1.250    3.750    1.750    2.000 
#    9.000    5.000    0.000    0.000    0.000    0.000 
#    0.000    0.000    0.000    0.000    0.000    0.000 
#
# Total GULP energy -396739.337486 kJ/mol
# GULP energy per Si atom -12398.104296 kJ/mol
# Density = 2.086563 g / cm^3
# Si number density = 20.913230 Si / 1000 Ang^3
#
#
#
# Elastic Constant Matrix: (Units=GPa)
#
#
# Indices 1 2 3 4 5 6 
#
# 1 60.2666 22.5098 25.4590 0.0000 -4.7056 0.0000
# 2 22.5098 76.7871 32.2768 0.0000 -9.7434 0.0000
# 3 25.4590 32.2768 103.4153 0.0000 -12.6107 0.0000
# 4 0.0000 0.0000 0.0000 13.7348 0.0000 12.9385
# 5 -4.7056 -9.7434 -12.6107 0.0000 26.6349 0.0000
# 6 0.0000 0.0000 0.0000 12.9385 0.0000 23.9579
#
#
#
# Elastic Compliance Matrix: (Units=1/GPa)
#
#
# Indices 1 2 3 4 5 6 
#
# 1 0.019679 -0.004273 -0.003479 0.000000 0.000267 0.000000
# 2 -0.004273 0.016225 -0.003588 0.000000 0.003482 0.000000
# 3 -0.003479 -0.003588 0.012110 0.000000 0.003807 0.000000
# 4 0.000000 0.000000 0.000000 0.148207 0.000000 -0.080040
# 5 0.000267 0.003482 0.003807 0.000000 0.040668 0.000000
# 6 0.000000 0.000000 0.000000 -0.080040 0.000000 0.084966
#
#
# Mechanical properties :
#
#
# Convention : Reuss Voigt Hill
#
# Bulk Modulus (GPa) = 39.46849 44.55113 42.00981
# Shear Modulus (GPa) = 14.16513 23.54708 18.85611
#
# Velocity S-wave (km/s) = 2.60538 3.35915 3.00598
# Velocity P-wave (km/s) = 5.28811 6.03276 5.67267
#
# Compressibility (1/GPa) = 0.02533667
#
# Stress axis : x y z
#
# Youngs Moduli (GPa) = 50.81520 61.63168 82.57621
#
# Poissons Ratio (x) = 0.26334 0.28724
# Poissons Ratio (y) = 0.21712 0.29625
# Poissons Ratio (z) = 0.17676 0.22111
#
# Static dielectric constant tensor:
#      x y z
#    x 3.845000 0.000000 -0.095880 
#    y 0.000000 3.497180 0.000000 
#    z -0.095880 0.000000 3.886420 
# 
# 
# High freq. dielectric constant tensor:
#      x y z
#    x 1.820030 0.000000 -0.005730 
#    y 0.000000 1.797990 0.000000 
#    z -0.005730 0.000000 1.824210 
# 
# From -- ./inp_files/77515.got.cif
#   From: 2010.03.12/outbox.cif.g09.slc.cpg/sg14_39_cif.got.tgz:77515.got - 2010.03.31 13:35:05.
