data_PCOD8124869
_publ_section_title
;
Structure prediction by ZEFSAII (Michael W. Deem and Ramdas Pophale) SiO2 
 PCOD8124869
Probable space group: P 21/C
;
_chemical_formula_sum "Si O2"
_cell_formula_units_Z 28
_cell_length_a 17.076228
_cell_length_b 12.897677
_cell_length_c 20.216575
_cell_angle_alpha 90.000000
_cell_angle_beta 19.252096
_cell_angle_gamma 90.000000
_cell_volume 1468.125355
_symmetry_space_group_name_H-M "P 21/C"
_symmetry_group_IT_number 14
_symmetry_cell_setting 'monoclinic'
loop_
_space_group_symop_operation_xyz
x,y,z
-x,1/2+y,1/2-z
-x,-y,-z
x,1/2-y,1/2+z
loop_
_atom_site_type_symbol
_atom_site_label
_atom_site_fract_x
_atom_site_fract_y
_atom_site_fract_z
Si Si1 0.878896 0.532393 0.388701
Si Si2 0.893915 0.889710 0.607017
Si Si3 0.109897 0.576230 0.066884
Si Si4 0.567017 0.595310 0.256777
Si Si5 0.777501 0.000554 0.267035
Si Si6 0.412310 0.318056 0.296944
Si Si7 0.059874 0.159918 0.963628
O O1 0.707391 0.433392 0.529861
O O2 0.720323 0.632496 0.534137
O O3 0.101148 0.515492 0.258800
O O4 0.965240 0.541998 0.245533
O O5 0.630111 0.888073 0.784947
O O6 0.014877 0.781611 0.483956
O O7 0.912190 0.882626 0.671925
O O8 0.000000 0.000000 0.500000
O O9 0.254037 0.484297 0.918707
O O10 0.305780 0.661084 0.930397
O O11 0.614262 0.695919 0.175266
O O12 0.500000 0.000000 0.500000
O O13 0.867301 0.891857 0.164278
O O14 0.836604 0.097665 0.171949
O O15 0.287102 0.358863 0.330007
#
# Coordination Sequence:
#
# PCOD8124869 Si02
#       7
#     4   4   4   4   4   4   4
#     4  10  21  35  56  86 113 145 188 235 289 334
#     4   9  19  38  60  81 113 154 195 230 282 340
#     4  10  20  35  56  83 115 145 190 235 276 340
#     4   9  20  38  56  78 110 155 185 231 283 332
#     4  10  20  36  58  87 117 146 191 238 287 343
#     4   9  19  37  56  76 113 149 186 228 285 335
#     4   9  19  37  59  81 113 154 186 234 286 337
#
# _framework density 19.071940999999999
#
# number of rings (size 3 to 8) (size 9 to 14) (size 15 to 20)
#    0.000    2.571    0.000    0.857    2.000    2.857 
#    0.000   10.000    0.000    0.000    0.000    0.000 
#    0.000    0.000    0.000    0.000    0.000    0.000 
#
# Total GULP energy -346932.514225 kJ/mol
# GULP energy per Si atom -12390.446937 kJ/mol
# Density = 1.902853 g / cm^3
# Si number density = 19.071941 Si / 1000 Ang^3
#
#
#
# Elastic Constant Matrix: (Units=GPa)
#
#
# Indices 1 2 3 4 5 6 
#
# 1 110.3051 33.5881 54.5268 0.0000 6.2660 0.0000
# 2 33.5881 108.2075 33.8763 0.0000 -5.2760 0.0000
# 3 54.5268 33.8763 109.1221 0.0000 -1.1250 0.0000
# 4 0.0000 0.0000 0.0000 10.0217 0.0000 -5.8780
# 5 6.2660 -5.2760 -1.1250 0.0000 27.7768 0.0000
# 6 0.0000 0.0000 0.0000 -5.8780 0.0000 26.5574
#
#
#
# Elastic Compliance Matrix: (Units=1/GPa)
#
#
# Indices 1 2 3 4 5 6 
#
# 1 0.012807 -0.002364 -0.005702 0.000000 -0.003569 0.000000
# 2 -0.002364 0.010765 -0.002135 0.000000 0.002492 0.000000
# 3 -0.005702 -0.002135 0.012691 0.000000 0.001395 0.000000
# 4 0.000000 0.000000 0.000000 0.114670 0.000000 0.025380
# 5 -0.003569 0.002492 0.001395 0.000000 0.037336 0.000000
# 6 0.000000 0.000000 0.000000 0.025380 0.000000 0.043272
#
#
# Mechanical properties :
#
#
# Convention : Reuss Voigt Hill
#
# Bulk Modulus (GPa) = 63.05197 63.51300 63.28249
# Shear Modulus (GPa) = 19.43774 26.58074 23.00924
#
# Velocity S-wave (km/s) = 3.19592 3.73729 3.47716
# Velocity P-wave (km/s) = 6.83743 7.21091 7.02665
#
# Compressibility (1/GPa) = 0.01585993
#
# Stress axis : x y z
#
# Youngs Moduli (GPa) = 78.08038 92.89155 78.79806
#
# Poissons Ratio (x) = 0.21962 0.44934
# Poissons Ratio (y) = 0.18460 0.16823
# Poissons Ratio (z) = 0.44525 0.19832
#
# Static dielectric constant tensor:
#      x y z
#    x 3.931940 0.000000 -0.269290 
#    y 0.000000 3.665150 0.000000 
#    z -0.269290 0.000000 3.242400 
# 
# 
# High freq. dielectric constant tensor:
#      x y z
#    x 1.756850 0.000000 -0.015380 
#    y 0.000000 1.749200 0.000000 
#    z -0.015380 0.000000 1.711990 
# 
# From -- ./inp_files/69277.got.cif
#   From: 2010.03.12/outbox.cif.g09.slc.cpg/sg14_35_cif.got.tgz:69277.got - 2010.03.31 13:35:05.
