data_PCOD8124225
_publ_section_title
;
Structure prediction by ZEFSAII (Michael W. Deem and Ramdas Pophale) SiO2 
 PCOD8124225
Probable space group: P 21/C
;
_chemical_formula_sum "Si O2"
_cell_formula_units_Z 32
_cell_length_a 5.085808
_cell_length_b 17.323334
_cell_length_c 14.759990
_cell_angle_alpha 90.000000
_cell_angle_beta 66.674495
_cell_angle_gamma 90.000000
_cell_volume 1194.120077
_symmetry_space_group_name_H-M "P 21/C"
_symmetry_group_IT_number 14
_symmetry_cell_setting 'monoclinic'
loop_
_space_group_symop_operation_xyz
x,y,z
-x,1/2+y,1/2-z
-x,-y,-z
x,1/2-y,1/2+z
loop_
_atom_site_type_symbol
_atom_site_label
_atom_site_fract_x
_atom_site_fract_y
_atom_site_fract_z
Si Si1 0.379142 0.700151 0.701179
Si Si2 0.882124 0.683692 0.289095
Si Si3 0.357197 0.455267 0.742223
Si Si4 0.529909 0.910718 0.317109
Si Si5 0.444329 0.209769 0.553804
Si Si6 0.049756 0.925093 0.929740
Si Si7 0.049245 0.273353 0.456296
Si Si8 0.900053 0.070897 0.857807
O O1 0.303030 0.649278 0.800782
O O2 0.707115 0.733187 0.654060
O O3 0.317006 0.644991 0.619719
O O4 0.175404 0.774207 0.725574
O O5 0.797767 0.626647 0.216749
O O6 0.616247 0.742041 0.344843
O O7 0.905312 0.627288 0.372565
O O8 0.434016 0.499075 0.826734
O O9 0.625509 0.439233 0.640889
O O10 0.149572 0.512524 0.717969
O O11 0.573507 0.881072 0.414337
O O12 0.785311 0.898569 0.209923
O O13 0.178986 0.231017 0.526155
O O14 0.754512 0.230197 0.469573
O O15 0.015734 0.867389 0.023714
O O16 0.888011 0.012634 0.950918
#
# Coordination Sequence:
#
# PCOD8124225 Si02
#       8
#     4   4   4   4   4   4   4   4
#     4  11  23  36  58  93 124 159 203 260 309 362
#     4  10  19  35  61  84 118 159 212 257 300 358
#     4   9  18  34  59  89 112 154 212 256 300 359
#     4  10  20  37  62  86 118 157 217 255 299 364
#     4  11  22  40  62  86 120 167 208 250 302 368
#     4   9  18  36  55  83 119 164 203 241 303 375
#     4  11  25  38  59  91 132 165 197 251 318 372
#     4   9  19  34  57  88 116 156 206 246 301 364
#
# _framework density 26.797972999999999
#
# number of rings (size 3 to 8) (size 9 to 14) (size 15 to 20)
#    0.000    2.000    2.500    1.500    3.500    0.500 
#    0.000    5.625    0.000    1.500    0.000    0.000 
#    0.000    0.000    0.000    0.000    0.000    0.000 
#
# Total GULP energy -396485.329922 kJ/mol
# GULP energy per Si atom -12390.166560 kJ/mol
# Density = 2.673698 g / cm^3
# Si number density = 26.797973 Si / 1000 Ang^3
#
#
#
# Elastic Constant Matrix: (Units=GPa)
#
#
# Indices 1 2 3 4 5 6 
#
# 1 61.5859 16.2098 -0.3165 0.0000 -21.0029 0.0000
# 2 16.2098 82.1374 10.7439 0.0000 -17.6583 0.0000
# 3 -0.3165 10.7439 51.5698 0.0000 -23.0255 0.0000
# 4 0.0000 0.0000 0.0000 35.6326 0.0000 5.8770
# 5 -21.0029 -17.6583 -23.0255 0.0000 36.7232 0.0000
# 6 0.0000 0.0000 0.0000 5.8770 0.0000 53.2391
#
#
#
# Elastic Compliance Matrix: (Units=1/GPa)
#
#
# Indices 1 2 3 4 5 6 
#
# 1 0.022630 -0.001841 0.008202 0.000000 0.017200 0.000000
# 2 -0.001841 0.013729 -0.000547 0.000000 0.005205 0.000000
# 3 0.008202 -0.000547 0.029904 0.000000 0.023178 0.000000
# 4 0.000000 0.000000 0.000000 0.028585 0.000000 -0.003155
# 5 0.017200 0.005205 0.023178 0.000000 0.054103 0.000000
# 6 0.000000 0.000000 0.000000 -0.003155 0.000000 0.019132
#
#
# Mechanical properties :
#
#
# Convention : Reuss Voigt Hill
#
# Bulk Modulus (GPa) = 12.83855 27.61863 20.22859
# Shear Modulus (GPa) = 27.40942 36.36269 31.88605
#
# Velocity S-wave (km/s) = 3.20162 3.68763 3.45319
# Velocity P-wave (km/s) = 4.29749 5.33481 4.84400
#
# Compressibility (1/GPa) = 0.07789042
#
# Stress axis : x y z
#
# Youngs Moduli (GPa) = 44.18895 72.84000 33.43993
#
# Poissons Ratio (x) = 0.13411 -0.27428
# Poissons Ratio (y) = 0.08136 0.01831
# Poissons Ratio (z) = -0.36245 0.03987
#
# Static dielectric constant tensor:
#      x y z
#    x 5.264250 0.000000 0.188610 
#    y 0.000000 5.675340 0.000000 
#    z 0.188610 0.000000 4.217810 
# 
# 
# High freq. dielectric constant tensor:
#      x y z
#    x 2.099270 0.000000 0.007310 
#    y 0.000000 2.105740 0.000000 
#    z 0.007310 0.000000 2.025140 
# 
# From -- ./inp_files/63871.got.cif
#   From: 2010.03.12/outbox.cif.g09.slc.cpg/sg14_32_cif.got.tgz:63871.got - 2010.03.31 13:35:05.
