data_PCOD8124166
_publ_section_title
;
Structure prediction by ZEFSAII (Michael W. Deem and Ramdas Pophale) SiO2 
 PCOD8124166
Probable space group: P 21/C
;
_chemical_formula_sum "Si O2"
_cell_formula_units_Z 28
_cell_length_a 5.365254
_cell_length_b 18.439759
_cell_length_c 16.870924
_cell_angle_alpha 90.000000
_cell_angle_beta 57.868331
_cell_angle_gamma 90.000000
_cell_volume 1413.447375
_symmetry_space_group_name_H-M "P 21/C"
_symmetry_group_IT_number 14
_symmetry_cell_setting 'monoclinic'
loop_
_space_group_symop_operation_xyz
x,y,z
-x,1/2+y,1/2-z
-x,-y,-z
x,1/2-y,1/2+z
loop_
_atom_site_type_symbol
_atom_site_label
_atom_site_fract_x
_atom_site_fract_y
_atom_site_fract_z
Si Si1 0.927701 0.240463 0.597919
Si Si2 0.770950 0.538408 0.136723
Si Si3 0.421738 0.325588 0.749037
Si Si4 0.506724 0.740244 0.093027
Si Si5 0.044431 0.293096 0.251791
Si Si6 0.543322 0.110319 0.636009
Si Si7 0.426807 0.589637 0.042259
O O1 0.210561 0.269958 0.502300
O O2 0.001603 0.198419 0.665769
O O3 0.724638 0.310422 0.650308
O O4 0.768425 0.175960 0.575922
O O5 0.611062 0.588446 0.230345
O O6 0.682444 0.454588 0.164744
O O7 0.665520 0.560750 0.065796
O O8 0.118701 0.546572 0.091341
O O9 0.403637 0.283088 0.834619
O O10 0.158555 0.289980 0.743153
O O11 0.362676 0.673449 0.070258
O O12 0.254042 0.802280 0.145591
O O13 0.279913 0.355553 0.234404
O O14 0.433037 0.079975 0.569187
#
# Coordination Sequence:
#
# PCOD8124166 Si02
#       7
#     4   4   4   4   4   4   4
#     4  10  21  35  56  83 114 151 197 241 284 339
#     4  11  23  36  58  83 124 157 187 232 292 353
#     4   9  20  36  53  81 112 154 192 233 288 344
#     4  10  19  35  57  79 116 148 194 238 285 334
#     4  10  20  35  55  81 111 151 196 239 282 341
#     4  11  22  34  54  85 119 149 193 232 290 351
#     4  11  21  35  57  85 121 154 189 227 291 357
#
# _framework density 19.809725
#
# number of rings (size 3 to 8) (size 9 to 14) (size 15 to 20)
#    0.000    1.714    2.857    2.571    2.000    0.000 
#    0.000    0.000    0.000    0.857    0.000   10.000 
#    0.000    0.000    0.000    0.000    0.000    0.000 
#
# Total GULP energy -346915.710506 kJ/mol
# GULP energy per Si atom -12389.846804 kJ/mol
# Density = 1.976464 g / cm^3
# Si number density = 19.809725 Si / 1000 Ang^3
#
#
#
# Elastic Constant Matrix: (Units=GPa)
#
#
# Indices 1 2 3 4 5 6 
#
# 1 52.5901 -3.1517 18.0649 0.0000 -5.4030 0.0000
# 2 -3.1517 38.2322 15.9476 0.0000 -14.7987 0.0000
# 3 18.0649 15.9476 95.6525 0.0000 -36.5249 0.0000
# 4 0.0000 0.0000 0.0000 17.3163 0.0000 -8.6901
# 5 -5.4030 -14.7987 -36.5249 0.0000 38.7656 0.0000
# 6 0.0000 0.0000 0.0000 -8.6901 0.0000 18.1217
#
#
#
# Elastic Compliance Matrix: (Units=1/GPa)
#
#
# Indices 1 2 3 4 5 6 
#
# 1 0.020786 0.003604 -0.004522 0.000000 0.000013 0.000000
# 2 0.003604 0.031378 -0.001791 0.000000 0.010794 0.000000
# 3 -0.004522 -0.001791 0.017346 0.000000 0.015030 0.000000
# 4 0.000000 0.000000 0.000000 0.076051 0.000000 0.036470
# 5 0.000013 0.010794 0.015030 0.000000 0.044079 0.000000
# 6 0.000000 0.000000 0.000000 0.036470 0.000000 0.072671
#
#
# Mechanical properties :
#
#
# Convention : Reuss Voigt Hill
#
# Bulk Modulus (GPa) = 15.60210 27.57738 21.58974
# Shear Modulus (GPa) = 17.29557 25.21498 21.25528
#
# Velocity S-wave (km/s) = 2.95801 3.57158 3.27918
# Velocity P-wave (km/s) = 4.42261 5.56414 5.02589
#
# Compressibility (1/GPa) = 0.06409393
#
# Stress axis : x y z
#
# Youngs Moduli (GPa) = 48.11040 31.86949 57.64991
#
# Poissons Ratio (x) = -0.11487 0.26067
# Poissons Ratio (y) = -0.17341 0.10323
# Poissons Ratio (z) = 0.21754 0.05707
#
# Static dielectric constant tensor:
#      x y z
#    x 3.813620 0.000000 -0.036510 
#    y 0.000000 3.608360 0.000000 
#    z -0.036510 0.000000 3.585450 
# 
# 
# High freq. dielectric constant tensor:
#      x y z
#    x 1.794170 0.000000 -0.003580 
#    y 0.000000 1.741160 0.000000 
#    z -0.003580 0.000000 1.747120 
# 
# From -- ./inp_files/30684.got.cif
#   From: 2010.03.12/outbox.cif.g09.slc.cpg/sg14_16_cif.got.tgz:30684.got - 2010.03.31 13:35:05.
