data_PCOD8124842
_publ_section_title
;
Structure prediction by ZEFSAII (Michael W. Deem and Ramdas Pophale) SiO2 
 PCOD8124842
Probable space group: P 21/C
;
_chemical_formula_sum "Si O2"
_cell_formula_units_Z 32
_cell_length_a 13.740752
_cell_length_b 7.384595
_cell_length_c 21.200727
_cell_angle_alpha 90.000000
_cell_angle_beta 129.758059
_cell_angle_gamma 90.000000
_cell_volume 1653.766270
_symmetry_space_group_name_H-M "P 21/C"
_symmetry_group_IT_number 14
_symmetry_cell_setting 'monoclinic'
loop_
_space_group_symop_operation_xyz
x,y,z
-x,1/2+y,1/2-z
-x,-y,-z
x,1/2-y,1/2+z
loop_
_atom_site_type_symbol
_atom_site_label
_atom_site_fract_x
_atom_site_fract_y
_atom_site_fract_z
Si Si1 0.909064 0.445586 0.296942
Si Si2 0.657235 0.336355 0.524480
Si Si3 0.997298 0.075799 0.374397
Si Si4 0.778946 0.976283 0.619045
Si Si5 0.635241 0.638082 0.616730
Si Si6 0.067254 0.283432 0.029030
Si Si7 0.196954 0.296146 0.203068
Si Si8 0.879592 0.442750 0.533526
O O1 0.901705 0.242566 0.320930
O O2 0.880214 0.446671 0.211169
O O3 0.808546 0.578447 0.290269
O O4 0.048117 0.523254 0.370070
O O5 0.679445 0.467408 0.593505
O O6 0.514437 0.348060 0.441609
O O7 0.739672 0.385271 0.496881
O O8 0.685954 0.132943 0.557740
O O9 0.135453 0.101634 0.401734
O O10 0.018027 0.060965 0.459600
O O11 0.929125 0.894884 0.320426
O O12 0.693128 0.817286 0.610035
O O13 0.683314 0.621890 0.709564
O O14 0.187351 0.341018 0.123859
O O15 0.949978 0.214265 0.023313
O O16 0.122377 0.124901 0.007758
#
# Coordination Sequence:
#
# PCOD8124842 Si02
#       8
#     4   4   4   4   4   4   4   4
#     4   9  20  32  49  86 116 138 174 230 290 338
#     4  11  22  39  58  80 116 155 192 230 281 344
#     4  11  21  31  58  89 115 146 180 231 294 343
#     4  11  22  33  58  88 120 143 183 236 284 341
#     4  10  23  39  57  81 114 155 194 231 279 342
#     4   9  18  35  55  84 114 144 185 237 285 335
#     4  10  20  35  55  78 113 147 187 234 279 331
#     4   9  18  34  59  80 113 150 181 227 293 334
#
# _framework density 19.349772999999999
#
# number of rings (size 3 to 8) (size 9 to 14) (size 15 to 20)
#    0.000    2.000    0.000    5.250    7.000    0.000 
#    0.000    0.000    5.500    0.000    0.000    0.000 
#    0.000    0.000    0.000    0.000    0.000    0.000 
#
# Total GULP energy -396557.774924 kJ/mol
# GULP energy per Si atom -12392.430466 kJ/mol
# Density = 1.930573 g / cm^3
# Si number density = 19.349773 Si / 1000 Ang^3
#
#
#
# Elastic Constant Matrix: (Units=GPa)
#
#
# Indices 1 2 3 4 5 6 
#
# 1 82.2051 11.8599 49.1603 0.0000 0.5489 0.0000
# 2 11.8599 81.1883 32.6741 0.0000 3.2868 0.0000
# 3 49.1603 32.6741 137.4168 0.0000 -10.2022 0.0000
# 4 0.0000 0.0000 0.0000 32.0030 0.0000 -0.8432
# 5 0.5489 3.2868 -10.2022 0.0000 20.8097 0.0000
# 6 0.0000 0.0000 0.0000 -0.8432 0.0000 20.3729
#
#
#
# Elastic Compliance Matrix: (Units=1/GPa)
#
#
# Indices 1 2 3 4 5 6 
#
# 1 0.015693 0.000224 -0.005916 0.000000 -0.003350 0.000000
# 2 0.000224 0.013932 -0.003691 0.000000 -0.004016 0.000000
# 3 -0.005916 -0.003691 0.010716 0.000000 0.005993 0.000000
# 4 0.000000 0.000000 0.000000 0.031281 0.000000 0.001295
# 5 -0.003350 -0.004016 0.005993 0.000000 0.051715 0.000000
# 6 0.000000 0.000000 0.000000 0.001295 0.000000 0.049139
#
#
# Mechanical properties :
#
#
# Convention : Reuss Voigt Hill
#
# Bulk Modulus (GPa) = 46.34948 54.24430 50.29689
# Shear Modulus (GPa) = 25.19734 28.44482 26.82108
#
# Velocity S-wave (km/s) = 3.61252 3.83826 3.72710
# Velocity P-wave (km/s) = 6.43474 6.90923 6.67620
#
# Compressibility (1/GPa) = 0.02157521
#
# Stress axis : x y z
#
# Youngs Moduli (GPa) = 63.72440 71.77531 93.31769
#
# Poissons Ratio (x) = -0.01609 0.55206
# Poissons Ratio (y) = -0.01428 0.34444
# Poissons Ratio (z) = 0.37699 0.26493
#
# Static dielectric constant tensor:
#      x y z
#    x 3.203800 0.000000 -0.247630 
#    y 0.000000 3.777890 0.000000 
#    z -0.247630 0.000000 3.760710 
# 
# 
# High freq. dielectric constant tensor:
#      x y z
#    x 1.714480 0.000000 -0.022670 
#    y 0.000000 1.778540 0.000000 
#    z -0.022670 0.000000 1.756050 
# 
# From -- ./inp_files/67065.got.cif
#   From: 2010.03.12/outbox.cif.g09.slc.cpg/sg14_34_cif.got.tgz:67065.got - 2010.03.31 13:35:05.
