data_PCOD8124405
_publ_section_title
;
Structure prediction by ZEFSAII (Michael W. Deem and Ramdas Pophale) SiO2 
 PCOD8124405
Probable space group: P 21/C
;
_chemical_formula_sum "Si O2"
_cell_formula_units_Z 28
_cell_length_a 10.773986
_cell_length_b 8.803379
_cell_length_c 14.974196
_cell_angle_alpha 90.000000
_cell_angle_beta 66.445043
_cell_angle_gamma 90.000000
_cell_volume 1301.924320
_symmetry_space_group_name_H-M "P 21/C"
_symmetry_group_IT_number 14
_symmetry_cell_setting 'monoclinic'
loop_
_space_group_symop_operation_xyz
x,y,z
-x,1/2+y,1/2-z
-x,-y,-z
x,1/2-y,1/2+z
loop_
_atom_site_type_symbol
_atom_site_label
_atom_site_fract_x
_atom_site_fract_y
_atom_site_fract_z
Si Si1 0.405833 0.861703 0.998810
Si Si2 0.111016 0.634026 0.356341
Si Si3 0.933239 0.144525 0.474316
Si Si4 0.738248 0.117509 0.364410
Si Si5 0.204487 0.108102 0.052151
Si Si6 0.640235 0.715457 0.843960
Si Si7 0.801984 0.806240 0.130811
O O1 0.378481 0.743607 0.087264
O O2 0.262776 0.938455 0.012964
O O3 0.482749 0.764944 0.899130
O O4 0.500000 0.000000 0.000000
O O5 0.134438 0.763296 0.423985
O O6 0.167637 0.680688 0.242644
O O7 0.190527 0.487069 0.364944
O O8 0.954554 0.590774 0.390407
O O9 0.822026 0.098624 0.432674
O O10 0.051953 0.235228 0.388817
O O11 0.000000 0.000000 0.500000
O O12 0.665726 0.959495 0.361283
O O13 0.267203 0.177590 0.122244
O O14 0.238599 0.224206 0.960684
O O15 0.685231 0.753490 0.729989
#
# Coordination Sequence:
#
# PCOD8124405 Si02
#       7
#     4   4   4   4   4   4   4
#     4  10  22  39  59  82 113 157 199 233 276 340
#     4  10  21  36  60  88 114 150 191 236 298 350
#     4  11  22  35  58  93 120 145 189 242 296 351
#     4  11  21  38  61  85 119 153 187 242 291 334
#     4  10  19  37  59  84 116 149 188 240 292 338
#     4  10  22  38  57  82 114 155 197 234 280 339
#     4  10  20  37  57  82 117 151 191 239 289 348
#
# _framework density 21.506626000000001
#
# number of rings (size 3 to 8) (size 9 to 14) (size 15 to 20)
#    0.000    1.714    0.000    6.429    0.000    5.714 
#    0.000   11.429    0.000    0.000    0.000    0.000 
#    0.000    0.000    0.000    0.000    0.000    0.000 
#
# Total GULP energy -347029.469757 kJ/mol
# GULP energy per Si atom -12393.909634 kJ/mol
# Density = 2.145768 g / cm^3
# Si number density = 21.506626 Si / 1000 Ang^3
#
#
#
# Elastic Constant Matrix: (Units=GPa)
#
#
# Indices 1 2 3 4 5 6 
#
# 1 24.8333 9.8867 32.1526 0.0000 -11.0133 0.0000
# 2 9.8867 88.3528 49.5198 0.0000 -9.2678 0.0000
# 3 32.1526 49.5198 179.0746 0.0000 -26.9429 0.0000
# 4 0.0000 0.0000 0.0000 28.1922 0.0000 -6.1756
# 5 -11.0133 -9.2678 -26.9429 0.0000 32.8994 0.0000
# 6 0.0000 0.0000 0.0000 -6.1756 0.0000 33.4498
#
#
#
# Elastic Compliance Matrix: (Units=1/GPa)
#
#
# Indices 1 2 3 4 5 6 
#
# 1 0.056392 -0.000459 -0.008186 0.000000 0.012044 0.000000
# 2 -0.000459 0.013419 -0.003516 0.000000 0.000747 0.000000
# 3 -0.008186 -0.003516 0.008514 0.000000 0.003242 0.000000
# 4 0.000000 0.000000 0.000000 0.036966 0.000000 0.006825
# 5 0.012044 0.000747 0.003242 0.000000 0.037293 0.000000
# 6 0.000000 0.000000 0.000000 0.006825 0.000000 0.031156
#
#
# Mechanical properties :
#
#
# Convention : Reuss Voigt Hill
#
# Bulk Modulus (GPa) = 18.51756 52.81988 35.66872
# Shear Modulus (GPa) = 22.11797 32.28839 27.20318
#
# Velocity S-wave (km/s) = 3.21039 3.87889 3.56037
# Velocity P-wave (km/s) = 4.72980 6.68388 5.78987
#
# Compressibility (1/GPa) = 0.05400280
#
# Stress axis : x y z
#
# Youngs Moduli (GPa) = 17.73317 74.52383 117.45270
#
# Poissons Ratio (x) = 0.03419 0.96147
# Poissons Ratio (y) = 0.00813 0.41295
# Poissons Ratio (z) = 0.14516 0.26202
#
# Static dielectric constant tensor:
#      x y z
#    x 3.947120 0.000000 -0.169280 
#    y 0.000000 4.085730 0.000000 
#    z -0.169280 0.000000 4.325310 
# 
# 
# High freq. dielectric constant tensor:
#      x y z
#    x 1.827220 0.000000 -0.008190 
#    y 0.000000 1.849970 0.000000 
#    z -0.008190 0.000000 1.854240 
# 
# From -- ./inp_files/43324.got.cif
#   From: 2010.03.12/outbox.cif.g09.slc.cpg/sg14_22_cif.got.tgz:43324.got - 2010.03.31 13:35:05.
