data_PCOD8124599
_publ_section_title
;
Structure prediction by ZEFSAII (Michael W. Deem and Ramdas Pophale) SiO2 
 PCOD8124599
Probable space group: P 21/C
;
_chemical_formula_sum "Si O2"
_cell_formula_units_Z 28
_cell_length_a 10.703787
_cell_length_b 10.335566
_cell_length_c 14.792750
_cell_angle_alpha 90.000000
_cell_angle_beta 54.247791
_cell_angle_gamma 90.000000
_cell_volume 1328.118119
_symmetry_space_group_name_H-M "P 21/C"
_symmetry_group_IT_number 14
_symmetry_cell_setting 'monoclinic'
loop_
_space_group_symop_operation_xyz
x,y,z
-x,1/2+y,1/2-z
-x,-y,-z
x,1/2-y,1/2+z
loop_
_atom_site_type_symbol
_atom_site_label
_atom_site_fract_x
_atom_site_fract_y
_atom_site_fract_z
Si Si1 0.675789 0.746309 0.705936
Si Si2 0.342246 0.279184 0.590268
Si Si3 0.259473 0.477602 0.206489
Si Si4 0.568516 0.256603 0.843773
Si Si5 0.988748 0.636967 0.098226
Si Si6 0.986263 0.646361 0.298417
Si Si7 0.134062 0.858570 0.355571
O O1 0.617815 0.817516 0.822943
O O2 0.695638 0.591775 0.717194
O O3 0.561660 0.783338 0.675019
O O4 0.844365 0.797735 0.608927
O O5 0.488459 0.306424 0.465317
O O6 0.198812 0.367249 0.616634
O O7 0.295479 0.124736 0.610029
O O8 0.355224 0.609495 0.156751
O O9 0.077081 0.512099 0.279045
O O10 0.689443 0.154655 0.751446
O O11 0.028960 0.700282 0.178651
O O12 0.943162 0.490769 0.143293
O O13 0.129610 0.648349 0.967816
O O14 0.036602 0.744930 0.353599
#
# Coordination Sequence:
#
# PCOD8124599 Si02
#       7
#     4   4   4   4   4   4   4
#     4   9  22  37  60  86 120 154 195 246 300 359
#     4   9  20  38  61  90 117 153 197 250 300 351
#     4   9  21  38  62  88 116 158 201 238 303 361
#     4  11  21  38  62  87 124 156 198 248 298 362
#     4  10  21  40  63  84 120 159 202 254 294 360
#     4  10  19  39  64  89 117 154 207 254 295 354
#     4  10  23  37  62  92 113 160 210 240 300 367
#
# _framework density 21.082463000000001
#
# number of rings (size 3 to 8) (size 9 to 14) (size 15 to 20)
#    0.857    1.429    0.000    2.143    2.000    3.429 
#    0.000    9.286    3.143    0.000    0.000    0.000 
#    0.000    0.000    0.000    0.000    0.000    0.000 
#
# Total GULP energy -346911.916608 kJ/mol
# GULP energy per Si atom -12389.711307 kJ/mol
# Density = 2.103448 g / cm^3
# Si number density = 21.082463 Si / 1000 Ang^3
#
#
#
# Elastic Constant Matrix: (Units=GPa)
#
#
# Indices 1 2 3 4 5 6 
#
# 1 49.3767 -1.3145 13.2453 0.0000 1.6897 0.0000
# 2 -1.3145 32.0665 31.6822 0.0000 -4.9601 0.0000
# 3 13.2453 31.6822 130.8616 0.0000 -16.2373 0.0000
# 4 0.0000 0.0000 0.0000 22.6096 0.0000 -4.9842
# 5 1.6897 -4.9601 -16.2373 0.0000 26.6387 0.0000
# 6 0.0000 0.0000 0.0000 -4.9842 0.0000 21.5823
#
#
#
# Elastic Compliance Matrix: (Units=1/GPa)
#
#
# Indices 1 2 3 4 5 6 
#
# 1 0.021369 0.003845 -0.003433 0.000000 -0.002732 0.000000
# 2 0.003845 0.041754 -0.010346 0.000000 0.001224 0.000000
# 3 -0.003433 -0.010346 0.011123 0.000000 0.005071 0.000000
# 4 0.000000 0.000000 0.000000 0.046601 0.000000 0.010762
# 5 -0.002732 0.001224 0.005071 0.000000 0.041032 0.000000
# 6 0.000000 0.000000 0.000000 0.010762 0.000000 0.048820
#
#
# Mechanical properties :
#
#
# Convention : Reuss Voigt Hill
#
# Bulk Modulus (GPa) = 18.38944 33.28119 25.83531
# Shear Modulus (GPa) = 20.10503 25.41223 22.75863
#
# Velocity S-wave (km/s) = 3.09145 3.47561 3.28915
# Velocity P-wave (km/s) = 4.63512 5.65040 5.16775
#
# Compressibility (1/GPa) = 0.05437905
#
# Stress axis : x y z
#
# Youngs Moduli (GPa) = 46.79634 23.94952 89.90185
#
# Poissons Ratio (x) = -0.09209 0.30862
# Poissons Ratio (y) = -0.17994 0.93015
# Poissons Ratio (z) = 0.16064 0.24779
#
# Static dielectric constant tensor:
#      x y z
#    x 3.765790 0.000000 -0.029530 
#    y 0.000000 3.649290 0.000000 
#    z -0.029530 0.000000 3.778880 
# 
# 
# High freq. dielectric constant tensor:
#      x y z
#    x 1.820070 0.000000 0.002580 
#    y 0.000000 1.806290 0.000000 
#    z 0.002580 0.000000 1.820740 
# 
# From -- ./inp_files/44324.got.cif
#   From: 2010.03.12/outbox.cif.g09.slc.cpg/sg14_23_cif.got.tgz:44324.got - 2010.03.31 13:35:05.
