data_PCOD8124380
_publ_section_title
;
Structure prediction by ZEFSAII (Michael W. Deem and Ramdas Pophale) SiO2 
 PCOD8124380
Probable space group: P 21/C
;
_chemical_formula_sum "Si O2"
_cell_formula_units_Z 32
_cell_length_a 25.331328
_cell_length_b 9.095498
_cell_length_c 18.366920
_cell_angle_alpha 90.000000
_cell_angle_beta 19.664601
_cell_angle_gamma 90.000000
_cell_volume 1424.043648
_symmetry_space_group_name_H-M "P 21/C"
_symmetry_group_IT_number 14
_symmetry_cell_setting 'monoclinic'
loop_
_space_group_symop_operation_xyz
x,y,z
-x,1/2+y,1/2-z
-x,-y,-z
x,1/2-y,1/2+z
loop_
_atom_site_type_symbol
_atom_site_label
_atom_site_fract_x
_atom_site_fract_y
_atom_site_fract_z
Si Si1 0.436567 0.377992 0.361258
Si Si2 0.390155 0.579610 0.548980
Si Si3 0.464954 0.132991 0.433923
Si Si4 0.232191 0.616982 0.250965
Si Si5 0.228581 0.968356 0.025211
Si Si6 0.085209 0.426342 0.570018
Si Si7 0.199364 0.679095 0.137572
Si Si8 0.332144 0.319262 0.723704
O O1 0.409308 0.531055 0.440341
O O2 0.386621 0.237366 0.473862
O O3 0.319082 0.392767 0.444798
O O4 0.617729 0.363791 0.103095
O O5 0.281870 0.718279 0.704388
O O6 0.299625 0.451598 0.710239
O O7 0.570997 0.611170 0.335747
O O8 0.649442 0.120575 0.183354
O O9 0.447182 0.201018 0.536645
O O10 0.386881 0.974776 0.530726
O O11 0.143059 0.544061 0.434530
O O12 0.133139 0.632556 0.303739
O O13 0.096587 0.020211 0.139116
O O14 0.166406 0.853527 0.166405
O O15 0.174530 0.268698 0.449188
O O16 0.901154 0.405505 0.793274
#
# Coordination Sequence:
#
# PCOD8124380 Si02
#       8
#     4   4   4   4   4   4   4   4
#     4  10  21  38  64  90 123 161 215 266 315 370
#     4  10  19  36  66  96 118 165 214 273 304 361
#     4   9  19  35  60  94 117 157 213 263 309 370
#     4  11  20  40  68  89 126 166 213 259 314 375
#     4  11  21  40  63  92 123 166 212 264 315 376
#     4  11  25  41  62  91 134 171 203 258 327 384
#     4  11  24  42  62  94 131 164 215 259 316 393
#     4   9  20  36  60  93 127 153 212 260 317 369
#
# _framework density 22.471222000000001
#
# number of rings (size 3 to 8) (size 9 to 14) (size 15 to 20)
#    0.000    1.750    2.500    1.875    0.000    4.000 
#    2.250    0.625    0.000    0.000    0.000    0.000 
#    0.000    0.000    0.000    0.000    0.000    0.000 
#
# Total GULP energy -396519.150565 kJ/mol
# GULP energy per Si atom -12391.223455 kJ/mol
# Density = 2.242008 g / cm^3
# Si number density = 22.471222 Si / 1000 Ang^3
#
#
#
# Elastic Constant Matrix: (Units=GPa)
#
#
# Indices 1 2 3 4 5 6 
#
# 1 125.6159 21.5034 7.8809 0.0000 -18.8476 0.0000
# 2 21.5034 102.0738 3.1940 0.0000 -1.7745 0.0000
# 3 7.8809 3.1940 11.7640 0.0000 -7.1931 0.0000
# 4 0.0000 0.0000 0.0000 21.1673 0.0000 -4.6522
# 5 -18.8476 -1.7745 -7.1931 0.0000 28.1612 0.0000
# 6 0.0000 0.0000 0.0000 -4.6522 0.0000 31.1865
#
#
#
# Elastic Compliance Matrix: (Units=1/GPa)
#
#
# Indices 1 2 3 4 5 6 
#
# 1 0.009233 -0.001776 -0.002362 0.000000 0.005464 0.000000
# 2 -0.001776 0.010223 -0.002274 0.000000 -0.001125 0.000000
# 3 -0.002362 -0.002274 0.102096 0.000000 0.024354 0.000000
# 4 0.000000 0.000000 0.000000 0.048844 0.000000 0.007286
# 5 0.005464 -0.001125 0.024354 0.000000 0.045317 0.000000
# 6 0.000000 0.000000 0.000000 0.007286 0.000000 0.033152
#
#
# Mechanical properties :
#
#
# Convention : Reuss Voigt Hill
#
# Bulk Modulus (GPa) = 9.19727 33.84558 21.52143
# Shear Modulus (GPa) = 16.78243 29.89469 23.33856
#
# Velocity S-wave (km/s) = 2.73580 3.65136 3.22622
# Velocity P-wave (km/s) = 3.75251 5.73332 4.84522
#
# Compressibility (1/GPa) = 0.10872786
#
# Stress axis : x y z
#
# Youngs Moduli (GPa) = 108.30895 97.82260 9.79469
#
# Poissons Ratio (x) = 0.17375 0.02313
# Poissons Ratio (y) = 0.19237 0.02227
# Poissons Ratio (z) = 0.25582 0.22242
#
# Static dielectric constant tensor:
#      x y z
#    x 4.291860 0.000000 0.016170 
#    y 0.000000 4.215580 0.000000 
#    z 0.016170 0.000000 3.517120 
# 
# 
# High freq. dielectric constant tensor:
#      x y z
#    x 1.901170 0.000000 -0.000690 
#    y 0.000000 1.895760 0.000000 
#    z -0.000690 0.000000 1.838230 
# 
# From -- ./inp_files/70482.got.cif
#   From: 2010.03.12/outbox.cif.g09.slc.cpg/sg14_36_cif.got.tgz:70482.got - 2010.03.31 13:35:05.
