data_PCOD8124619
_publ_section_title
;
Structure prediction by ZEFSAII (Michael W. Deem and Ramdas Pophale) SiO2 
 PCOD8124619
Probable space group: P 21/C
;
_chemical_formula_sum "Si O2"
_cell_formula_units_Z 28
_cell_length_a 8.431935
_cell_length_b 11.920237
_cell_length_c 13.448777
_cell_angle_alpha 90.000000
_cell_angle_beta 66.473377
_cell_angle_gamma 90.000000
_cell_volume 1239.381241
_symmetry_space_group_name_H-M "P 21/C"
_symmetry_group_IT_number 14
_symmetry_cell_setting 'monoclinic'
loop_
_space_group_symop_operation_xyz
x,y,z
-x,1/2+y,1/2-z
-x,-y,-z
x,1/2-y,1/2+z
loop_
_atom_site_type_symbol
_atom_site_label
_atom_site_fract_x
_atom_site_fract_y
_atom_site_fract_z
Si Si1 0.353465 0.780155 0.537337
Si Si2 0.428666 0.616713 0.693906
Si Si3 0.773655 0.578345 0.502558
Si Si4 0.367920 0.314055 0.184276
Si Si5 0.128134 0.649788 0.446217
Si Si6 0.210032 0.086633 0.219383
Si Si7 0.188711 0.947569 0.720165
O O1 0.344248 0.685674 0.625392
O O2 0.548636 0.794614 0.446332
O O3 0.221537 0.751307 0.480210
O O4 0.300407 0.895748 0.602946
O O5 0.622554 0.579645 0.619344
O O6 0.461924 0.684075 0.787240
O O7 0.311007 0.510149 0.754158
O O8 0.862844 0.457111 0.484018
O O9 0.697937 0.590066 0.411432
O O10 0.921908 0.673804 0.484258
O O11 0.246028 0.211351 0.252570
O O12 0.249608 0.424635 0.217870
O O13 0.211779 0.623473 0.316516
O O14 0.009737 0.056057 0.264795
#
# Coordination Sequence:
#
# PCOD8124619 Si02
#       7
#     4   4   4   4   4   4   4
#     4  12  25  45  69 101 144 185 221 290 348 415
#     4  12  24  40  72 101 137 177 236 279 341 413
#     4  10  19  39  69  99 129 166 235 289 328 387
#     4  12  27  45  69 103 143 180 232 286 350 411
#     4  10  21  40  70 100 128 179 232 281 332 410
#     4  11  25  45  72 101 133 187 234 289 338 410
#     4  11  27  45  70  98 143 181 234 283 352 407
#
# _framework density 22.591919000000001
#
# number of rings (size 3 to 8) (size 9 to 14) (size 15 to 20)
#    0.000    0.857    4.286    2.571    6.000    0.000 
#    0.000    0.714    0.000    0.000    0.000    0.000 
#    0.000    0.000    0.000    0.000    0.000    0.000 
#
# Total GULP energy -347052.877420 kJ/mol
# GULP energy per Si atom -12394.745622 kJ/mol
# Density = 2.254050 g / cm^3
# Si number density = 22.591919 Si / 1000 Ang^3
#
#
#
# Elastic Constant Matrix: (Units=GPa)
#
#
# Indices 1 2 3 4 5 6 
#
# 1 98.7741 46.1155 28.0848 0.0000 3.6908 0.0000
# 2 46.1155 89.8075 24.7119 0.0000 7.9916 0.0000
# 3 28.0848 24.7119 57.7667 0.0000 0.2766 0.0000
# 4 0.0000 0.0000 0.0000 26.7145 0.0000 -1.3882
# 5 3.6908 7.9916 0.2766 0.0000 33.3449 0.0000
# 6 0.0000 0.0000 0.0000 -1.3882 0.0000 40.5412
#
#
#
# Elastic Compliance Matrix: (Units=1/GPa)
#
#
# Indices 1 2 3 4 5 6 
#
# 1 0.014196 -0.006102 -0.004291 0.000000 -0.000073 0.000000
# 2 -0.006102 0.015547 -0.003670 0.000000 -0.003020 0.000000
# 3 -0.004291 -0.003670 0.020961 0.000000 0.001181 0.000000
# 4 0.000000 0.000000 0.000000 0.037500 0.000000 0.001284
# 5 -0.000073 -0.003020 0.001181 0.000000 0.030712 0.000000
# 6 0.000000 0.000000 0.000000 0.001284 0.000000 0.024710
#
#
# Mechanical properties :
#
#
# Convention : Reuss Voigt Hill
#
# Bulk Modulus (GPa) = 44.28957 49.35253 46.82105
# Shear Modulus (GPa) = 27.88975 29.94918 28.91947
#
# Velocity S-wave (km/s) = 3.51736 3.64491 3.58170
# Velocity P-wave (km/s) = 6.01186 6.29337 6.15422
#
# Compressibility (1/GPa) = 0.02257868
#
# Stress axis : x y z
#
# Youngs Moduli (GPa) = 70.44284 64.32157 47.70701
#
# Poissons Ratio (x) = 0.39251 0.20471
# Poissons Ratio (y) = 0.42986 0.17506
# Poissons Ratio (z) = 0.30226 0.23603
#
# Static dielectric constant tensor:
#      x y z
#    x 4.124810 0.000000 0.127790 
#    y 0.000000 3.903430 0.000000 
#    z 0.127790 0.000000 4.041160 
# 
# 
# High freq. dielectric constant tensor:
#      x y z
#    x 1.898910 0.000000 0.002540 
#    y 0.000000 1.873880 0.000000 
#    z 0.002540 0.000000 1.884870 
# 
# From -- ./inp_files/39998.got.cif
#   From: 2010.03.12/outbox.cif.g09.slc.cpg/sg14_20_cif.got.tgz:39998.got - 2010.03.31 13:35:05.
