data_PCOD8124250
_publ_section_title
;
Structure prediction by ZEFSAII (Michael W. Deem and Ramdas Pophale) SiO2 
 PCOD8124250
Probable space group: P 21/C
;
_chemical_formula_sum "Si O2"
_cell_formula_units_Z 28
_cell_length_a 27.339164
_cell_length_b 9.242124
_cell_length_c 26.776778
_cell_angle_alpha 90.000000
_cell_angle_beta 10.755297
_cell_angle_gamma 90.000000
_cell_volume 1262.587744
_symmetry_space_group_name_H-M "P 21/C"
_symmetry_group_IT_number 14
_symmetry_cell_setting 'monoclinic'
loop_
_space_group_symop_operation_xyz
x,y,z
-x,1/2+y,1/2-z
-x,-y,-z
x,1/2-y,1/2+z
loop_
_atom_site_type_symbol
_atom_site_label
_atom_site_fract_x
_atom_site_fract_y
_atom_site_fract_z
Si Si1 0.766587 0.189021 0.224858
Si Si2 0.339921 0.805292 0.953231
Si Si3 0.252244 0.374427 0.298240
Si Si4 0.846416 0.658825 0.487724
Si Si5 0.678939 0.355779 0.216973
Si Si6 0.817757 0.582900 0.337032
Si Si7 0.143221 0.829774 0.043114
O O1 0.530154 0.182403 0.500779
O O2 0.730861 0.322511 0.222819
O O3 0.787625 0.043966 0.171146
O O4 0.029942 0.215178 0.991992
O O5 0.632960 0.751246 0.671013
O O6 0.295350 0.976124 0.007403
O O7 0.282113 0.770592 0.953677
O O8 0.132697 0.727830 0.197274
O O9 0.242118 0.344776 0.366644
O O10 0.889519 0.500704 0.421008
O O11 0.389497 0.419644 0.500753
O O12 0.678080 0.208902 0.184169
O O13 0.904420 0.463235 0.967967
O O14 0.866090 0.741675 0.314281
#
# Coordination Sequence:
#
# PCOD8124250 Si02
#       7
#     4   4   4   4   4   4   4
#     4  10  19  35  63  94 121 162 206 266 321 383
#     4  12  27  41  65  93 137 173 211 267 327 377
#     4  10  20  36  60  93 131 154 202 270 337 357
#     4  12  26  43  66 100 133 164 217 276 317 376
#     4  10  21  39  65  91 122 164 217 257 302 393
#     4  10  23  42  62  88 131 172 214 252 318 385
#     4  10  26  40  69  92 129 172 223 255 319 387
#
# _framework density 22.176674999999999
#
# number of rings (size 3 to 8) (size 9 to 14) (size 15 to 20)
#    0.857    0.571    1.429    3.429    6.000    1.143 
#    0.000    0.000    0.000   17.143    0.000    0.000 
#    0.000    0.000    0.000    0.000    0.000    0.000 
#
# Total GULP energy -347068.015061 kJ/mol
# GULP energy per Si atom -12395.286252 kJ/mol
# Density = 2.212620 g / cm^3
# Si number density = 22.176675 Si / 1000 Ang^3
#
#
#
# Elastic Constant Matrix: (Units=GPa)
#
#
# Indices 1 2 3 4 5 6 
#
# 1 101.6440 11.7394 11.3051 0.0000 -9.1651 0.0000
# 2 11.7394 69.0645 15.1840 0.0000 -2.0662 0.0000
# 3 11.3051 15.1840 82.0902 0.0000 -25.8718 0.0000
# 4 0.0000 0.0000 0.0000 26.4964 0.0000 -1.0218
# 5 -9.1651 -2.0662 -25.8718 0.0000 31.2313 0.0000
# 6 0.0000 0.0000 0.0000 -1.0218 0.0000 19.5388
#
#
#
# Elastic Compliance Matrix: (Units=1/GPa)
#
#
# Indices 1 2 3 4 5 6 
#
# 1 0.010297 -0.001610 -0.000273 0.000000 0.002689 0.000000
# 2 -0.001610 0.015418 -0.003326 0.000000 -0.002207 0.000000
# 3 -0.000273 -0.003326 0.017241 0.000000 0.013982 0.000000
# 4 0.000000 0.000000 0.000000 0.037817 0.000000 0.001978
# 5 0.002689 -0.002207 0.013982 0.000000 0.044245 0.000000
# 6 0.000000 0.000000 0.000000 0.001978 0.000000 0.051284
#
#
# Mechanical properties :
#
#
# Convention : Reuss Voigt Hill
#
# Bulk Modulus (GPa) = 30.73196 36.58398 33.65797
# Shear Modulus (GPa) = 25.30801 29.75795 27.53298
#
# Velocity S-wave (km/s) = 3.38183 3.66711 3.52736
# Velocity P-wave (km/s) = 5.39786 5.87049 5.63913
#
# Compressibility (1/GPa) = 0.03253941
#
# Stress axis : x y z
#
# Youngs Moduli (GPa) = 97.11549 64.85920 58.00062
#
# Poissons Ratio (x) = 0.10441 0.01582
# Poissons Ratio (y) = 0.15634 0.19290
# Poissons Ratio (z) = 0.02648 0.21571
#
# Static dielectric constant tensor:
#      x y z
#    x 3.846890 0.000000 -0.107450 
#    y 0.000000 3.774480 0.000000 
#    z -0.107450 0.000000 3.962610 
# 
# 
# High freq. dielectric constant tensor:
#      x y z
#    x 1.878530 0.000000 -0.006140 
#    y 0.000000 1.847450 0.000000 
#    z -0.006140 0.000000 1.878110 
# 
# From -- ./inp_files/80893.got.cif
#   From: 2010.03.12/outbox.cif.g09.slc.cpg/sg14_41_cif.got.tgz:80893.got - 2010.03.31 13:35:05.
