data_PCOD8124907
_publ_section_title
;
Structure prediction by ZEFSAII (Michael W. Deem and Ramdas Pophale) SiO2 
 PCOD8124907
Probable space group: P 21/C
;
_chemical_formula_sum "Si O2"
_cell_formula_units_Z 32
_cell_length_a 14.550825
_cell_length_b 21.122492
_cell_length_c 8.761572
_cell_angle_alpha 90.000000
_cell_angle_beta 34.531942
_cell_angle_gamma 90.000000
_cell_volume 1526.493305
_symmetry_space_group_name_H-M "P 21/C"
_symmetry_group_IT_number 14
_symmetry_cell_setting 'monoclinic'
loop_
_space_group_symop_operation_xyz
x,y,z
-x,1/2+y,1/2-z
-x,-y,-z
x,1/2-y,1/2+z
loop_
_atom_site_type_symbol
_atom_site_label
_atom_site_fract_x
_atom_site_fract_y
_atom_site_fract_z
Si Si1 0.965536 0.592340 0.326480
Si Si2 0.794996 0.899817 0.741773
Si Si3 0.646640 0.413833 0.812542
Si Si4 0.435212 0.630075 0.742284
Si Si5 0.825862 0.294980 0.047610
Si Si6 0.896128 0.331964 0.295067
Si Si7 0.267031 0.509102 0.888723
Si Si8 0.326011 0.052551 0.610174
O O1 0.868369 0.584264 0.303687
O O2 0.838710 0.591801 0.638265
O O3 0.055540 0.659022 0.207397
O O4 0.092043 0.535552 0.177987
O O5 0.921020 0.859123 0.467728
O O6 0.752899 0.969610 0.737721
O O7 0.628476 0.859871 0.983723
O O8 0.784953 0.387384 0.513142
O O9 0.684455 0.487694 0.779802
O O10 0.638347 0.378701 0.987107
O O11 0.476048 0.404994 0.959608
O O12 0.355324 0.691688 0.770690
O O13 0.390746 0.568064 0.700081
O O14 0.830687 0.308218 0.221348
O O15 0.886472 0.224513 0.930599
O O16 0.340318 0.460969 0.912159
#
# Coordination Sequence:
#
# PCOD8124907 Si02
#       8
#     4   4   4   4   4   4   4   4
#     4  10  20  39  59  89 124 164 199 250 304 362
#     4  11  22  38  61  93 123 160 205 250 304 366
#     4  10  21  38  62  88 128 163 198 250 303 364
#     4  10  21  41  61  90 128 161 202 249 305 363
#     4  10  24  42  64  87 118 160 206 256 311 356
#     4  11  24  44  65  86 119 161 208 255 306 364
#     4  10  21  33  60  94 130 163 196 250 303 363
#     4  10  20  35  59  95 125 161 204 243 304 363
#
# _framework density 20.963079
#
# number of rings (size 3 to 8) (size 9 to 14) (size 15 to 20)
#    0.000    1.750    1.250    2.625    1.750    5.000 
#    2.250    1.250    0.000    0.000    0.000    0.000 
#    0.000    0.000    0.000    0.000    0.000    0.000 
#
# Total GULP energy -396837.762751 kJ/mol
# GULP energy per Si atom -12401.180086 kJ/mol
# Density = 2.091537 g / cm^3
# Si number density = 20.963079 Si / 1000 Ang^3
#
#
#
# Elastic Constant Matrix: (Units=GPa)
#
#
# Indices 1 2 3 4 5 6 
#
# 1 85.4069 18.9866 25.1241 0.0000 -18.2591 0.0000
# 2 18.9866 56.7520 24.2830 0.0000 3.5382 0.0000
# 3 25.1241 24.2830 118.5599 0.0000 -14.9734 0.0000
# 4 0.0000 0.0000 0.0000 19.5224 0.0000 6.7896
# 5 -18.2591 3.5382 -14.9734 0.0000 28.5104 0.0000
# 6 0.0000 0.0000 0.0000 6.7896 0.0000 29.0918
#
#
#
# Elastic Compliance Matrix: (Units=1/GPa)
#
#
# Indices 1 2 3 4 5 6 
#
# 1 0.015298 -0.005365 -0.000880 0.000000 0.010001 0.000000
# 2 -0.005365 0.021826 -0.004401 0.000000 -0.008456 0.000000
# 3 -0.000880 -0.004401 0.010197 0.000000 0.005338 0.000000
# 4 0.000000 0.000000 0.000000 0.055748 0.000000 -0.013011
# 5 0.010001 -0.008456 0.005338 0.000000 0.045333 0.000000
# 6 0.000000 0.000000 0.000000 -0.013011 0.000000 0.037410
#
#
# Mechanical properties :
#
#
# Convention : Reuss Voigt Hill
#
# Bulk Modulus (GPa) = 38.42003 44.16736 41.29370
# Shear Modulus (GPa) = 23.17160 28.24659 25.70909
#
# Velocity S-wave (km/s) = 3.32829 3.67474 3.50580
# Velocity P-wave (km/s) = 5.75650 6.25458 6.01070
#
# Compressibility (1/GPa) = 0.02602809
#
# Stress axis : x y z
#
# Youngs Moduli (GPa) = 65.36633 45.81713 98.07165
#
# Poissons Ratio (x) = 0.24582 0.08629
# Poissons Ratio (y) = 0.35070 0.43165
# Poissons Ratio (z) = 0.05752 0.20166
#
# Static dielectric constant tensor:
#      x y z
#    x 3.952310 0.000000 -0.221640 
#    y 0.000000 3.573320 0.000000 
#    z -0.221640 0.000000 3.837000 
# 
# 
# High freq. dielectric constant tensor:
#      x y z
#    x 1.834800 0.000000 -0.008450 
#    y 0.000000 1.793440 0.000000 
#    z -0.008450 0.000000 1.823120 
# 
# From -- ./inp_files/17030.got.cif
#   From: 2010.03.12/outbox.cif.g09.slc.cpg/sg14_9_cif.got.tgz:17030.got - 2010.03.31 13:35:05.
