data_PCOD8124000
_publ_section_title
;
Structure prediction by ZEFSAII (Michael W. Deem and Ramdas Pophale) SiO2 
 PCOD8124000
Probable space group: P 21/C
;
_chemical_formula_sum "Si O2"
_cell_formula_units_Z 32
_cell_length_a 20.138143
_cell_length_b 16.356215
_cell_length_c 11.571691
_cell_angle_alpha 90.000000
_cell_angle_beta 151.903588
_cell_angle_gamma 90.000000
_cell_volume 1795.064189
_symmetry_space_group_name_H-M "P 21/C"
_symmetry_group_IT_number 14
_symmetry_cell_setting 'monoclinic'
loop_
_space_group_symop_operation_xyz
x,y,z
-x,1/2+y,1/2-z
-x,-y,-z
x,1/2-y,1/2+z
loop_
_atom_site_type_symbol
_atom_site_label
_atom_site_fract_x
_atom_site_fract_y
_atom_site_fract_z
Si Si1 0.789709 0.321620 0.671741
Si Si2 0.379480 0.529422 0.658443
Si Si3 0.030546 0.925934 0.405759
Si Si4 0.033668 0.300069 0.864394
Si Si5 0.869048 0.154224 0.884921
Si Si6 0.170590 0.077117 0.714537
Si Si7 0.303611 0.999205 0.301616
Si Si8 0.937820 0.882785 0.028431
O O1 0.654164 0.373589 0.417265
O O2 0.770518 0.226817 0.679527
O O3 0.906670 0.326012 0.752522
O O4 0.839105 0.367460 0.863352
O O5 0.317189 0.470367 0.461662
O O6 0.310717 0.500263 0.673664
O O7 0.544609 0.514021 0.909589
O O8 0.889562 0.891305 0.253671
O O9 0.020347 0.932949 0.252878
O O10 0.052521 0.017735 0.480680
O O11 0.083326 0.207719 0.955015
O O12 0.979072 0.314434 0.650777
O O13 0.173326 0.350954 0.121610
O O14 0.970913 0.113573 0.946862
O O15 0.757643 0.088445 0.757050
O O16 0.212197 0.072771 0.215484
#
# Coordination Sequence:
#
# PCOD8124000 Si02
#       8
#     4   4   4   4   4   4   4   4
#     4   9  18  34  58  81 108 143 185 237 264 329
#     4  10  20  37  60  78 110 153 193 227 262 334
#     4   9  15  29  53  83  99 130 185 227 281 307
#     4  10  19  33  55  87 110 138 192 231 286 324
#     4  11  21  35  57  84 117 144 181 235 290 332
#     4   9  17  31  56  76 104 139 182 237 257 326
#     4  11  22  36  54  85 115 147 191 226 276 338
#     4  11  21  33  54  82 119 142 175 243 285 328
#
# _framework density 17.826661000000001
#
# number of rings (size 3 to 8) (size 9 to 14) (size 15 to 20)
#    0.000    2.000    3.750    1.875    0.000    0.000 
#    2.250    0.000    0.000    6.750    0.000    0.000 
#    0.000    0.000    0.000    0.000    0.000    0.000 
#
# Total GULP energy -396437.168467 kJ/mol
# GULP energy per Si atom -12388.661515 kJ/mol
# Density = 1.778609 g / cm^3
# Si number density = 17.826661 Si / 1000 Ang^3
#
#
#
# Elastic Constant Matrix: (Units=GPa)
#
#
# Indices 1 2 3 4 5 6 
#
# 1 61.6177 21.1498 29.7330 0.0000 -5.9270 0.0000
# 2 21.1498 96.9468 48.8545 0.0000 10.0536 0.0000
# 3 29.7330 48.8545 94.5030 0.0000 -2.6215 0.0000
# 4 0.0000 0.0000 0.0000 25.6498 0.0000 -6.6899
# 5 -5.9270 10.0536 -2.6215 0.0000 23.7951 0.0000
# 6 0.0000 0.0000 0.0000 -6.6899 0.0000 22.9982
#
#
#
# Elastic Compliance Matrix: (Units=1/GPa)
#
#
# Indices 1 2 3 4 5 6 
#
# 1 0.019943 -0.002480 -0.004841 0.000000 0.005482 0.000000
# 2 -0.002480 0.015413 -0.007408 0.000000 -0.007946 0.000000
# 3 -0.004841 -0.007408 0.016037 0.000000 0.003691 0.000000
# 4 0.000000 0.000000 0.000000 0.042187 0.000000 0.012272
# 5 0.005482 -0.007946 0.003691 0.000000 0.047155 0.000000
# 6 0.000000 0.000000 0.000000 0.012272 0.000000 0.047051
#
#
# Mechanical properties :
#
#
# Convention : Reuss Voigt Hill
#
# Bulk Modulus (GPa) = 45.58742 50.28246 47.93494
# Shear Modulus (GPa) = 22.26610 24.71063 23.48836
#
# Velocity S-wave (km/s) = 3.53800 3.72716 3.63381
# Velocity P-wave (km/s) = 6.50523 6.84031 6.67487
#
# Compressibility (1/GPa) = 0.02193588
#
# Stress axis : x y z
#
# Youngs Moduli (GPa) = 50.14173 64.87929 62.35665
#
# Poissons Ratio (x) = 0.16091 0.30184
# Poissons Ratio (y) = 0.12436 0.46195
# Poissons Ratio (z) = 0.24271 0.48064
#
# Static dielectric constant tensor:
#      x y z
#    x 3.208260 0.000000 -0.293130 
#    y 0.000000 3.489560 0.000000 
#    z -0.293130 0.000000 3.211740 
# 
# 
# High freq. dielectric constant tensor:
#      x y z
#    x 1.665180 0.000000 -0.029900 
#    y 0.000000 1.702020 0.000000 
#    z -0.029900 0.000000 1.672180 
# 
# From -- ./inp_files/35389.got.cif
#   From: 2010.03.12/outbox.cif.g09.slc.cpg/sg14_18_cif.got.tgz:35389.got - 2010.03.31 13:35:05.
