data_PCOD8124123
_publ_section_title
;
Structure prediction by ZEFSAII (Michael W. Deem and Ramdas Pophale) SiO2 
 PCOD8124123
Probable space group: P 21/C
;
_chemical_formula_sum "Si O2"
_cell_formula_units_Z 28
_cell_length_a 5.368639
_cell_length_b 8.712064
_cell_length_c 32.991484
_cell_angle_alpha 90.000000
_cell_angle_beta 122.234009
_cell_angle_gamma 90.000000
_cell_volume 1305.251443
_symmetry_space_group_name_H-M "P 21/C"
_symmetry_group_IT_number 14
_symmetry_cell_setting 'monoclinic'
loop_
_space_group_symop_operation_xyz
x,y,z
-x,1/2+y,1/2-z
-x,-y,-z
x,1/2-y,1/2+z
loop_
_atom_site_type_symbol
_atom_site_label
_atom_site_fract_x
_atom_site_fract_y
_atom_site_fract_z
Si Si1 0.504758 0.060901 0.172288
Si Si2 0.853958 0.797480 0.318077
Si Si3 0.205706 0.648821 0.186752
Si Si4 0.958183 0.643678 0.604217
Si Si5 0.757119 0.598390 0.502299
Si Si6 0.362962 0.846412 0.900857
Si Si7 0.153273 0.212024 0.771727
O O1 0.409371 0.171320 0.201402
O O2 0.523463 0.169701 0.134822
O O3 0.803049 0.965842 0.209661
O O4 0.266102 0.935182 0.139538
O O5 0.002946 0.780243 0.286216
O O6 0.073726 0.761268 0.374964
O O7 0.735142 0.968533 0.311703
O O8 0.521165 0.722294 0.206626
O O9 0.966513 0.701220 0.131721
O O10 0.058124 0.695985 0.216607
O O11 0.915593 0.688857 0.552935
O O12 0.703190 0.526625 0.596416
O O13 0.500000 0.500000 0.500000
O O14 0.600584 0.709856 0.455227
O O15 0.000000 0.500000 0.500000
#
# Coordination Sequence:
#
# PCOD8124123 Si02
#       7
#     4   4   4   4   4   4   4
#     4  10  20  39  61  87 120 161 206 257 301 364
#     4  11  26  37  61  90 128 163 208 258 315 374
#     4  11  25  42  62  93 124 165 206 264 312 375
#     4   9  19  38  62  90 121 158 206 256 308 369
#     4  10  19  34  63  94 117 156 209 256 306 365
#     4  10  20  37  61  90 124 159 206 259 303 369
#     4  11  25  42  63  85 124 168 213 250 311 373
#
# _framework density 21.451805
#
# number of rings (size 3 to 8) (size 9 to 14) (size 15 to 20)
#    0.000    1.714    2.857    0.857    6.000    0.000 
#    0.000    0.714    0.000    0.857    0.000    0.000 
#    0.000    0.000    0.000    0.000    0.000    0.000 
#
# Total GULP energy -346881.622847 kJ/mol
# GULP energy per Si atom -12388.629387 kJ/mol
# Density = 2.140298 g / cm^3
# Si number density = 21.451805 Si / 1000 Ang^3
#
#
#
# Elastic Constant Matrix: (Units=GPa)
#
#
# Indices 1 2 3 4 5 6 
#
# 1 92.5606 8.2920 18.9830 0.0000 -5.3122 0.0000
# 2 8.2920 68.4168 33.5503 0.0000 4.2517 0.0000
# 3 18.9830 33.5503 150.1376 0.0000 -9.4242 0.0000
# 4 0.0000 0.0000 0.0000 25.3378 0.0000 0.5311
# 5 -5.3122 4.2517 -9.4242 0.0000 25.8078 0.0000
# 6 0.0000 0.0000 0.0000 0.5311 0.0000 2.6697
#
#
#
# Elastic Compliance Matrix: (Units=1/GPa)
#
#
# Indices 1 2 3 4 5 6 
#
# 1 0.011230 -0.000963 -0.001074 0.000000 0.002078 0.000000
# 2 -0.000963 0.016941 -0.003942 0.000000 -0.004429 0.000000
# 3 -0.001074 -0.003942 0.007885 0.000000 0.003308 0.000000
# 4 0.000000 0.000000 0.000000 0.039632 0.000000 -0.007884
# 5 0.002078 -0.004429 0.003308 0.000000 0.041113 0.000000
# 6 0.000000 0.000000 0.000000 -0.007884 0.000000 0.376142
#
#
# Mechanical properties :
#
#
# Convention : Reuss Voigt Hill
#
# Bulk Modulus (GPa) = 41.49925 48.08506 44.79216
# Shear Modulus (GPa) = 9.74785 27.44906 18.59846
#
# Velocity S-wave (km/s) = 2.13400 3.58099 2.94766
# Velocity P-wave (km/s) = 5.04572 6.28983 5.70181
#
# Compressibility (1/GPa) = 0.02409682
#
# Stress axis : x y z
#
# Youngs Moduli (GPa) = 89.05052 59.02724 126.82525
#
# Poissons Ratio (x) = 0.05687 0.13623
# Poissons Ratio (y) = 0.08579 0.49994
# Poissons Ratio (z) = 0.09565 0.23268
#
# Static dielectric constant tensor:
#      x y z
#    x 3.817840 0.000000 -0.053620 
#    y 0.000000 3.854080 0.000000 
#    z -0.053620 0.000000 4.642780 
# 
# 
# High freq. dielectric constant tensor:
#      x y z
#    x 1.845690 0.000000 -0.002230 
#    y 0.000000 1.796350 0.000000 
#    z -0.002230 0.000000 1.861800 
# 
# From -- ./inp_files/75650.got.cif
#   From: 2010.03.12/outbox.cif.g09.slc.cpg/sg14_38_cif.got.tgz:75650.got - 2010.03.31 13:35:05.
