data_PCOD8124259
_publ_section_title
;
Structure prediction by ZEFSAII (Michael W. Deem and Ramdas Pophale) SiO2 
 PCOD8124259
Probable space group: P 21/C
;
_chemical_formula_sum "Si O2"
_cell_formula_units_Z 28
_cell_length_a 11.822168
_cell_length_b 17.835549
_cell_length_c 7.378710
_cell_angle_alpha 90.000000
_cell_angle_beta 112.131024
_cell_angle_gamma 90.000000
_cell_volume 1441.210219
_symmetry_space_group_name_H-M "P 21/C"
_symmetry_group_IT_number 14
_symmetry_cell_setting 'monoclinic'
loop_
_space_group_symop_operation_xyz
x,y,z
-x,1/2+y,1/2-z
-x,-y,-z
x,1/2-y,1/2+z
loop_
_atom_site_type_symbol
_atom_site_label
_atom_site_fract_x
_atom_site_fract_y
_atom_site_fract_z
Si Si1 0.143521 0.952278 0.263305
Si Si2 0.325595 0.323926 0.675037
Si Si3 0.122268 0.428793 0.450377
Si Si4 0.512406 0.060222 0.243804
Si Si5 0.252936 0.491307 0.197416
Si Si6 0.370971 0.344017 0.113884
Si Si7 0.606680 0.421010 0.201501
O O1 0.248921 0.902222 0.226401
O O2 0.017358 0.905701 0.179575
O O3 0.174588 0.971658 0.489540
O O4 0.127820 0.030480 0.147340
O O5 0.201128 0.352276 0.506287
O O6 0.442903 0.362932 0.645885
O O7 0.334713 0.235018 0.676942
O O8 0.327490 0.350975 0.882058
O O9 0.168565 0.485663 0.322558
O O10 0.568608 0.058411 0.476186
O O11 0.627457 0.042630 0.182006
O O12 0.410934 0.993936 0.180188
O O13 0.301548 0.408504 0.179299
O O14 0.518963 0.353809 0.218442
#
# Coordination Sequence:
#
# PCOD8124259 Si02
#       7
#     4   4   4   4   4   4   4
#     4  10  19  36  54  77 112 137 180 223 258 323
#     4  11  19  35  49  84 110 141 180 219 276 324
#     4  11  21  31  56  81 106 144 178 219 265 318
#     4   8  15  29  54  74 106 134 172 228 267 309
#     4  10  19  36  54  84 105 139 183 229 272 309
#     4  10  20  33  56  76 111 141 175 228 277 321
#     4   8  14  32  53  74 102 144 166 216 278 304
#
# _framework density 19.428115999999999
#
# number of rings (size 3 to 8) (size 9 to 14) (size 15 to 20)
#    0.000    2.286    2.857    3.000    0.000    0.571 
#    2.571    0.000    0.000   12.000    0.000    0.000 
#    0.000    0.000    0.000    0.000    0.000    0.000 
#
# Total GULP energy -346998.359813 kJ/mol
# GULP energy per Si atom -12392.798565 kJ/mol
# Density = 1.938390 g / cm^3
# Si number density = 19.428116 Si / 1000 Ang^3
#
#
#
# Elastic Constant Matrix: (Units=GPa)
#
#
# Indices 1 2 3 4 5 6 
#
# 1 101.0949 7.2988 16.8194 0.0000 28.1347 0.0000
# 2 7.2988 61.4890 0.9590 0.0000 17.2219 0.0000
# 3 16.8194 0.9590 37.4384 0.0000 11.0550 0.0000
# 4 0.0000 0.0000 0.0000 14.1985 0.0000 2.5816
# 5 28.1347 17.2219 11.0550 0.0000 32.4397 0.0000
# 6 0.0000 0.0000 0.0000 2.5816 0.0000 21.1814
#
#
#
# Elastic Compliance Matrix: (Units=1/GPa)
#
#
# Indices 1 2 3 4 5 6 
#
# 1 0.013459 0.001716 -0.002640 0.000000 -0.011684 0.000000
# 2 0.001716 0.019587 0.002488 0.000000 -0.012735 0.000000
# 3 -0.002640 0.002488 0.030629 0.000000 -0.009469 0.000000
# 4 0.000000 0.000000 0.000000 0.072026 0.000000 -0.008779
# 5 -0.011684 -0.012735 -0.009469 0.000000 0.050947 0.000000
# 6 0.000000 0.000000 0.000000 -0.008779 0.000000 0.048281
#
#
# Mechanical properties :
#
#
# Convention : Reuss Voigt Hill
#
# Bulk Modulus (GPa) = 14.96962 27.79743 21.38352
# Shear Modulus (GPa) = 19.67963 25.22694 22.45328
#
# Velocity S-wave (km/s) = 3.18613 3.60735 3.40326
# Velocity P-wave (km/s) = 4.61054 5.62934 5.14522
#
# Compressibility (1/GPa) = 0.06680196
#
# Stress axis : x y z
#
# Youngs Moduli (GPa) = 74.30149 51.05339 32.64884
#
# Poissons Ratio (x) = -0.08761 0.08620
# Poissons Ratio (y) = -0.12750 -0.08122
# Poissons Ratio (z) = 0.19617 -0.12701
#
# Static dielectric constant tensor:
#      x y z
#    x 3.847910 0.000000 0.099180 
#    y 0.000000 3.227860 0.000000 
#    z 0.099180 0.000000 3.571520 
# 
# 
# High freq. dielectric constant tensor:
#      x y z
#    x 1.759590 0.000000 -0.001500 
#    y 0.000000 1.704500 0.000000 
#    z -0.001500 0.000000 1.767010 
# 
# From -- ./inp_files/13599.got.cif
#   From: 2010.03.12/outbox.cif.g09.slc.cpg/sg14_7_cif.got.tgz:13599.got - 2010.03.31 13:35:05.
