data_PCOD8124494
_publ_section_title
;
Structure prediction by ZEFSAII (Michael W. Deem and Ramdas Pophale) SiO2 
 PCOD8124494
Probable space group: P 21/C
;
_chemical_formula_sum "Si O2"
_cell_formula_units_Z 28
_cell_length_a 11.122941
_cell_length_b 10.857856
_cell_length_c 19.343841
_cell_angle_alpha 90.000000
_cell_angle_beta 36.844754
_cell_angle_gamma 90.000000
_cell_volume 1400.888097
_symmetry_space_group_name_H-M "P 21/C"
_symmetry_group_IT_number 14
_symmetry_cell_setting 'monoclinic'
loop_
_space_group_symop_operation_xyz
x,y,z
-x,1/2+y,1/2-z
-x,-y,-z
x,1/2-y,1/2+z
loop_
_atom_site_type_symbol
_atom_site_label
_atom_site_fract_x
_atom_site_fract_y
_atom_site_fract_z
Si Si1 0.234023 0.929016 0.178792
Si Si2 0.508281 0.221294 0.683376
Si Si3 0.505986 0.527820 0.110754
Si Si4 0.227436 0.062506 0.635263
Si Si5 0.815158 0.372487 0.140962
Si Si6 0.244889 0.137691 0.398940
Si Si7 0.453411 0.183153 0.065505
O O1 0.250659 0.880881 0.249241
O O2 0.008906 0.921898 0.253679
O O3 0.300648 0.069703 0.139185
O O4 0.372533 0.838824 0.070187
O O5 0.471985 0.082596 0.678923
O O6 0.685580 0.228266 0.658334
O O7 0.300407 0.267650 0.813023
O O8 0.557463 0.302880 0.592936
O O9 0.302186 0.537253 0.159142
O O10 0.570503 0.641155 0.130185
O O11 0.697719 0.505852 0.971816
O O12 0.333001 0.194005 0.600532
O O13 0.788794 0.504275 0.118053
O O14 0.042610 0.323000 0.031265
#
# Coordination Sequence:
#
# PCOD8124494 Si02
#       7
#     4   4   4   4   4   4   4
#     4  11  22  41  62  92 128 165 211 263 311 381
#     4  10  21  37  61  87 122 159 201 259 307 370
#     4   9  20  36  58  90 115 158 207 255 303 375
#     4  10  21  39  63  90 123 162 211 258 313 375
#     4  10  21  35  65  88 112 166 207 251 303 381
#     4  10  19  38  59  86 120 153 211 253 307 364
#     4  10  24  40  60  92 130 165 206 261 325 366
#
# _framework density 19.98732
#
# number of rings (size 3 to 8) (size 9 to 14) (size 15 to 20)
#    0.000    2.000    2.857    0.000    2.000    5.714 
#    0.000    0.000    0.000    2.571    0.000    0.000 
#    0.000    0.000    0.000    0.000    0.000    0.000 
#
# Total GULP energy -346969.745040 kJ/mol
# GULP energy per Si atom -12391.776609 kJ/mol
# Density = 1.994183 g / cm^3
# Si number density = 19.987320 Si / 1000 Ang^3
#
#
#
# Elastic Constant Matrix: (Units=GPa)
#
#
# Indices 1 2 3 4 5 6 
#
# 1 117.1597 18.0513 60.5802 0.0000 -1.6772 0.0000
# 2 18.0513 42.4671 34.3980 0.0000 -6.0044 0.0000
# 3 60.5802 34.3980 130.0424 0.0000 5.2453 0.0000
# 4 0.0000 0.0000 0.0000 27.3401 0.0000 2.9834
# 5 -1.6772 -6.0044 5.2453 0.0000 36.8372 0.0000
# 6 0.0000 0.0000 0.0000 2.9834 0.0000 27.6148
#
#
#
# Elastic Compliance Matrix: (Units=1/GPa)
#
#
# Indices 1 2 3 4 5 6 
#
# 1 0.011308 -0.000424 -0.005204 0.000000 0.001187 0.000000
# 2 -0.000424 0.031387 -0.008358 0.000000 0.006287 0.000000
# 3 -0.005204 -0.008358 0.012461 0.000000 -0.003374 0.000000
# 4 0.000000 0.000000 0.000000 0.037013 0.000000 -0.003999
# 5 0.001187 0.006287 -0.003374 0.000000 0.028706 0.000000
# 6 0.000000 0.000000 0.000000 -0.003999 0.000000 0.036644
#
#
# Mechanical properties :
#
#
# Convention : Reuss Voigt Hill
#
# Bulk Modulus (GPa) = 36.78621 57.30314 47.04468
# Shear Modulus (GPa) = 25.70000 30.13441 27.91721
#
# Velocity S-wave (km/s) = 3.58972 3.88709 3.74136
# Velocity P-wave (km/s) = 5.96877 6.99128 6.50016
#
# Compressibility (1/GPa) = 0.02718410
#
# Stress axis : x y z
#
# Youngs Moduli (GPa) = 88.42995 31.86037 80.25094
#
# Poissons Ratio (x) = 0.01351 0.41760
# Poissons Ratio (y) = 0.03750 0.67076
# Poissons Ratio (z) = 0.46016 0.26630
#
# Static dielectric constant tensor:
#      x y z
#    x 4.112140 0.000000 0.102140 
#    y 0.000000 3.466880 0.000000 
#    z 0.102140 0.000000 3.611150 
# 
# 
# High freq. dielectric constant tensor:
#      x y z
#    x 1.797430 0.000000 0.013900 
#    y 0.000000 1.758540 0.000000 
#    z 0.013900 0.000000 1.775200 
# 
# From -- ./inp_files/67325.got.cif
#   From: 2010.03.12/outbox.cif.g09.slc.cpg/sg14_34_cif.got.tgz:67325.got - 2010.03.31 13:35:05.
