data_PCOD8124601
_publ_section_title
;
Structure prediction by ZEFSAII (Michael W. Deem and Ramdas Pophale) SiO2 
 PCOD8124601
Probable space group: P 21/C
;
_chemical_formula_sum "Si O2"
_cell_formula_units_Z 24
_cell_length_a 9.854716
_cell_length_b 12.742192
_cell_length_c 18.957126
_cell_angle_alpha 90.000000
_cell_angle_beta 151.302982
_cell_angle_gamma 90.000000
_cell_volume 1143.043801
_symmetry_space_group_name_H-M "P 21/C"
_symmetry_group_IT_number 14
_symmetry_cell_setting 'monoclinic'
loop_
_space_group_symop_operation_xyz
x,y,z
-x,1/2+y,1/2-z
-x,-y,-z
x,1/2-y,1/2+z
loop_
_atom_site_type_symbol
_atom_site_label
_atom_site_fract_x
_atom_site_fract_y
_atom_site_fract_z
Si Si1 0.067200 0.979955 0.749688
Si Si2 0.910388 0.247546 0.088345
Si Si3 0.351099 0.378084 0.484086
Si Si4 0.348039 0.313547 0.901373
Si Si5 0.138537 0.060652 0.626966
Si Si6 0.758090 0.031798 0.942984
O O1 0.766682 0.929936 0.634937
O O2 0.128883 0.082150 0.823943
O O3 0.060472 0.004329 0.664369
O O4 0.322025 0.900634 0.886795
O O5 0.173467 0.240004 0.259660
O O6 0.017317 0.320446 0.072133
O O7 0.666725 0.312249 0.018146
O O8 0.826178 0.132234 0.022491
O O9 0.321470 0.252197 0.463160
O O10 0.280806 0.427367 0.527473
O O11 0.476698 0.058407 0.770835
O O12 0.000000 0.000000 0.500000
O O13 0.000000 0.000000 0.000000
#
# Coordination Sequence:
#
# PCOD8124601 Si02
#       6
#     4   4   4   4   4   4
#     4  10  20  39  64  92 125 165 209 263 317 371
#     4  12  23  42  67  96 129 169 212 269 329 387
#     4  10  19  39  64  92 124 163 213 260 314 379
#     4  12  21  39  69  99 126 167 216 268 325 377
#     4  11  26  44  64  96 134 170 219 267 314 392
#     4  11  25  44  67  92 131 179 212 261 331 387
#
# _framework density 20.996570999999999
#
# number of rings (size 3 to 8) (size 9 to 14) (size 15 to 20)
#    0.000    1.000    6.667    1.000    2.333    2.000 
#    3.000    3.333    0.000    0.000    0.000    0.000 
#    0.000    0.000    0.000    0.000    0.000    0.000 
#
# Total GULP energy -297495.246482 kJ/mol
# GULP energy per Si atom -12395.635270 kJ/mol
# Density = 2.094878 g / cm^3
# Si number density = 20.996571 Si / 1000 Ang^3
#
#
#
# Elastic Constant Matrix: (Units=GPa)
#
#
# Indices 1 2 3 4 5 6 
#
# 1 90.5918 14.1680 26.9493 0.0000 17.3130 0.0000
# 2 14.1680 50.5419 17.2433 0.0000 6.9206 0.0000
# 3 26.9493 17.2433 83.2272 0.0000 0.6635 0.0000
# 4 0.0000 0.0000 0.0000 27.3428 0.0000 2.5631
# 5 17.3130 6.9206 0.6635 0.0000 33.5946 0.0000
# 6 0.0000 0.0000 0.0000 2.5631 0.0000 40.3136
#
#
#
# Elastic Compliance Matrix: (Units=1/GPa)
#
#
# Indices 1 2 3 4 5 6 
#
# 1 0.013777 -0.001550 -0.004086 0.000000 -0.006700 0.000000
# 2 -0.001550 0.022105 -0.004048 0.000000 -0.003675 0.000000
# 3 -0.004086 -0.004048 0.014156 0.000000 0.002660 0.000000
# 4 0.000000 0.000000 0.000000 0.036792 0.000000 -0.002339
# 5 -0.006700 -0.003675 0.002660 0.000000 0.033924 0.000000
# 6 0.000000 0.000000 0.000000 -0.002339 0.000000 0.024954
#
#
# Mechanical properties :
#
#
# Convention : Reuss Voigt Hill
#
# Bulk Modulus (GPa) = 32.60815 37.89801 35.25308
# Shear Modulus (GPa) = 28.52243 31.31689 29.91966
#
# Velocity S-wave (km/s) = 3.68969 3.86622 3.77898
# Velocity P-wave (km/s) = 5.80652 6.16595 5.98893
#
# Compressibility (1/GPa) = 0.03066718
#
# Stress axis : x y z
#
# Youngs Moduli (GPa) = 72.58448 45.23956 70.64116
#
# Poissons Ratio (x) = 0.07014 0.28867
# Poissons Ratio (y) = 0.11254 0.28598
# Poissons Ratio (z) = 0.29661 0.18315
#
# Static dielectric constant tensor:
#      x y z
#    x 3.583570 0.000000 0.132500 
#    y 0.000000 3.846430 0.000000 
#    z 0.132500 0.000000 3.970510 
# 
# 
# High freq. dielectric constant tensor:
#      x y z
#    x 1.801950 0.000000 0.008170 
#    y 0.000000 1.823100 0.000000 
#    z 0.008170 0.000000 1.837250 
# 
# From -- ./inp_files/16340.got.cif
#   From: 2010.03.12/outbox.cif.g09.slc.cpg/sg14_9_cif.got.tgz:16340.got - 2010.03.31 13:35:05.
