data_PCOD8124273
_publ_section_title
;
Structure prediction by ZEFSAII (Michael W. Deem and Ramdas Pophale) SiO2 
 PCOD8124273
Probable space group: P 21/C
;
_chemical_formula_sum "Si O2"
_cell_formula_units_Z 32
_cell_length_a 6.457482
_cell_length_b 15.394536
_cell_length_c 22.346583
_cell_angle_alpha 90.000000
_cell_angle_beta 44.953080
_cell_angle_gamma 90.000000
_cell_volume 1569.531355
_symmetry_space_group_name_H-M "P 21/C"
_symmetry_group_IT_number 14
_symmetry_cell_setting 'monoclinic'
loop_
_space_group_symop_operation_xyz
x,y,z
-x,1/2+y,1/2-z
-x,-y,-z
x,1/2-y,1/2+z
loop_
_atom_site_type_symbol
_atom_site_label
_atom_site_fract_x
_atom_site_fract_y
_atom_site_fract_z
Si Si1 0.707404 0.695301 0.152350
Si Si2 0.508807 0.880517 0.176822
Si Si3 0.820808 0.064096 0.646832
Si Si4 0.755379 0.817130 0.502953
Si Si5 0.451188 0.129796 0.965507
Si Si6 0.169550 0.911682 0.618650
Si Si7 0.942897 0.014539 0.908602
Si Si8 0.725215 0.044680 0.270531
O O1 0.622677 0.793282 0.185575
O O2 0.430111 0.632790 0.220571
O O3 0.968851 0.671750 0.144412
O O4 0.810766 0.689585 0.062289
O O5 0.237856 0.913885 0.271562
O O6 0.760373 0.953047 0.122197
O O7 0.411335 0.862992 0.129071
O O8 0.943049 0.148313 0.587518
O O9 0.520749 0.031836 0.676524
O O10 0.065937 0.988371 0.595428
O O11 0.665432 0.724879 0.491996
O O12 0.505338 0.887240 0.538479
O O13 0.179209 0.063354 0.025567
O O14 0.709989 0.094231 0.955055
O O15 0.124721 0.940288 0.696320
O O16 0.010204 0.979653 0.827982
#
# Coordination Sequence:
#
# PCOD8124273 Si02
#       8
#     4   4   4   4   4   4   4   4
#     4   9  20  35  56  79 110 144 179 221 270 320
#     4  10  20  37  57  79 110 144 180 222 273 318
#     4  10  21  34  55  81 108 144 182 221 268 324
#     4  10  21  35  53  82 111 140 182 224 266 319
#     4  10  21  36  57  80 108 145 179 226 271 318
#     4  10  19  36  57  78 111 146 178 216 275 319
#     4  10  20  36  58  80 111 140 185 223 266 323
#     4   9  20  35  55  83 110 142 179 224 264 318
#
# _framework density 20.388252000000001
#
# number of rings (size 3 to 8) (size 9 to 14) (size 15 to 20)
#    0.000    2.250    0.000    2.250    1.750    5.500 
#    0.000    0.000    2.750    0.000    0.000    0.000 
#    0.000    0.000    0.000    0.000    0.000    0.000 
#
# Total GULP energy -396818.579520 kJ/mol
# GULP energy per Si atom -12400.580610 kJ/mol
# Density = 2.034185 g / cm^3
# Si number density = 20.388252 Si / 1000 Ang^3
#
#
#
# Elastic Constant Matrix: (Units=GPa)
#
#
# Indices 1 2 3 4 5 6 
#
# 1 60.8600 10.0172 16.8351 0.0000 4.3558 0.0000
# 2 10.0172 97.4997 46.0263 0.0000 -0.1687 0.0000
# 3 16.8351 46.0263 73.4019 0.0000 -9.1817 0.0000
# 4 0.0000 0.0000 0.0000 27.5776 0.0000 3.8788
# 5 4.3558 -0.1687 -9.1817 0.0000 17.5097 0.0000
# 6 0.0000 0.0000 0.0000 3.8788 0.0000 25.0900
#
#
#
# Elastic Compliance Matrix: (Units=1/GPa)
#
#
# Indices 1 2 3 4 5 6 
#
# 1 0.018405 0.000757 -0.005638 0.000000 -0.007528 0.000000
# 2 0.000757 0.015017 -0.010269 0.000000 -0.005429 0.000000
# 3 -0.005638 -0.010269 0.023030 0.000000 0.013380 0.000000
# 4 0.000000 0.000000 0.000000 0.037067 0.000000 -0.005730
# 5 -0.007528 -0.005429 0.013380 0.000000 0.065947 0.000000
# 6 0.000000 0.000000 0.000000 -0.005730 0.000000 0.040742
#
#
# Mechanical properties :
#
#
# Convention : Reuss Voigt Hill
#
# Bulk Modulus (GPa) = 38.23745 41.94654 40.09199
# Shear Modulus (GPa) = 20.90086 24.62766 22.76426
#
# Velocity S-wave (km/s) = 3.20526 3.47931 3.34509
# Velocity P-wave (km/s) = 5.70032 6.06294 5.88442
#
# Compressibility (1/GPa) = 0.02615237
#
# Stress axis : x y z
#
# Youngs Moduli (GPa) = 54.33376 66.59160 43.42252
#
# Poissons Ratio (x) = -0.05044 0.24481
# Poissons Ratio (y) = -0.04116 0.44591
# Poissons Ratio (z) = 0.30632 0.68383
#
# Static dielectric constant tensor:
#      x y z
#    x 3.454930 0.000000 -0.041360 
#    y 0.000000 3.830220 0.000000 
#    z -0.041360 0.000000 3.534360 
# 
# 
# High freq. dielectric constant tensor:
#      x y z
#    x 1.784550 0.000000 -0.004120 
#    y 0.000000 1.805040 0.000000 
#    z -0.004120 0.000000 1.783990 
# 
# From -- ./inp_files/61457.got.cif
#   From: 2010.03.12/outbox.cif.g09.slc.cpg/sg14_31_cif.got.tgz:61457.got - 2010.03.31 13:35:05.
