data_PCOD8124912
_publ_section_title
;
Structure prediction by ZEFSAII (Michael W. Deem and Ramdas Pophale) SiO2 
 PCOD8124912
Probable space group: P 21/C
;
_chemical_formula_sum "Si O2"
_cell_formula_units_Z 24
_cell_length_a 11.278249
_cell_length_b 14.010453
_cell_length_c 18.736846
_cell_angle_alpha 90.000000
_cell_angle_beta 22.637756
_cell_angle_gamma 90.000000
_cell_volume 1139.573446
_symmetry_space_group_name_H-M "P 21/C"
_symmetry_group_IT_number 14
_symmetry_cell_setting 'monoclinic'
loop_
_space_group_symop_operation_xyz
x,y,z
-x,1/2+y,1/2-z
-x,-y,-z
x,1/2-y,1/2+z
loop_
_atom_site_type_symbol
_atom_site_label
_atom_site_fract_x
_atom_site_fract_y
_atom_site_fract_z
Si Si1 0.566135 0.807843 0.186852
Si Si2 0.453278 0.053242 0.927369
Si Si3 0.596949 0.186305 0.561097
Si Si4 0.215559 0.628152 0.362116
Si Si5 0.292203 0.365848 0.661944
Si Si6 0.901346 0.958252 0.167326
O O1 0.442562 0.887431 0.200035
O O2 0.410874 0.828010 0.349327
O O3 0.501811 0.699672 0.198171
O O4 0.931242 0.814023 0.987007
O O5 0.697340 0.967776 0.803306
O O6 0.449586 0.123853 0.997009
O O7 0.105980 0.008950 0.114059
O O8 0.492757 0.291592 0.596246
O O9 0.358557 0.111828 0.655945
O O10 0.943341 0.168147 0.343923
O O11 0.285034 0.534163 0.277705
O O12 0.142313 0.600402 0.484347
#
# Coordination Sequence:
#
# PCOD8124912 Si02
#       6
#     4   4   4   4   4   4
#     4  10  20  35  60  87 114 153 195 236 282 339
#     4  10  23  41  58  84 120 154 192 239 289 346
#     4  11  22  38  63  87 113 153 194 238 288 342
#     4   9  18  33  56  87 118 146 188 245 286 328
#     4  11  24  40  59  86 122 155 188 238 294 344
#     4   9  19  37  58  82 115 152 191 236 287 339
#
# _framework density 21.060513
#
# number of rings (size 3 to 8) (size 9 to 14) (size 15 to 20)
#    0.000    2.000    0.000    5.000    0.000    5.333 
#    0.000    1.667    0.000    0.000    0.000    0.000 
#    0.000    0.000    0.000    0.000    0.000    0.000 
#
# Total GULP energy -297612.563587 kJ/mol
# GULP energy per Si atom -12400.523483 kJ/mol
# Density = 2.101258 g / cm^3
# Si number density = 21.060513 Si / 1000 Ang^3
#
#
#
# Elastic Constant Matrix: (Units=GPa)
#
#
# Indices 1 2 3 4 5 6 
#
# 1 90.9054 45.4251 18.6151 0.0000 3.7866 0.0000
# 2 45.4251 123.5044 42.5045 0.0000 6.4793 0.0000
# 3 18.6151 42.5045 53.4551 0.0000 1.1827 0.0000
# 4 0.0000 0.0000 0.0000 39.7522 0.0000 -9.5356
# 5 3.7866 6.4793 1.1827 0.0000 15.1360 0.0000
# 6 0.0000 0.0000 0.0000 -9.5356 0.0000 38.7032
#
#
#
# Elastic Compliance Matrix: (Units=1/GPa)
#
#
# Indices 1 2 3 4 5 6 
#
# 1 0.013546 -0.004540 -0.001077 0.000000 -0.001361 0.000000
# 2 -0.004540 0.012927 -0.008616 0.000000 -0.003725 0.000000
# 3 -0.001077 -0.008616 0.025890 0.000000 0.001934 0.000000
# 4 0.000000 0.000000 0.000000 0.026736 0.000000 0.006587
# 5 -0.001361 -0.003725 0.001934 0.000000 0.067851 0.000000
# 6 0.000000 0.000000 0.000000 0.006587 0.000000 0.027461
#
#
# Mechanical properties :
#
#
# Convention : Reuss Voigt Hill
#
# Bulk Modulus (GPa) = 41.84437 53.43935 47.64186
# Shear Modulus (GPa) = 23.71426 29.47298 26.59362
#
# Velocity S-wave (km/s) = 3.35924 3.74497 3.55734
# Velocity P-wave (km/s) = 5.91251 6.64297 6.28835
#
# Compressibility (1/GPa) = 0.02389808
#
# Stress axis : x y z
#
# Youngs Moduli (GPa) = 73.81988 77.35586 38.62474
#
# Poissons Ratio (x) = 0.35122 0.04160
# Poissons Ratio (y) = 0.33517 0.33277
# Poissons Ratio (z) = 0.07951 0.66646
#
# Static dielectric constant tensor:
#      x y z
#    x 3.855860 0.000000 -0.188560 
#    y 0.000000 4.027210 0.000000 
#    z -0.188560 0.000000 3.393880 
# 
# 
# High freq. dielectric constant tensor:
#      x y z
#    x 1.825150 0.000000 -0.018020 
#    y 0.000000 1.842010 0.000000 
#    z -0.018020 0.000000 1.787820 
# 
# From -- ./inp_files/17949.got.cif
#   From: 2010.03.12/outbox.cif.g09.slc.cpg/sg14_9_cif.got.tgz:17949.got - 2010.03.31 13:35:05.
