data_PCOD8124339
_publ_section_title
;
Structure prediction by ZEFSAII (Michael W. Deem and Ramdas Pophale) SiO2 
 PCOD8124339
Probable space group: P 21/C
;
_chemical_formula_sum "Si O2"
_cell_formula_units_Z 28
_cell_length_a 10.393142
_cell_length_b 8.787496
_cell_length_c 15.022439
_cell_angle_alpha 90.000000
_cell_angle_beta 106.010362
_cell_angle_gamma 90.000000
_cell_volume 1318.777589
_symmetry_space_group_name_H-M "P 21/C"
_symmetry_group_IT_number 14
_symmetry_cell_setting 'monoclinic'
loop_
_space_group_symop_operation_xyz
x,y,z
-x,1/2+y,1/2-z
-x,-y,-z
x,1/2-y,1/2+z
loop_
_atom_site_type_symbol
_atom_site_label
_atom_site_fract_x
_atom_site_fract_y
_atom_site_fract_z
Si Si1 0.677782 0.207146 0.129147
Si Si2 0.536853 0.012281 0.860192
Si Si3 0.765123 0.674242 0.475605
Si Si4 0.468386 0.210774 0.458748
Si Si5 0.640365 0.503500 0.196554
Si Si6 0.134857 0.205498 0.196442
Si Si7 0.093618 0.040506 0.834121
O O1 0.547615 0.142726 0.154366
O O2 0.732397 0.359028 0.187841
O O3 0.790025 0.082365 0.149263
O O4 0.618882 0.268841 0.024288
O O5 0.683508 0.979268 0.932131
O O6 0.450401 0.140487 0.892981
O O7 0.552471 0.057639 0.761137
O O8 0.656127 0.790904 0.495758
O O9 0.839525 0.747288 0.402949
O O10 0.880063 0.638218 0.571166
O O11 0.461208 0.053015 0.402135
O O12 0.725594 0.652807 0.234422
O O13 0.085180 0.351085 0.244536
O O14 0.040202 0.057829 0.183689
#
# Coordination Sequence:
#
# PCOD8124339 Si02
#       7
#     4   4   4   4   4   4   4
#     4  11  21  35  62  89 123 168 194 254 316 359
#     4  10  19  36  61  91 119 167 206 242 313 367
#     4  10  20  40  67  88 121 162 208 247 315 366
#     4  11  19  39  62  90 127 162 202 257 309 365
#     4  11  22  36  58  94 129 157 210 255 302 366
#     4  11  25  40  68  90 116 171 206 256 310 364
#     4  12  22  45  64  88 129 157 215 257 302 377
#
# _framework density 21.231784000000001
#
# number of rings (size 3 to 8) (size 9 to 14) (size 15 to 20)
#    0.000    1.143    4.286    3.429    0.000    2.286 
#    0.000    2.143    3.143    0.000    0.000    0.000 
#    0.000    0.000    0.000    0.000    0.000    0.000 
#
# Total GULP energy -346948.601668 kJ/mol
# GULP energy per Si atom -12391.021488 kJ/mol
# Density = 2.118346 g / cm^3
# Si number density = 21.231784 Si / 1000 Ang^3
#
#
#
# Elastic Constant Matrix: (Units=GPa)
#
#
# Indices 1 2 3 4 5 6 
#
# 1 66.0428 10.7049 36.6641 0.0000 -15.2510 0.0000
# 2 10.7049 71.7654 31.7471 0.0000 -14.6394 0.0000
# 3 36.6641 31.7471 113.3938 0.0000 -26.2659 0.0000
# 4 0.0000 0.0000 0.0000 20.4752 0.0000 9.8740
# 5 -15.2510 -14.6394 -26.2659 0.0000 31.8773 0.0000
# 6 0.0000 0.0000 0.0000 9.8740 0.0000 18.3063
#
#
#
# Elastic Compliance Matrix: (Units=1/GPa)
#
#
# Indices 1 2 3 4 5 6 
#
# 1 0.019091 0.000461 -0.005113 0.000000 0.005132 0.000000
# 2 0.000461 0.016453 -0.003651 0.000000 0.004768 0.000000
# 3 -0.005113 -0.003651 0.013025 0.000000 0.006609 0.000000
# 4 0.000000 0.000000 0.000000 0.066009 0.000000 -0.035604
# 5 0.005132 0.004768 0.006609 0.000000 0.041461 0.000000
# 6 0.000000 0.000000 0.000000 -0.035604 0.000000 0.073830
#
#
# Mechanical properties :
#
#
# Convention : Reuss Voigt Hill
#
# Bulk Modulus (GPa) = 31.28578 45.49271 38.38924
# Shear Modulus (GPa) = 19.44542 25.60414 22.52478
#
# Velocity S-wave (km/s) = 3.02961 3.47642 3.26068
# Velocity P-wave (km/s) = 5.19667 6.13084 5.68298
#
# Compressibility (1/GPa) = 0.03196340
#
# Stress axis : x y z
#
# Youngs Moduli (GPa) = 52.38171 60.77792 76.77449
#
# Poissons Ratio (x) = -0.02803 0.39254
# Poissons Ratio (y) = -0.02415 0.28031
# Poissons Ratio (z) = 0.26782 0.22190
#
# Static dielectric constant tensor:
#      x y z
#    x 3.761240 0.000000 0.041930 
#    y 0.000000 3.758360 0.000000 
#    z 0.041930 0.000000 4.156330 
# 
# 
# High freq. dielectric constant tensor:
#      x y z
#    x 1.811020 0.000000 -0.002000 
#    y 0.000000 1.826760 0.000000 
#    z -0.002000 0.000000 1.842450 
# 
# From -- ./inp_files/43172.got.cif
#   From: 2010.03.12/outbox.cif.g09.slc.cpg/sg14_22_cif.got.tgz:43172.got - 2010.03.31 13:35:05.
