data_PCOD8124150
_publ_section_title
;
Structure prediction by ZEFSAII (Michael W. Deem and Ramdas Pophale) SiO2 
 PCOD8124150
Probable space group: P 21/C
;
_chemical_formula_sum "Si O2"
_cell_formula_units_Z 24
_cell_length_a 9.080216
_cell_length_b 16.403199
_cell_length_c 15.777543
_cell_angle_alpha 90.000000
_cell_angle_beta 147.901825
_cell_angle_gamma 90.000000
_cell_volume 1248.712451
_symmetry_space_group_name_H-M "P 21/C"
_symmetry_group_IT_number 14
_symmetry_cell_setting 'monoclinic'
loop_
_space_group_symop_operation_xyz
x,y,z
-x,1/2+y,1/2-z
-x,-y,-z
x,1/2-y,1/2+z
loop_
_atom_site_type_symbol
_atom_site_label
_atom_site_fract_x
_atom_site_fract_y
_atom_site_fract_z
Si Si1 0.756354 0.091053 0.317741
Si Si2 0.706136 0.178649 0.823750
Si Si3 0.244766 0.093400 0.682844
Si Si4 0.306828 0.766182 0.843884
Si Si5 0.203702 0.236322 0.796774
Si Si6 0.319459 0.324790 0.695399
O O1 0.757640 0.150041 0.237229
O O2 0.472292 0.093828 0.236286
O O3 0.010616 0.117342 0.501141
O O4 0.789905 0.998756 0.300928
O O5 0.543098 0.100326 0.780487
O O6 0.724437 0.185489 0.730496
O O7 0.520513 0.255595 0.757856
O O8 0.011665 0.182309 0.009886
O O9 0.219124 0.153251 0.750265
O O10 0.108335 0.755299 0.827623
O O11 0.616582 0.771887 0.030899
O O12 0.304797 0.313854 0.789752
#
# Coordination Sequence:
#
# PCOD8124150 Si02
#       6
#     4   4   4   4   4   4
#     4  10  21  38  56  75 106 146 182 216 261 318
#     4  10  19  35  56  78 105 141 183 216 255 318
#     4  10  21  38  56  75 106 146 182 216 261 318
#     4  11  20  33  55  81 107 134 172 223 270 313
#     4  11  20  33  55  81 107 134 172 223 270 313
#     4  10  19  35  56  78 105 141 183 216 255 318
#
# _framework density 19.219795999999999
#
# number of rings (size 3 to 8) (size 9 to 14) (size 15 to 20)
#    0.000    1.667    0.000   10.000    0.000    1.333 
#    0.000    1.667    0.000    6.000    0.000    0.000 
#    0.000    0.000    0.000    0.000    0.000    0.000 
#
# Total GULP energy -297472.103306 kJ/mol
# GULP energy per Si atom -12394.670971 kJ/mol
# Density = 1.917605 g / cm^3
# Si number density = 19.219796 Si / 1000 Ang^3
#
#
#
# Elastic Constant Matrix: (Units=GPa)
#
#
# Indices 1 2 3 4 5 6 
#
# 1 103.9629 26.1151 18.8610 0.0000 5.2271 0.0000
# 2 26.1151 66.8107 26.1779 0.0000 -5.9476 0.0000
# 3 18.8610 26.1779 128.8580 0.0000 6.9102 0.0000
# 4 0.0000 0.0000 0.0000 11.6638 0.0000 -0.9392
# 5 5.2271 -5.9476 6.9102 0.0000 41.5108 0.0000
# 6 0.0000 0.0000 0.0000 -0.9392 0.0000 26.0729
#
#
#
# Elastic Compliance Matrix: (Units=1/GPa)
#
#
# Indices 1 2 3 4 5 6 
#
# 1 0.010875 -0.004163 -0.000646 0.000000 -0.001858 0.000000
# 2 -0.004163 0.018211 -0.003288 0.000000 0.003681 0.000000
# 3 -0.000646 -0.003288 0.008621 0.000000 -0.001825 0.000000
# 4 0.000000 0.000000 0.000000 0.085985 0.000000 0.003097
# 5 -0.001858 0.003681 -0.001825 0.000000 0.025155 0.000000
# 6 0.000000 0.000000 0.000000 0.003097 0.000000 0.038466
#
#
# Mechanical properties :
#
#
# Convention : Reuss Voigt Hill
#
# Bulk Modulus (GPa) = 46.48430 49.10441 47.79436
# Shear Modulus (GPa) = 23.73293 31.08134 27.40714
#
# Velocity S-wave (km/s) = 3.51781 4.02575 3.78032
# Velocity P-wave (km/s) = 6.38264 6.87118 6.63141
#
# Compressibility (1/GPa) = 0.02151264
#
# Stress axis : x y z
#
# Youngs Moduli (GPa) = 91.95165 54.91259 115.99806
#
# Poissons Ratio (x) = 0.22861 0.07498
# Poissons Ratio (y) = 0.38280 0.38135
# Poissons Ratio (z) = 0.05944 0.18053
#
# Static dielectric constant tensor:
#      x y z
#    x 3.968360 0.000000 0.226460 
#    y 0.000000 3.538100 0.000000 
#    z 0.226460 0.000000 3.606250 
# 
# 
# High freq. dielectric constant tensor:
#      x y z
#    x 1.755610 0.000000 0.009540 
#    y 0.000000 1.718560 0.000000 
#    z 0.009540 0.000000 1.763380 
# 
# From -- ./inp_files/9067.got.cif
#   From: 2010.03.12/outbox.cif.g09.slc.cpg/sg14_5_cif.got.tgz:9067.got - 2010.03.31 13:35:05.
