data_PCOD8124616
_publ_section_title
;
Structure prediction by ZEFSAII (Michael W. Deem and Ramdas Pophale) SiO2 
 PCOD8124616
Probable space group: P 21/C
;
_chemical_formula_sum "Si O2"
_cell_formula_units_Z 24
_cell_length_a 14.619520
_cell_length_b 13.419144
_cell_length_c 9.797138
_cell_angle_alpha 90.000000
_cell_angle_beta 33.551170
_cell_angle_gamma 90.000000
_cell_volume 1062.263054
_symmetry_space_group_name_H-M "P 21/C"
_symmetry_group_IT_number 14
_symmetry_cell_setting 'monoclinic'
loop_
_space_group_symop_operation_xyz
x,y,z
-x,1/2+y,1/2-z
-x,-y,-z
x,1/2-y,1/2+z
loop_
_atom_site_type_symbol
_atom_site_label
_atom_site_fract_x
_atom_site_fract_y
_atom_site_fract_z
Si Si1 0.968061 0.387164 0.500824
Si Si2 0.429546 0.633844 0.376370
Si Si3 0.176175 0.041953 0.240478
Si Si4 0.033264 0.861549 0.706411
Si Si5 0.220384 0.068918 0.479189
Si Si6 0.690974 0.276059 0.744890
O O1 0.011562 0.324313 0.584303
O O2 0.000000 0.500000 0.500000
O O3 0.771033 0.375267 0.712984
O O4 0.087475 0.360341 0.223158
O O5 0.290812 0.549024 0.551432
O O6 0.604720 0.578824 0.162629
O O7 0.418024 0.711193 0.516174
O O8 0.416547 0.697793 0.253649
O O9 0.139882 0.115150 0.157593
O O10 0.245886 0.099525 0.287518
O O11 0.000000 0.000000 0.500000
O O12 0.135021 0.778335 0.501393
O O13 0.158875 0.955289 0.560063
#
# Coordination Sequence:
#
# PCOD8124616 Si02
#       6
#     4   4   4   4   4   4
#     4  10  22  43  66  93 131 171 217 264 323 392
#     4  12  24  42  63  96 135 167 213 276 334 383
#     4  10  19  39  69  93 118 174 217 255 325 396
#     4  10  21  41  68  96 124 172 223 267 318 391
#     4  10  22  41  65  93 129 170 211 270 331 390
#     4  12  23  41  67  93 130 173 219 269 318 390
#
# _framework density 22.593274999999998
#
# number of rings (size 3 to 8) (size 9 to 14) (size 15 to 20)
#    0.000    1.333    5.000    3.500    0.000    0.000 
#    6.000    7.500    0.000    0.000    0.000    0.000 
#    0.000    0.000    0.000    0.000    0.000    0.000 
#
# Total GULP energy -297412.118077 kJ/mol
# GULP energy per Si atom -12392.171587 kJ/mol
# Density = 2.254185 g / cm^3
# Si number density = 22.593275 Si / 1000 Ang^3
#
#
#
# Elastic Constant Matrix: (Units=GPa)
#
#
# Indices 1 2 3 4 5 6 
#
# 1 174.0866 28.5251 25.7136 0.0000 6.6818 0.0000
# 2 28.5251 42.3242 16.2399 0.0000 -8.5410 0.0000
# 3 25.7136 16.2399 58.5389 0.0000 -12.7258 0.0000
# 4 0.0000 0.0000 0.0000 23.0623 0.0000 0.8803
# 5 6.6818 -8.5410 -12.7258 0.0000 43.8412 0.0000
# 6 0.0000 0.0000 0.0000 0.8803 0.0000 34.2148
#
#
#
# Elastic Compliance Matrix: (Units=1/GPa)
#
#
# Indices 1 2 3 4 5 6 
#
# 1 0.006894 -0.004241 -0.002412 0.000000 -0.002577 0.000000
# 2 -0.004241 0.029485 -0.005259 0.000000 0.004864 0.000000
# 3 -0.002412 -0.005259 0.020769 0.000000 0.005372 0.000000
# 4 0.000000 0.000000 0.000000 0.043403 0.000000 -0.001117
# 5 -0.002577 0.004864 0.005372 0.000000 0.025709 0.000000
# 6 0.000000 0.000000 0.000000 -0.001117 0.000000 0.029256
#
#
# Mechanical properties :
#
#
# Convention : Reuss Voigt Hill
#
# Bulk Modulus (GPa) = 30.00914 46.21186 38.11050
# Shear Modulus (GPa) = 26.25361 33.85508 30.05434
#
# Velocity S-wave (km/s) = 3.41252 3.87519 3.65119
# Velocity P-wave (km/s) = 5.37013 6.36561 5.88894
#
# Compressibility (1/GPa) = 0.03332318
#
# Stress axis : x y z
#
# Youngs Moduli (GPa) = 145.04527 33.91541 48.14863
#
# Poissons Ratio (x) = 0.14384 0.11614
# Poissons Ratio (y) = 0.61516 0.25324
# Poissons Ratio (z) = 0.34986 0.17838
#
# Static dielectric constant tensor:
#      x y z
#    x 8.260130 0.000000 0.667290 
#    y 0.000000 3.968210 0.000000 
#    z 0.667290 0.000000 4.141510 
# 
# 
# High freq. dielectric constant tensor:
#      x y z
#    x 1.918140 0.000000 0.011710 
#    y 0.000000 1.873350 0.000000 
#    z 0.011710 0.000000 1.867470 
# 
# From -- ./inp_files/32697.got.cif
#   From: 2010.03.12/outbox.cif.g09.slc.cpg/sg14_17_cif.got.tgz:32697.got - 2010.03.31 13:35:05.
