data_PCOD8124982
_publ_section_title
;
Structure prediction by ZEFSAII (Michael W. Deem and Ramdas Pophale) SiO2 
 PCOD8124982
Probable space group: P 21/C
;
_chemical_formula_sum "Si O2"
_cell_formula_units_Z 28
_cell_length_a 6.949813
_cell_length_b 8.137143
_cell_length_c 27.467391
_cell_angle_alpha 90.000000
_cell_angle_beta 121.897719
_cell_angle_gamma 90.000000
_cell_volume 1318.762064
_symmetry_space_group_name_H-M "P 21/C"
_symmetry_group_IT_number 14
_symmetry_cell_setting 'monoclinic'
loop_
_space_group_symop_operation_xyz
x,y,z
-x,1/2+y,1/2-z
-x,-y,-z
x,1/2-y,1/2+z
loop_
_atom_site_type_symbol
_atom_site_label
_atom_site_fract_x
_atom_site_fract_y
_atom_site_fract_z
Si Si1 0.269456 0.810211 0.596290
Si Si2 0.184809 0.669528 0.683594
Si Si3 0.480853 0.894221 0.785857
Si Si4 0.744394 0.812986 0.394715
Si Si5 0.545813 0.633782 0.453046
Si Si6 0.806458 0.161951 0.015410
Si Si7 0.693313 0.894146 0.151686
O O1 0.149315 0.694628 0.620796
O O2 0.172761 0.773047 0.529973
O O3 0.537909 0.769603 0.632868
O O4 0.207554 0.995161 0.602492
O O5 0.323413 0.825594 0.722216
O O6 0.319852 0.501313 0.711754
O O7 0.949385 0.662375 0.680256
O O8 0.589738 0.741215 0.829133
O O9 0.330298 0.006687 0.801290
O O10 0.614095 0.784243 0.428122
O O11 0.971212 0.700782 0.423043
O O12 0.417199 0.707817 0.482602
O O13 0.775967 0.532014 0.497979
O O14 0.380524 0.506522 0.403474
#
# Coordination Sequence:
#
# PCOD8124982 Si02
#       7
#     4   4   4   4   4   4   4
#     4  10  23  37  57  90 117 150 196 231 283 351
#     4  11  22  42  63  83 118 150 185 241 287 334
#     4  10  23  38  60  87 109 147 194 230 283 348
#     4  11  21  37  57  85 121 150 190 241 284 337
#     4   9  20  36  58  84 113 154 198 234 282 345
#     4  10  20  36  57  85 118 155 193 235 288 337
#     4   9  21  40  58  82 114 150 189 235 287 338
#
# _framework density 21.232032
#
# number of rings (size 3 to 8) (size 9 to 14) (size 15 to 20)
#    0.000    2.000    0.000    3.429    0.000    8.571 
#    0.000    2.857    0.000    0.000    0.000    0.000 
#    0.000    0.000    0.000    0.000    0.000    0.000 
#
# Total GULP energy -347239.668402 kJ/mol
# GULP energy per Si atom -12401.416729 kJ/mol
# Density = 2.118371 g / cm^3
# Si number density = 21.232032 Si / 1000 Ang^3
#
#
#
# Elastic Constant Matrix: (Units=GPa)
#
#
# Indices 1 2 3 4 5 6 
#
# 1 75.4733 11.4976 24.8601 0.0000 5.6206 0.0000
# 2 11.4976 65.0579 9.8510 0.0000 5.7641 0.0000
# 3 24.8601 9.8510 61.5632 0.0000 0.1714 0.0000
# 4 0.0000 0.0000 0.0000 23.4383 0.0000 -0.6346
# 5 5.6206 5.7641 0.1714 0.0000 27.5548 0.0000
# 6 0.0000 0.0000 0.0000 -0.6346 0.0000 20.8045
#
#
#
# Elastic Compliance Matrix: (Units=1/GPa)
#
#
# Indices 1 2 3 4 5 6 
#
# 1 0.015707 -0.001605 -0.006078 0.000000 -0.002830 0.000000
# 2 -0.001605 0.016219 -0.001939 0.000000 -0.003053 0.000000
# 3 -0.006078 -0.001939 0.019004 0.000000 0.001527 0.000000
# 4 0.000000 0.000000 0.000000 0.042700 0.000000 0.001303
# 5 -0.002830 -0.003053 0.001527 0.000000 0.037498 0.000000
# 6 0.000000 0.000000 0.000000 0.001303 0.000000 0.048106
#
#
# Mechanical properties :
#
#
# Convention : Reuss Voigt Hill
#
# Bulk Modulus (GPa) = 31.55924 32.72354 32.14139
# Shear Modulus (GPa) = 23.91897 24.75191 24.33544
#
# Velocity S-wave (km/s) = 3.36005 3.41806 3.38918
# Velocity P-wave (km/s) = 5.47262 5.56986 5.52145
#
# Compressibility (1/GPa) = 0.03168644
#
# Stress axis : x y z
#
# Youngs Moduli (GPa) = 63.66580 61.65758 52.62096
#
# Poissons Ratio (x) = 0.09895 0.31983
# Poissons Ratio (y) = 0.10217 0.10201
# Poissons Ratio (z) = 0.38696 0.11953
#
# Static dielectric constant tensor:
#      x y z
#    x 3.757360 0.000000 -0.123700 
#    y 0.000000 3.543780 0.000000 
#    z -0.123700 0.000000 3.809480 
# 
# 
# High freq. dielectric constant tensor:
#      x y z
#    x 1.833760 0.000000 -0.009360 
#    y 0.000000 1.817010 0.000000 
#    z -0.009360 0.000000 1.833590 
# 
# From -- ./inp_files/78669.got.cif
#   From: 2010.03.12/outbox.cif.g09.slc.cpg/sg14_40_cif.got.tgz:78669.got - 2010.03.31 13:35:05.
