data_PCOD8124255
_publ_section_title
;
Structure prediction by ZEFSAII (Michael W. Deem and Ramdas Pophale) SiO2 
 PCOD8124255
Probable space group: P 21/C
;
_chemical_formula_sum "Si O2"
_cell_formula_units_Z 28
_cell_length_a 8.520815
_cell_length_b 17.511040
_cell_length_c 9.871614
_cell_angle_alpha 90.000000
_cell_angle_beta 74.677496
_cell_angle_gamma 90.000000
_cell_volume 1420.569959
_symmetry_space_group_name_H-M "P 21/C"
_symmetry_group_IT_number 14
_symmetry_cell_setting 'monoclinic'
loop_
_space_group_symop_operation_xyz
x,y,z
-x,1/2+y,1/2-z
-x,-y,-z
x,1/2-y,1/2+z
loop_
_atom_site_type_symbol
_atom_site_label
_atom_site_fract_x
_atom_site_fract_y
_atom_site_fract_z
Si Si1 0.408981 0.573478 0.970509
Si Si2 0.067598 0.570768 0.147257
Si Si3 0.129170 0.043106 0.064268
Si Si4 0.377534 0.165567 0.926784
Si Si5 0.970260 0.891483 0.382430
Si Si6 0.663442 0.798848 0.362716
Si Si7 0.297650 0.583312 0.699969
O O1 0.521619 0.647232 0.950533
O O2 0.353812 0.550174 0.832104
O O3 0.500000 0.500000 0.000000
O O4 0.257334 0.593433 0.102959
O O5 0.061292 0.479216 0.145764
O O6 0.974250 0.594811 0.305535
O O7 0.979373 0.613740 0.043205
O O8 0.252423 0.985461 0.110382
O O9 0.243490 0.098301 0.950085
O O10 0.000000 0.000000 0.000000
O O11 0.357064 0.213602 0.793371
O O12 0.560137 0.133052 0.899379
O O13 0.348465 0.217102 0.064277
O O14 0.835522 0.835669 0.357020
O O15 0.137539 0.865631 0.269386
#
# Coordination Sequence:
#
# PCOD8124255 Si02
#       7
#     4   4   4   4   4   4   4
#     4  10  19  35  65  92 122 158 202 259 307 369
#     4   9  18  34  60  96 114 153 205 251 311 358
#     4  11  23  40  64  92 124 162 215 267 316 367
#     4  11  25  43  59  92 127 171 206 256 321 379
#     4   9  17  36  64  88 120 152 201 259 303 362
#     4  11  24  41  62  87 129 166 209 255 315 378
#     4   9  21  40  62  89 123 158 206 261 311 369
#
# _framework density 19.7104
#
# number of rings (size 3 to 8) (size 9 to 14) (size 15 to 20)
#    0.000    2.000    1.429    3.000    4.000    0.000 
#    5.143    4.286    0.000    0.000    0.000    0.000 
#    0.000    0.000    0.000    0.000    0.000    0.000 
#
# Total GULP energy -347156.368257 kJ/mol
# GULP energy per Si atom -12398.441723 kJ/mol
# Density = 1.966554 g / cm^3
# Si number density = 19.710400 Si / 1000 Ang^3
#
#
#
# Elastic Constant Matrix: (Units=GPa)
#
#
# Indices 1 2 3 4 5 6 
#
# 1 139.4677 46.6114 48.9780 0.0000 -8.9639 0.0000
# 2 46.6114 63.4765 36.9573 0.0000 2.4853 0.0000
# 3 48.9780 36.9573 99.4106 0.0000 -9.1105 0.0000
# 4 0.0000 0.0000 0.0000 31.2883 0.0000 0.2017
# 5 -8.9639 2.4853 -9.1105 0.0000 32.8257 0.0000
# 6 0.0000 0.0000 0.0000 0.2017 0.0000 21.2457
#
#
#
# Elastic Compliance Matrix: (Units=1/GPa)
#
#
# Indices 1 2 3 4 5 6 
#
# 1 0.010292 -0.006182 -0.002537 0.000000 0.002575 0.000000
# 2 -0.006182 0.024264 -0.006462 0.000000 -0.005319 0.000000
# 3 -0.002537 -0.006462 0.014050 0.000000 0.003696 0.000000
# 4 0.000000 0.000000 0.000000 0.031963 0.000000 -0.000303
# 5 0.002575 -0.005319 0.003696 0.000000 0.032596 0.000000
# 6 0.000000 0.000000 0.000000 -0.000303 0.000000 0.047071
#
#
# Mechanical properties :
#
#
# Convention : Reuss Voigt Hill
#
# Bulk Modulus (GPa) = 54.80933 63.04980 58.92956
# Shear Modulus (GPa) = 25.42211 28.39249 26.90730
#
# Velocity S-wave (km/s) = 3.59525 3.79949 3.69878
# Velocity P-wave (km/s) = 6.71581 7.16280 6.94290
#
# Compressibility (1/GPa) = 0.01824507
#
# Stress axis : x y z
#
# Youngs Moduli (GPa) = 97.15868 41.21364 71.17277
#
# Poissons Ratio (x) = 0.25477 0.18056
# Poissons Ratio (y) = 0.60060 0.45994
# Poissons Ratio (z) = 0.24648 0.26633
#
# Static dielectric constant tensor:
#      x y z
#    x 4.077260 0.000000 -0.243900 
#    y 0.000000 3.146600 0.000000 
#    z -0.243900 0.000000 3.827840 
# 
# 
# High freq. dielectric constant tensor:
#      x y z
#    x 1.790360 0.000000 -0.008030 
#    y 0.000000 1.728660 0.000000 
#    z -0.008030 0.000000 1.775640 
# 
# From -- ./inp_files/9361.got.cif
#   From: 2010.03.12/outbox.cif.g09.slc.cpg/sg14_5_cif.got.tgz:9361.got - 2010.03.31 13:35:05.
