data_PCOD8124558
_publ_section_title
;
Structure prediction by ZEFSAII (Michael W. Deem and Ramdas Pophale) SiO2 
 PCOD8124558
Probable space group: P 21/C
;
_chemical_formula_sum "Si O2"
_cell_formula_units_Z 24
_cell_length_a 11.695779
_cell_length_b 11.098914
_cell_length_c 14.428424
_cell_angle_alpha 90.000000
_cell_angle_beta 149.651505
_cell_angle_gamma 90.000000
_cell_volume 946.328506
_symmetry_space_group_name_H-M "P 21/C"
_symmetry_group_IT_number 14
_symmetry_cell_setting 'monoclinic'
loop_
_space_group_symop_operation_xyz
x,y,z
-x,1/2+y,1/2-z
-x,-y,-z
x,1/2-y,1/2+z
loop_
_atom_site_type_symbol
_atom_site_label
_atom_site_fract_x
_atom_site_fract_y
_atom_site_fract_z
Si Si1 0.462571 0.254101 0.418929
Si Si2 0.974847 0.878674 0.866716
Si Si3 0.339494 0.937935 0.566077
Si Si4 0.301505 0.608461 0.760687
Si Si5 0.396367 0.527124 0.317652
Si Si6 0.856595 0.499172 0.686959
O O1 0.202430 0.229619 0.264953
O O2 0.518138 0.177311 0.365401
O O3 0.634556 0.215712 0.623144
O O4 0.480822 0.391126 0.400037
O O5 0.114371 0.893057 0.869099
O O6 0.842894 0.004464 0.790606
O O7 0.152561 0.842060 0.071488
O O8 0.460106 0.056546 0.609850
O O9 0.317156 0.945798 0.660470
O O10 0.085459 0.924379 0.351218
O O11 0.643995 0.590067 0.510926
O O12 0.197403 0.562885 0.250157
#
# Coordination Sequence:
#
# PCOD8124558 Si02
#       6
#     4   4   4   4   4   4
#     4  11  23  42  68 102 129 174 234 271 331 404
#     4  10  19  38  71  93 124 175 218 272 333 393
#     4  11  21  44  69  91 135 180 218 276 338 391
#     4  10  19  38  68  99 123 168 224 275 328 391
#     4  11  27  42  62 103 135 177 224 274 334 399
#     4  11  22  45  63  88 140 175 213 278 340 387
#
# _framework density 25.361170999999999
#
# number of rings (size 3 to 8) (size 9 to 14) (size 15 to 20)
#    0.000    1.333    5.000    1.500    0.000    2.667 
#    6.000    0.000    0.000    0.000    0.000    0.000 
#    0.000    0.000    0.000    0.000    0.000    0.000 
#
# Total GULP energy -297457.674729 kJ/mol
# GULP energy per Si atom -12394.069780 kJ/mol
# Density = 2.530345 g / cm^3
# Si number density = 25.361171 Si / 1000 Ang^3
#
#
#
# Elastic Constant Matrix: (Units=GPa)
#
#
# Indices 1 2 3 4 5 6 
#
# 1 178.7519 21.5984 44.9014 0.0000 -17.9777 0.0000
# 2 21.5984 54.9552 25.2166 0.0000 -6.4554 0.0000
# 3 44.9014 25.2166 141.4824 0.0000 1.2231 0.0000
# 4 0.0000 0.0000 0.0000 29.1966 0.0000 0.8590
# 5 -17.9777 -6.4554 1.2231 0.0000 59.9500 0.0000
# 6 0.0000 0.0000 0.0000 0.8590 0.0000 14.2489
#
#
#
# Elastic Compliance Matrix: (Units=1/GPa)
#
#
# Indices 1 2 3 4 5 6 
#
# 1 0.006402 -0.001487 -0.001782 0.000000 0.001796 0.000000
# 2 -0.001487 0.020459 -0.003190 0.000000 0.001822 0.000000
# 3 -0.001782 -0.003190 0.008211 0.000000 -0.001046 0.000000
# 4 0.000000 0.000000 0.000000 0.034311 0.000000 -0.002069
# 5 0.001796 0.001822 -0.001046 0.000000 0.017437 0.000000
# 6 0.000000 0.000000 0.000000 -0.002069 0.000000 0.070306
#
#
# Mechanical properties :
#
#
# Convention : Reuss Voigt Hill
#
# Bulk Modulus (GPa) = 45.14064 62.06914 53.60489
# Shear Modulus (GPa) = 28.18002 39.57731 33.87866
#
# Velocity S-wave (km/s) = 3.33701 3.95466 3.65889
# Velocity P-wave (km/s) = 5.71710 6.73644 6.24760
#
# Compressibility (1/GPa) = 0.02215299
#
# Stress axis : x y z
#
# Youngs Moduli (GPa) = 156.19088 48.87802 121.78369
#
# Poissons Ratio (x) = 0.07270 0.21706
# Poissons Ratio (y) = 0.23233 0.38851
# Poissons Ratio (z) = 0.27838 0.15593
#
# Static dielectric constant tensor:
#      x y z
#    x 5.004460 0.000000 0.102480 
#    y 0.000000 4.311810 0.000000 
#    z 0.102480 0.000000 4.826480 
# 
# 
# High freq. dielectric constant tensor:
#      x y z
#    x 2.039720 0.000000 0.008400 
#    y 0.000000 1.982580 0.000000 
#    z 0.008400 0.000000 2.025140 
# 
# From -- ./inp_files/45142.got.cif
#   From: 2010.03.12/outbox.cif.g09.slc.cpg/sg14_23_cif.got.tgz:45142.got - 2010.03.31 13:35:05.
