data_PCOD8124239
_publ_section_title
;
Structure prediction by ZEFSAII (Michael W. Deem and Ramdas Pophale) SiO2 
 PCOD8124239
Probable space group: P 21/C
;
_chemical_formula_sum "Si O2"
_cell_formula_units_Z 28
_cell_length_a 19.861591
_cell_length_b 8.984054
_cell_length_c 23.348251
_cell_angle_alpha 90.000000
_cell_angle_beta 16.704614
_cell_angle_gamma 90.000000
_cell_volume 1197.524474
_symmetry_space_group_name_H-M "P 21/C"
_symmetry_group_IT_number 14
_symmetry_cell_setting 'monoclinic'
loop_
_space_group_symop_operation_xyz
x,y,z
-x,1/2+y,1/2-z
-x,-y,-z
x,1/2-y,1/2+z
loop_
_atom_site_type_symbol
_atom_site_label
_atom_site_fract_x
_atom_site_fract_y
_atom_site_fract_z
Si Si1 0.369328 0.188907 0.662464
Si Si2 0.901703 0.492418 0.444011
Si Si3 0.317025 0.725255 0.984897
Si Si4 0.129752 0.096915 0.649278
Si Si5 0.758271 0.354675 0.760199
Si Si6 0.477294 0.314499 0.302178
Si Si7 0.127500 0.731704 0.949023
O O1 0.473874 0.219912 0.639778
O O2 0.549100 0.217666 0.465608
O O3 0.286720 0.018024 0.729212
O O4 0.151153 0.298388 0.824752
O O5 0.687040 0.547927 0.580146
O O6 0.808175 0.383748 0.569256
O O7 0.104002 0.412044 0.240117
O O8 0.018206 0.635582 0.379751
O O9 0.182943 0.568866 0.084169
O O10 0.124783 0.843720 0.164240
O O11 0.424904 0.768435 0.834869
O O12 0.336934 0.202915 0.458779
O O13 0.801375 0.239562 0.674784
O O14 0.699618 0.382329 0.158044
#
# Coordination Sequence:
#
# PCOD8124239 Si02
#       7
#     4   4   4   4   4   4   4
#     4  10  20  36  60  93 132 167 220 280 340 395
#     4  11  21  42  59 101 133 180 220 285 346 396
#     4  12  25  43  70 102 141 183 227 287 349 410
#     4  12  24  43  67 102 139 176 235 280 346 409
#     4  10  19  35  62  91 133 164 223 290 339 382
#     4  12  24  38  66  98 142 175 224 281 350 407
#     4  11  23  35  63 100 136 169 224 289 337 409
#
# _framework density 23.381568000000001
#
# number of rings (size 3 to 8) (size 9 to 14) (size 15 to 20)
#    0.000    0.857    4.286    5.143    4.000    0.000 
#    0.000    0.000    0.000    1.714    0.000    0.000 
#    0.000    0.000    0.000    0.000    0.000    0.000 
#
# Total GULP energy -346979.164721 kJ/mol
# GULP energy per Si atom -12392.113026 kJ/mol
# Density = 2.332835 g / cm^3
# Si number density = 23.381568 Si / 1000 Ang^3
#
#
#
# Elastic Constant Matrix: (Units=GPa)
#
#
# Indices 1 2 3 4 5 6 
#
# 1 117.6532 18.2596 42.3768 0.0000 -13.9009 0.0000
# 2 18.2596 40.6066 18.0869 0.0000 -6.9294 0.0000
# 3 42.3768 18.0869 119.9587 0.0000 -0.1214 0.0000
# 4 0.0000 0.0000 0.0000 17.8186 0.0000 -4.3330
# 5 -13.9009 -6.9294 -0.1214 0.0000 53.6522 0.0000
# 6 0.0000 0.0000 0.0000 -4.3330 0.0000 32.3257
#
#
#
# Elastic Compliance Matrix: (Units=1/GPa)
#
#
# Indices 1 2 3 4 5 6 
#
# 1 0.010378 -0.002830 -0.003237 0.000000 0.002316 0.000000
# 2 -0.002830 0.027806 -0.003190 0.000000 0.002851 0.000000
# 3 -0.003237 -0.003190 0.009960 0.000000 -0.001228 0.000000
# 4 0.000000 0.000000 0.000000 0.058012 0.000000 0.007776
# 5 0.002316 0.002851 -0.001228 0.000000 0.019604 0.000000
# 6 0.000000 0.000000 0.000000 0.007776 0.000000 0.031977
#
#
# Mechanical properties :
#
#
# Convention : Reuss Voigt Hill
#
# Bulk Modulus (GPa) = 33.74923 48.40724 41.07824
# Shear Modulus (GPa) = 26.86315 34.05899 30.46107
#
# Velocity S-wave (km/s) = 3.39322 3.82076 3.61332
# Velocity P-wave (km/s) = 5.46053 6.34133 5.91734
#
# Compressibility (1/GPa) = 0.02963031
#
# Stress axis : x y z
#
# Youngs Moduli (GPa) = 96.35398 35.96302 100.40614
#
# Poissons Ratio (x) = 0.10176 0.32505
# Poissons Ratio (y) = 0.27265 0.32030
# Poissons Ratio (z) = 0.31193 0.11472
#
# Static dielectric constant tensor:
#      x y z
#    x 4.486860 0.000000 -0.119260 
#    y 0.000000 3.666670 0.000000 
#    z -0.119260 0.000000 4.751000 
# 
# 
# High freq. dielectric constant tensor:
#      x y z
#    x 1.939920 0.000000 0.001590 
#    y 0.000000 1.859860 0.000000 
#    z 0.001590 0.000000 1.953620 
# 
# From -- ./inp_files/69267.got.cif
#   From: 2010.03.12/outbox.cif.g09.slc.cpg/sg14_35_cif.got.tgz:69267.got - 2010.03.31 13:35:05.
