data_PCOD8124695
_publ_section_title
;
Structure prediction by ZEFSAII (Michael W. Deem and Ramdas Pophale) SiO2 
 PCOD8124695
Probable space group: P 21/C
;
_chemical_formula_sum "Si O2"
_cell_formula_units_Z 32
_cell_length_a 7.455040
_cell_length_b 26.182208
_cell_length_c 10.931720
_cell_angle_alpha 90.000000
_cell_angle_beta 134.211902
_cell_angle_gamma 90.000000
_cell_volume 1529.403231
_symmetry_space_group_name_H-M "P 21/C"
_symmetry_group_IT_number 14
_symmetry_cell_setting 'monoclinic'
loop_
_space_group_symop_operation_xyz
x,y,z
-x,1/2+y,1/2-z
-x,-y,-z
x,1/2-y,1/2+z
loop_
_atom_site_type_symbol
_atom_site_label
_atom_site_fract_x
_atom_site_fract_y
_atom_site_fract_z
Si Si1 0.651997 0.297971 0.089247
Si Si2 0.581369 0.641838 0.220545
Si Si3 0.511631 0.873832 0.295495
Si Si4 0.871711 0.652906 0.768191
Si Si5 0.815793 0.438354 0.006846
Si Si6 0.117122 0.050701 0.406364
Si Si7 0.578633 0.180588 0.104455
Si Si8 0.104443 0.612566 0.411051
O O1 0.658010 0.333744 0.212006
O O2 0.595263 0.240984 0.101294
O O3 0.916204 0.303582 0.143603
O O4 0.431536 0.317366 0.895953
O O5 0.417730 0.664940 0.252715
O O6 0.874346 0.632744 0.384857
O O7 0.455738 0.588055 0.122677
O O8 0.724230 0.840769 0.326366
O O9 0.640538 0.914640 0.446911
O O10 0.331968 0.902435 0.110543
O O11 0.682165 0.658130 0.566796
O O12 0.993416 0.596426 0.823656
O O13 0.790746 0.492518 0.061962
O O14 0.908642 0.444917 0.912140
O O15 0.989040 0.065380 0.216393
O O16 0.811290 0.156812 0.142679
#
# Coordination Sequence:
#
# PCOD8124695 Si02
#       8
#     4   4   4   4   4   4   4   4
#     4  11  24  39  65  88 125 175 211 262 327 371
#     4  11  23  42  63  93 128 168 213 267 318 385
#     4  10  22  42  64  95 132 166 213 270 313 381
#     4   9  22  43  59  88 129 161 211 267 310 382
#     4   9  20  41  68  90 129 174 204 269 330 376
#     4  10  19  42  68  95 129 170 215 261 328 382
#     4  11  25  40  61  93 125 168 217 264 317 387
#     4  11  23  41  65  93 129 167 213 264 317 380
#
# _framework density 20.923195
#
# number of rings (size 3 to 8) (size 9 to 14) (size 15 to 20)
#    0.000    1.750    2.500    0.750    5.250    0.500 
#    2.250    3.125    0.000    0.000    0.000    0.000 
#    0.000    0.000    0.000    0.000    0.000    0.000 
#
# Total GULP energy -396793.191086 kJ/mol
# GULP energy per Si atom -12399.787221 kJ/mol
# Density = 2.087557 g / cm^3
# Si number density = 20.923195 Si / 1000 Ang^3
#
#
#
# Elastic Constant Matrix: (Units=GPa)
#
#
# Indices 1 2 3 4 5 6 
#
# 1 90.3169 35.9002 30.9901 0.0000 14.3543 0.0000
# 2 35.9002 116.0501 35.9535 0.0000 -1.0262 0.0000
# 3 30.9901 35.9535 97.6865 0.0000 4.1508 0.0000
# 4 0.0000 0.0000 0.0000 23.3062 0.0000 -6.8394
# 5 14.3543 -1.0262 4.1508 0.0000 33.5978 0.0000
# 6 0.0000 0.0000 0.0000 -6.8394 0.0000 12.1929
#
#
#
# Elastic Compliance Matrix: (Units=1/GPa)
#
#
# Indices 1 2 3 4 5 6 
#
# 1 0.014478 -0.003596 -0.003018 0.000000 -0.005923 0.000000
# 2 -0.003596 0.010638 -0.002868 0.000000 0.002216 0.000000
# 3 -0.003018 -0.002868 0.012263 0.000000 -0.000313 0.000000
# 4 0.000000 0.000000 0.000000 0.051362 0.000000 0.028811
# 5 -0.005923 0.002216 -0.000313 0.000000 0.032401 0.000000
# 6 0.000000 0.000000 0.000000 0.028811 0.000000 0.098176
#
#
# Mechanical properties :
#
#
# Convention : Reuss Voigt Hill
#
# Bulk Modulus (GPa) = 54.30602 56.63789 55.47195
# Shear Modulus (GPa) = 20.45643 27.23336 23.84490
#
# Velocity S-wave (km/s) = 3.13020 3.61167 3.37952
# Velocity P-wave (km/s) = 6.25104 6.67236 6.46513
#
# Compressibility (1/GPa) = 0.01841417
#
# Stress axis : x y z
#
# Youngs Moduli (GPa) = 69.06816 94.00465 81.54439
#
# Poissons Ratio (x) = 0.33807 0.24609
# Poissons Ratio (y) = 0.24839 0.23391
# Poissons Ratio (z) = 0.20844 0.26965
#
# Static dielectric constant tensor:
#      x y z
#    x 3.924760 0.000000 0.058170 
#    y 0.000000 3.611180 0.000000 
#    z 0.058170 0.000000 3.756060 
# 
# 
# High freq. dielectric constant tensor:
#      x y z
#    x 1.835360 0.000000 0.002120 
#    y 0.000000 1.799670 0.000000 
#    z 0.002120 0.000000 1.815940 
# 
# From -- ./inp_files/27097.got.cif
#   From: 2010.03.12/outbox.cif.g09.slc.cpg/sg14_14_cif.got.tgz:27097.got - 2010.03.31 13:35:05.
