data_PCOD8124358
_publ_section_title
;
Structure prediction by ZEFSAII (Michael W. Deem and Ramdas Pophale) SiO2 
 PCOD8124358
Probable space group: P 21/C
;
_chemical_formula_sum "Si O2"
_cell_formula_units_Z 28
_cell_length_a 9.204979
_cell_length_b 7.647465
_cell_length_c 19.042510
_cell_angle_alpha 90.000000
_cell_angle_beta 115.137013
_cell_angle_gamma 90.000000
_cell_volume 1213.540882
_symmetry_space_group_name_H-M "P 21/C"
_symmetry_group_IT_number 14
_symmetry_cell_setting 'monoclinic'
loop_
_space_group_symop_operation_xyz
x,y,z
-x,1/2+y,1/2-z
-x,-y,-z
x,1/2-y,1/2+z
loop_
_atom_site_type_symbol
_atom_site_label
_atom_site_fract_x
_atom_site_fract_y
_atom_site_fract_z
Si Si1 0.350106 0.292861 0.304099
Si Si2 0.226320 0.236803 0.930433
Si Si3 0.189970 0.973571 0.533319
Si Si4 0.614135 0.068791 0.297069
Si Si5 0.881953 0.214929 0.792014
Si Si6 0.033450 0.333383 0.693718
Si Si7 0.130539 0.902544 0.979681
O O1 0.345008 0.281441 0.387888
O O2 0.446093 0.124707 0.296520
O O3 0.428953 0.461966 0.282909
O O4 0.167715 0.311100 0.237726
O O5 0.263488 0.409017 0.984751
O O6 0.040290 0.254193 0.870563
O O7 0.251592 0.054742 0.978620
O O8 0.283376 0.037369 0.622617
O O9 0.224421 0.762339 0.533309
O O10 0.000000 0.000000 0.500000
O O11 0.721001 0.236552 0.299299
O O12 0.888242 0.318580 0.719490
O O13 0.871722 0.011666 0.773809
O O14 0.964372 0.309127 0.602752
O O15 0.000000 0.000000 0.000000
#
# Coordination Sequence:
#
# PCOD8124358 Si02
#       7
#     4   4   4   4   4   4   4
#     4  11  26  44  64  91 134 173 223 272 334 401
#     4  10  23  43  64 102 133 167 220 278 329 394
#     4  12  22  40  73  99 133 172 222 273 334 394
#     4  12  24  44  65  94 128 178 221 270 333 396
#     4  10  19  36  63  93 126 165 220 271 326 385
#     4  10  21  36  63  96 126 165 216 277 325 386
#     4  11  21  36  64 102 131 169 216 275 333 384
#
# _framework density 23.072976000000001
#
# number of rings (size 3 to 8) (size 9 to 14) (size 15 to 20)
#    0.000    1.143    2.857    5.143    4.000    0.571 
#    2.571    0.714    0.000    0.000    0.000    0.000 
#    0.000    0.000    0.000    0.000    0.000    0.000 
#
# Total GULP energy -347023.114315 kJ/mol
# GULP energy per Si atom -12393.682654 kJ/mol
# Density = 2.302046 g / cm^3
# Si number density = 23.072976 Si / 1000 Ang^3
#
#
#
# Elastic Constant Matrix: (Units=GPa)
#
#
# Indices 1 2 3 4 5 6 
#
# 1 72.7344 11.4999 23.5102 0.0000 -28.8592 0.0000
# 2 11.4999 103.0947 32.3900 0.0000 -26.8257 0.0000
# 3 23.5102 32.3900 105.7645 0.0000 -35.8006 0.0000
# 4 0.0000 0.0000 0.0000 42.2753 0.0000 -13.6710
# 5 -28.8592 -26.8257 -35.8006 0.0000 38.4367 0.0000
# 6 0.0000 0.0000 0.0000 -13.6710 0.0000 31.1010
#
#
#
# Elastic Compliance Matrix: (Units=1/GPa)
#
#
# Indices 1 2 3 4 5 6 
#
# 1 0.019966 0.001981 0.000726 0.000000 0.017050 0.000000
# 2 0.001981 0.012156 -0.001151 0.000000 0.008900 0.000000
# 3 0.000726 -0.001151 0.013960 0.000000 0.012745 0.000000
# 4 0.000000 0.000000 0.000000 0.027574 0.000000 0.012121
# 5 0.017050 0.008900 0.012745 0.000000 0.056900 0.000000
# 6 0.000000 0.000000 0.000000 0.012121 0.000000 0.037481
#
#
# Mechanical properties :
#
#
# Convention : Reuss Voigt Hill
#
# Bulk Modulus (GPa) = 20.32704 46.26600 33.29652
# Shear Modulus (GPa) = 27.57526 36.64215 32.10871
#
# Velocity S-wave (km/s) = 3.46082 3.98942 3.73448
# Velocity P-wave (km/s) = 4.97983 6.42777 5.74956
#
# Compressibility (1/GPa) = 0.04919556
#
# Stress axis : x y z
#
# Youngs Moduli (GPa) = 50.08613 82.26334 71.63350
#
# Poissons Ratio (x) = -0.16297 -0.05204
# Poissons Ratio (y) = -0.09923 0.08242
# Poissons Ratio (z) = -0.03639 0.09466
#
# Static dielectric constant tensor:
#      x y z
#    x 3.833140 0.000000 -0.283580 
#    y 0.000000 4.229030 0.000000 
#    z -0.283580 0.000000 4.385520 
# 
# 
# High freq. dielectric constant tensor:
#      x y z
#    x 1.884820 0.000000 -0.028170 
#    y 0.000000 1.914470 0.000000 
#    z -0.028170 0.000000 1.916590 
# 
# From -- ./inp_files/54849.got.cif
#   From: 2010.03.12/outbox.cif.g09.slc.cpg/sg14_28_cif.got.tgz:54849.got - 2010.03.31 13:35:05.
