data_PCOD8124940
_publ_section_title
;
Structure prediction by ZEFSAII (Michael W. Deem and Ramdas Pophale) SiO2 
 PCOD8124940
Probable space group: P 21/C
;
_chemical_formula_sum "Si O2"
_cell_formula_units_Z 32
_cell_length_a 7.934442
_cell_length_b 14.144254
_cell_length_c 13.925189
_cell_angle_alpha 90.000000
_cell_angle_beta 96.379731
_cell_angle_gamma 90.000000
_cell_volume 1553.101050
_symmetry_space_group_name_H-M "P 21/C"
_symmetry_group_IT_number 14
_symmetry_cell_setting 'monoclinic'
loop_
_space_group_symop_operation_xyz
x,y,z
-x,1/2+y,1/2-z
-x,-y,-z
x,1/2-y,1/2+z
loop_
_atom_site_type_symbol
_atom_site_label
_atom_site_fract_x
_atom_site_fract_y
_atom_site_fract_z
Si Si1 0.038513 0.354818 0.362088
Si Si2 0.726768 0.374295 0.440421
Si Si3 0.259892 0.240778 0.504188
Si Si4 0.645222 0.060095 0.259561
Si Si5 0.498705 0.282604 0.861188
Si Si6 0.319349 0.421933 0.613084
Si Si7 0.929670 0.433245 0.625286
Si Si8 0.283349 0.155008 0.709068
O O1 0.088795 0.271774 0.438892
O O2 0.098378 0.457291 0.408091
O O3 0.111098 0.340748 0.260261
O O4 0.834088 0.357419 0.348021
O O5 0.584159 0.296579 0.433419
O O6 0.648591 0.478772 0.437577
O O7 0.854842 0.364927 0.538736
O O8 0.361030 0.180412 0.429854
O O9 0.352066 0.338932 0.539057
O O10 0.229189 0.179245 0.597304
O O11 0.632725 0.133678 0.347673
O O12 0.467694 0.086842 0.199446
O O13 0.818797 0.084966 0.214339
O O14 0.639144 0.950285 0.288521
O O15 0.416451 0.230310 0.762289
O O16 0.131316 0.411694 0.651539
#
# Coordination Sequence:
#
# PCOD8124940 Si02
#       8
#     4   4   4   4   4   4   4   4
#     4   9  19  36  58  89 114 143 193 245 291 346
#     4  11  19  35  57  90 119 140 186 255 302 334
#     4  11  20  37  58  84 115 153 198 228 289 352
#     4  11  23  40  56  85 124 153 194 240 281 351
#     4  11  24  35  57  89 113 154 200 235 291 348
#     4  11  19  35  63  88 117 148 185 248 300 338
#     4  10  20  35  62  93 114 147 190 247 312 328
#     4  10  22  38  59  82 114 158 194 235 291 345
#
# _framework density 20.603939
#
# number of rings (size 3 to 8) (size 9 to 14) (size 15 to 20)
#    0.000    1.500    5.000    1.500    0.000    2.500 
#    0.000    0.000    0.000    0.750    0.000    0.000 
#    0.000    0.000    0.000    0.000    0.000    0.000 
#
# Total GULP energy -396418.135456 kJ/mol
# GULP energy per Si atom -12388.066733 kJ/mol
# Density = 2.055704 g / cm^3
# Si number density = 20.603939 Si / 1000 Ang^3
#
#
#
# Elastic Constant Matrix: (Units=GPa)
#
#
# Indices 1 2 3 4 5 6 
#
# 1 71.0975 9.6989 25.8221 0.0000 -13.5289 0.0000
# 2 9.6989 69.6119 26.2014 0.0000 -19.7479 0.0000
# 3 25.8221 26.2014 79.2787 0.0000 -21.7661 0.0000
# 4 0.0000 0.0000 0.0000 32.1465 0.0000 -7.9041
# 5 -13.5289 -19.7479 -21.7661 0.0000 22.8225 0.0000
# 6 0.0000 0.0000 0.0000 -7.9041 0.0000 22.1816
#
#
#
# Elastic Compliance Matrix: (Units=1/GPa)
#
#
# Indices 1 2 3 4 5 6 
#
# 1 0.016675 0.001174 -0.003829 0.000000 0.007249 0.000000
# 2 0.001174 0.019464 -0.002710 0.000000 0.014953 0.000000
# 3 -0.003829 -0.002710 0.018275 0.000000 0.012814 0.000000
# 4 0.000000 0.000000 0.000000 0.034095 0.000000 0.012149
# 5 0.007249 0.014953 0.012814 0.000000 0.073274 0.000000
# 6 0.000000 0.000000 0.000000 0.012149 0.000000 0.049411
#
#
# Mechanical properties :
#
#
# Convention : Reuss Voigt Hill
#
# Bulk Modulus (GPa) = 22.89141 38.15919 30.52530
# Shear Modulus (GPa) = 21.14309 25.98118 23.56214
#
# Velocity S-wave (km/s) = 3.20686 3.55488 3.38535
# Velocity P-wave (km/s) = 4.98460 5.95064 5.48892
#
# Compressibility (1/GPa) = 0.04368452
#
# Stress axis : x y z
#
# Youngs Moduli (GPa) = 59.96960 51.37761 54.72054
#
# Poissons Ratio (x) = -0.06034 0.20954
# Poissons Ratio (y) = -0.07043 0.14828
# Poissons Ratio (z) = 0.22964 0.13922
#
# Static dielectric constant tensor:
#      x y z
#    x 3.759910 0.000000 -0.198520 
#    y 0.000000 3.692530 0.000000 
#    z -0.198520 0.000000 3.551740 
# 
# 
# High freq. dielectric constant tensor:
#      x y z
#    x 1.807010 0.000000 -0.020630 
#    y 0.000000 1.791800 0.000000 
#    z -0.020630 0.000000 1.782230 
# 
# From -- ./inp_files/25521.got.cif
#   From: 2010.03.12/outbox.cif.g09.slc.cpg/sg14_13_cif.got.tgz:25521.got - 2010.03.31 13:35:05.
