data_PCOD8124387
_publ_section_title
;
Structure prediction by ZEFSAII (Michael W. Deem and Ramdas Pophale) SiO2 
 PCOD8124387
Probable space group: P 21/C
;
_chemical_formula_sum "Si O2"
_cell_formula_units_Z 28
_cell_length_a 8.761461
_cell_length_b 9.499517
_cell_length_c 28.675701
_cell_angle_alpha 90.000000
_cell_angle_beta 139.276200
_cell_angle_gamma 90.000000
_cell_volume 1557.094190
_symmetry_space_group_name_H-M "P 21/C"
_symmetry_group_IT_number 14
_symmetry_cell_setting 'monoclinic'
loop_
_space_group_symop_operation_xyz
x,y,z
-x,1/2+y,1/2-z
-x,-y,-z
x,1/2-y,1/2+z
loop_
_atom_site_type_symbol
_atom_site_label
_atom_site_fract_x
_atom_site_fract_y
_atom_site_fract_z
Si Si1 0.581993 0.152762 0.828539
Si Si2 0.730746 0.154584 0.680060
Si Si3 0.990584 0.628999 0.937555
Si Si4 0.072857 0.423274 0.180077
Si Si5 0.775285 0.230019 0.284464
Si Si6 0.375656 0.351908 0.633318
Si Si7 0.359921 0.579653 0.098301
O O1 0.339929 0.123345 0.746476
O O2 0.778476 0.189667 0.834827
O O3 0.553941 0.278285 0.858169
O O4 0.664534 0.019108 0.878708
O O5 0.850912 0.164883 0.759577
O O6 0.552082 0.289514 0.633866
O O7 0.929976 0.154379 0.687597
O O8 0.589008 0.010756 0.641636
O O9 0.038052 0.632107 0.893596
O O10 0.873553 0.774823 0.927470
O O11 0.816238 0.499703 0.907638
O O12 0.235797 0.611099 0.020391
O O13 0.055324 0.593552 0.177271
O O14 0.504642 0.181653 0.212647
#
# Coordination Sequence:
#
# PCOD8124387 Si02
#       7
#     4   4   4   4   4   4   4
#     4  11  19  33  58  82 105 141 180 242 269 318
#     4   9  21  34  51  81 110 142 175 227 273 333
#     4  10  19  37  55  80 105 152 189 219 274 327
#     4  11  20  34  59  78 112 146 181 226 281 329
#     4   9  19  34  50  86 104 138 185 230 268 321
#     4   8  19  34  51  77 108 134 180 227 270 321
#     4  10  21  34  58  80 112 142 187 231 266 334
#
# _framework density 17.982212000000001
#
# number of rings (size 3 to 8) (size 9 to 14) (size 15 to 20)
#    0.857    1.429    2.857    0.000    4.000    1.143 
#    0.000    0.000    0.000    0.857    0.000    0.000 
#    0.000    0.000    0.000    0.000    0.000    0.000 
#
# Total GULP energy -346992.744278 kJ/mol
# GULP energy per Si atom -12392.598010 kJ/mol
# Density = 1.794128 g / cm^3
# Si number density = 17.982212 Si / 1000 Ang^3
#
#
#
# Elastic Constant Matrix: (Units=GPa)
#
#
# Indices 1 2 3 4 5 6 
#
# 1 92.7169 27.2701 21.3604 0.0000 -17.7198 0.0000
# 2 27.2701 85.3227 24.6706 0.0000 -11.1901 0.0000
# 3 21.3604 24.6706 57.3767 0.0000 -14.8911 0.0000
# 4 0.0000 0.0000 0.0000 14.8900 0.0000 -0.9322
# 5 -17.7198 -11.1901 -14.8911 0.0000 14.2318 0.0000
# 6 0.0000 0.0000 0.0000 -0.9322 0.0000 19.9893
#
#
#
# Elastic Compliance Matrix: (Units=1/GPa)
#
#
# Indices 1 2 3 4 5 6 
#
# 1 0.014637 -0.002516 -0.000207 0.000000 0.016029 0.000000
# 2 -0.002516 0.014225 -0.004242 0.000000 0.003614 0.000000
# 3 -0.000207 -0.004242 0.025255 0.000000 0.022832 0.000000
# 4 0.000000 0.000000 0.000000 0.067356 0.000000 0.003141
# 5 0.016029 0.003614 0.022832 0.000000 0.116955 0.000000
# 6 0.000000 0.000000 0.000000 0.003141 0.000000 0.050173
#
#
# Mechanical properties :
#
#
# Convention : Reuss Voigt Hill
#
# Bulk Modulus (GPa) = 24.88360 42.44651 33.66505
# Shear Modulus (GPa) = 15.82649 20.62989 18.22819
#
# Velocity S-wave (km/s) = 2.96990 3.39077 3.18729
# Velocity P-wave (km/s) = 5.06244 6.24385 5.68393
#
# Compressibility (1/GPa) = 0.04018711
#
# Stress axis : x y z
#
# Youngs Moduli (GPa) = 68.32158 70.29992 39.59547
#
# Poissons Ratio (x) = 0.17687 0.00820
# Poissons Ratio (y) = 0.17189 0.16796
# Poissons Ratio (z) = 0.01415 0.29820
#
# Static dielectric constant tensor:
#      x y z
#    x 2.981150 0.000000 -0.079770 
#    y 0.000000 3.364850 0.000000 
#    z -0.079770 0.000000 3.083120 
# 
# 
# High freq. dielectric constant tensor:
#      x y z
#    x 1.670920 0.000000 -0.010280 
#    y 0.000000 1.698620 0.000000 
#    z -0.010280 0.000000 1.670090 
# 
# From -- ./inp_files/79361.got.cif
#   From: 2010.03.12/outbox.cif.g09.slc.cpg/sg14_40_cif.got.tgz:79361.got - 2010.03.31 13:35:05.
