data_PCOD8124994
_publ_section_title
;
Structure prediction by ZEFSAII (Michael W. Deem and Ramdas Pophale) SiO2 
 PCOD8124994
Probable space group: P 21/C
;
_chemical_formula_sum "Si O2"
_cell_formula_units_Z 20
_cell_length_a 8.337276
_cell_length_b 8.991445
_cell_length_c 24.560707
_cell_angle_alpha 90.000000
_cell_angle_beta 149.409977
_cell_angle_gamma 90.000000
_cell_volume 936.957202
_symmetry_space_group_name_H-M "P 21/C"
_symmetry_group_IT_number 14
_symmetry_cell_setting 'monoclinic'
loop_
_space_group_symop_operation_xyz
x,y,z
-x,1/2+y,1/2-z
-x,-y,-z
x,1/2-y,1/2+z
loop_
_atom_site_type_symbol
_atom_site_label
_atom_site_fract_x
_atom_site_fract_y
_atom_site_fract_z
Si Si1 0.317219 0.467333 0.561261
Si Si2 0.100990 0.922397 0.154272
Si Si3 0.135060 0.175898 0.803125
Si Si4 0.416619 0.869718 0.756156
Si Si5 0.825957 0.509917 0.127469
O O1 0.517840 0.617552 0.611301
O O2 0.507046 0.354715 0.656256
O O3 0.000000 0.500000 0.500000
O O4 0.219387 0.399440 0.474482
O O5 0.344458 0.791211 0.211164
O O6 0.996438 0.924508 0.185817
O O7 0.292301 0.070771 0.194450
O O8 0.163277 0.348297 0.827905
O O9 0.895818 0.140606 0.682725
O O10 0.097981 0.969726 0.660966
O O11 0.500000 0.500000 0.000000
#
# Coordination Sequence:
#
# PCOD8124994 Si02
#       5
#     4   4   4   4   4
#     4   9  19  36  56  81 115 153 188 234 292 344
#     4  10  20  36  58  82 113 150 192 241 290 347
#     4  10  22  38  60  87 115 153 198 238 288 353
#     4   9  21  37  55  83 115 148 194 240 288 352
#     4  10  23  41  60  87 121 154 195 245 292 346
#
# _framework density 21.345690999999999
#
# number of rings (size 3 to 8) (size 9 to 14) (size 15 to 20)
#    0.000    2.400    0.000    0.600    0.000   19.200 
#    0.000    2.000    0.000    0.000    0.000    0.000 
#    0.000    0.000    0.000    0.000    0.000    0.000 
#
# Total GULP energy -247792.161396 kJ/mol
# GULP energy per Si atom -12389.608070 kJ/mol
# Density = 2.129711 g / cm^3
# Si number density = 21.345691 Si / 1000 Ang^3
#
#
#
# Elastic Constant Matrix: (Units=GPa)
#
#
# Indices 1 2 3 4 5 6 
#
# 1 72.1559 -1.0107 16.0048 0.0000 13.2877 0.0000
# 2 -1.0107 70.1170 31.3736 0.0000 -2.0699 0.0000
# 3 16.0048 31.3736 153.6182 0.0000 7.4363 0.0000
# 4 0.0000 0.0000 0.0000 27.8589 0.0000 -1.8196
# 5 13.2877 -2.0699 7.4363 0.0000 26.4112 0.0000
# 6 0.0000 0.0000 0.0000 -1.8196 0.0000 34.5086
#
#
#
# Elastic Compliance Matrix: (Units=1/GPa)
#
#
# Indices 1 2 3 4 5 6 
#
# 1 0.015534 0.000628 -0.001390 0.000000 -0.007375 0.000000
# 2 0.000628 0.015844 -0.003392 0.000000 0.001881 0.000000
# 3 -0.001390 -0.003392 0.007428 0.000000 -0.001658 0.000000
# 4 0.000000 0.000000 0.000000 0.036019 0.000000 0.001899
# 5 -0.007375 0.001881 -0.001658 0.000000 0.042187 0.000000
# 6 0.000000 0.000000 0.000000 0.001899 0.000000 0.029078
#
#
# Mechanical properties :
#
#
# Convention : Reuss Voigt Hill
#
# Bulk Modulus (GPa) = 32.78924 43.18071 37.98497
# Shear Modulus (GPa) = 30.38315 34.39064 32.38689
#
# Velocity S-wave (km/s) = 3.77687 4.01824 3.89942
# Velocity P-wave (km/s) = 5.86635 6.46541 6.17315
#
# Compressibility (1/GPa) = 0.03049781
#
# Stress axis : x y z
#
# Youngs Moduli (GPa) = 64.37480 63.11393 134.63442
#
# Poissons Ratio (x) = -0.03964 0.18710
# Poissons Ratio (y) = -0.04043 0.45673
# Poissons Ratio (z) = 0.08946 0.21411
#
# Static dielectric constant tensor:
#      x y z
#    x 3.873720 0.000000 -0.026110 
#    y 0.000000 3.505950 0.000000 
#    z -0.026110 0.000000 4.918960 
# 
# 
# High freq. dielectric constant tensor:
#      x y z
#    x 1.842450 0.000000 0.009420 
#    y 0.000000 1.808350 0.000000 
#    z 0.009420 0.000000 1.853000 
# 
# From -- ./inp_files/22998.got.cif
#   From: 2010.03.12/outbox.cif.g09.slc.cpg/sg14_12_cif.got.tgz:22998.got - 2010.03.31 13:35:05.
