data_PCOD8124624
_publ_section_title
;
Structure prediction by ZEFSAII (Michael W. Deem and Ramdas Pophale) SiO2 
 PCOD8124624
Probable space group: P 21/C
;
_chemical_formula_sum "Si O2"
_cell_formula_units_Z 32
_cell_length_a 23.740955
_cell_length_b 9.210606
_cell_length_c 15.814270
_cell_angle_alpha 90.000000
_cell_angle_beta 29.711369
_cell_angle_gamma 90.000000
_cell_volume 1713.933696
_symmetry_space_group_name_H-M "P 21/C"
_symmetry_group_IT_number 14
_symmetry_cell_setting 'monoclinic'
loop_
_space_group_symop_operation_xyz
x,y,z
-x,1/2+y,1/2-z
-x,-y,-z
x,1/2-y,1/2+z
loop_
_atom_site_type_symbol
_atom_site_label
_atom_site_fract_x
_atom_site_fract_y
_atom_site_fract_z
Si Si1 0.754201 0.803669 0.438144
Si Si2 0.018735 0.592899 0.834612
Si Si3 0.212683 0.135084 0.267367
Si Si4 0.260860 0.618053 0.596923
Si Si5 0.718683 0.894920 0.221795
Si Si6 0.599572 0.931833 0.207377
Si Si7 0.920582 0.679130 0.349524
Si Si8 0.665163 0.438000 0.957195
O O1 0.816078 0.730229 0.277754
O O2 0.638403 0.717504 0.612084
O O3 0.840500 0.793761 0.403872
O O4 0.723115 0.969279 0.456846
O O5 0.127162 0.618281 0.751843
O O6 0.020777 0.436589 0.787473
O O7 0.016194 0.725251 0.770845
O O8 0.906160 0.592615 0.036899
O O9 0.292040 0.230866 0.226402
O O10 0.281415 0.991279 0.149197
O O11 0.328571 0.565407 0.425511
O O12 0.303181 0.772728 0.571071
O O13 0.620979 0.923144 0.280162
O O14 0.709101 0.013166 0.308164
O O15 0.843054 0.909948 0.017317
O O16 0.468780 0.960944 0.361238
#
# Coordination Sequence:
#
# PCOD8124624 Si02
#       8
#     4   4   4   4   4   4   4   4
#     4   9  19  38  55  78 116 147 185 225 280 330
#     4  11  21  37  58  81 112 147 183 222 284 327
#     4   9  19  37  58  77 108 152 176 223 282 331
#     4  11  22  37  57  88 113 139 191 234 267 334
#     4   9  19  39  55  79 110 149 183 224 283 329
#     4  10  19  40  59  77 113 152 185 231 281 321
#     4  10  21  36  57  80 113 149 181 227 278 334
#     4  11  22  34  59  86 110 146 190 232 275 326
#
# _framework density 18.670500000000001
#
# number of rings (size 3 to 8) (size 9 to 14) (size 15 to 20)
#    0.000    2.000    3.750    1.500    1.750    1.000 
#    0.000    2.500    0.000    0.000    0.000    0.000 
#    0.000    0.000    0.000    0.000    0.000    0.000 
#
# Total GULP energy -396777.315931 kJ/mol
# GULP energy per Si atom -12399.291123 kJ/mol
# Density = 1.862800 g / cm^3
# Si number density = 18.670500 Si / 1000 Ang^3
#
#
#
# Elastic Constant Matrix: (Units=GPa)
#
#
# Indices 1 2 3 4 5 6 
#
# 1 77.7865 53.9387 43.8551 0.0000 11.4011 0.0000
# 2 53.9387 119.7785 38.8077 0.0000 0.6985 0.0000
# 3 43.8551 38.8077 72.9753 0.0000 8.8601 0.0000
# 4 0.0000 0.0000 0.0000 15.6751 0.0000 -1.1772
# 5 11.4011 0.6985 8.8601 0.0000 23.3180 0.0000
# 6 0.0000 0.0000 0.0000 -1.1772 0.0000 29.5831
#
#
#
# Elastic Compliance Matrix: (Units=1/GPa)
#
#
# Indices 1 2 3 4 5 6 
#
# 1 0.025283 -0.008147 -0.009844 0.000000 -0.008377 0.000000
# 2 -0.008147 0.012786 -0.002454 0.000000 0.004533 0.000000
# 3 -0.009844 -0.002454 0.021314 0.000000 -0.003212 0.000000
# 4 0.000000 0.000000 0.000000 0.063987 0.000000 0.002546
# 5 -0.008377 0.004533 -0.003212 0.000000 0.048066 0.000000
# 6 0.000000 0.000000 0.000000 0.002546 0.000000 0.033904
#
#
# Mechanical properties :
#
#
# Convention : Reuss Voigt Hill
#
# Bulk Modulus (GPa) = 54.07518 60.41592 57.24555
# Shear Modulus (GPa) = 19.81018 22.64449 21.22734
#
# Velocity S-wave (km/s) = 3.26090 3.48638 3.37552
# Velocity P-wave (km/s) = 6.57295 6.97393 6.77641
#
# Compressibility (1/GPa) = 0.01849277
#
# Stress axis : x y z
#
# Youngs Moduli (GPa) = 39.55211 78.20964 46.91692
#
# Poissons Ratio (x) = 0.63718 0.46187
# Poissons Ratio (y) = 0.32223 0.11513
# Poissons Ratio (z) = 0.38937 0.19192
#
# Static dielectric constant tensor:
#      x y z
#    x 3.508580 0.000000 0.209820 
#    y 0.000000 3.470120 0.000000 
#    z 0.209820 0.000000 3.449460 
# 
# 
# High freq. dielectric constant tensor:
#      x y z
#    x 1.720870 0.000000 0.015670 
#    y 0.000000 1.721280 0.000000 
#    z 0.015670 0.000000 1.725850 
# 
# From -- ./inp_files/51343.got.cif
#   From: 2010.03.12/outbox.cif.g09.slc.cpg/sg14_26_cif.got.tgz:51343.got - 2010.03.31 13:35:05.
