data_PCOD8124739
_publ_section_title
;
Structure prediction by ZEFSAII (Michael W. Deem and Ramdas Pophale) SiO2 
 PCOD8124739
Probable space group: P 21/C
;
_chemical_formula_sum "Si O2"
_cell_formula_units_Z 24
_cell_length_a 12.295563
_cell_length_b 4.979351
_cell_length_c 23.644579
_cell_angle_alpha 90.000000
_cell_angle_beta 117.378147
_cell_angle_gamma 90.000000
_cell_volume 1285.467894
_symmetry_space_group_name_H-M "P 21/C"
_symmetry_group_IT_number 14
_symmetry_cell_setting 'monoclinic'
loop_
_space_group_symop_operation_xyz
x,y,z
-x,1/2+y,1/2-z
-x,-y,-z
x,1/2-y,1/2+z
loop_
_atom_site_type_symbol
_atom_site_label
_atom_site_fract_x
_atom_site_fract_y
_atom_site_fract_z
Si Si1 0.356848 0.608116 0.680090
Si Si2 0.159281 0.898058 0.786070
Si Si3 0.899070 0.723601 0.034227
Si Si4 0.085141 0.390212 0.834236
Si Si5 0.838541 0.223233 0.957066
Si Si6 0.637239 0.899417 0.244002
O O1 0.269166 0.591140 0.605453
O O2 0.326859 0.394929 0.723295
O O3 0.495799 0.575604 0.691902
O O4 0.334279 0.903669 0.697907
O O5 0.163828 0.601379 0.815119
O O6 0.059559 0.926177 0.712078
O O7 0.122522 0.090046 0.828124
O O8 0.287857 0.003184 0.792681
O O9 0.888277 0.591825 0.093301
O O10 0.040824 0.752054 0.052055
O O11 0.818383 0.523190 0.975709
O O12 0.847681 0.023377 0.013324
#
# Coordination Sequence:
#
# PCOD8124739 Si02
#       6
#     4   4   4   4   4   4
#     4  10  20  34  54  78 103 132 167 210 258 302
#     4  10  20  33  52  75 101 133 167 208 254 300
#     4  10  20  33  51  75 103 134 168 206 252 302
#     4  10  20  33  51  75 102 134 168 206 252 302
#     4  10  20  33  52  76 102 134 167 208 255 300
#     4  10  20  34  54  78 103 132 167 211 257 302
#
# _framework density 18.670242999999999
#
# number of rings (size 3 to 8) (size 9 to 14) (size 15 to 20)
#    0.000    2.000    0.000    4.000    0.000    5.333 
#    0.000    0.000    0.000    6.000    0.000    0.000 
#    0.000    0.000    0.000    0.000    0.000    0.000 
#
# Total GULP energy -297449.396441 kJ/mol
# GULP energy per Si atom -12393.724852 kJ/mol
# Density = 1.862775 g / cm^3
# Si number density = 18.670243 Si / 1000 Ang^3
#
#
#
# Elastic Constant Matrix: (Units=GPa)
#
#
# Indices 1 2 3 4 5 6 
#
# 1 67.6682 16.5811 34.3374 0.0000 -0.6747 0.0000
# 2 16.5811 79.0886 28.1332 0.0000 7.5959 0.0000
# 3 34.3374 28.1332 103.5286 0.0000 0.2462 0.0000
# 4 0.0000 0.0000 0.0000 20.1215 0.0000 3.6558
# 5 -0.6747 7.5959 0.2462 0.0000 16.6723 0.0000
# 6 0.0000 0.0000 0.0000 3.6558 0.0000 17.2012
#
#
#
# Elastic Compliance Matrix: (Units=1/GPa)
#
#
# Indices 1 2 3 4 5 6 
#
# 1 0.018051 -0.002014 -0.005444 0.000000 0.001728 0.000000
# 2 -0.002014 0.014921 -0.003371 0.000000 -0.006830 0.000000
# 3 -0.005444 -0.003371 0.012378 0.000000 0.001133 0.000000
# 4 0.000000 0.000000 0.000000 0.051694 0.000000 -0.010987
# 5 0.001728 -0.006830 0.001133 0.000000 0.063145 0.000000
# 6 0.000000 0.000000 0.000000 -0.010987 0.000000 0.060471
#
#
# Mechanical properties :
#
#
# Convention : Reuss Voigt Hill
#
# Bulk Modulus (GPa) = 42.20554 45.37653 43.79104
# Shear Modulus (GPa) = 19.98288 22.21458 21.09873
#
# Velocity S-wave (km/s) = 3.27510 3.45315 3.36530
# Velocity P-wave (km/s) = 6.07919 6.34476 6.21339
#
# Compressibility (1/GPa) = 0.02369357
#
# Stress axis : x y z
#
# Youngs Moduli (GPa) = 55.39814 67.01877 80.78874
#
# Poissons Ratio (x) = 0.13498 0.43980
# Poissons Ratio (y) = 0.11157 0.27230
# Poissons Ratio (z) = 0.30158 0.22589
#
# Static dielectric constant tensor:
#      x y z
#    x 3.282420 0.000000 0.120010 
#    y 0.000000 3.675090 0.000000 
#    z 0.120010 0.000000 3.183090 
# 
# 
# High freq. dielectric constant tensor:
#      x y z
#    x 1.698420 0.000000 -0.002370 
#    y 0.000000 1.750580 0.000000 
#    z -0.002370 0.000000 1.709190 
# 
# From -- ./inp_files/66345.got.cif
#   From: 2010.03.12/outbox.cif.g09.slc.cpg/sg14_34_cif.got.tgz:66345.got - 2010.03.31 13:35:05.
