data_PCOD8124538
_publ_section_title
;
Structure prediction by ZEFSAII (Michael W. Deem and Ramdas Pophale) SiO2 
 PCOD8124538
Probable space group: P 21/C
;
_chemical_formula_sum "Si O2"
_cell_formula_units_Z 20
_cell_length_a 11.335652
_cell_length_b 5.953138
_cell_length_c 19.589471
_cell_angle_alpha 90.000000
_cell_angle_beta 138.572528
_cell_angle_gamma 90.000000
_cell_volume 874.696843
_symmetry_space_group_name_H-M "P 21/C"
_symmetry_group_IT_number 14
_symmetry_cell_setting 'monoclinic'
loop_
_space_group_symop_operation_xyz
x,y,z
-x,1/2+y,1/2-z
-x,-y,-z
x,1/2-y,1/2+z
loop_
_atom_site_type_symbol
_atom_site_label
_atom_site_fract_x
_atom_site_fract_y
_atom_site_fract_z
Si Si1 0.791326 0.560897 0.478321
Si Si2 0.536346 0.185874 0.960750
Si Si3 0.233747 0.519496 0.843233
Si Si4 0.918914 0.685613 0.916743
Si Si5 0.038972 0.855278 0.676967
O O1 0.608975 0.446155 0.425461
O O2 0.762233 0.683240 0.391450
O O3 0.871274 0.745125 0.564892
O O4 0.932837 0.364949 0.535842
O O5 0.354838 0.319317 0.865138
O O6 0.677773 0.361541 0.052727
O O7 0.500000 0.000000 0.000000
O O8 0.040404 0.436538 0.785020
O O9 0.198895 0.683555 0.763860
O O10 0.864716 0.558307 0.823245
O O11 0.000000 0.500000 0.000000
#
# Coordination Sequence:
#
# PCOD8124538 Si02
#       5
#     4   4   4   4   4
#     4  10  19  38  63  92 124 168 214 261 317 384
#     4  11  22  39  58  98 130 167 208 262 335 389
#     4  11  24  34  60  96 133 166 205 277 331 381
#     4   9  20  35  62  95 115 164 216 260 303 386
#     4  11  21  37  58  98 128 161 222 268 320 385
#
# _framework density 22.865064
#
# number of rings (size 3 to 8) (size 9 to 14) (size 15 to 20)
#    0.000    1.600    4.000    1.200    0.000    0.000 
#    0.000    0.000    0.000    0.000   88.400    0.000 
#    0.000    0.000    0.000    0.000    0.000    0.000 
#
# Total GULP energy -247855.196886 kJ/mol
# GULP energy per Si atom -12392.759844 kJ/mol
# Density = 2.281302 g / cm^3
# Si number density = 22.865064 Si / 1000 Ang^3
#
#
#
# Elastic Constant Matrix: (Units=GPa)
#
#
# Indices 1 2 3 4 5 6 
#
# 1 185.1837 85.6994 39.7782 0.0000 -7.1109 0.0000
# 2 85.6994 140.8447 33.8144 0.0000 -5.9628 0.0000
# 3 39.7782 33.8144 56.7320 0.0000 -2.9502 0.0000
# 4 0.0000 0.0000 0.0000 52.1394 0.0000 -10.1097
# 5 -7.1109 -5.9628 -2.9502 0.0000 17.8647 0.0000
# 6 0.0000 0.0000 0.0000 -10.1097 0.0000 58.9374
#
#
#
# Elastic Compliance Matrix: (Units=1/GPa)
#
#
# Indices 1 2 3 4 5 6 
#
# 1 0.008001 -0.004064 -0.003120 0.000000 0.001313 0.000000
# 2 -0.004064 0.010419 -0.003292 0.000000 0.001316 0.000000
# 3 -0.003120 -0.003292 0.021842 0.000000 0.001266 0.000000
# 4 0.000000 0.000000 0.000000 0.019839 0.000000 0.003403
# 5 0.001313 0.001316 0.001266 0.000000 0.057148 0.000000
# 6 0.000000 0.000000 0.000000 0.003403 0.000000 0.017551
#
#
# Mechanical properties :
#
#
# Convention : Reuss Voigt Hill
#
# Bulk Modulus (GPa) = 51.78401 77.92715 64.85558
# Shear Modulus (GPa) = 30.82830 40.68617 35.75724
#
# Velocity S-wave (km/s) = 3.67586 4.22287 3.95883
# Velocity P-wave (km/s) = 6.38066 7.61132 7.02300
#
# Compressibility (1/GPa) = 0.01931098
#
# Stress axis : x y z
#
# Youngs Moduli (GPa) = 124.97957 95.97924 45.78293
#
# Poissons Ratio (x) = 0.39006 0.14283
# Poissons Ratio (y) = 0.50791 0.15072
# Poissons Ratio (z) = 0.38989 0.31597
#
# Static dielectric constant tensor:
#      x y z
#    x 4.724610 0.000000 -0.344240 
#    y 0.000000 4.661540 0.000000 
#    z -0.344240 0.000000 3.804400 
# 
# 
# High freq. dielectric constant tensor:
#      x y z
#    x 1.904680 0.000000 -0.014870 
#    y 0.000000 1.937050 0.000000 
#    z -0.014870 0.000000 1.849280 
# 
# From -- ./inp_files/56643.got.cif
#   From: 2010.03.12/outbox.cif.g09.slc.cpg/sg14_29_cif.got.tgz:56643.got - 2010.03.31 13:35:05.
