data_PCOD8124127
_publ_section_title
;
Structure prediction by ZEFSAII (Michael W. Deem and Ramdas Pophale) SiO2 
 PCOD8124127
Probable space group: P 21/C
;
_chemical_formula_sum "Si O2"
_cell_formula_units_Z 32
_cell_length_a 23.229805
_cell_length_b 11.163099
_cell_length_c 9.703614
_cell_angle_alpha 90.000000
_cell_angle_beta 136.394262
_cell_angle_gamma 90.000000
_cell_volume 1735.477876
_symmetry_space_group_name_H-M "P 21/C"
_symmetry_group_IT_number 14
_symmetry_cell_setting 'monoclinic'
loop_
_space_group_symop_operation_xyz
x,y,z
-x,1/2+y,1/2-z
-x,-y,-z
x,1/2-y,1/2+z
loop_
_atom_site_type_symbol
_atom_site_label
_atom_site_fract_x
_atom_site_fract_y
_atom_site_fract_z
Si Si1 0.042265 0.634652 0.215792
Si Si2 0.117451 0.493224 0.107622
Si Si3 0.540514 0.877214 0.405145
Si Si4 0.461205 0.364334 0.775341
Si Si5 0.059496 0.607157 0.750674
Si Si6 0.268847 0.350860 0.445927
Si Si7 0.265828 0.131291 0.256589
Si Si8 0.890867 0.493729 0.436645
O O1 0.085637 0.532949 0.200964
O O2 0.067885 0.762118 0.200552
O O3 0.081181 0.627681 0.437152
O O4 0.941872 0.616609 0.045089
O O5 0.213715 0.458745 0.291315
O O6 0.110935 0.596746 0.981697
O O7 0.518734 0.845116 0.527091
O O8 0.512189 0.759094 0.263343
O O9 0.638189 0.904492 0.553597
O O10 0.500280 0.007152 0.292478
O O11 0.363825 0.384215 0.580266
O O12 0.100318 0.516278 0.712383
O O13 0.960815 0.588648 0.609877
O O14 0.239382 0.234353 0.314669
O O15 0.252104 0.325830 0.576997
O O16 0.203952 0.022820 0.185515
#
# Coordination Sequence:
#
# PCOD8124127 Si02
#       8
#     4   4   4   4   4   4   4   4
#     4  10  19  35  50  70 102 139 179 216 270 314
#     4  10  20  33  53  73 101 138 177 221 262 315
#     4   9  19  37  61  87 115 148 181 229 280 335
#     4   9  19  37  61  86 117 146 183 229 279 335
#     4  10  21  33  50  74 102 139 180 219 264 318
#     4  10  20  35  56  81 106 139 178 223 265 315
#     4  10  20  35  57  80 107 137 178 224 266 314
#     4  10  20  35  51  73 103 137 176 224 262 310
#
# _framework density 18.438725999999999
#
# number of rings (size 3 to 8) (size 9 to 14) (size 15 to 20)
#    0.000    2.250    1.250    1.500    1.750    0.500 
#    4.500    2.500    0.000    0.000    0.000    0.000 
#    0.000    0.000    0.000    0.000    0.000    0.000 
#
# Total GULP energy -396433.469097 kJ/mol
# GULP energy per Si atom -12388.545909 kJ/mol
# Density = 1.839676 g / cm^3
# Si number density = 18.438726 Si / 1000 Ang^3
#
#
#
# Elastic Constant Matrix: (Units=GPa)
#
#
# Indices 1 2 3 4 5 6 
#
# 1 82.9152 38.1173 34.7607 0.0000 -2.8755 0.0000
# 2 38.1173 104.8166 44.0339 0.0000 0.7991 0.0000
# 3 34.7607 44.0339 83.2489 0.0000 -2.1825 0.0000
# 4 0.0000 0.0000 0.0000 17.3626 0.0000 -4.5240
# 5 -2.8755 0.7991 -2.1825 0.0000 26.3869 0.0000
# 6 0.0000 0.0000 0.0000 -4.5240 0.0000 23.3946
#
#
#
# Elastic Compliance Matrix: (Units=1/GPa)
#
#
# Indices 1 2 3 4 5 6 
#
# 1 0.015773 -0.003852 -0.004510 0.000000 0.001463 0.000000
# 2 -0.003852 0.013229 -0.005422 0.000000 -0.001269 0.000000
# 3 -0.004510 -0.005422 0.016791 0.000000 0.001062 0.000000
# 4 0.000000 0.000000 0.000000 0.060651 0.000000 0.011728
# 5 0.001463 -0.001269 0.001062 0.000000 0.038183 0.000000
# 6 0.000000 0.000000 0.000000 0.011728 0.000000 0.045013
#
#
# Mechanical properties :
#
#
# Convention : Reuss Voigt Hill
#
# Bulk Modulus (GPa) = 54.87232 56.08940 55.48086
# Shear Modulus (GPa) = 22.39305 23.70008 23.04656
#
# Velocity S-wave (km/s) = 3.48869 3.58906 3.53923
# Velocity P-wave (km/s) = 6.78615 6.90366 6.84515
#
# Compressibility (1/GPa) = 0.01822413
#
# Stress axis : x y z
#
# Youngs Moduli (GPa) = 63.39948 75.59189 59.55544
#
# Poissons Ratio (x) = 0.29121 0.26859
# Poissons Ratio (y) = 0.24424 0.32291
# Poissons Ratio (z) = 0.28593 0.40986
#
# Static dielectric constant tensor:
#      x y z
#    x 3.344500 0.000000 -0.112070 
#    y 0.000000 3.306290 0.000000 
#    z -0.112070 0.000000 3.472590 
# 
# 
# High freq. dielectric constant tensor:
#      x y z
#    x 1.710970 0.000000 -0.014150 
#    y 0.000000 1.701500 0.000000 
#    z -0.014150 0.000000 1.716640 
# 
# From -- ./inp_files/18879.got.cif
#   From: 2010.03.12/outbox.cif.g09.slc.cpg/sg14_10_cif.got.tgz:18879.got - 2010.03.31 13:35:05.
