data_PCOD8124968
_publ_section_title
;
Structure prediction by ZEFSAII (Michael W. Deem and Ramdas Pophale) SiO2 
 PCOD8124968
Probable space group: P 21/C
;
_chemical_formula_sum "Si O2"
_cell_formula_units_Z 28
_cell_length_a 7.094187
_cell_length_b 29.414916
_cell_length_c 8.300762
_cell_angle_alpha 90.000000
_cell_angle_beta 124.504883
_cell_angle_gamma 90.000000
_cell_volume 1427.435461
_symmetry_space_group_name_H-M "P 21/C"
_symmetry_group_IT_number 14
_symmetry_cell_setting 'monoclinic'
loop_
_space_group_symop_operation_xyz
x,y,z
-x,1/2+y,1/2-z
-x,-y,-z
x,1/2-y,1/2+z
loop_
_atom_site_type_symbol
_atom_site_label
_atom_site_fract_x
_atom_site_fract_y
_atom_site_fract_z
Si Si1 0.094626 0.307355 0.660598
Si Si2 0.856816 0.232590 0.744195
Si Si3 0.119815 0.619466 0.227895
Si Si4 0.659026 0.017713 0.438710
Si Si5 0.885965 0.563421 0.854187
Si Si6 0.617315 0.195484 0.325896
Si Si7 0.502651 0.448040 0.555443
O O1 0.359974 0.309551 0.755202
O O2 0.045349 0.267438 0.765314
O O3 0.966571 0.299842 0.430457
O O4 0.013980 0.355218 0.694903
O O5 0.768798 0.200534 0.559581
O O6 0.649389 0.260777 0.725459
O O7 0.307861 0.651004 0.233845
O O8 0.258645 0.577292 0.375667
O O9 0.934754 0.603727 0.004389
O O10 0.501892 0.050539 0.250372
O O11 0.875894 0.046287 0.609691
O O12 0.500000 0.000000 0.500000
O O13 0.755989 0.975973 0.385323
O O14 0.715620 0.578726 0.626274
O O15 0.500000 0.500000 0.500000
#
# Coordination Sequence:
#
# PCOD8124968 Si02
#       7
#     4   4   4   4   4   4   4
#     4  10  20  36  58  82 113 145 178 224 269 318
#     4   9  20  37  58  83 108 144 184 215 266 328
#     4  10  22  35  52  83 112 141 183 225 270 327
#     4   9  18  34  57  79  97 132 184 224 265 323
#     4   9  19  36  52  73 110 139 167 223 273 310
#     4  10  20  36  56  81 112 142 179 222 266 323
#     4   9  19  38  57  74 106 147 183 226 279 327
#
# _framework density 19.615597999999999
#
# number of rings (size 3 to 8) (size 9 to 14) (size 15 to 20)
#    0.000    2.571    0.000    1.714    0.000    5.143 
#    0.000    8.571    0.000    0.000    0.000    0.000 
#    0.000    0.000    0.000    0.000    0.000    0.000 
#
# Total GULP energy -347060.224303 kJ/mol
# GULP energy per Si atom -12395.008011 kJ/mol
# Density = 1.957095 g / cm^3
# Si number density = 19.615598 Si / 1000 Ang^3
#
#
#
# Elastic Constant Matrix: (Units=GPa)
#
#
# Indices 1 2 3 4 5 6 
#
# 1 98.9030 11.9487 33.2209 0.0000 8.5912 0.0000
# 2 11.9487 57.5146 20.2963 0.0000 8.9654 0.0000
# 3 33.2209 20.2963 103.3488 0.0000 15.2111 0.0000
# 4 0.0000 0.0000 0.0000 39.0274 0.0000 -2.9133
# 5 8.5912 8.9654 15.2111 0.0000 26.2566 0.0000
# 6 0.0000 0.0000 0.0000 -2.9133 0.0000 22.2376
#
#
#
# Elastic Compliance Matrix: (Units=1/GPa)
#
#
# Indices 1 2 3 4 5 6 
#
# 1 0.011459 -0.000992 -0.003265 0.000000 -0.001519 0.000000
# 2 -0.000992 0.019302 -0.002787 0.000000 -0.004651 0.000000
# 3 -0.003265 -0.002787 0.011999 0.000000 -0.004931 0.000000
# 4 0.000000 0.000000 0.000000 0.025876 0.000000 0.003390
# 5 -0.001519 -0.004651 -0.004931 0.000000 0.043028 0.000000
# 6 0.000000 0.000000 0.000000 0.003390 0.000000 0.045413
#
#
# Mechanical properties :
#
#
# Convention : Reuss Voigt Hill
#
# Bulk Modulus (GPa) = 34.87770 43.41092 39.14431
# Shear Modulus (GPa) = 27.66684 30.45769 29.06226
#
# Velocity S-wave (km/s) = 3.75967 3.94474 3.85332
# Velocity P-wave (km/s) = 6.05525 6.55186 6.30844
#
# Compressibility (1/GPa) = 0.02867161
#
# Stress axis : x y z
#
# Youngs Moduli (GPa) = 87.26418 51.80933 83.34242
#
# Poissons Ratio (x) = 0.05137 0.27213
# Poissons Ratio (y) = 0.08653 0.23229
# Poissons Ratio (z) = 0.28494 0.14440
#
# Static dielectric constant tensor:
#      x y z
#    x 3.466740 0.000000 0.016470 
#    y 0.000000 3.582060 0.000000 
#    z 0.016470 0.000000 4.112860 
# 
# 
# High freq. dielectric constant tensor:
#      x y z
#    x 1.752650 0.000000 0.003060 
#    y 0.000000 1.757620 0.000000 
#    z 0.003060 0.000000 1.773250 
# 
# From -- ./inp_files/6866.got.cif
#   From: 2010.03.12/outbox.cif.g09.slc.cpg/sg14_4_cif.got.tgz:6866.got - 2010.03.31 13:35:05.
