data_PCOD8124824
_publ_section_title
;
Structure prediction by ZEFSAII (Michael W. Deem and Ramdas Pophale) SiO2 
 PCOD8124824
Probable space group: P 21/C
;
_chemical_formula_sum "Si O2"
_cell_formula_units_Z 20
_cell_length_a 9.831091
_cell_length_b 12.043782
_cell_length_c 16.378848
_cell_angle_alpha 90.000000
_cell_angle_beta 146.420930
_cell_angle_gamma 90.000000
_cell_volume 1072.609404
_symmetry_space_group_name_H-M "P 21/C"
_symmetry_group_IT_number 14
_symmetry_cell_setting 'monoclinic'
loop_
_space_group_symop_operation_xyz
x,y,z
-x,1/2+y,1/2-z
-x,-y,-z
x,1/2-y,1/2+z
loop_
_atom_site_type_symbol
_atom_site_label
_atom_site_fract_x
_atom_site_fract_y
_atom_site_fract_z
Si Si1 0.272919 0.316610 0.965389
Si Si2 0.281718 0.958074 0.554444
Si Si3 0.499961 0.749973 0.078101
Si Si4 0.281533 0.458111 0.227279
Si Si5 0.272452 0.683453 0.307339
O O1 0.280522 0.293012 0.871702
O O2 0.000249 0.279906 0.861359
O O3 0.312071 0.446778 0.001412
O O4 0.500268 0.250016 0.122497
O O5 0.426180 0.849949 0.599455
O O6 0.000066 0.923184 0.425564
O O7 0.389809 0.999969 0.694976
O O8 0.573962 0.850021 0.173202
O O9 0.280193 0.792846 0.908683
O O10 0.311653 0.553270 0.310555
#
# Coordination Sequence:
#
# PCOD8124824 Si02
#       5
#     4   4   4   4   4
#     4   9  20  36  59  85 112 149 191 233 278 333
#     4  10  21  37  56  83 118 150 185 235 289 333
#     4  10  20  34  60  82 110 150 192 226 278 338
#     4  10  21  37  56  83 118 150 185 235 289 333
#     4   9  20  36  59  85 112 149 191 233 278 333
#
# _framework density 18.646117
#
# number of rings (size 3 to 8) (size 9 to 14) (size 15 to 20)
#    1.200    1.200    0.000    2.400    2.800    0.000 
#    0.000    2.000    0.000    6.000    0.000    0.000 
#    0.000    0.000    0.000    0.000    0.000    0.000 
#
# Total GULP energy -247773.212499 kJ/mol
# GULP energy per Si atom -12388.660625 kJ/mol
# Density = 1.860368 g / cm^3
# Si number density = 18.646117 Si / 1000 Ang^3
#
#
#
# Elastic Constant Matrix: (Units=GPa)
#
#
# Indices 1 2 3 4 5 6 
#
# 1 65.7624 53.4224 46.3644 0.0000 2.8320 0.0000
# 2 53.4224 129.0032 59.9647 0.0000 11.3559 0.0000
# 3 46.3644 59.9647 78.1282 0.0000 18.3816 0.0000
# 4 0.0000 0.0000 0.0000 30.6468 0.0000 -0.3607
# 5 2.8320 11.3559 18.3816 0.0000 36.3514 0.0000
# 6 0.0000 0.0000 0.0000 -0.3607 0.0000 30.9182
#
#
#
# Elastic Compliance Matrix: (Units=1/GPa)
#
#
# Indices 1 2 3 4 5 6 
#
# 1 0.030619 -0.006344 -0.014990 0.000000 0.007176 0.000000
# 2 -0.006344 0.013400 -0.006415 0.000000 -0.000448 0.000000
# 3 -0.014990 -0.006415 0.029366 0.000000 -0.011678 0.000000
# 4 0.000000 0.000000 0.000000 0.032634 0.000000 0.000381
# 5 0.007176 -0.000448 -0.011678 0.000000 0.032995 0.000000
# 6 0.000000 0.000000 0.000000 0.000381 0.000000 0.032348
#
#
# Mechanical properties :
#
#
# Convention : Reuss Voigt Hill
#
# Bulk Modulus (GPa) = 55.90296 65.82190 60.86243
# Shear Modulus (GPa) = 21.47568 27.12611 24.30089
#
# Velocity S-wave (km/s) = 3.39743 3.81830 3.61400
# Velocity P-wave (km/s) = 6.74063 7.40382 7.07999
#
# Compressibility (1/GPa) = 0.01788814
#
# Stress axis : x y z
#
# Youngs Moduli (GPa) = 32.65953 74.62705 34.05307
#
# Poissons Ratio (x) = 0.47341 0.51045
# Poissons Ratio (y) = 0.20718 0.21844
# Poissons Ratio (z) = 0.48957 0.47871
#
# Static dielectric constant tensor:
#      x y z
#    x 3.331360 0.000000 0.005550 
#    y 0.000000 3.302640 0.000000 
#    z 0.005550 0.000000 3.333980 
# 
# 
# High freq. dielectric constant tensor:
#      x y z
#    x 1.710620 0.000000 0.001500 
#    y 0.000000 1.723780 0.000000 
#    z 0.001500 0.000000 1.711460 
# 
# From -- ./inp_files/33780.got.cif
#   From: 2010.03.12/outbox.cif.g09.slc.cpg/sg14_17_cif.got.tgz:33780.got - 2010.03.31 13:35:05.
