data_PCOD8124168
_publ_section_title
;
Structure prediction by ZEFSAII (Michael W. Deem and Ramdas Pophale) SiO2 
 PCOD8124168
Probable space group: P 21/C
;
_chemical_formula_sum "Si O2"
_cell_formula_units_Z 28
_cell_length_a 13.105117
_cell_length_b 17.209542
_cell_length_c 16.737952
_cell_angle_alpha 90.000000
_cell_angle_beta 156.891143
_cell_angle_gamma 90.000000
_cell_volume 1481.594275
_symmetry_space_group_name_H-M "P 21/C"
_symmetry_group_IT_number 14
_symmetry_cell_setting 'monoclinic'
loop_
_space_group_symop_operation_xyz
x,y,z
-x,1/2+y,1/2-z
-x,-y,-z
x,1/2-y,1/2+z
loop_
_atom_site_type_symbol
_atom_site_label
_atom_site_fract_x
_atom_site_fract_y
_atom_site_fract_z
Si Si1 0.255787 0.214728 0.348192
Si Si2 0.183251 0.775892 0.267813
Si Si3 0.612278 0.007525 0.992915
Si Si4 0.675601 0.838496 0.975426
Si Si5 0.142203 0.774328 0.562758
Si Si6 0.848744 0.921407 0.413331
Si Si7 0.034921 0.120883 0.328745
O O1 0.527870 0.192949 0.499255
O O2 0.303805 0.298344 0.423358
O O3 0.219722 0.149508 0.390586
O O4 0.003382 0.221855 0.108982
O O5 0.155505 0.775993 0.152472
O O6 0.953380 0.831937 0.132241
O O7 0.162209 0.690383 0.291123
O O8 0.445472 0.071113 0.826167
O O9 0.899168 0.042313 0.201565
O O10 0.500000 0.000000 0.000000
O O11 0.606279 0.927503 0.940441
O O12 0.440912 0.798338 0.754715
O O13 0.981328 0.852431 0.460255
O O14 0.817132 0.902564 0.484073
O O15 0.000000 0.000000 0.500000
#
# Coordination Sequence:
#
# PCOD8124168 Si02
#       7
#     4   4   4   4   4   4   4
#     4  10  21  37  57  78 113 150 193 227 278 340
#     4   9  20  38  53  78 113 148 188 232 272 337
#     4  12  20  33  56  86 116 142 181 236 292 339
#     4  10  21  34  55  84 113 142 188 235 285 333
#     4  10  19  35  57  81 107 148 185 232 280 337
#     4  11  19  33  56  85 116 137 177 235 295 333
#     4  10  22  35  54  85 112 148 183 232 289 332
#
# _framework density 18.898561000000001
#
# number of rings (size 3 to 8) (size 9 to 14) (size 15 to 20)
#    0.000    1.714    2.857    3.429    0.000    6.857 
#    0.000    0.714    0.000    1.714    0.000    0.000 
#    0.000    0.000    0.000    0.000    0.000    0.000 
#
# Total GULP energy -347033.750706 kJ/mol
# GULP energy per Si atom -12394.062525 kJ/mol
# Density = 1.885555 g / cm^3
# Si number density = 18.898561 Si / 1000 Ang^3
#
#
#
# Elastic Constant Matrix: (Units=GPa)
#
#
# Indices 1 2 3 4 5 6 
#
# 1 88.4901 28.7832 53.4961 0.0000 13.4844 0.0000
# 2 28.7832 53.7190 26.1549 0.0000 1.9732 0.0000
# 3 53.4961 26.1549 124.8012 0.0000 8.1030 0.0000
# 4 0.0000 0.0000 0.0000 32.2465 0.0000 -1.1422
# 5 13.4844 1.9732 8.1030 0.0000 31.2483 0.0000
# 6 0.0000 0.0000 0.0000 -1.1422 0.0000 23.7343
#
#
#
# Elastic Compliance Matrix: (Units=1/GPa)
#
#
# Indices 1 2 3 4 5 6 
#
# 1 0.017870 -0.006477 -0.005928 0.000000 -0.005765 0.000000
# 2 -0.006477 0.023079 -0.002184 0.000000 0.001904 0.000000
# 3 -0.005928 -0.002184 0.011022 0.000000 -0.000162 0.000000
# 4 0.000000 0.000000 0.000000 0.031064 0.000000 0.001495
# 5 -0.005765 0.001904 -0.000162 0.000000 0.034411 0.000000
# 6 0.000000 0.000000 0.000000 0.001495 0.000000 0.042205
#
#
# Mechanical properties :
#
#
# Convention : Reuss Voigt Hill
#
# Bulk Modulus (GPa) = 43.87326 53.76431 48.81879
# Shear Modulus (GPa) = 25.45475 28.01757 26.73616
#
# Velocity S-wave (km/s) = 3.67401 3.85453 3.76536
# Velocity P-wave (km/s) = 6.42366 6.95130 6.69268
#
# Compressibility (1/GPa) = 0.02279293
#
# Stress axis : x y z
#
# Youngs Moduli (GPa) = 55.96061 43.32915 90.72654
#
# Poissons Ratio (x) = 0.28063 0.53785
# Poissons Ratio (y) = 0.36244 0.19816
# Poissons Ratio (z) = 0.33175 0.09464
#
# Static dielectric constant tensor:
#      x y z
#    x 3.396340 0.000000 0.052600 
#    y 0.000000 3.062670 0.000000 
#    z 0.052600 0.000000 3.813300 
# 
# 
# High freq. dielectric constant tensor:
#      x y z
#    x 1.716170 0.000000 0.000680 
#    y 0.000000 1.712460 0.000000 
#    z 0.000680 0.000000 1.747560 
# 
# From -- ./inp_files/33089.got.cif
#   From: 2010.03.12/outbox.cif.g09.slc.cpg/sg14_17_cif.got.tgz:33089.got - 2010.03.31 13:35:05.
