data_PCOD8124354
_publ_section_title
;
Structure prediction by ZEFSAII (Michael W. Deem and Ramdas Pophale) SiO2 
 PCOD8124354
Probable space group: P 21/C
;
_chemical_formula_sum "Si O2"
_cell_formula_units_Z 24
_cell_length_a 7.833246
_cell_length_b 15.775546
_cell_length_c 9.480062
_cell_angle_alpha 90.000000
_cell_angle_beta 94.666730
_cell_angle_gamma 90.000000
_cell_volume 1167.602932
_symmetry_space_group_name_H-M "P 21/C"
_symmetry_group_IT_number 14
_symmetry_cell_setting 'monoclinic'
loop_
_space_group_symop_operation_xyz
x,y,z
-x,1/2+y,1/2-z
-x,-y,-z
x,1/2-y,1/2+z
loop_
_atom_site_type_symbol
_atom_site_label
_atom_site_fract_x
_atom_site_fract_y
_atom_site_fract_z
Si Si1 0.111252 0.750608 0.121008
Si Si2 0.125196 0.259882 0.650138
Si Si3 0.165281 0.084076 0.577783
Si Si4 0.719990 0.914693 0.724031
Si Si5 0.796598 0.408237 0.203635
Si Si6 0.337468 0.590657 0.097919
O O1 0.933736 0.744146 0.192228
O O2 0.215414 0.831653 0.186538
O O3 0.223005 0.666611 0.151526
O O4 0.049146 0.763374 0.955668
O O5 0.242400 0.176429 0.628315
O O6 0.233782 0.346612 0.650877
O O7 0.158913 0.085614 0.407478
O O8 0.973362 0.084370 0.627048
O O9 0.267601 0.002279 0.641317
O O10 0.525679 0.898036 0.669507
O O11 0.754373 0.007677 0.792484
O O12 0.651470 0.401835 0.071734
#
# Coordination Sequence:
#
# PCOD8124354 Si02
#       6
#     4   4   4   4   4   4
#     4  11  21  39  63  86 113 156 201 240 283 348
#     4  11  21  39  62  86 115 153 202 240 286 344
#     4  10  19  36  63  82 113 158 201 234 273 355
#     4  11  22  35  58  89 124 150 191 245 299 343
#     4  10  20  37  63  85 113 156 206 236 281 349
#     4  11  21  36  59  88 120 154 192 241 295 352
#
# _framework density 20.554933999999999
#
# number of rings (size 3 to 8) (size 9 to 14) (size 15 to 20)
#    0.000    1.333    5.000    5.000    0.000    3.333 
#    0.000    0.000    0.000    5.000    0.000    0.000 
#    0.000    0.000    0.000    0.000    0.000    0.000 
#
# Total GULP energy -297353.992147 kJ/mol
# GULP energy per Si atom -12389.749673 kJ/mol
# Density = 2.050815 g / cm^3
# Si number density = 20.554934 Si / 1000 Ang^3
#
#
#
# Elastic Constant Matrix: (Units=GPa)
#
#
# Indices 1 2 3 4 5 6 
#
# 1 45.9860 42.4949 21.2709 0.0000 14.1340 0.0000
# 2 42.4949 233.4693 53.7883 0.0000 17.9375 0.0000
# 3 21.2709 53.7883 42.0012 0.0000 11.0616 0.0000
# 4 0.0000 0.0000 0.0000 44.2807 0.0000 4.6429
# 5 14.1340 17.9375 11.0616 0.0000 22.2145 0.0000
# 6 0.0000 0.0000 0.0000 4.6429 0.0000 22.4901
#
#
#
# Elastic Compliance Matrix: (Units=1/GPa)
#
#
# Indices 1 2 3 4 5 6 
#
# 1 0.032986 -0.002735 -0.009503 0.000000 -0.014047 0.000000
# 2 -0.002735 0.006330 -0.006714 0.000000 -0.000028 0.000000
# 3 -0.009503 -0.006714 0.039361 0.000000 -0.008132 0.000000
# 4 0.000000 0.000000 0.000000 0.023083 0.000000 -0.004765
# 5 -0.014047 -0.000028 -0.008132 0.000000 0.058025 0.000000
# 6 0.000000 0.000000 0.000000 -0.004765 0.000000 0.045448
#
#
# Mechanical properties :
#
#
# Convention : Reuss Voigt Hill
#
# Bulk Modulus (GPa) = 24.52590 61.84054 43.18322
# Shear Modulus (GPa) = 19.47581 31.39055 25.43318
#
# Velocity S-wave (km/s) = 3.08149 3.91212 3.52138
# Velocity P-wave (km/s) = 4.96171 7.11035 6.13089
#
# Compressibility (1/GPa) = 0.04077322
#
# Stress axis : x y z
#
# Youngs Moduli (GPa) = 30.31545 157.97734 25.40572
#
# Poissons Ratio (x) = 0.43214 0.24143
# Poissons Ratio (y) = 0.08293 0.17057
# Poissons Ratio (z) = 0.28809 1.06063
#
# Static dielectric constant tensor:
#      x y z
#    x 3.388500 0.000000 0.024800 
#    y 0.000000 4.566270 0.000000 
#    z 0.024800 0.000000 3.460300 
# 
# 
# High freq. dielectric constant tensor:
#      x y z
#    x 1.776940 0.000000 0.008610 
#    y 0.000000 1.840930 0.000000 
#    z 0.008610 0.000000 1.767240 
# 
# From -- ./inp_files/25011.got.cif
#   From: 2010.03.12/outbox.cif.g09.slc.cpg/sg14_13_cif.got.tgz:25011.got - 2010.03.31 13:35:05.
