data_PCOD8124436
_publ_section_title
;
Structure prediction by ZEFSAII (Michael W. Deem and Ramdas Pophale) SiO2 
 PCOD8124436
Probable space group: P 21/C
;
_chemical_formula_sum "Si O2"
_cell_formula_units_Z 28
_cell_length_a 22.422931
_cell_length_b 11.404386
_cell_length_c 13.379941
_cell_angle_alpha 90.000000
_cell_angle_beta 156.666924
_cell_angle_gamma 90.000000
_cell_volume 1355.178872
_symmetry_space_group_name_H-M "P 21/C"
_symmetry_group_IT_number 14
_symmetry_cell_setting 'monoclinic'
loop_
_space_group_symop_operation_xyz
x,y,z
-x,1/2+y,1/2-z
-x,-y,-z
x,1/2-y,1/2+z
loop_
_atom_site_type_symbol
_atom_site_label
_atom_site_fract_x
_atom_site_fract_y
_atom_site_fract_z
Si Si1 0.270579 0.518936 0.652400
Si Si2 0.356311 0.159118 0.730494
Si Si3 0.850191 0.412363 0.872712
Si Si4 0.913945 0.795357 0.117956
Si Si5 0.514657 0.894523 0.659077
Si Si6 0.958179 0.361989 0.834448
Si Si7 0.542798 0.529576 0.426181
O O1 0.205857 0.395783 0.589451
O O2 0.385139 0.496123 0.737300
O O3 0.141201 0.601957 0.413062
O O4 0.344395 0.584523 0.860100
O O5 0.177295 0.188859 0.466261
O O6 0.436375 0.266127 0.798360
O O7 0.427795 0.134372 0.949934
O O8 0.388671 0.041289 0.715308
O O9 0.862303 0.339704 0.787390
O O10 0.677338 0.432061 0.638139
O O11 0.945118 0.341657 0.100993
O O12 0.914191 0.541658 0.948559
O O13 0.965753 0.757335 0.086946
O O14 0.526577 0.906975 0.795722
#
# Coordination Sequence:
#
# PCOD8124436 Si02
#       7
#     4   4   4   4   4   4   4
#     4   9  20  36  57  93 119 161 209 257 298 371
#     4  10  24  39  61  93 125 165 200 256 314 367
#     4  10  21  37  64  91 114 163 214 248 306 377
#     4  10  21  37  62  90 126 165 201 259 310 364
#     4  10  21  39  62  87 125 159 208 258 311 361
#     4  10  19  37  62  84 120 160 209 252 306 369
#     4  11  22  43  63  94 126 162 212 255 308 379
#
# _framework density 20.661479
#
# number of rings (size 3 to 8) (size 9 to 14) (size 15 to 20)
#    0.000    2.000    2.857    0.000    4.000    4.571 
#    0.000    0.000    0.000    2.571    0.000    0.000 
#    0.000    0.000    0.000    0.000    0.000    0.000 
#
# Total GULP energy -347104.174733 kJ/mol
# GULP energy per Si atom -12396.577669 kJ/mol
# Density = 2.061445 g / cm^3
# Si number density = 20.661479 Si / 1000 Ang^3
#
#
#
# Elastic Constant Matrix: (Units=GPa)
#
#
# Indices 1 2 3 4 5 6 
#
# 1 111.9739 36.3279 28.3809 0.0000 -28.3486 0.0000
# 2 36.3279 45.1050 11.1202 0.0000 -17.1527 0.0000
# 3 28.3809 11.1202 63.5392 0.0000 -13.0273 0.0000
# 4 0.0000 0.0000 0.0000 23.5363 0.0000 3.4970
# 5 -28.3486 -17.1527 -13.0273 0.0000 31.0022 0.0000
# 6 0.0000 0.0000 0.0000 3.4970 0.0000 41.0973
#
#
#
# Elastic Compliance Matrix: (Units=1/GPa)
#
#
# Indices 1 2 3 4 5 6 
#
# 1 0.014167 -0.007828 -0.003491 0.000000 0.007156 0.000000
# 2 -0.007828 0.032613 0.000023 0.000000 0.010895 0.000000
# 3 -0.003491 0.000023 0.018211 0.000000 0.004473 0.000000
# 4 0.000000 0.000000 0.000000 0.043032 0.000000 -0.003662
# 5 0.007156 0.010895 0.004473 0.000000 0.046707 0.000000
# 6 0.000000 0.000000 0.000000 -0.003662 0.000000 0.024644
#
#
# Mechanical properties :
#
#
# Convention : Reuss Voigt Hill
#
# Bulk Modulus (GPa) = 23.58569 41.36400 32.47485
# Shear Modulus (GPa) = 23.13763 28.77977 25.95870
#
# Velocity S-wave (km/s) = 3.35004 3.73623 3.54839
# Velocity P-wave (km/s) = 5.13846 6.21899 5.70437
#
# Compressibility (1/GPa) = 0.04239859
#
# Stress axis : x y z
#
# Youngs Moduli (GPa) = 70.58726 30.66262 54.91319
#
# Poissons Ratio (x) = 0.24003 0.19168
# Poissons Ratio (y) = 0.55256 -0.00125
# Poissons Ratio (z) = 0.24639 -0.00070
#
# Static dielectric constant tensor:
#      x y z
#    x 3.830050 0.000000 0.182050 
#    y 0.000000 3.599440 0.000000 
#    z 0.182050 0.000000 3.734160 
# 
# 
# High freq. dielectric constant tensor:
#      x y z
#    x 1.809810 0.000000 0.005900 
#    y 0.000000 1.795380 0.000000 
#    z 0.005900 0.000000 1.799380 
# 
# From -- ./inp_files/35146.got.cif
#   From: 2010.03.12/outbox.cif.g09.slc.cpg/sg14_18_cif.got.tgz:35146.got - 2010.03.31 13:35:05.
