data_PCOD8124980
_publ_section_title
;
Structure prediction by ZEFSAII (Michael W. Deem and Ramdas Pophale) SiO2 
 PCOD8124980
Probable space group: P 21/C
;
_chemical_formula_sum "Si O2"
_cell_formula_units_Z 32
_cell_length_a 22.499955
_cell_length_b 13.457844
_cell_length_c 9.022355
_cell_angle_alpha 90.000000
_cell_angle_beta 35.571878
_cell_angle_gamma 90.000000
_cell_volume 1589.256119
_symmetry_space_group_name_H-M "P 21/C"
_symmetry_group_IT_number 14
_symmetry_cell_setting 'monoclinic'
loop_
_space_group_symop_operation_xyz
x,y,z
-x,1/2+y,1/2-z
-x,-y,-z
x,1/2-y,1/2+z
loop_
_atom_site_type_symbol
_atom_site_label
_atom_site_fract_x
_atom_site_fract_y
_atom_site_fract_z
Si Si1 0.224095 0.011868 0.285031
Si Si2 0.891477 0.175644 0.492519
Si Si3 0.616321 0.101840 0.854161
Si Si4 0.214083 0.177941 0.541931
Si Si5 0.765628 0.279769 0.521240
Si Si6 0.747038 0.992393 0.108482
Si Si7 0.387155 0.073889 0.361228
Si Si8 0.878686 0.659042 0.460189
O O1 0.123858 0.942479 0.492315
O O2 0.323749 0.953798 0.138079
O O3 0.191044 0.100223 0.458616
O O4 0.252540 0.047056 0.061636
O O5 0.866217 0.234119 0.394315
O O6 0.006852 0.192430 0.313612
O O7 0.801973 0.214378 0.779995
O O8 0.666035 0.209705 0.726392
O O9 0.618399 0.034963 0.702167
O O10 0.500651 0.117223 0.142649
O O11 0.324321 0.155486 0.392113
O O12 0.203271 0.281645 0.476525
O O13 0.132257 0.174206 0.841127
O O14 0.738470 0.388736 0.638409
O O15 0.655447 0.940258 0.386191
O O16 0.853229 0.955935 0.971445
#
# Coordination Sequence:
#
# PCOD8124980 Si02
#       8
#     4   4   4   4   4   4   4   4
#     4   9  20  36  55  82 115 146 186 239 284 338
#     4  10  21  35  56  84 113 150 191 234 285 341
#     4   9  18  37  60  83 112 149 192 236 291 343
#     4  10  21  38  57  79 112 148 189 240 284 341
#     4  10  20  36  57  84 116 147 189 240 285 338
#     4  10  21  36  55  83 117 150 189 238 288 342
#     4   9  19  37  60  82 111 151 192 239 292 342
#     4  11  22  36  56  81 112 153 194 233 287 342
#
# _framework density 20.135206
#
# number of rings (size 3 to 8) (size 9 to 14) (size 15 to 20)
#    0.000    2.250    0.000    2.250    0.000    5.000 
#    0.000   16.250    0.000    0.000    0.000    0.000 
#    0.000    0.000    0.000    0.000    0.000    0.000 
#
# Total GULP energy -396606.257805 kJ/mol
# GULP energy per Si atom -12393.945556 kJ/mol
# Density = 2.008938 g / cm^3
# Si number density = 20.135206 Si / 1000 Ang^3
#
#
#
# Elastic Constant Matrix: (Units=GPa)
#
#
# Indices 1 2 3 4 5 6 
#
# 1 84.1987 45.1109 52.7404 0.0000 5.3986 0.0000
# 2 45.1109 99.3121 48.5915 0.0000 -4.4557 0.0000
# 3 52.7404 48.5915 113.7605 0.0000 -3.3255 0.0000
# 4 0.0000 0.0000 0.0000 24.0410 0.0000 3.7660
# 5 5.3986 -4.4557 -3.3255 0.0000 41.4466 0.0000
# 6 0.0000 0.0000 0.0000 3.7660 0.0000 28.1407
#
#
#
# Elastic Compliance Matrix: (Units=1/GPa)
#
#
# Indices 1 2 3 4 5 6 
#
# 1 0.019314 -0.005694 -0.006629 0.000000 -0.003660 0.000000
# 2 -0.005694 0.014444 -0.003471 0.000000 0.002016 0.000000
# 3 -0.006629 -0.003471 0.013392 0.000000 0.001565 0.000000
# 4 0.000000 0.000000 0.000000 0.042486 0.000000 -0.005686
# 5 -0.003660 0.002016 0.001565 0.000000 0.024946 0.000000
# 6 0.000000 0.000000 0.000000 -0.005686 0.000000 0.036297
#
#
# Mechanical properties :
#
#
# Convention : Reuss Voigt Hill
#
# Bulk Modulus (GPa) = 64.25697 65.57299 64.91498
# Shear Modulus (GPa) = 26.64450 28.78090 27.71270
#
# Velocity S-wave (km/s) = 3.64164 3.78482 3.71392
# Velocity P-wave (km/s) = 7.04727 7.19283 7.12042
#
# Compressibility (1/GPa) = 0.01556251
#
# Stress axis : x y z
#
# Youngs Moduli (GPa) = 51.77509 69.23095 74.67062
#
# Poissons Ratio (x) = 0.39419 0.49501
# Poissons Ratio (y) = 0.29480 0.25919
# Poissons Ratio (z) = 0.34323 0.24031
#
# Static dielectric constant tensor:
#      x y z
#    x 3.648690 0.000000 0.141980 
#    y 0.000000 4.073390 0.000000 
#    z 0.141980 0.000000 3.502740 
# 
# 
# High freq. dielectric constant tensor:
#      x y z
#    x 1.788800 0.000000 0.014680 
#    y 0.000000 1.786210 0.000000 
#    z 0.014680 0.000000 1.780220 
# 
# From -- ./inp_files/19064.got.cif
#   From: 2010.03.12/outbox.cif.g09.slc.cpg/sg14_10_cif.got.tgz:19064.got - 2010.03.31 13:35:05.
