data_PCOD8124391
_publ_section_title
;
Structure prediction by ZEFSAII (Michael W. Deem and Ramdas Pophale) SiO2 
 PCOD8124391
Probable space group: P 21/C
;
_chemical_formula_sum "Si O2"
_cell_formula_units_Z 28
_cell_length_a 14.595017
_cell_length_b 8.810766
_cell_length_c 14.190321
_cell_angle_alpha 90.000000
_cell_angle_beta 133.616212
_cell_angle_gamma 90.000000
_cell_volume 1321.098146
_symmetry_space_group_name_H-M "P 21/C"
_symmetry_group_IT_number 14
_symmetry_cell_setting 'monoclinic'
loop_
_space_group_symop_operation_xyz
x,y,z
-x,1/2+y,1/2-z
-x,-y,-z
x,1/2-y,1/2+z
loop_
_atom_site_type_symbol
_atom_site_label
_atom_site_fract_x
_atom_site_fract_y
_atom_site_fract_z
Si Si1 0.953788 0.734960 0.294290
Si Si2 0.118592 0.597881 0.767076
Si Si3 0.778860 0.972472 0.271823
Si Si4 0.442544 0.727491 0.812243
Si Si5 0.149937 0.767204 0.093015
Si Si6 0.542765 0.933627 0.219302
Si Si7 0.639226 0.282456 0.550721
O O1 0.885285 0.580841 0.213468
O O2 0.854925 0.837265 0.279802
O O3 0.001211 0.821082 0.235268
O O4 0.071677 0.693561 0.444809
O O5 0.105195 0.623347 0.645768
O O6 0.250137 0.665894 0.900455
O O7 0.683364 0.900199 0.280785
O O8 0.871710 0.091889 0.390076
O O9 0.699052 0.063465 0.136377
O O10 0.297563 0.707753 0.675184
O O11 0.531416 0.605246 0.822606
O O12 0.448424 0.706152 0.929633
O O13 0.495979 0.893005 0.823551
O O14 0.444518 0.820595 0.098398
#
# Coordination Sequence:
#
# PCOD8124391 Si02
#       7
#     4   4   4   4   4   4   4
#     4  12  21  37  56  82 116 145 181 235 278 328
#     4  10  22  36  58  84 107 145 191 224 279 339
#     4   9  20  35  56  83 109 146 188 218 272 342
#     4   9  19  34  58  83 105 144 189 218 275 339
#     4   9  20  39  57  78 111 149 183 230 277 324
#     4  10  19  37  57  78 111 145 180 231 275 323
#     4   9  19  40  56  74 110 150 182 228 276 323
#
# _framework density 21.194489999999998
#
# number of rings (size 3 to 8) (size 9 to 14) (size 15 to 20)
#    0.000    2.857    0.000    5.143    0.000    2.286 
#    0.000   14.286    0.000    0.000    0.000    0.000 
#    0.000    0.000    0.000    0.000    0.000    0.000 
#
# Total GULP energy -347165.380089 kJ/mol
# GULP energy per Si atom -12398.763575 kJ/mol
# Density = 2.114625 g / cm^3
# Si number density = 21.194490 Si / 1000 Ang^3
#
#
#
# Elastic Constant Matrix: (Units=GPa)
#
#
# Indices 1 2 3 4 5 6 
#
# 1 123.9465 59.3297 -10.4031 0.0000 -2.2818 0.0000
# 2 59.3297 103.1073 -11.2397 0.0000 6.6195 0.0000
# 3 -10.4031 -11.2397 29.4962 0.0000 -0.6188 0.0000
# 4 0.0000 0.0000 0.0000 15.7071 0.0000 -2.9285
# 5 -2.2818 6.6195 -0.6188 0.0000 15.4036 0.0000
# 6 0.0000 0.0000 0.0000 -2.9285 0.0000 42.2268
#
#
#
# Elastic Compliance Matrix: (Units=1/GPa)
#
#
# Indices 1 2 3 4 5 6 
#
# 1 0.011522 -0.006757 0.001587 0.000000 0.004674 0.000000
# 2 -0.006757 0.014360 0.002941 0.000000 -0.007054 0.000000
# 3 0.001587 0.002941 0.035591 0.000000 0.000401 0.000000
# 4 0.000000 0.000000 0.000000 0.064499 0.000000 0.004473
# 5 0.004674 -0.007054 0.000401 0.000000 0.068660 0.000000
# 6 0.000000 0.000000 0.000000 0.004473 0.000000 0.023992
#
#
# Mechanical properties :
#
#
# Convention : Reuss Voigt Hill
#
# Bulk Modulus (GPa) = 17.53920 36.88044 27.20982
# Shear Modulus (GPa) = 20.65375 29.25837 24.95606
#
# Velocity S-wave (km/s) = 3.12506 3.71950 3.43516
# Velocity P-wave (km/s) = 4.61678 5.99041 5.34788
#
# Compressibility (1/GPa) = 0.05701514
#
# Stress axis : x y z
#
# Youngs Moduli (GPa) = 86.79415 69.63768 28.09663
#
# Poissons Ratio (x) = 0.47053 -0.04459
# Poissons Ratio (y) = 0.58645 -0.08263
# Poissons Ratio (z) = -0.13773 -0.20480
#
# Static dielectric constant tensor:
#      x y z
#    x 3.956760 0.000000 -0.059960 
#    y 0.000000 3.654130 0.000000 
#    z -0.059960 0.000000 3.475270 
# 
# 
# High freq. dielectric constant tensor:
#      x y z
#    x 1.846930 0.000000 -0.009020 
#    y 0.000000 1.819630 0.000000 
#    z -0.009020 0.000000 1.801810 
# 
# From -- ./inp_files/46539.got.cif
#   From: 2010.03.12/outbox.cif.g09.slc.cpg/sg14_24_cif.got.tgz:46539.got - 2010.03.31 13:35:05.
