data_PCOD8124959
_publ_section_title
;
Structure prediction by ZEFSAII (Michael W. Deem and Ramdas Pophale) SiO2 
 PCOD8124959
Probable space group: P 21/C
;
_chemical_formula_sum "Si O2"
_cell_formula_units_Z 28
_cell_length_a 19.014129
_cell_length_b 14.055257
_cell_length_c 8.728363
_cell_angle_alpha 90.000000
_cell_angle_beta 39.505062
_cell_angle_gamma 90.000000
_cell_volume 1483.901567
_symmetry_space_group_name_H-M "P 21/C"
_symmetry_group_IT_number 14
_symmetry_cell_setting 'monoclinic'
loop_
_space_group_symop_operation_xyz
x,y,z
-x,1/2+y,1/2-z
-x,-y,-z
x,1/2-y,1/2+z
loop_
_atom_site_type_symbol
_atom_site_label
_atom_site_fract_x
_atom_site_fract_y
_atom_site_fract_z
Si Si1 0.679646 0.978873 0.476497
Si Si2 0.484447 0.429114 0.164254
Si Si3 0.348569 0.304013 0.198254
Si Si4 0.074365 0.012833 0.022643
Si Si5 0.685915 0.911863 0.806430
Si Si6 0.101109 0.188692 0.175389
Si Si7 0.066016 0.375218 0.061203
O O1 0.649862 0.878820 0.444839
O O2 0.666150 0.962976 0.678964
O O3 0.599696 0.067096 0.563529
O O4 0.801138 0.014949 0.228600
O O5 0.448414 0.327573 0.149834
O O6 0.386729 0.464700 0.442151
O O7 0.500000 0.500000 0.000000
O O8 0.358046 0.197228 0.120644
O O9 0.232834 0.314268 0.484556
O O10 0.068108 0.121083 0.090169
O O11 0.030910 0.948219 0.234828
O O12 0.000000 0.000000 0.000000
O O13 0.813868 0.923825 0.635408
O O14 0.062538 0.293198 0.194220
O O15 0.039836 0.162021 0.435265
#
# Coordination Sequence:
#
# PCOD8124959 Si02
#       7
#     4   4   4   4   4   4   4
#     4  10  21  34  55  83 114 151 185 229 284 347
#     4  10  20  36  54  80 115 143 179 232 286 340
#     4   9  19  33  58  85 111 137 187 243 282 327
#     4  11  21  37  57  85 120 153 190 237 288 345
#     4  11  19  33  59  86 109 145 191 235 289 325
#     4  10  21  35  58  90 113 148 193 240 290 332
#     4  11  21  35  60  86 118 148 192 244 288 339
#
# _framework density 18.869176
#
# number of rings (size 3 to 8) (size 9 to 14) (size 15 to 20)
#    0.000    1.714    2.857    2.571    8.000    0.000 
#    0.000    0.000    6.286    0.000    0.000    0.000 
#    0.000    0.000    0.000    0.000    0.000    0.000 
#
# Total GULP energy -347128.244307 kJ/mol
# GULP energy per Si atom -12397.437297 kJ/mol
# Density = 1.882623 g / cm^3
# Si number density = 18.869176 Si / 1000 Ang^3
#
#
#
# Elastic Constant Matrix: (Units=GPa)
#
#
# Indices 1 2 3 4 5 6 
#
# 1 88.0477 17.1018 40.9564 0.0000 -4.6861 0.0000
# 2 17.1018 47.9500 33.3930 0.0000 -13.8193 0.0000
# 3 40.9564 33.3930 129.9569 0.0000 7.0624 0.0000
# 4 0.0000 0.0000 0.0000 25.7637 0.0000 2.1170
# 5 -4.6861 -13.8193 7.0624 0.0000 35.4687 0.0000
# 6 0.0000 0.0000 0.0000 2.1170 0.0000 24.3657
#
#
#
# Elastic Compliance Matrix: (Units=1/GPa)
#
#
# Indices 1 2 3 4 5 6 
#
# 1 0.013624 -0.001471 -0.004026 0.000000 0.002029 0.000000
# 2 -0.001471 0.031020 -0.008243 0.000000 0.013533 0.000000
# 3 -0.004026 -0.008243 0.011409 0.000000 -0.006015 0.000000
# 4 0.000000 0.000000 0.000000 0.039093 0.000000 -0.003397
# 5 0.002029 0.013533 -0.006015 0.000000 0.034932 0.000000
# 6 0.000000 0.000000 0.000000 -0.003397 0.000000 0.041336
#
#
# Mechanical properties :
#
#
# Convention : Reuss Voigt Hill
#
# Bulk Modulus (GPa) = 34.99705 49.87299 42.43502
# Shear Modulus (GPa) = 23.99026 28.75318 26.37172
#
# Velocity S-wave (km/s) = 3.56954 3.90785 3.74252
# Velocity P-wave (km/s) = 5.96458 6.84471 6.41975
#
# Compressibility (1/GPa) = 0.02857383
#
# Stress axis : x y z
#
# Youngs Moduli (GPa) = 73.40091 32.23708 87.65368
#
# Poissons Ratio (x) = 0.04741 0.35289
# Poissons Ratio (y) = 0.10795 0.72251
# Poissons Ratio (z) = 0.29551 0.26572
#
# Static dielectric constant tensor:
#      x y z
#    x 3.678300 0.000000 0.016360 
#    y 0.000000 3.402100 0.000000 
#    z 0.016360 0.000000 3.618180 
# 
# 
# High freq. dielectric constant tensor:
#      x y z
#    x 1.740560 0.000000 0.021430 
#    y 0.000000 1.704110 0.000000 
#    z 0.021430 0.000000 1.736870 
# 
# From -- ./inp_files/12807.got.cif
#   From: 2010.03.12/outbox.cif.g09.slc.cpg/sg14_7_cif.got.tgz:12807.got - 2010.03.31 13:35:05.
