data_PCOD8124578
_publ_section_title
;
Structure prediction by ZEFSAII (Michael W. Deem and Ramdas Pophale) SiO2 
 PCOD8124578
Probable space group: P 21/C
;
_chemical_formula_sum "Si O2"
_cell_formula_units_Z 32
_cell_length_a 11.289827
_cell_length_b 8.527715
_cell_length_c 14.740816
_cell_angle_alpha 90.000000
_cell_angle_beta 89.108927
_cell_angle_gamma 90.000000
_cell_volume 1419.021470
_symmetry_space_group_name_H-M "P 21/C"
_symmetry_group_IT_number 14
_symmetry_cell_setting 'monoclinic'
loop_
_space_group_symop_operation_xyz
x,y,z
-x,1/2+y,1/2-z
-x,-y,-z
x,1/2-y,1/2+z
loop_
_atom_site_type_symbol
_atom_site_label
_atom_site_fract_x
_atom_site_fract_y
_atom_site_fract_z
Si Si1 0.200398 0.494108 0.868119
Si Si2 0.266050 0.618520 0.051258
Si Si3 0.514348 0.220230 0.878408
Si Si4 0.593777 0.552495 0.254905
Si Si5 0.126806 0.428040 0.304071
Si Si6 0.270389 0.171850 0.954423
Si Si7 0.963659 0.351627 0.829265
Si Si8 0.721210 0.795418 0.361193
O O1 0.279432 0.522768 0.777043
O O2 0.227527 0.319124 0.897953
O O3 0.059220 0.490337 0.851108
O O4 0.240951 0.616918 0.944174
O O5 0.361198 0.755523 0.070758
O O6 0.139909 0.650525 0.096607
O O7 0.320070 0.453658 0.086911
O O8 0.480432 0.384377 0.830290
O O9 0.520890 0.082628 0.804676
O O10 0.413767 0.165751 0.951142
O O11 0.610778 0.701035 0.321460
O O12 0.208473 0.463071 0.392679
O O13 0.089518 0.600027 0.268655
O O14 0.188907 0.332518 0.220762
O O15 0.012666 0.323957 0.329608
O O16 0.224686 0.181805 0.059140
#
# Coordination Sequence:
#
# PCOD8124578 Si02
#       8
#     4   4   4   4   4   4   4   4
#     4   9  19  39  58  85 116 156 198 244 293 349
#     4  10  22  35  61  91 113 152 204 245 290 351
#     4  11  23  37  59  89 121 155 197 245 290 355
#     4  11  22  38  61  82 123 157 194 240 301 352
#     4  10  20  39  59  87 114 157 195 245 295 354
#     4   9  20  38  60  85 117 156 197 238 305 354
#     4  10  20  35  63  81 119 152 198 242 293 346
#     4  10  19  39  62  83 115 156 195 240 298 350
#
# _framework density 22.550751000000002
#
# number of rings (size 3 to 8) (size 9 to 14) (size 15 to 20)
#    0.000    2.000    3.750    1.125    3.500    7.000 
#    0.000    1.875    0.000    0.000    0.000    0.000 
#    0.000    0.000    0.000    0.000    0.000    0.000 
#
# Total GULP energy -396552.252015 kJ/mol
# GULP energy per Si atom -12392.257875 kJ/mol
# Density = 2.249942 g / cm^3
# Si number density = 22.550751 Si / 1000 Ang^3
#
#
#
# Elastic Constant Matrix: (Units=GPa)
#
#
# Indices 1 2 3 4 5 6 
#
# 1 93.3538 4.6724 4.5075 0.0000 -1.4403 0.0000
# 2 4.6724 26.3807 -13.6290 0.0000 -7.0681 0.0000
# 3 4.5075 -13.6290 65.0495 0.0000 -1.6539 0.0000
# 4 0.0000 0.0000 0.0000 21.1605 0.0000 4.9168
# 5 -1.4403 -7.0681 -1.6539 0.0000 25.7128 0.0000
# 6 0.0000 0.0000 0.0000 4.9168 0.0000 22.3844
#
#
#
# Elastic Compliance Matrix: (Units=1/GPa)
#
#
# Indices 1 2 3 4 5 6 
#
# 1 0.010906 -0.002669 -0.001320 0.000000 -0.000208 0.000000
# 2 -0.002669 0.047418 0.010465 0.000000 0.013558 0.000000
# 3 -0.001320 0.010465 0.017757 0.000000 0.003945 0.000000
# 4 0.000000 0.000000 0.000000 0.049800 0.000000 -0.010939
# 5 -0.000208 0.013558 0.003945 0.000000 0.042860 0.000000
# 6 0.000000 0.000000 0.000000 -0.010939 0.000000 0.047077
#
#
# Mechanical properties :
#
#
# Convention : Reuss Voigt Hill
#
# Bulk Modulus (GPa) = 11.23197 19.54285 15.38741
# Shear Modulus (GPa) = 21.50119 26.46708 23.98414
#
# Velocity S-wave (km/s) = 3.09116 3.42960 3.26477
# Velocity P-wave (km/s) = 4.21093 4.93638 4.58802
#
# Compressibility (1/GPa) = 0.08903159
#
# Stress axis : x y z
#
# Youngs Moduli (GPa) = 91.69198 21.08892 56.31508
#
# Poissons Ratio (x) = 0.05629 0.07435
# Poissons Ratio (y) = 0.24476 -0.58932
# Poissons Ratio (z) = 0.12106 -0.22069
#
# Static dielectric constant tensor:
#      x y z
#    x 4.153170 0.000000 0.162010 
#    y 0.000000 3.734850 0.000000 
#    z 0.162010 0.000000 4.271580 
# 
# 
# High freq. dielectric constant tensor:
#      x y z
#    x 1.884650 0.000000 0.006010 
#    y 0.000000 1.854890 0.000000 
#    z 0.006010 0.000000 1.892680 
# 
# From -- ./inp_files/43422.got.cif
#   From: 2010.03.12/outbox.cif.g09.slc.cpg/sg14_22_cif.got.tgz:43422.got - 2010.03.31 13:35:05.
