data_PCOD8124781
_publ_section_title
;
Structure prediction by ZEFSAII (Michael W. Deem and Ramdas Pophale) SiO2 
 PCOD8124781
Probable space group: P 21/C
;
_chemical_formula_sum "Si O2"
_cell_formula_units_Z 24
_cell_length_a 15.777753
_cell_length_b 15.603970
_cell_length_c 15.227142
_cell_angle_alpha 90.000000
_cell_angle_beta 18.678594
_cell_angle_gamma 90.000000
_cell_volume 1200.604914
_symmetry_space_group_name_H-M "P 21/C"
_symmetry_group_IT_number 14
_symmetry_cell_setting 'monoclinic'
loop_
_space_group_symop_operation_xyz
x,y,z
-x,1/2+y,1/2-z
-x,-y,-z
x,1/2-y,1/2+z
loop_
_atom_site_type_symbol
_atom_site_label
_atom_site_fract_x
_atom_site_fract_y
_atom_site_fract_z
Si Si1 0.626552 0.317401 0.764372
Si Si2 0.893872 0.084477 0.342157
Si Si3 0.312462 0.288876 0.836402
Si Si4 0.871550 0.893745 0.323260
Si Si5 0.195027 0.777704 0.723159
Si Si6 0.407494 0.155578 0.890534
O O1 0.727948 0.326705 0.763647
O O2 0.511410 0.221876 0.861708
O O3 0.872134 0.337404 0.457143
O O4 0.379694 0.382057 0.994826
O O5 0.850339 0.151926 0.307099
O O6 0.626653 0.081691 0.662047
O O7 0.957389 0.992316 0.238223
O O8 0.125382 0.110269 0.184707
O O9 0.589608 0.296638 0.512443
O O10 0.356677 0.204552 0.850161
O O11 0.230729 0.367482 0.979306
O O12 0.079789 0.273174 0.993980
#
# Coordination Sequence:
#
# PCOD8124781 Si02
#       6
#     4   4   4   4   4   4
#     4  11  21  34  55  81 107 137 176 220 263 312
#     4  10  20  34  54  78 107 140 173 215 265 312
#     4   9  18  34  52  72 101 141 182 209 247 315
#     4  11  21  34  55  81 107 137 176 220 263 312
#     4  10  20  34  54  78 107 140 173 215 265 312
#     4   9  18  34  52  72 101 141 182 209 247 315
#
# _framework density 19.989923000000001
#
# number of rings (size 3 to 8) (size 9 to 14) (size 15 to 20)
#    0.000    2.000    0.000    7.000    0.000    1.333 
#    0.000    0.000    0.000    6.000    0.000    0.000 
#    0.000    0.000    0.000    0.000    0.000    0.000 
#
# Total GULP energy -297352.015583 kJ/mol
# GULP energy per Si atom -12389.667316 kJ/mol
# Density = 1.994443 g / cm^3
# Si number density = 19.989923 Si / 1000 Ang^3
#
#
#
# Elastic Constant Matrix: (Units=GPa)
#
#
# Indices 1 2 3 4 5 6 
#
# 1 52.8890 34.4737 36.4633 0.0000 -20.8080 0.0000
# 2 34.4737 58.6023 42.6616 0.0000 -9.4166 0.0000
# 3 36.4633 42.6616 108.0504 0.0000 -22.0695 0.0000
# 4 0.0000 0.0000 0.0000 26.1282 0.0000 -6.2036
# 5 -20.8080 -9.4166 -22.0695 0.0000 31.2782 0.0000
# 6 0.0000 0.0000 0.0000 -6.2036 0.0000 13.5718
#
#
#
# Elastic Compliance Matrix: (Units=1/GPa)
#
#
# Indices 1 2 3 4 5 6 
#
# 1 0.040661 -0.019216 -0.002093 0.000000 0.019788 0.000000
# 2 -0.019216 0.033040 -0.008342 0.000000 -0.008723 0.000000
# 3 -0.002093 -0.008342 0.014555 0.000000 0.006366 0.000000
# 4 0.000000 0.000000 0.000000 0.042932 0.000000 0.019624
# 5 0.019788 -0.008723 0.006366 0.000000 0.047001 0.000000
# 6 0.000000 0.000000 0.000000 0.019624 0.000000 0.082652
#
#
# Mechanical properties :
#
#
# Convention : Reuss Voigt Hill
#
# Bulk Modulus (GPa) = 34.53768 49.63765 42.08767
# Shear Modulus (GPa) = 15.16096 21.25851 18.20973
#
# Velocity S-wave (km/s) = 2.75695 3.26461 3.02146
# Velocity P-wave (km/s) = 5.23922 6.25264 5.76823
#
# Compressibility (1/GPa) = 0.02895388
#
# Stress axis : x y z
#
# Youngs Moduli (GPa) = 24.59358 30.26672 68.70439
#
# Poissons Ratio (x) = 0.58162 0.14378
# Poissons Ratio (y) = 0.47260 0.57312
# Poissons Ratio (z) = 0.05147 0.25248
#
# Static dielectric constant tensor:
#      x y z
#    x 3.345860 0.000000 -0.380130 
#    y 0.000000 3.245960 0.000000 
#    z -0.380130 0.000000 4.325940 
# 
# 
# High freq. dielectric constant tensor:
#      x y z
#    x 1.752710 0.000000 -0.031160 
#    y 0.000000 1.742920 0.000000 
#    z -0.031160 0.000000 1.806480 
# 
# From -- ./inp_files/37144.got.cif
#   From: 2010.03.12/outbox.cif.g09.slc.cpg/sg14_19_cif.got.tgz:37144.got - 2010.03.31 13:35:05.
