data_PCOD8124048
_publ_section_title
;
Structure prediction by ZEFSAII (Michael W. Deem and Ramdas Pophale) SiO2 
 PCOD8124048
Probable space group: P 21/C
;
_chemical_formula_sum "Si O2"
_cell_formula_units_Z 32
_cell_length_a 25.847479
_cell_length_b 8.695942
_cell_length_c 20.827032
_cell_angle_alpha 90.000000
_cell_angle_beta 158.772407
_cell_angle_gamma 90.000000
_cell_volume 1694.958151
_symmetry_space_group_name_H-M "P 21/C"
_symmetry_group_IT_number 14
_symmetry_cell_setting 'monoclinic'
loop_
_space_group_symop_operation_xyz
x,y,z
-x,1/2+y,1/2-z
-x,-y,-z
x,1/2-y,1/2+z
loop_
_atom_site_type_symbol
_atom_site_label
_atom_site_fract_x
_atom_site_fract_y
_atom_site_fract_z
Si Si1 0.052049 0.943747 0.873817
Si Si2 0.072870 0.924191 0.144729
Si Si3 0.639534 0.470522 0.233727
Si Si4 0.090961 0.918426 0.416098
Si Si5 0.594062 0.369211 0.695942
Si Si6 0.650589 0.375073 0.100788
Si Si7 0.939838 0.587883 0.990839
Si Si8 0.348798 0.539044 0.377510
O O1 0.061133 0.761240 0.883054
O O2 0.210372 0.019810 0.060730
O O3 0.956272 0.986595 0.823606
O O4 0.979014 0.002989 0.725499
O O5 0.242762 0.947489 0.328465
O O6 0.008682 0.753809 0.077948
O O7 0.000000 0.000000 0.000000
O O8 0.584876 0.310836 0.201806
O O9 0.675760 0.448772 0.200257
O O10 0.518114 0.597396 0.109592
O O11 0.262029 0.945426 0.610214
O O12 0.025734 0.993967 0.404494
O O13 0.451349 0.462215 0.551286
O O14 0.574991 0.389524 0.597255
O O15 0.705822 0.199139 0.155907
O O16 0.769199 0.586524 0.780479
O O17 0.000000 0.500000 0.000000
#
# Coordination Sequence:
#
# PCOD8124048 Si02
#       8
#     4   4   4   4   4   4   4   4
#     4  11  22  40  62  85 117 155 200 242 289 354
#     4  12  23  35  58  91 120 153 193 244 291 343
#     4   9  19  34  56  80 116 153 190 239 287 348
#     4  10  22  40  61  86 114 154 198 239 292 357
#     4   8  17  32  53  80 109 144 190 234 281 341
#     4  10  19  34  53  86 119 147 192 241 291 341
#     4  11  21  36  58  87 120 152 189 242 295 340
#     4   9  17  31  53  82 114 145 183 237 288 340
#
# _framework density 18.879522000000001
#
# number of rings (size 3 to 8) (size 9 to 14) (size 15 to 20)
#    0.000    2.000    2.500    2.250    1.750    4.000 
#    0.000    0.000    2.750    0.000    0.000    0.000 
#    0.000    0.000    0.000    0.000    0.000    0.000 
#
# Total GULP energy -396419.901186 kJ/mol
# GULP energy per Si atom -12388.121912 kJ/mol
# Density = 1.883655 g / cm^3
# Si number density = 18.879522 Si / 1000 Ang^3
#
#
#
# Elastic Constant Matrix: (Units=GPa)
#
#
# Indices 1 2 3 4 5 6 
#
# 1 95.9737 35.7051 57.6690 0.0000 -6.0221 0.0000
# 2 35.7051 70.4731 43.7780 0.0000 1.2821 0.0000
# 3 57.6690 43.7780 132.0563 0.0000 -5.3778 0.0000
# 4 0.0000 0.0000 0.0000 26.6140 0.0000 0.9362
# 5 -6.0221 1.2821 -5.3778 0.0000 29.9822 0.0000
# 6 0.0000 0.0000 0.0000 0.9362 0.0000 27.6181
#
#
#
# Elastic Compliance Matrix: (Units=1/GPa)
#
#
# Indices 1 2 3 4 5 6 
#
# 1 0.015346 -0.004679 -0.005054 0.000000 0.002376 0.000000
# 2 -0.004679 0.019398 -0.004492 0.000000 -0.002575 0.000000
# 3 -0.005054 -0.004492 0.011318 0.000000 0.001207 0.000000
# 4 0.000000 0.000000 0.000000 0.037619 0.000000 -0.001275
# 5 0.002376 -0.002575 0.001207 0.000000 0.034157 0.000000
# 6 0.000000 0.000000 0.000000 -0.001275 0.000000 0.036251
#
#
# Mechanical properties :
#
#
# Convention : Reuss Voigt Hill
#
# Bulk Modulus (GPa) = 56.77928 63.64525 60.21227
# Shear Modulus (GPa) = 26.53799 27.59960 27.06879
#
# Velocity S-wave (km/s) = 3.75327 3.82760 3.79062
# Velocity P-wave (km/s) = 6.99446 7.30195 7.14986
#
# Compressibility (1/GPa) = 0.01761206
#
# Stress axis : x y z
#
# Youngs Moduli (GPa) = 65.16350 51.55246 88.35595
#
# Poissons Ratio (x) = 0.24121 0.44653
# Poissons Ratio (y) = 0.30489 0.39691
# Poissons Ratio (z) = 0.32932 0.23158
#
# Static dielectric constant tensor:
#      x y z
#    x 3.453640 0.000000 0.349870 
#    y 0.000000 3.853410 0.000000 
#    z 0.349870 0.000000 3.825860 
# 
# 
# High freq. dielectric constant tensor:
#      x y z
#    x 1.698880 0.000000 0.017660 
#    y 0.000000 1.740760 0.000000 
#    z 0.017660 0.000000 1.736830 
# 
# From -- ./inp_files/70522.got.cif
#   From: 2010.03.12/outbox.cif.g09.slc.cpg/sg14_36_cif.got.tgz:70522.got - 2010.03.31 13:35:05.
