data_PCOD8124945
_publ_section_title
;
Structure prediction by ZEFSAII (Michael W. Deem and Ramdas Pophale) SiO2 
 PCOD8124945
Probable space group: P 21/C
;
_chemical_formula_sum "Si O2"
_cell_formula_units_Z 28
_cell_length_a 19.337761
_cell_length_b 5.195051
_cell_length_c 14.554781
_cell_angle_alpha 90.000000
_cell_angle_beta 51.947230
_cell_angle_gamma 90.000000
_cell_volume 1151.386201
_symmetry_space_group_name_H-M "P 21/C"
_symmetry_group_IT_number 14
_symmetry_cell_setting 'monoclinic'
loop_
_space_group_symop_operation_xyz
x,y,z
-x,1/2+y,1/2-z
-x,-y,-z
x,1/2-y,1/2+z
loop_
_atom_site_type_symbol
_atom_site_label
_atom_site_fract_x
_atom_site_fract_y
_atom_site_fract_z
Si Si1 0.129306 0.282002 0.798334
Si Si2 0.341595 0.749427 0.515953
Si Si3 0.516128 0.657157 0.296268
Si Si4 0.776371 0.204611 0.218390
Si Si5 0.973812 0.176696 0.824366
Si Si6 0.197767 0.094170 0.052486
Si Si7 0.701315 0.522849 0.127829
O O1 0.171642 0.063507 0.827757
O O2 0.022601 0.254065 0.881079
O O3 0.158912 0.564376 0.805224
O O4 0.153860 0.238690 0.670380
O O5 0.445839 0.686351 0.437420
O O6 0.305085 0.828824 0.645020
O O7 0.288092 0.510067 0.519848
O O8 0.329657 0.974886 0.451025
O O9 0.511480 0.901054 0.234223
O O10 0.616182 0.632838 0.252896
O O11 0.736278 0.267194 0.150946
O O12 0.016298 0.907318 0.756105
O O13 0.869553 0.130221 0.926140
O O14 0.219998 0.269676 0.945132
#
# Coordination Sequence:
#
# PCOD8124945 Si02
#       7
#     4   4   4   4   4   4   4
#     4  10  21  41  57  91 123 157 203 255 302 361
#     4  10  21  41  63  86 126 162 207 249 313 360
#     4  10  21  37  62  88 122 158 204 254 304 361
#     4  11  24  38  64  89 125 163 205 252 302 368
#     4  10  20  35  63  92 119 159 210 251 302 369
#     4  10  20  37  65  88 118 166 207 246 311 364
#     4  11  23  39  62  92 124 161 209 252 307 365
#
# _framework density 24.318511999999998
#
# number of rings (size 3 to 8) (size 9 to 14) (size 15 to 20)
#    0.000    1.714    2.857    2.571    4.000    0.571 
#    0.000    1.429    0.000    6.857    0.000    0.000 
#    0.000    0.000    0.000    0.000    0.000    0.000 
#
# Total GULP energy -347018.047353 kJ/mol
# GULP energy per Si atom -12393.501691 kJ/mol
# Density = 2.426316 g / cm^3
# Si number density = 24.318512 Si / 1000 Ang^3
#
#
#
# Elastic Constant Matrix: (Units=GPa)
#
#
# Indices 1 2 3 4 5 6 
#
# 1 62.3673 3.6204 19.0821 0.0000 -14.0950 0.0000
# 2 3.6204 98.9247 0.7192 0.0000 -8.0134 0.0000
# 3 19.0821 0.7192 40.5398 0.0000 -8.0831 0.0000
# 4 0.0000 0.0000 0.0000 21.5436 0.0000 0.7915
# 5 -14.0950 -8.0134 -8.0831 0.0000 25.1308 0.0000
# 6 0.0000 0.0000 0.0000 0.7915 0.0000 35.8657
#
#
#
# Elastic Compliance Matrix: (Units=1/GPa)
#
#
# Indices 1 2 3 4 5 6 
#
# 1 0.020457 0.000034 -0.007843 0.000000 0.008962 0.000000
# 2 0.000034 0.010387 0.000496 0.000000 0.003491 0.000000
# 3 -0.007843 0.000496 0.029389 0.000000 0.005212 0.000000
# 4 0.000000 0.000000 0.000000 0.046455 0.000000 -0.001025
# 5 0.008962 0.003491 0.005212 0.000000 0.047608 0.000000
# 6 0.000000 0.000000 0.000000 -0.001025 0.000000 0.027904
#
#
# Mechanical properties :
#
#
# Convention : Reuss Voigt Hill
#
# Bulk Modulus (GPa) = 21.92655 27.63058 24.77856
# Shear Modulus (GPa) = 23.58175 28.40204 25.99190
#
# Velocity S-wave (km/s) = 3.11739 3.42119 3.27281
# Velocity P-wave (km/s) = 4.68972 5.19545 4.94905
#
# Compressibility (1/GPa) = 0.04560681
#
# Stress axis : x y z
#
# Youngs Moduli (GPa) = 48.88280 96.27796 34.02615
#
# Poissons Ratio (x) = -0.00330 0.26686
# Poissons Ratio (y) = -0.00168 -0.01686
# Poissons Ratio (z) = 0.38338 -0.04771
#
# Static dielectric constant tensor:
#      x y z
#    x 4.482980 0.000000 -0.563090 
#    y 0.000000 4.224290 0.000000 
#    z -0.563090 0.000000 4.565570 
# 
# 
# High freq. dielectric constant tensor:
#      x y z
#    x 1.954430 0.000000 -0.028550 
#    y 0.000000 1.973180 0.000000 
#    z -0.028550 0.000000 1.949870 
# 
# From -- ./inp_files/48082.got.cif
#   From: 2010.03.12/outbox.cif.g09.slc.cpg/sg14_25_cif.got.tgz:48082.got - 2010.03.31 13:35:05.
