data_PCOD8124646
_publ_section_title
;
Structure prediction by ZEFSAII (Michael W. Deem and Ramdas Pophale) SiO2 
 PCOD8124646
Probable space group: P 21/C
;
_chemical_formula_sum "Si O2"
_cell_formula_units_Z 28
_cell_length_a 9.928356
_cell_length_b 11.478231
_cell_length_c 13.916748
_cell_angle_alpha 90.000000
_cell_angle_beta 117.320148
_cell_angle_gamma 90.000000
_cell_volume 1409.048487
_symmetry_space_group_name_H-M "P 21/C"
_symmetry_group_IT_number 14
_symmetry_cell_setting 'monoclinic'
loop_
_space_group_symop_operation_xyz
x,y,z
-x,1/2+y,1/2-z
-x,-y,-z
x,1/2-y,1/2+z
loop_
_atom_site_type_symbol
_atom_site_label
_atom_site_fract_x
_atom_site_fract_y
_atom_site_fract_z
Si Si1 0.763205 0.110243 0.766846
Si Si2 0.179426 0.231633 0.355150
Si Si3 0.881723 0.268831 0.640140
Si Si4 0.550985 0.926311 0.608272
Si Si5 0.736654 0.300565 0.900677
Si Si6 0.020609 0.560282 0.107482
Si Si7 0.079786 0.473975 0.329054
O O1 0.778446 0.201117 0.683479
O O2 0.702798 0.174723 0.843062
O O3 0.925586 0.048354 0.839312
O O4 0.638421 0.012689 0.707128
O O5 0.343479 0.183096 0.383370
O O6 0.114680 0.153229 0.421073
O O7 0.195279 0.367661 0.389542
O O8 0.059236 0.227792 0.227426
O O9 0.852350 0.210364 0.527925
O O10 0.835427 0.405912 0.618081
O O11 0.411067 0.870802 0.617963
O O12 0.500000 0.000000 0.500000
O O13 0.820586 0.371457 0.843631
O O14 0.025922 0.470618 0.198557
O O15 0.000000 0.500000 0.000000
#
# Coordination Sequence:
#
# PCOD8124646 Si02
#       7
#     4   4   4   4   4   4   4
#     4  11  21  44  62  99 134 167 219 275 323 390
#     4  10  21  40  63  93 130 171 218 264 330 384
#     4  10  20  41  68  93 130 174 211 283 318 377
#     4  12  24  43  67  93 136 181 209 272 337 392
#     4  12  24  38  68  99 128 172 223 265 337 393
#     4  11  19  35  63  96 120 169 226 261 302 395
#     4  10  19  40  67  86 134 163 216 280 321 361
#
# _framework density 19.871565
#
# number of rings (size 3 to 8) (size 9 to 14) (size 15 to 20)
#    0.000    1.143    8.571    2.571    0.000    1.714 
#    0.000    3.571    0.000    0.000    0.000    0.000 
#    0.000    0.000    0.000    0.000    0.000    0.000 
#
# Total GULP energy -347058.258026 kJ/mol
# GULP energy per Si atom -12394.937787 kJ/mol
# Density = 1.982634 g / cm^3
# Si number density = 19.871565 Si / 1000 Ang^3
#
#
#
# Elastic Constant Matrix: (Units=GPa)
#
#
# Indices 1 2 3 4 5 6 
#
# 1 59.8257 13.8585 6.0196 0.0000 -5.3324 0.0000
# 2 13.8585 89.9464 1.5615 0.0000 2.8197 0.0000
# 3 6.0196 1.5615 44.4846 0.0000 -0.2761 0.0000
# 4 0.0000 0.0000 0.0000 18.4675 0.0000 2.1718
# 5 -5.3324 2.8197 -0.2761 0.0000 23.5612 0.0000
# 6 0.0000 0.0000 0.0000 2.1718 0.0000 46.0528
#
#
#
# Elastic Compliance Matrix: (Units=1/GPa)
#
#
# Indices 1 2 3 4 5 6 
#
# 1 0.018004 -0.002872 -0.002308 0.000000 0.004391 0.000000
# 2 -0.002872 0.011625 -0.000032 0.000000 -0.002041 0.000000
# 3 -0.002308 -0.000032 0.022792 0.000000 -0.000251 0.000000
# 4 0.000000 0.000000 0.000000 0.054451 0.000000 -0.002568
# 5 0.004391 -0.002041 -0.000251 0.000000 0.043678 0.000000
# 6 0.000000 0.000000 0.000000 -0.002568 0.000000 0.021835
#
#
# Mechanical properties :
#
#
# Convention : Reuss Voigt Hill
#
# Bulk Modulus (GPa) = 23.81151 26.34843 25.07997
# Shear Modulus (GPa) = 25.40552 29.13743 27.27147
#
# Velocity S-wave (km/s) = 3.57947 3.83337 3.70859
# Velocity P-wave (km/s) = 5.39372 5.73420 5.56657
#
# Compressibility (1/GPa) = 0.04199649
#
# Stress axis : x y z
#
# Youngs Moduli (GPa) = 55.54291 86.02355 43.87585
#
# Poissons Ratio (x) = 0.24702 0.10128
# Poissons Ratio (y) = 0.15950 0.00141
# Poissons Ratio (z) = 0.12821 0.00276
#
# Static dielectric constant tensor:
#      x y z
#    x 3.778240 0.000000 -0.511710 
#    y 0.000000 4.358040 0.000000 
#    z -0.511710 0.000000 4.020070 
# 
# 
# High freq. dielectric constant tensor:
#      x y z
#    x 1.757080 0.000000 -0.011910 
#    y 0.000000 1.803060 0.000000 
#    z -0.011910 0.000000 1.746780 
# 
# From -- ./inp_files/40001.got.cif
#   From: 2010.03.12/outbox.cif.g09.slc.cpg/sg14_21_cif.got.tgz:40001.got - 2010.03.31 13:35:05.
