data_PCOD8124986
_publ_section_title
;
Structure prediction by ZEFSAII (Michael W. Deem and Ramdas Pophale) SiO2 
 PCOD8124986
Probable space group: P 21/C
;
_chemical_formula_sum "Si O2"
_cell_formula_units_Z 32
_cell_length_a 12.069360
_cell_length_b 15.502606
_cell_length_c 19.640622
_cell_angle_alpha 90.000000
_cell_angle_beta 152.644903
_cell_angle_gamma 90.000000
_cell_volume 1688.625528
_symmetry_space_group_name_H-M "P 21/C"
_symmetry_group_IT_number 14
_symmetry_cell_setting 'monoclinic'
loop_
_space_group_symop_operation_xyz
x,y,z
-x,1/2+y,1/2-z
-x,-y,-z
x,1/2-y,1/2+z
loop_
_atom_site_type_symbol
_atom_site_label
_atom_site_fract_x
_atom_site_fract_y
_atom_site_fract_z
Si Si1 0.188837 0.974466 0.384200
Si Si2 0.549924 0.141733 0.285183
Si Si3 0.854765 0.798092 0.846071
Si Si4 0.311350 0.822319 0.185471
Si Si5 0.344888 0.933937 0.328547
Si Si6 0.052669 0.107914 0.623998
Si Si7 0.964626 0.436718 0.645142
Si Si8 0.490686 0.531807 0.683381
O O1 0.392541 0.022648 0.540199
O O2 0.018666 0.046520 0.254438
O O3 0.314689 0.915050 0.393720
O O4 0.020628 0.915999 0.339268
O O5 0.398062 0.158499 0.271108
O O6 0.547212 0.231721 0.242143
O O7 0.434562 0.064530 0.178946
O O8 0.817624 0.112363 0.449405
O O9 0.809559 0.699040 0.802086
O O10 0.962000 0.840121 0.836067
O O11 0.040449 0.810383 0.010129
O O12 0.314756 0.848113 0.267045
O O13 0.447007 0.898057 0.218626
O O14 0.132653 0.000004 0.190358
O O15 0.234951 0.037099 0.693276
O O16 0.684977 0.452261 0.476385
#
# Coordination Sequence:
#
# PCOD8124986 Si02
#       8
#     4   4   4   4   4   4   4   4
#     4   9  20  37  58  83 110 160 194 231 281 343
#     4  11  22  35  59  87 116 149 189 238 301 343
#     4  10  20  36  59  85 112 149 196 241 285 348
#     4  10  20  36  57  89 111 144 192 243 287 342
#     4   9  18  37  61  81 111 149 199 237 276 340
#     4  11  22  37  56  84 121 151 190 236 292 356
#     4   9  19  36  59  83 108 152 199 232 279 339
#     4  11  21  36  57  86 117 151 183 245 302 332
#
# _framework density 18.950323999999998
#
# number of rings (size 3 to 8) (size 9 to 14) (size 15 to 20)
#    0.750    1.250    1.250    3.375    0.000    2.500 
#    0.000    2.500    0.000    0.000    0.000    0.000 
#    0.000    0.000    0.000    0.000    0.000    0.000 
#
# Total GULP energy -396681.486738 kJ/mol
# GULP energy per Si atom -12396.296461 kJ/mol
# Density = 1.890719 g / cm^3
# Si number density = 18.950324 Si / 1000 Ang^3
#
#
#
# Elastic Constant Matrix: (Units=GPa)
#
#
# Indices 1 2 3 4 5 6 
#
# 1 79.2740 38.9099 24.1225 0.0000 4.0768 0.0000
# 2 38.9099 102.5753 21.4391 0.0000 -2.2448 0.0000
# 3 24.1225 21.4391 74.9266 0.0000 7.2587 0.0000
# 4 0.0000 0.0000 0.0000 24.7027 0.0000 2.4794
# 5 4.0768 -2.2448 7.2587 0.0000 29.7941 0.0000
# 6 0.0000 0.0000 0.0000 2.4794 0.0000 34.0301
#
#
#
# Elastic Compliance Matrix: (Units=1/GPa)
#
#
# Indices 1 2 3 4 5 6 
#
# 1 0.016519 -0.005564 -0.003550 0.000000 -0.001815 0.000000
# 2 -0.005564 0.012312 -0.001941 0.000000 0.002162 0.000000
# 3 -0.003550 -0.001941 0.015375 0.000000 -0.003406 0.000000
# 4 0.000000 0.000000 0.000000 0.040780 0.000000 -0.002971
# 5 -0.001815 0.002162 -0.003406 0.000000 0.034805 0.000000
# 6 0.000000 0.000000 0.000000 -0.002971 0.000000 0.029602
#
#
# Mechanical properties :
#
#
# Convention : Reuss Voigt Hill
#
# Bulk Modulus (GPa) = 45.25823 47.30208 46.28015
# Shear Modulus (GPa) = 27.95341 29.19235 28.57288
#
# Velocity S-wave (km/s) = 3.84485 3.92914 3.88722
# Velocity P-wave (km/s) = 6.60643 6.75273 6.67998
#
# Compressibility (1/GPa) = 0.02209543
#
# Stress axis : x y z
#
# Youngs Moduli (GPa) = 60.53623 81.21834 65.04112
#
# Poissons Ratio (x) = 0.45188 0.23093
# Poissons Ratio (y) = 0.33681 0.12626
# Poissons Ratio (z) = 0.21493 0.15766
#
# Static dielectric constant tensor:
#      x y z
#    x 3.198330 0.000000 0.112540 
#    y 0.000000 3.429090 0.000000 
#    z 0.112540 0.000000 3.378330 
# 
# 
# High freq. dielectric constant tensor:
#      x y z
#    x 1.716080 0.000000 0.013080 
#    y 0.000000 1.726500 0.000000 
#    z 0.013080 0.000000 1.736600 
# 
# From -- ./inp_files/67488.got.cif
#   From: 2010.03.12/outbox.cif.g09.slc.cpg/sg14_34_cif.got.tgz:67488.got - 2010.03.31 13:35:05.
