data_PCOD8124667
_publ_section_title
;
Structure prediction by ZEFSAII (Michael W. Deem and Ramdas Pophale) SiO2 
 PCOD8124667
Probable space group: P 21/C
;
_chemical_formula_sum "Si O2"
_cell_formula_units_Z 32
_cell_length_a 25.030897
_cell_length_b 10.010812
_cell_length_c 14.901041
_cell_angle_alpha 90.000000
_cell_angle_beta 156.195487
_cell_angle_gamma 90.000000
_cell_volume 1507.065644
_symmetry_space_group_name_H-M "P 21/C"
_symmetry_group_IT_number 14
_symmetry_cell_setting 'monoclinic'
loop_
_space_group_symop_operation_xyz
x,y,z
-x,1/2+y,1/2-z
-x,-y,-z
x,1/2-y,1/2+z
loop_
_atom_site_type_symbol
_atom_site_label
_atom_site_fract_x
_atom_site_fract_y
_atom_site_fract_z
Si Si1 0.141466 0.069164 0.436334
Si Si2 0.775692 0.216277 0.209167
Si Si3 0.311113 0.273234 0.944163
Si Si4 0.586780 0.630585 0.558966
Si Si5 0.154288 0.506150 0.755545
Si Si6 0.988262 0.840644 0.295118
Si Si7 0.145165 0.035999 0.756398
Si Si8 0.513477 0.154336 0.905135
O O1 0.270859 0.068405 0.696429
O O2 0.065278 0.208812 0.337068
O O3 0.185287 0.052877 0.401168
O O4 0.049753 0.942832 0.318606
O O5 0.783369 0.348485 0.160804
O O6 0.907383 0.207317 0.470550
O O7 0.763811 0.094759 0.119136
O O8 0.651731 0.216736 0.085612
O O9 0.401766 0.248560 0.996108
O O10 0.228908 0.408400 0.800757
O O11 0.206923 0.153044 0.791715
O O12 0.400432 0.282603 0.169888
O O13 0.511852 0.693536 0.529627
O O14 0.507751 0.507547 0.391879
O O15 0.000000 0.500000 0.500000
O O16 0.866068 0.916429 0.157400
O O17 0.000000 0.000000 0.500000
#
# Coordination Sequence:
#
# PCOD8124667 Si02
#       8
#     4   4   4   4   4   4   4   4
#     4  12  24  43  68 100 140 183 233 286 356 416
#     4  11  23  41  67  96 137 177 230 286 344 421
#     4  12  24  44  73 101 137 188 233 286 357 414
#     4  11  24  45  72  96 137 194 230 288 344 426
#     4  12  25  43  67 106 142 177 230 299 355 409
#     4  11  23  40  62 100 133 177 229 288 349 416
#     4  10  19  41  65  94 129 176 228 279 344 422
#     4  11  24  44  68 101 136 181 244 275 340 427
#
# _framework density 21.233317
#
# number of rings (size 3 to 8) (size 9 to 14) (size 15 to 20)
#    0.000    0.750    6.250    1.500    5.250    0.000 
#    0.000    0.625    0.000    0.000    0.000    0.000 
#    0.000    0.000    0.000    0.000    0.000    0.000 
#
# Total GULP energy -396857.148210 kJ/mol
# GULP energy per Si atom -12401.785882 kJ/mol
# Density = 2.118499 g / cm^3
# Si number density = 21.233317 Si / 1000 Ang^3
#
#
#
# Elastic Constant Matrix: (Units=GPa)
#
#
# Indices 1 2 3 4 5 6 
#
# 1 126.9249 55.0968 24.6315 0.0000 15.8480 0.0000
# 2 55.0968 148.4495 26.6822 0.0000 9.4443 0.0000
# 3 24.6315 26.6822 56.1159 0.0000 4.3396 0.0000
# 4 0.0000 0.0000 0.0000 31.3220 0.0000 3.0778
# 5 15.8480 9.4443 4.3396 0.0000 31.1520 0.0000
# 6 0.0000 0.0000 0.0000 3.0778 0.0000 50.2722
#
#
#
# Elastic Compliance Matrix: (Units=1/GPa)
#
#
# Indices 1 2 3 4 5 6 
#
# 1 0.010221 -0.003055 -0.002733 0.000000 -0.003893 0.000000
# 2 -0.003055 0.008376 -0.002594 0.000000 -0.000624 0.000000
# 3 -0.002733 -0.002594 0.020303 0.000000 -0.000652 0.000000
# 4 0.000000 0.000000 0.000000 0.032120 0.000000 -0.001966
# 5 -0.003893 -0.000624 -0.000652 0.000000 0.034361 0.000000
# 6 0.000000 0.000000 0.000000 -0.001966 0.000000 0.020012
#
#
# Mechanical properties :
#
#
# Convention : Reuss Voigt Hill
#
# Bulk Modulus (GPa) = 45.17086 60.47901 52.82494
# Shear Modulus (GPa) = 33.43697 37.55454 35.49575
#
# Velocity S-wave (km/s) = 3.97261 4.21011 4.09308
# Velocity P-wave (km/s) = 6.50860 7.22345 6.87532
#
# Compressibility (1/GPa) = 0.02213817
#
# Stress axis : x y z
#
# Youngs Moduli (GPa) = 97.83656 119.39027 49.25273
#
# Poissons Ratio (x) = 0.36470 0.13461
# Poissons Ratio (y) = 0.29886 0.12774
# Poissons Ratio (z) = 0.26738 0.30964
#
# Static dielectric constant tensor:
#      x y z
#    x 4.155330 0.000000 0.187930 
#    y 0.000000 4.151340 0.000000 
#    z 0.187930 0.000000 3.693230 
# 
# 
# High freq. dielectric constant tensor:
#      x y z
#    x 1.842540 0.000000 0.017510 
#    y 0.000000 1.833240 0.000000 
#    z 0.017510 0.000000 1.818340 
# 
# From -- ./inp_files/51382.got.cif
#   From: 2010.03.12/outbox.cif.g09.slc.cpg/sg14_26_cif.got.tgz:51382.got - 2010.03.31 13:35:05.
