data_PCOD8124355
_publ_section_title
;
Structure prediction by ZEFSAII (Michael W. Deem and Ramdas Pophale) SiO2 
 PCOD8124355
Probable space group: P 21/C
;
_chemical_formula_sum "Si O2"
_cell_formula_units_Z 32
_cell_length_a 21.640674
_cell_length_b 14.061233
_cell_length_c 14.545932
_cell_angle_alpha 90.000000
_cell_angle_beta 158.962479
_cell_angle_gamma 90.000000
_cell_volume 1588.931140
_symmetry_space_group_name_H-M "P 21/C"
_symmetry_group_IT_number 14
_symmetry_cell_setting 'monoclinic'
loop_
_space_group_symop_operation_xyz
x,y,z
-x,1/2+y,1/2-z
-x,-y,-z
x,1/2-y,1/2+z
loop_
_atom_site_type_symbol
_atom_site_label
_atom_site_fract_x
_atom_site_fract_y
_atom_site_fract_z
Si Si1 0.237119 0.282194 0.178473
Si Si2 0.566163 0.789206 0.710479
Si Si3 0.228060 0.552746 0.083761
Si Si4 0.442260 0.185345 0.603746
Si Si5 0.058217 0.909778 0.786164
Si Si6 0.378587 0.008126 0.143919
Si Si7 0.417387 0.042648 0.996847
Si Si8 0.289352 0.760660 0.175703
O O1 0.264944 0.238987 0.114946
O O2 0.265082 0.204750 0.299578
O O3 0.390927 0.358864 0.405461
O O4 0.054194 0.335957 0.932194
O O5 0.565614 0.735433 0.807495
O O6 0.397385 0.759785 0.419384
O O7 0.566386 0.904259 0.715220
O O8 0.378974 0.519539 0.223437
O O9 0.301716 0.538564 0.289169
O O10 0.180712 0.663679 0.010646
O O11 0.062800 0.487737 0.832672
O O12 0.471535 0.071797 0.652584
O O13 0.600076 0.226436 0.763573
O O14 0.194514 0.964558 0.913042
O O15 0.155421 0.848099 0.998474
O O16 0.351984 0.055468 0.008373
#
# Coordination Sequence:
#
# PCOD8124355 Si02
#       8
#     4   4   4   4   4   4   4   4
#     4  10  21  40  60  89 127 159 204 254 309 373
#     4  11  21  40  68  91 118 172 213 246 307 375
#     4  10  19  36  63  85 118 167 205 253 301 367
#     4  10  21  39  62  92 121 161 211 257 296 370
#     4  10  25  37  57  97 126 160 200 260 319 359
#     4  11  23  38  64  97 123 158 210 260 309 365
#     4  10  19  38  64  88 113 162 212 254 295 370
#     4  10  21  41  59  87 127 165 200 259 309 367
#
# _framework density 20.139323999999998
#
# number of rings (size 3 to 8) (size 9 to 14) (size 15 to 20)
#    0.000    1.750    3.750    0.750    5.250    6.500 
#    0.000    2.500    0.000    1.500    0.000    0.000 
#    0.000    0.000    0.000    0.000    0.000    0.000 
#
# Total GULP energy -396567.766476 kJ/mol
# GULP energy per Si atom -12392.742702 kJ/mol
# Density = 2.009349 g / cm^3
# Si number density = 20.139324 Si / 1000 Ang^3
#
#
#
# Elastic Constant Matrix: (Units=GPa)
#
#
# Indices 1 2 3 4 5 6 
#
# 1 82.2986 40.7871 20.4246 0.0000 -16.9261 0.0000
# 2 40.7871 133.5932 30.4602 0.0000 -4.8022 0.0000
# 3 20.4246 30.4602 48.9633 0.0000 4.3235 0.0000
# 4 0.0000 0.0000 0.0000 38.8208 0.0000 -2.8873
# 5 -16.9261 -4.8022 4.3235 0.0000 24.1095 0.0000
# 6 0.0000 0.0000 0.0000 -2.8873 0.0000 23.9470
#
#
#
# Elastic Compliance Matrix: (Units=1/GPa)
#
#
# Indices 1 2 3 4 5 6 
#
# 1 0.018309 -0.003615 -0.006564 0.000000 0.013311 0.000000
# 2 -0.003615 0.009620 -0.004493 0.000000 0.000184 0.000000
# 3 -0.006564 -0.004493 0.026868 0.000000 -0.010322 0.000000
# 4 0.000000 0.000000 0.000000 0.025992 0.000000 0.003134
# 5 0.013311 0.000184 -0.010322 0.000000 0.052710 0.000000
# 6 0.000000 0.000000 0.000000 0.003134 0.000000 0.042137
#
#
# Mechanical properties :
#
#
# Convention : Reuss Voigt Hill
#
# Bulk Modulus (GPa) = 39.28739 49.79989 44.54364
# Shear Modulus (GPa) = 23.42302 28.92099 26.17201
#
# Velocity S-wave (km/s) = 3.41405 3.79363 3.60883
# Velocity P-wave (km/s) = 5.92378 6.63100 6.28734
#
# Compressibility (1/GPa) = 0.02545346
#
# Stress axis : x y z
#
# Youngs Moduli (GPa) = 54.61780 103.94901 37.21874
#
# Poissons Ratio (x) = 0.37575 0.24431
# Poissons Ratio (y) = 0.19743 0.16723
# Poissons Ratio (z) = 0.35852 0.46705
#
# Static dielectric constant tensor:
#      x y z
#    x 3.488130 0.000000 -0.050080 
#    y 0.000000 4.020980 0.000000 
#    z -0.050080 0.000000 3.673770 
# 
# 
# High freq. dielectric constant tensor:
#      x y z
#    x 1.766620 0.000000 -0.001470 
#    y 0.000000 1.808190 0.000000 
#    z -0.001470 0.000000 1.765610 
# 
# From -- ./inp_files/51587.got.cif
#   From: 2010.03.12/outbox.cif.g09.slc.cpg/sg14_26_cif.got.tgz:51587.got - 2010.03.31 13:35:05.
