data_PCOD8124005
_publ_section_title
;
Structure prediction by ZEFSAII (Michael W. Deem and Ramdas Pophale) SiO2 
 PCOD8124005
Probable space group: P 21/C
;
_chemical_formula_sum "Si O2"
_cell_formula_units_Z 28
_cell_length_a 10.133021
_cell_length_b 9.394092
_cell_length_c 19.874602
_cell_angle_alpha 90.000000
_cell_angle_beta 52.334015
_cell_angle_gamma 90.000000
_cell_volume 1497.581750
_symmetry_space_group_name_H-M "P 21/C"
_symmetry_group_IT_number 14
_symmetry_cell_setting 'monoclinic'
loop_
_space_group_symop_operation_xyz
x,y,z
-x,1/2+y,1/2-z
-x,-y,-z
x,1/2-y,1/2+z
loop_
_atom_site_type_symbol
_atom_site_label
_atom_site_fract_x
_atom_site_fract_y
_atom_site_fract_z
Si Si1 0.260866 0.066635 0.062559
Si Si2 0.567247 0.569805 0.704827
Si Si3 0.039179 0.736374 0.496915
Si Si4 0.310297 0.294290 0.939971
Si Si5 0.080150 0.005395 0.877605
Si Si6 0.374423 0.603349 0.894424
Si Si7 0.492692 0.885929 0.902600
O O1 0.337768 0.064010 0.113196
O O2 0.058082 0.056071 0.132056
O O3 0.325414 0.209797 0.005471
O O4 0.330361 0.936259 0.995511
O O5 0.607389 0.707373 0.647024
O O6 0.725489 0.523861 0.703677
O O7 0.415982 0.602001 0.801979
O O8 0.510693 0.444625 0.672136
O O9 0.095637 0.602526 0.434726
O O10 0.184016 0.849256 0.461672
O O11 0.884455 0.820420 0.513302
O O12 0.983345 0.663423 0.583931
O O13 0.399670 0.447036 0.918636
O O14 0.490900 0.714591 0.898125
#
# Coordination Sequence:
#
# PCOD8124005 Si02
#       7
#     4   4   4   4   4   4   4
#     4   9  18  35  56  74  98 136 187 214 241 317
#     4  10  20  33  52  79 106 139 177 211 264 320
#     4   9  16  30  52  78 101 134 181 220 251 301
#     4   9  20  31  49  80 108 134 175 223 261 306
#     4   9  15  33  56  73  97 141 184 209 245 312
#     4  12  19  30  52  83 114 130 167 228 277 300
#     4  10  19  33  56  78  97 140 178 214 256 306
#
# _framework density 18.696809999999999
#
# number of rings (size 3 to 8) (size 9 to 14) (size 15 to 20)
#    0.000    2.286    2.857    3.000    0.000    0.571 
#    0.000    0.000    6.286    0.000    0.000    0.000 
#    0.000    0.000    0.000    0.000    0.000    0.000 
#
# Total GULP energy -346933.644307 kJ/mol
# GULP energy per Si atom -12390.487297 kJ/mol
# Density = 1.865426 g / cm^3
# Si number density = 18.696810 Si / 1000 Ang^3
#
#
#
# Elastic Constant Matrix: (Units=GPa)
#
#
# Indices 1 2 3 4 5 6 
#
# 1 84.7417 22.0320 15.0738 0.0000 7.7482 0.0000
# 2 22.0320 117.3001 21.2300 0.0000 0.8486 0.0000
# 3 15.0738 21.2300 44.2604 0.0000 2.2050 0.0000
# 4 0.0000 0.0000 0.0000 12.2441 0.0000 -3.0559
# 5 7.7482 0.8486 2.2050 0.0000 10.2845 0.0000
# 6 0.0000 0.0000 0.0000 -3.0559 0.0000 14.0027
#
#
#
# Elastic Compliance Matrix: (Units=1/GPa)
#
#
# Indices 1 2 3 4 5 6 
#
# 1 0.013753 -0.001919 -0.003290 0.000000 -0.009498 0.000000
# 2 -0.001919 0.009604 -0.004029 0.000000 0.001517 0.000000
# 3 -0.003290 -0.004029 0.025782 0.000000 -0.002716 0.000000
# 4 0.000000 0.000000 0.000000 0.086376 0.000000 0.018850
# 5 -0.009498 0.001517 -0.002716 0.000000 0.104846 0.000000
# 6 0.000000 0.000000 0.000000 0.018850 0.000000 0.075529
#
#
# Mechanical properties :
#
#
# Convention : Reuss Voigt Hill
#
# Bulk Modulus (GPa) = 32.61258 40.33043 36.47150
# Shear Modulus (GPa) = 14.51014 19.83736 17.17375
#
# Velocity S-wave (km/s) = 2.78884 3.26084 3.03403
# Velocity P-wave (km/s) = 5.27739 5.98289 5.64118
#
# Compressibility (1/GPa) = 0.03066301
#
# Stress axis : x y z
#
# Youngs Moduli (GPa) = 72.71056 104.12630 38.78704
#
# Poissons Ratio (x) = 0.19982 0.12762
# Poissons Ratio (y) = 0.13953 0.15626
# Poissons Ratio (z) = 0.23924 0.41948
#
# Static dielectric constant tensor:
#      x y z
#    x 3.361800 0.000000 -0.218700 
#    y 0.000000 3.453190 0.000000 
#    z -0.218700 0.000000 3.077370 
# 
# 
# High freq. dielectric constant tensor:
#      x y z
#    x 1.716380 0.000000 -0.020730 
#    y 0.000000 1.727440 0.000000 
#    z -0.020730 0.000000 1.682730 
# 
# From -- ./inp_files/66813.got.cif
#   From: 2010.03.12/outbox.cif.g09.slc.cpg/sg14_34_cif.got.tgz:66813.got - 2010.03.31 13:35:05.
