data_PCOD8124785
_publ_section_title
;
Structure prediction by ZEFSAII (Michael W. Deem and Ramdas Pophale) SiO2 
 PCOD8124785
Probable space group: P 21/C
;
_chemical_formula_sum "Si O2"
_cell_formula_units_Z 32
_cell_length_a 9.972511
_cell_length_b 21.904070
_cell_length_c 8.524008
_cell_angle_alpha 90.000000
_cell_angle_beta 115.195051
_cell_angle_gamma 90.000000
_cell_volume 1684.831285
_symmetry_space_group_name_H-M "P 21/C"
_symmetry_group_IT_number 14
_symmetry_cell_setting 'monoclinic'
loop_
_space_group_symop_operation_xyz
x,y,z
-x,1/2+y,1/2-z
-x,-y,-z
x,1/2-y,1/2+z
loop_
_atom_site_type_symbol
_atom_site_label
_atom_site_fract_x
_atom_site_fract_y
_atom_site_fract_z
Si Si1 0.363512 0.647144 0.059234
Si Si2 0.763155 0.326421 0.510572
Si Si3 0.385083 0.240385 0.230519
Si Si4 0.666514 0.068280 0.157845
Si Si5 0.122341 0.713105 0.761782
Si Si6 0.515480 0.855889 0.323950
Si Si7 0.654921 0.931486 0.148143
Si Si8 0.211461 0.313546 0.396213
O O1 0.460846 0.703428 0.172896
O O2 0.331502 0.594535 0.166413
O O3 0.202576 0.669313 0.924838
O O4 0.442831 0.618263 0.945497
O O5 0.776868 0.393778 0.597191
O O6 0.801212 0.279537 0.671967
O O7 0.866155 0.311112 0.411956
O O8 0.595345 0.327326 0.364391
O O9 0.395402 0.293352 0.098894
O O10 0.331948 0.275912 0.357645
O O11 0.258298 0.194656 0.102017
O O12 0.725683 0.998864 0.187313
O O13 0.494581 0.070020 0.026589
O O14 0.950313 0.712936 0.719938
O O15 0.614445 0.910645 0.305098
O O16 0.777361 0.885641 0.137229
#
# Coordination Sequence:
#
# PCOD8124785 Si02
#       8
#     4   4   4   4   4   4   4   4
#     4  11  20  33  58  83 108 148 189 228 276 334
#     4  10  20  34  54  81 112 146 187 227 275 343
#     4  11  19  33  54  82 111 141 179 227 285 329
#     4  10  20  36  59  81 109 155 195 229 272 334
#     4  11  22  35  55  85 115 142 182 235 291 333
#     4   9  19  32  55  85 111 141 186 235 274 331
#     4   9  20  37  56  82 116 150 188 232 282 329
#     4  11  22  36  56  84 118 143 179 236 289 333
#
# _framework density 18.992999999999999
#
# number of rings (size 3 to 8) (size 9 to 14) (size 15 to 20)
#    0.000    1.750    3.750    1.500    1.750    0.500 
#    0.000    1.250    0.000    0.000    0.000    0.000 
#    0.000    0.000    0.000    0.000    0.000    0.000 
#
# Total GULP energy -396435.962876 kJ/mol
# GULP energy per Si atom -12388.623840 kJ/mol
# Density = 1.894977 g / cm^3
# Si number density = 18.993000 Si / 1000 Ang^3
#
#
#
# Elastic Constant Matrix: (Units=GPa)
#
#
# Indices 1 2 3 4 5 6 
#
# 1 54.1453 29.9332 21.4258 0.0000 -2.9167 0.0000
# 2 29.9332 134.7974 45.2088 0.0000 -18.2868 0.0000
# 3 21.4258 45.2088 76.6275 0.0000 -8.1613 0.0000
# 4 0.0000 0.0000 0.0000 21.8268 0.0000 -5.9319
# 5 -2.9167 -18.2868 -8.1613 0.0000 19.0121 0.0000
# 6 0.0000 0.0000 0.0000 -5.9319 0.0000 21.1048
#
#
#
# Elastic Compliance Matrix: (Units=1/GPa)
#
#
# Indices 1 2 3 4 5 6 
#
# 1 0.022100 -0.003789 -0.004161 0.000000 -0.002040 0.000000
# 2 -0.003789 0.010841 -0.004493 0.000000 0.007917 0.000000
# 3 -0.004161 -0.004493 0.017119 0.000000 0.002388 0.000000
# 4 0.000000 0.000000 0.000000 0.049604 0.000000 0.013942
# 5 -0.002040 0.007917 0.002388 0.000000 0.060926 0.000000
# 6 0.000000 0.000000 0.000000 0.013942 0.000000 0.051301
#
#
# Mechanical properties :
#
#
# Convention : Reuss Voigt Hill
#
# Bulk Modulus (GPa) = 39.72474 50.96730 45.34602
# Shear Modulus (GPa) = 20.39408 23.65558 22.02483
#
# Velocity S-wave (km/s) = 3.28039 3.53298 3.40903
# Velocity P-wave (km/s) = 5.94213 6.59815 6.27871
#
# Compressibility (1/GPa) = 0.02517323
#
# Stress axis : x y z
#
# Youngs Moduli (GPa) = 45.24855 92.24318 58.41432
#
# Poissons Ratio (x) = 0.34948 0.24309
# Poissons Ratio (y) = 0.17143 0.26248
# Poissons Ratio (z) = 0.18830 0.41448
#
# Static dielectric constant tensor:
#      x y z
#    x 3.192070 0.000000 -0.152410 
#    y 0.000000 3.559820 0.000000 
#    z -0.152410 0.000000 3.476970 
# 
# 
# High freq. dielectric constant tensor:
#      x y z
#    x 1.713760 0.000000 -0.015090 
#    y 0.000000 1.725770 0.000000 
#    z -0.015090 0.000000 1.739750 
# 
# From -- ./inp_files/10220.got.cif
#   From: 2010.03.12/outbox.cif.g09.slc.cpg/sg14_6_cif.got.tgz:10220.got - 2010.03.31 13:35:05.
