data_PCOD8124028
_publ_section_title
;
Structure prediction by ZEFSAII (Michael W. Deem and Ramdas Pophale) SiO2 
 PCOD8124028
Probable space group: P 21/C
;
_chemical_formula_sum "Si O2"
_cell_formula_units_Z 28
_cell_length_a 17.815299
_cell_length_b 18.595954
_cell_length_c 8.590112
_cell_angle_alpha 90.000000
_cell_angle_beta 148.325318
_cell_angle_gamma 90.000000
_cell_volume 1494.337925
_symmetry_space_group_name_H-M "P 21/C"
_symmetry_group_IT_number 14
_symmetry_cell_setting 'monoclinic'
loop_
_space_group_symop_operation_xyz
x,y,z
-x,1/2+y,1/2-z
-x,-y,-z
x,1/2-y,1/2+z
loop_
_atom_site_type_symbol
_atom_site_label
_atom_site_fract_x
_atom_site_fract_y
_atom_site_fract_z
Si Si1 0.716002 0.943538 0.104193
Si Si2 0.385208 0.337131 0.805781
Si Si3 0.373669 0.556558 0.761136
Si Si4 0.652434 0.685933 0.908943
Si Si5 0.118722 0.086510 0.306424
Si Si6 0.474654 0.580950 0.405883
Si Si7 0.197957 0.553701 0.762545
O O1 0.846813 0.937296 0.455209
O O2 0.727506 0.894000 0.969418
O O3 0.570679 0.909994 0.921344
O O4 0.706362 0.028400 0.037933
O O5 0.388347 0.266326 0.706775
O O6 0.549628 0.365907 0.114738
O O7 0.324426 0.317928 0.866795
O O8 0.259940 0.551816 0.698884
O O9 0.500000 0.500000 0.000000
O O10 0.522199 0.634397 0.626050
O O11 0.800403 0.660814 0.088577
O O12 0.174094 0.027234 0.281456
O O13 0.949375 0.098135 0.994471
O O14 0.500000 0.500000 0.500000
O O15 0.309154 0.594633 0.072145
#
# Coordination Sequence:
#
# PCOD8124028 Si02
#       7
#     4   4   4   4   4   4   4
#     4  10  19  34  58  88 115 147 191 236 291 333
#     4  11  22  35  62  84 109 150 195 243 286 343
#     4  10  19  33  59  89 116 144 191 248 277 333
#     4  11  22  37  59  83 111 148 201 234 291 350
#     4  10  22  35  57  87 120 157 185 236 291 352
#     4  11  18  33  60  85 111 150 187 242 279 333
#     4  11  20  35  58  88 122 148 190 233 293 332
#
# _framework density 18.737396
#
# number of rings (size 3 to 8) (size 9 to 14) (size 15 to 20)
#    0.000    1.429    5.714    4.286    0.000    0.571 
#    0.000    0.000    6.286    0.000    0.000    0.000 
#    0.000    0.000    0.000    0.000    0.000    0.000 
#
# Total GULP energy -347057.202467 kJ/mol
# GULP energy per Si atom -12394.900088 kJ/mol
# Density = 1.869475 g / cm^3
# Si number density = 18.737396 Si / 1000 Ang^3
#
#
#
# Elastic Constant Matrix: (Units=GPa)
#
#
# Indices 1 2 3 4 5 6 
#
# 1 81.2953 18.6327 37.5937 0.0000 -8.5241 0.0000
# 2 18.6327 90.6649 31.2558 0.0000 -4.4044 0.0000
# 3 37.5937 31.2558 132.5827 0.0000 6.0814 0.0000
# 4 0.0000 0.0000 0.0000 18.7348 0.0000 -6.8164
# 5 -8.5241 -4.4044 6.0814 0.0000 35.2881 0.0000
# 6 0.0000 0.0000 0.0000 -6.8164 0.0000 27.5373
#
#
#
# Elastic Compliance Matrix: (Units=1/GPa)
#
#
# Indices 1 2 3 4 5 6 
#
# 1 0.014960 -0.001465 -0.004086 0.000000 0.004135 0.000000
# 2 -0.001465 0.012291 -0.002556 0.000000 0.001621 0.000000
# 3 -0.004086 -0.002556 0.009438 0.000000 -0.002933 0.000000
# 4 0.000000 0.000000 0.000000 0.058660 0.000000 0.014520
# 5 0.004135 0.001621 -0.002933 0.000000 0.030045 0.000000
# 6 0.000000 0.000000 0.000000 0.014520 0.000000 0.039909
#
#
# Mechanical properties :
#
#
# Convention : Reuss Voigt Hill
#
# Bulk Modulus (GPa) = 48.84298 53.27859 51.06079
# Shear Modulus (GPa) = 26.54757 30.78275 28.66516
#
# Velocity S-wave (km/s) = 3.76815 4.05761 3.91556
# Velocity P-wave (km/s) = 6.71235 7.10270 6.91028
#
# Compressibility (1/GPa) = 0.02047377
#
# Stress axis : x y z
#
# Youngs Moduli (GPa) = 66.84612 81.36219 105.95145
#
# Poissons Ratio (x) = 0.11918 0.43293
# Poissons Ratio (y) = 0.09792 0.27086
# Poissons Ratio (z) = 0.27314 0.20800
#
# Static dielectric constant tensor:
#      x y z
#    x 4.502120 0.000000 0.032620 
#    y 0.000000 3.309150 0.000000 
#    z 0.032620 0.000000 3.733960 
# 
# 
# High freq. dielectric constant tensor:
#      x y z
#    x 1.730550 0.000000 -0.024410 
#    y 0.000000 1.702490 0.000000 
#    z -0.024410 0.000000 1.719640 
# 
# From -- ./inp_files/18157.got.cif
#   From: 2010.03.12/outbox.cif.g09.slc.cpg/sg14_10_cif.got.tgz:18157.got - 2010.03.31 13:35:05.
