data_PCOD8124820
_publ_section_title
;
Structure prediction by ZEFSAII (Michael W. Deem and Ramdas Pophale) SiO2 
 PCOD8124820
Probable space group: P 21/C
;
_chemical_formula_sum "Si O2"
_cell_formula_units_Z 32
_cell_length_a 18.265261
_cell_length_b 9.152503
_cell_length_c 19.106752
_cell_angle_alpha 90.000000
_cell_angle_beta 30.613380
_cell_angle_gamma 90.000000
_cell_volume 1626.586603
_symmetry_space_group_name_H-M "P 21/C"
_symmetry_group_IT_number 14
_symmetry_cell_setting 'monoclinic'
loop_
_space_group_symop_operation_xyz
x,y,z
-x,1/2+y,1/2-z
-x,-y,-z
x,1/2-y,1/2+z
loop_
_atom_site_type_symbol
_atom_site_label
_atom_site_fract_x
_atom_site_fract_y
_atom_site_fract_z
Si Si1 0.021557 0.257741 0.379748
Si Si2 0.016548 0.459170 0.150080
Si Si3 0.222294 0.149612 0.601628
Si Si4 0.208351 0.985095 0.924793
Si Si5 0.535160 0.652703 0.292190
Si Si6 0.737323 0.515097 0.456114
Si Si7 0.525462 0.488762 0.157416
Si Si8 0.151857 0.206024 0.416541
O O1 0.127620 0.366068 0.249695
O O2 0.106461 0.184063 0.373743
O O3 0.886177 0.347207 0.519948
O O4 0.962768 0.133522 0.375461
O O5 0.129967 0.394699 0.110547
O O6 0.854746 0.433387 0.311263
O O7 0.041204 0.385044 0.054888
O O8 0.278926 0.314752 0.548171
O O9 0.357805 0.038717 0.496578
O O10 0.367317 0.962414 0.762187
O O11 0.134454 0.126499 0.952981
O O12 0.217135 0.998954 0.000999
O O13 0.415451 0.561720 0.433080
O O14 0.570262 0.575155 0.190315
O O15 0.683173 0.653402 0.213467
O O16 0.473993 0.815425 0.329031
#
# Coordination Sequence:
#
# PCOD8124820 Si02
#       8
#     4   4   4   4   4   4   4   4
#     4  11  25  38  60  90 123 161 198 242 309 365
#     4  11  22  38  61  86 117 154 206 251 290 354
#     4  11  21  39  58  90 117 153 202 253 291 347
#     4  10  20  37  59  87 119 152 201 246 298 351
#     4  10  21  36  60  88 119 154 195 251 298 355
#     4  10  21  36  59  90 113 149 206 253 294 344
#     4  10  20  34  59  88 112 150 202 246 297 341
#     4  11  22  42  58  87 128 161 190 247 308 364
#
# _framework density 19.673099000000001
#
# number of rings (size 3 to 8) (size 9 to 14) (size 15 to 20)
#    0.000    1.500    3.750    2.250    3.500    2.000 
#    0.000    6.250    0.000    0.000    0.000    0.000 
#    0.000    0.000    0.000    0.000    0.000    0.000 
#
# Total GULP energy -396847.182540 kJ/mol
# GULP energy per Si atom -12401.474454 kJ/mol
# Density = 1.962832 g / cm^3
# Si number density = 19.673099 Si / 1000 Ang^3
#
#
#
# Elastic Constant Matrix: (Units=GPa)
#
#
# Indices 1 2 3 4 5 6 
#
# 1 54.8830 23.9138 18.4165 0.0000 -0.6485 0.0000
# 2 23.9138 80.8260 39.0043 0.0000 -9.3294 0.0000
# 3 18.4165 39.0043 104.6388 0.0000 -4.1245 0.0000
# 4 0.0000 0.0000 0.0000 38.6155 0.0000 -5.4300
# 5 -0.6485 -9.3294 -4.1245 0.0000 21.7065 0.0000
# 6 0.0000 0.0000 0.0000 -5.4300 0.0000 19.6126
#
#
#
# Elastic Compliance Matrix: (Units=1/GPa)
#
#
# Indices 1 2 3 4 5 6 
#
# 1 0.021255 -0.005719 -0.001694 0.000000 -0.002145 0.000000
# 2 -0.005719 0.017295 -0.005193 0.000000 0.006276 0.000000
# 3 -0.001694 -0.005193 0.011789 0.000000 -0.000042 0.000000
# 4 0.000000 0.000000 0.000000 0.026945 0.000000 0.007460
# 5 -0.002145 0.006276 -0.000042 0.000000 0.048694 0.000000
# 6 0.000000 0.000000 0.000000 0.007460 0.000000 0.053053
#
#
# Mechanical properties :
#
#
# Convention : Reuss Voigt Hill
#
# Bulk Modulus (GPa) = 39.79647 44.77966 42.28806
# Shear Modulus (GPa) = 23.51635 26.58781 25.05208
#
# Velocity S-wave (km/s) = 3.46114 3.68024 3.57237
# Velocity P-wave (km/s) = 6.02042 6.39298 6.20949
#
# Compressibility (1/GPa) = 0.02512786
#
# Stress axis : x y z
#
# Youngs Moduli (GPa) = 47.04668 57.82181 84.82718
#
# Poissons Ratio (x) = 0.33068 0.14368
# Poissons Ratio (y) = 0.26906 0.44048
# Poissons Ratio (z) = 0.07968 0.30025
#
# Static dielectric constant tensor:
#      x y z
#    x 3.239630 0.000000 -0.101360 
#    y 0.000000 3.651960 0.000000 
#    z -0.101360 0.000000 3.895320 
# 
# 
# High freq. dielectric constant tensor:
#      x y z
#    x 1.733700 0.000000 -0.011480 
#    y 0.000000 1.772900 0.000000 
#    z -0.011480 0.000000 1.780850 
# 
# From -- ./inp_files/69775.got.cif
#   From: 2010.03.12/outbox.cif.g09.slc.cpg/sg14_35_cif.got.tgz:69775.got - 2010.03.31 13:35:05.
