data_PCOD8124402
_publ_section_title
;
Structure prediction by ZEFSAII (Michael W. Deem and Ramdas Pophale) SiO2 
 PCOD8124402
Probable space group: P 21/C
;
_chemical_formula_sum "Si O2"
_cell_formula_units_Z 32
_cell_length_a 11.421572
_cell_length_b 20.356547
_cell_length_c 11.534685
_cell_angle_alpha 90.000000
_cell_angle_beta 142.738789
_cell_angle_gamma 90.000000
_cell_volume 1623.730028
_symmetry_space_group_name_H-M "P 21/C"
_symmetry_group_IT_number 14
_symmetry_cell_setting 'monoclinic'
loop_
_space_group_symop_operation_xyz
x,y,z
-x,1/2+y,1/2-z
-x,-y,-z
x,1/2-y,1/2+z
loop_
_atom_site_type_symbol
_atom_site_label
_atom_site_fract_x
_atom_site_fract_y
_atom_site_fract_z
Si Si1 0.295503 0.674966 0.521945
Si Si2 0.250495 0.564294 0.315047
Si Si3 0.684748 0.581642 0.590269
Si Si4 0.693388 0.839066 0.872335
Si Si5 0.343384 0.196933 0.552311
Si Si6 0.579338 0.298196 0.021841
Si Si7 0.942278 0.206053 0.957668
Si Si8 0.922130 0.852330 0.474168
O O1 0.241951 0.604966 0.426809
O O2 0.464005 0.664457 0.745922
O O3 0.367463 0.725128 0.479671
O O4 0.107411 0.699695 0.444945
O O5 0.455320 0.575186 0.415915
O O6 0.211830 0.488176 0.310794
O O7 0.082105 0.590436 0.097446
O O8 0.725287 0.604133 0.490967
O O9 0.763888 0.632425 0.749742
O O10 0.693387 0.770461 0.937592
O O11 0.488199 0.844285 0.639866
O O12 0.874157 0.839122 0.926861
O O13 0.382456 0.201311 0.445363
O O14 0.172022 0.151553 0.470153
O O15 0.768833 0.322203 0.239214
O O16 0.975096 0.283261 0.967004
#
# Coordination Sequence:
#
# PCOD8124402 Si02
#       8
#     4   4   4   4   4   4   4   4
#     4  10  19  37  58  87 122 151 195 239 303 358
#     4  11  23  40  62  82 119 167 204 249 290 357
#     4  11  25  41  57  89 120 160 209 244 295 357
#     4  10  23  35  59  85 122 152 192 246 294 361
#     4   9  20  35  59  87 119 144 190 252 297 355
#     4  10  20  36  57  90 118 150 184 240 311 348
#     4  10  23  33  60  94 118 149 188 252 306 360
#     4  11  22  37  64  90 119 155 198 254 302 356
#
# _framework density 19.707709999999999
#
# number of rings (size 3 to 8) (size 9 to 14) (size 15 to 20)
#    0.000    1.750    2.500    1.125   10.500    0.000 
#    0.000    0.625    0.000    1.500    0.000    0.000 
#    0.000    0.000    0.000    0.000    0.000    0.000 
#
# Total GULP energy -396536.348037 kJ/mol
# GULP energy per Si atom -12391.760876 kJ/mol
# Density = 1.966285 g / cm^3
# Si number density = 19.707710 Si / 1000 Ang^3
#
#
#
# Elastic Constant Matrix: (Units=GPa)
#
#
# Indices 1 2 3 4 5 6 
#
# 1 116.3470 44.8652 32.9646 0.0000 -6.5141 0.0000
# 2 44.8652 60.6171 28.7348 0.0000 0.1812 0.0000
# 3 32.9646 28.7348 57.2085 0.0000 -3.2622 0.0000
# 4 0.0000 0.0000 0.0000 26.9118 0.0000 -2.3294
# 5 -6.5141 0.1812 -3.2622 0.0000 26.3379 0.0000
# 6 0.0000 0.0000 0.0000 -2.3294 0.0000 21.9824
#
#
#
# Elastic Compliance Matrix: (Units=1/GPa)
#
#
# Indices 1 2 3 4 5 6 
#
# 1 0.012701 -0.007895 -0.003193 0.000000 0.002800 0.000000
# 2 -0.007895 0.026620 -0.009007 0.000000 -0.003251 0.000000
# 3 -0.003193 -0.009007 0.023972 0.000000 0.002241 0.000000
# 4 0.000000 0.000000 0.000000 0.037502 0.000000 0.003974
# 5 0.002800 -0.003251 0.002241 0.000000 0.038961 0.000000
# 6 0.000000 0.000000 0.000000 0.003974 0.000000 0.045912
#
#
# Mechanical properties :
#
#
# Convention : Reuss Voigt Hill
#
# Bulk Modulus (GPa) = 43.28605 49.70020 46.49312
# Shear Modulus (GPa) = 21.40791 23.55363 22.48077
#
# Velocity S-wave (km/s) = 3.29944 3.46084 3.38110
# Velocity P-wave (km/s) = 6.04374 6.42209 6.23579
#
# Compressibility (1/GPa) = 0.02310213
#
# Stress axis : x y z
#
# Youngs Moduli (GPa) = 78.73399 37.56601 41.71596
#
# Poissons Ratio (x) = 0.29659 0.13321
# Poissons Ratio (y) = 0.62162 0.37572
# Poissons Ratio (z) = 0.25142 0.33835
#
# Static dielectric constant tensor:
#      x y z
#    x 3.989670 0.000000 -0.008300 
#    y 0.000000 3.269810 0.000000 
#    z -0.008300 0.000000 3.778250 
# 
# 
# High freq. dielectric constant tensor:
#      x y z
#    x 1.776460 0.000000 0.004950 
#    y 0.000000 1.720440 0.000000 
#    z 0.004950 0.000000 1.784820 
# 
# From -- ./inp_files/30454.got.cif
#   From: 2010.03.12/outbox.cif.g09.slc.cpg/sg14_16_cif.got.tgz:30454.got - 2010.03.31 13:35:05.
