data_PCOD8124710
_publ_section_title
;
Structure prediction by ZEFSAII (Michael W. Deem and Ramdas Pophale) SiO2 
 PCOD8124710
Probable space group: P 21/C
;
_chemical_formula_sum "Si O2"
_cell_formula_units_Z 24
_cell_length_a 22.429112
_cell_length_b 5.182417
_cell_length_c 21.349168
_cell_angle_alpha 90.000000
_cell_angle_beta 152.426466
_cell_angle_gamma 90.000000
_cell_volume 1148.682561
_symmetry_space_group_name_H-M "P 21/C"
_symmetry_group_IT_number 14
_symmetry_cell_setting 'monoclinic'
loop_
_space_group_symop_operation_xyz
x,y,z
-x,1/2+y,1/2-z
-x,-y,-z
x,1/2-y,1/2+z
loop_
_atom_site_type_symbol
_atom_site_label
_atom_site_fract_x
_atom_site_fract_y
_atom_site_fract_z
Si Si1 0.764303 0.664593 0.376571
Si Si2 0.082492 0.815673 0.505578
Si Si3 0.379404 0.846052 0.471213
Si Si4 0.521461 0.616496 0.230769
Si Si5 0.159758 0.900127 0.709384
Si Si6 0.385764 0.229877 0.878443
O O1 0.873765 0.444813 0.488605
O O2 0.667600 0.665247 0.345049
O O3 0.681968 0.588456 0.237983
O O4 0.829450 0.944478 0.433142
O O5 0.081534 0.759600 0.580363
O O6 0.934384 0.883847 0.348092
O O7 0.416418 0.860093 0.577800
O O8 0.225570 0.780930 0.323742
O O9 0.475912 0.641370 0.523764
O O10 0.406274 0.117480 0.462223
O O11 0.512963 0.328578 0.249626
O O12 0.287217 0.000379 0.794349
#
# Coordination Sequence:
#
# PCOD8124710 Si02
#       6
#     4   4   4   4   4   4
#     4  10  20  39  58  86 121 152 192 242 295 355
#     4  10  21  33  58  89 126 157 185 228 291 367
#     4  10  20  35  57  85 120 151 191 248 296 353
#     4  11  25  42  63  86 111 155 206 253 299 345
#     4  10  20  31  55  88 127 154 189 225 295 369
#     4   9  19  32  56  88 120 149 185 239 307 348
#
# _framework density 20.893502000000002
#
# number of rings (size 3 to 8) (size 9 to 14) (size 15 to 20)
#    0.000    2.000    1.667    1.500    4.667    2.000 
#    0.000    0.000    0.000    4.000    0.000    0.000 
#    0.000    0.000    0.000    0.000    0.000    0.000 
#
# Total GULP energy -297398.079951 kJ/mol
# GULP energy per Si atom -12391.586665 kJ/mol
# Density = 2.084595 g / cm^3
# Si number density = 20.893502 Si / 1000 Ang^3
#
#
#
# Elastic Constant Matrix: (Units=GPa)
#
#
# Indices 1 2 3 4 5 6 
#
# 1 61.5965 9.5013 30.1952 0.0000 -6.9395 0.0000
# 2 9.5013 51.2442 11.1956 0.0000 2.1683 0.0000
# 3 30.1952 11.1956 113.7647 0.0000 4.7446 0.0000
# 4 0.0000 0.0000 0.0000 29.6050 0.0000 10.2065
# 5 -6.9395 2.1683 4.7446 0.0000 25.5067 0.0000
# 6 0.0000 0.0000 0.0000 10.2065 0.0000 32.4954
#
#
#
# Elastic Compliance Matrix: (Units=1/GPa)
#
#
# Indices 1 2 3 4 5 6 
#
# 1 0.020030 -0.002835 -0.005316 0.000000 0.006680 0.000000
# 2 -0.002835 0.020390 -0.001159 0.000000 -0.002289 0.000000
# 3 -0.005316 -0.001159 0.010452 0.000000 -0.003292 0.000000
# 4 0.000000 0.000000 0.000000 0.037880 0.000000 -0.011898
# 5 0.006680 -0.002289 -0.003292 0.000000 0.041830 0.000000
# 6 0.000000 0.000000 0.000000 -0.011898 0.000000 0.034511
#
#
# Mechanical properties :
#
#
# Convention : Reuss Voigt Hill
#
# Bulk Modulus (GPa) = 31.00449 36.48773 33.74611
# Shear Modulus (GPa) = 25.71173 29.23563 27.47368
#
# Velocity S-wave (km/s) = 3.51181 3.74474 3.63014
# Velocity P-wave (km/s) = 5.59600 6.01656 5.81009
#
# Compressibility (1/GPa) = 0.03225339
#
# Stress axis : x y z
#
# Youngs Moduli (GPa) = 49.92387 49.04351 95.67216
#
# Poissons Ratio (x) = 0.13904 0.50860
# Poissons Ratio (y) = 0.14154 0.11085
# Poissons Ratio (z) = 0.26540 0.05682
#
# Static dielectric constant tensor:
#      x y z
#    x 3.497710 0.000000 0.195050 
#    y 0.000000 3.591050 0.000000 
#    z 0.195050 0.000000 4.362610 
# 
# 
# High freq. dielectric constant tensor:
#      x y z
#    x 1.776760 0.000000 0.026330 
#    y 0.000000 1.816720 0.000000 
#    z 0.026330 0.000000 1.828750 
# 
# From -- ./inp_files/56622.got.cif
#   From: 2010.03.12/outbox.cif.g09.slc.cpg/sg14_29_cif.got.tgz:56622.got - 2010.03.31 13:35:05.
