data_PCOD8124311
_publ_section_title
;
Structure prediction by ZEFSAII (Michael W. Deem and Ramdas Pophale) SiO2 
 PCOD8124311
Probable space group: P 21/C
;
_chemical_formula_sum "Si O2"
_cell_formula_units_Z 32
_cell_length_a 23.227081
_cell_length_b 14.069351
_cell_length_c 14.529274
_cell_angle_alpha 90.000000
_cell_angle_beta 21.353351
_cell_angle_gamma 90.000000
_cell_volume 1728.842771
_symmetry_space_group_name_H-M "P 21/C"
_symmetry_group_IT_number 14
_symmetry_cell_setting 'monoclinic'
loop_
_space_group_symop_operation_xyz
x,y,z
-x,1/2+y,1/2-z
-x,-y,-z
x,1/2-y,1/2+z
loop_
_atom_site_type_symbol
_atom_site_label
_atom_site_fract_x
_atom_site_fract_y
_atom_site_fract_z
Si Si1 0.037343 0.107666 0.965643
Si Si2 0.676078 0.776851 0.519237
Si Si3 0.319586 0.997824 0.233636
Si Si4 0.004057 0.468861 0.700481
Si Si5 0.871783 0.167713 0.045562
Si Si6 0.404174 0.802794 0.064424
Si Si7 0.862971 0.695835 0.402307
Si Si8 0.638414 0.798714 0.876327
O O1 0.214482 0.133583 0.670076
O O2 0.013967 0.116128 0.109463
O O3 0.915323 0.172318 0.089420
O O4 0.000000 0.000000 0.000000
O O5 0.773186 0.702184 0.437812
O O6 0.609834 0.732225 0.523763
O O7 0.533183 0.814736 0.793017
O O8 0.290788 0.094371 0.219543
O O9 0.179513 0.999836 0.518347
O O10 0.297336 0.898410 0.211859
O O11 0.500000 0.000000 0.000000
O O12 0.112286 0.560162 0.516137
O O13 0.080017 0.414316 0.674868
O O14 0.693836 0.205861 0.301663
O O15 0.986515 0.235170 0.816994
O O16 0.475228 0.800707 0.061891
O O17 0.752923 0.727127 0.651536
#
# Coordination Sequence:
#
# PCOD8124311 Si02
#       8
#     4   4   4   4   4   4   4   4
#     4   9  20  33  61  86 109 148 199 241 283 337
#     4  10  21  39  57  82 119 156 189 238 294 353
#     4  10  21  34  59  86 114 148 194 242 291 344
#     4  11  19  36  62  88 112 154 199 242 293 347
#     4  10  20  36  56  88 117 148 198 241 283 346
#     4  10  22  38  57  85 119 148 195 246 286 343
#     4  10  19  36  60  81 116 148 194 241 286 345
#     4  10  20  40  58  81 113 162 187 232 302 346
#
# _framework density 18.509491000000001
#
# number of rings (size 3 to 8) (size 9 to 14) (size 15 to 20)
#    0.000    2.000    3.750    0.000    5.250    2.000 
#    2.250    4.375    0.000    0.000    0.000    0.000 
#    0.000    0.000    0.000    0.000    0.000    0.000 
#
# Total GULP energy -396445.721616 kJ/mol
# GULP energy per Si atom -12388.928800 kJ/mol
# Density = 1.846736 g / cm^3
# Si number density = 18.509491 Si / 1000 Ang^3
#
#
#
# Elastic Constant Matrix: (Units=GPa)
#
#
# Indices 1 2 3 4 5 6 
#
# 1 96.6916 40.5522 36.0187 0.0000 9.6279 0.0000
# 2 40.5522 106.5904 39.8551 0.0000 -4.4008 0.0000
# 3 36.0187 39.8551 91.8999 0.0000 -1.6888 0.0000
# 4 0.0000 0.0000 0.0000 34.9838 0.0000 -0.2638
# 5 9.6279 -4.4008 -1.6888 0.0000 20.8388 0.0000
# 6 0.0000 0.0000 0.0000 -0.2638 0.0000 22.7495
#
#
#
# Elastic Compliance Matrix: (Units=1/GPa)
#
#
# Indices 1 2 3 4 5 6 
#
# 1 0.014406 -0.004346 -0.003906 0.000000 -0.007890 0.000000
# 2 -0.004346 0.012590 -0.003677 0.000000 0.004369 0.000000
# 3 -0.003906 -0.003677 0.014047 0.000000 0.002167 0.000000
# 4 0.000000 0.000000 0.000000 0.028587 0.000000 0.000331
# 5 -0.007890 0.004369 0.002167 0.000000 0.052731 0.000000
# 6 0.000000 0.000000 0.000000 0.000331 0.000000 0.043961
#
#
# Mechanical properties :
#
#
# Convention : Reuss Voigt Hill
#
# Bulk Modulus (GPa) = 58.18997 58.67041 58.43019
# Shear Modulus (GPa) = 25.52231 27.63146 26.57689
#
# Velocity S-wave (km/s) = 3.71735 3.86790 3.79337
# Velocity P-wave (km/s) = 7.06619 7.19123 7.12899
#
# Compressibility (1/GPa) = 0.01718509
#
# Stress axis : x y z
#
# Youngs Moduli (GPa) = 69.41775 79.42754 71.19104
#
# Poissons Ratio (x) = 0.34517 0.27810
# Poissons Ratio (y) = 0.30167 0.26174
# Poissons Ratio (z) = 0.27117 0.29202
#
# Static dielectric constant tensor:
#      x y z
#    x 4.096520 0.000000 0.341120 
#    y 0.000000 3.569570 0.000000 
#    z 0.341120 0.000000 3.492280 
# 
# 
# High freq. dielectric constant tensor:
#      x y z
#    x 1.699740 0.000000 0.005880 
#    y 0.000000 1.720640 0.000000 
#    z 0.005880 0.000000 1.718200 
# 
# From -- ./inp_files/51561.got.cif
#   From: 2010.03.12/outbox.cif.g09.slc.cpg/sg14_26_cif.got.tgz:51561.got - 2010.03.31 13:35:05.
