data_PCOD8124181
_publ_section_title
;
Structure prediction by ZEFSAII (Michael W. Deem and Ramdas Pophale) SiO2 
 PCOD8124181
Probable space group: P 21/C
;
_chemical_formula_sum "Si O2"
_cell_formula_units_Z 24
_cell_length_a 8.129995
_cell_length_b 18.792233
_cell_length_c 9.070303
_cell_angle_alpha 90.000000
_cell_angle_beta 62.596098
_cell_angle_gamma 90.000000
_cell_volume 1230.262529
_symmetry_space_group_name_H-M "P 21/C"
_symmetry_group_IT_number 14
_symmetry_cell_setting 'monoclinic'
loop_
_space_group_symop_operation_xyz
x,y,z
-x,1/2+y,1/2-z
-x,-y,-z
x,1/2-y,1/2+z
loop_
_atom_site_type_symbol
_atom_site_label
_atom_site_fract_x
_atom_site_fract_y
_atom_site_fract_z
Si Si1 0.341947 0.653743 0.486968
Si Si2 0.701175 0.930737 0.777907
Si Si3 0.940190 0.157056 0.393259
Si Si4 0.222324 0.751376 0.287725
Si Si5 0.938225 0.034002 0.874788
Si Si6 0.822633 0.006192 0.470044
O O1 0.509915 0.598738 0.418287
O O2 0.352767 0.702881 0.337270
O O3 0.354893 0.700550 0.630182
O O4 0.145252 0.612337 0.566978
O O5 0.846635 0.866919 0.694407
O O6 0.780917 0.985594 0.864280
O O7 0.659791 0.970441 0.635724
O O8 0.909143 0.204219 0.261531
O O9 0.908078 0.200338 0.556234
O O10 0.795724 0.090023 0.446213
O O11 0.126655 0.037832 0.698596
O O12 0.000000 0.000000 0.000000
O O13 0.000000 0.000000 0.500000
#
# Coordination Sequence:
#
# PCOD8124181 Si02
#       6
#     4   4   4   4   4   4
#     4  11  21  36  53  81 108 138 177 218 270 305
#     4  10  20  34  56  78 104 133 174 229 265 300
#     4   9  18  35  53  74  98 139 179 204 257 317
#     4  10  21  35  54  71 108 148 173 207 250 332
#     4  10  19  35  58  82 105 135 177 221 266 321
#     4   8  16  33  54  74  99 133 171 215 261 313
#
# _framework density 19.508032
#
# number of rings (size 3 to 8) (size 9 to 14) (size 15 to 20)
#    0.000    2.667    0.000    5.500    0.000    1.333 
#    0.000    6.667    0.000    0.000    0.000    0.000 
#    0.000    0.000    0.000    0.000    0.000    0.000 
#
# Total GULP energy -297464.329908 kJ/mol
# GULP energy per Si atom -12394.347080 kJ/mol
# Density = 1.946363 g / cm^3
# Si number density = 19.508032 Si / 1000 Ang^3
#
#
#
# Elastic Constant Matrix: (Units=GPa)
#
#
# Indices 1 2 3 4 5 6 
#
# 1 35.0680 24.0003 41.3743 0.0000 9.8263 0.0000
# 2 24.0003 100.2700 57.7720 0.0000 -0.3978 0.0000
# 3 41.3743 57.7720 128.9305 0.0000 27.9809 0.0000
# 4 0.0000 0.0000 0.0000 42.0047 0.0000 -1.9989
# 5 9.8263 -0.3978 27.9809 0.0000 25.0155 0.0000
# 6 0.0000 0.0000 0.0000 -1.9989 0.0000 29.0220
#
#
#
# Elastic Compliance Matrix: (Units=1/GPa)
#
#
# Indices 1 2 3 4 5 6 
#
# 1 0.047178 -0.004347 -0.012090 0.000000 -0.005078 0.000000
# 2 -0.004347 0.015656 -0.007983 0.000000 0.010886 0.000000
# 3 -0.012090 -0.007983 0.018765 0.000000 -0.016367 0.000000
# 4 0.000000 0.000000 0.000000 0.023885 0.000000 0.001645
# 5 -0.005078 0.010886 -0.016367 0.000000 0.060450 0.000000
# 6 0.000000 0.000000 0.000000 0.001645 0.000000 0.034570
#
#
# Mechanical properties :
#
#
# Convention : Reuss Voigt Hill
#
# Bulk Modulus (GPa) = 30.52509 56.72907 43.62708
# Shear Modulus (GPa) = 19.21139 28.61657 23.91398
#
# Velocity S-wave (km/s) = 3.14155 3.83418 3.50502
# Velocity P-wave (km/s) = 5.37034 6.98171 6.22835
#
# Compressibility (1/GPa) = 0.03275994
#
# Stress axis : x y z
#
# Youngs Moduli (GPa) = 21.19654 63.87291 53.29145
#
# Poissons Ratio (x) = 0.27764 0.64427
# Poissons Ratio (y) = 0.09214 0.42541
# Poissons Ratio (z) = 0.25626 0.50988
#
# Static dielectric constant tensor:
#      x y z
#    x 3.014560 0.000000 0.082680 
#    y 0.000000 3.831120 0.000000 
#    z 0.082680 0.000000 4.125440 
# 
# 
# High freq. dielectric constant tensor:
#      x y z
#    x 1.710890 0.000000 0.023770 
#    y 0.000000 1.772410 0.000000 
#    z 0.023770 0.000000 1.779370 
# 
# From -- ./inp_files/9203.got.cif
#   From: 2010.03.12/outbox.cif.g09.slc.cpg/sg14_5_cif.got.tgz:9203.got - 2010.03.31 13:35:05.
