data_PCOD8124843
_publ_section_title
;
Structure prediction by ZEFSAII (Michael W. Deem and Ramdas Pophale) SiO2 
 PCOD8124843
Probable space group: P 21/C
;
_chemical_formula_sum "Si O2"
_cell_formula_units_Z 20
_cell_length_a 21.953614
_cell_length_b 9.137289
_cell_length_c 13.570713
_cell_angle_alpha 90.000000
_cell_angle_beta 22.262186
_cell_angle_gamma 90.000000
_cell_volume 1031.307405
_symmetry_space_group_name_H-M "P 21/C"
_symmetry_group_IT_number 14
_symmetry_cell_setting 'monoclinic'
loop_
_space_group_symop_operation_xyz
x,y,z
-x,1/2+y,1/2-z
-x,-y,-z
x,1/2-y,1/2+z
loop_
_atom_site_type_symbol
_atom_site_label
_atom_site_fract_x
_atom_site_fract_y
_atom_site_fract_z
Si Si1 0.812988 0.563157 0.671026
Si Si2 0.588455 0.280402 0.213709
Si Si3 0.661007 0.763039 0.753345
Si Si4 0.162959 0.017107 0.644888
Si Si5 0.475267 0.448138 0.200156
O O1 0.789029 0.710173 0.643753
O O2 0.823899 0.602602 0.770784
O O3 0.977233 0.485996 0.389873
O O4 0.657834 0.459891 0.884557
O O5 0.506044 0.303831 0.443542
O O6 0.476346 0.360779 0.300929
O O7 0.600279 0.109064 0.168679
O O8 0.765909 0.352503 0.949565
O O9 0.731990 0.904393 0.594646
O O10 0.633556 0.634468 0.715794
#
# Coordination Sequence:
#
# PCOD8124843 Si02
#       5
#     4   4   4   4   4
#     4   9  20  36  53  77 110 142 170 213 272 316
#     4  10  20  35  55  79 107 139 179 221 264 314
#     4  11  20  34  58  82 104 138 184 222 260 314
#     4  10  21  37  56  78 110 142 174 220 268 314
#     4  10  20  36  57  78 107 143 179 219 264 316
#
# _framework density 19.392859000000001
#
# number of rings (size 3 to 8) (size 9 to 14) (size 15 to 20)
#    0.000    2.000    0.000    6.600    0.000    3.200 
#    0.000    4.000    0.000   18.000    0.000    0.000 
#    0.000    0.000    0.000    0.000    0.000    0.000 
#
# Total GULP energy -247958.689656 kJ/mol
# GULP energy per Si atom -12397.934483 kJ/mol
# Density = 1.934872 g / cm^3
# Si number density = 19.392859 Si / 1000 Ang^3
#
#
#
# Elastic Constant Matrix: (Units=GPa)
#
#
# Indices 1 2 3 4 5 6 
#
# 1 64.3191 38.5903 22.0265 0.0000 1.2972 0.0000
# 2 38.5903 107.4135 35.5158 0.0000 0.4565 0.0000
# 3 22.0265 35.5158 59.8019 0.0000 -7.8899 0.0000
# 4 0.0000 0.0000 0.0000 20.6478 0.0000 4.9485
# 5 1.2972 0.4565 -7.8899 0.0000 35.4534 0.0000
# 6 0.0000 0.0000 0.0000 4.9485 0.0000 30.2305
#
#
#
# Elastic Compliance Matrix: (Units=1/GPa)
#
#
# Indices 1 2 3 4 5 6 
#
# 1 0.020637 -0.006002 -0.004251 0.000000 -0.001624 0.000000
# 2 -0.006002 0.013434 -0.005936 0.000000 -0.001274 0.000000
# 3 -0.004251 -0.005936 0.022504 0.000000 0.005240 0.000000
# 4 0.000000 0.000000 0.000000 0.050409 0.000000 -0.008252
# 5 -0.001624 -0.001274 0.005240 0.000000 0.029448 0.000000
# 6 0.000000 0.000000 0.000000 -0.008252 0.000000 0.034430
#
#
# Mechanical properties :
#
#
# Convention : Reuss Voigt Hill
#
# Bulk Modulus (GPa) = 41.32563 47.08884 44.20724
# Shear Modulus (GPa) = 23.66243 26.29313 24.97778
#
# Velocity S-wave (km/s) = 3.49687 3.68613 3.59275
# Velocity P-wave (km/s) = 6.13678 6.51545 6.32895
#
# Compressibility (1/GPa) = 0.02419806
#
# Stress axis : x y z
#
# Youngs Moduli (GPa) = 48.45687 74.43698 44.43604
#
# Poissons Ratio (x) = 0.44675 0.18889
# Poissons Ratio (y) = 0.29083 0.26377
# Poissons Ratio (z) = 0.20599 0.44186
#
# Static dielectric constant tensor:
#      x y z
#    x 3.733180 0.000000 0.037500 
#    y 0.000000 3.388270 0.000000 
#    z 0.037500 0.000000 3.496120 
# 
# 
# High freq. dielectric constant tensor:
#      x y z
#    x 1.765280 0.000000 0.005510 
#    y 0.000000 1.739940 0.000000 
#    z 0.005510 0.000000 1.743100 
# 
# From -- ./inp_files/28248.got.cif
#   From: 2010.03.12/outbox.cif.g09.slc.cpg/sg14_15_cif.got.tgz:28248.got - 2010.03.31 13:35:05.
