data_PCOD8124415
_publ_section_title
;
Structure prediction by ZEFSAII (Michael W. Deem and Ramdas Pophale) SiO2 
 PCOD8124415
Probable space group: P 21/C
;
_chemical_formula_sum "Si O2"
_cell_formula_units_Z 24
_cell_length_a 8.857468
_cell_length_b 14.323829
_cell_length_c 8.642547
_cell_angle_alpha 90.000000
_cell_angle_beta 99.515739
_cell_angle_gamma 90.000000
_cell_volume 1081.416974
_symmetry_space_group_name_H-M "P 21/C"
_symmetry_group_IT_number 14
_symmetry_cell_setting 'monoclinic'
loop_
_space_group_symop_operation_xyz
x,y,z
-x,1/2+y,1/2-z
-x,-y,-z
x,1/2-y,1/2+z
loop_
_atom_site_type_symbol
_atom_site_label
_atom_site_fract_x
_atom_site_fract_y
_atom_site_fract_z
Si Si1 0.161255 0.864693 0.332842
Si Si2 0.381610 0.121380 0.198243
Si Si3 0.051285 0.458639 0.670763
Si Si4 0.966131 0.304656 0.872442
Si Si5 0.324225 0.294028 0.004441
Si Si6 0.511586 0.056104 0.658924
O O1 0.144900 0.831293 0.505788
O O2 0.088773 0.793620 0.199389
O O3 0.336453 0.880714 0.314698
O O4 0.068015 0.960754 0.301021
O O5 0.207975 0.091915 0.165216
O O6 0.400275 0.193623 0.059950
O O7 0.410024 0.178280 0.361625
O O8 0.485628 0.026075 0.207342
O O9 0.000000 0.500000 0.500000
O O10 0.942219 0.380966 0.731433
O O11 0.140832 0.293647 0.961366
O O12 0.368059 0.372193 0.144105
O O13 0.500000 0.000000 0.500000
#
# Coordination Sequence:
#
# PCOD8124415 Si02
#       6
#     4   4   4   4   4   4
#     4  11  22  38  59  88 120 154 197 243 292 350
#     4   9  19  35  57  83 111 150 191 235 289 345
#     4  10  20  36  57  84 120 154 190 242 296 347
#     4  11  22  37  62  91 116 154 199 245 293 346
#     4  10  19  37  60  82 113 154 193 236 290 349
#     4   9  21  39  58  80 118 158 189 235 297 351
#
# _framework density 22.193104000000002
#
# number of rings (size 3 to 8) (size 9 to 14) (size 15 to 20)
#    0.000    2.000    0.000    5.500    0.000    2.667 
#    0.000    0.833    0.000    0.000    0.000    3.500 
#    0.000    0.000    0.000    0.000    0.000    0.000 
#
# Total GULP energy -297371.405391 kJ/mol
# GULP energy per Si atom -12390.475225 kJ/mol
# Density = 2.214259 g / cm^3
# Si number density = 22.193104 Si / 1000 Ang^3
#
#
#
# Elastic Constant Matrix: (Units=GPa)
#
#
# Indices 1 2 3 4 5 6 
#
# 1 62.5216 56.9283 32.1656 0.0000 20.5860 0.0000
# 2 56.9283 135.6332 35.3767 0.0000 27.2612 0.0000
# 3 32.1656 35.3767 72.7852 0.0000 18.4235 0.0000
# 4 0.0000 0.0000 0.0000 59.5614 0.0000 15.4272
# 5 20.5860 27.2612 18.4235 0.0000 17.5906 0.0000
# 6 0.0000 0.0000 0.0000 15.4272 0.0000 41.3128
#
#
#
# Elastic Compliance Matrix: (Units=1/GPa)
#
#
# Indices 1 2 3 4 5 6 
#
# 1 0.033035 -0.008453 -0.005471 0.000000 -0.019831 0.000000
# 2 -0.008453 0.012972 0.000021 0.000000 -0.010233 0.000000
# 3 -0.005471 0.000021 0.019777 0.000000 -0.014343 0.000000
# 4 0.000000 0.000000 0.000000 0.018587 0.000000 -0.006941
# 5 -0.019831 -0.010233 -0.014343 0.000000 0.110937 0.000000
# 6 0.000000 0.000000 0.000000 -0.006941 0.000000 0.026797
#
#
# Mechanical properties :
#
#
# Convention : Reuss Voigt Hill
#
# Bulk Modulus (GPa) = 26.33086 57.76457 42.04771
# Shear Modulus (GPa) = 19.04240 33.45759 26.25000
#
# Velocity S-wave (km/s) = 2.93240 3.88695 3.44292
# Velocity P-wave (km/s) = 4.83275 6.79921 5.89850
#
# Compressibility (1/GPa) = 0.03797825
#
# Stress axis : x y z
#
# Youngs Moduli (GPa) = 30.27065 77.08903 50.56291
#
# Poissons Ratio (x) = 0.65162 0.27664
# Poissons Ratio (y) = 0.25587 -0.00105
# Poissons Ratio (z) = 0.16561 -0.00160
#
# Static dielectric constant tensor:
#      x y z
#    x 3.950900 0.000000 0.577630 
#    y 0.000000 4.792750 0.000000 
#    z 0.577630 0.000000 4.045490 
# 
# 
# High freq. dielectric constant tensor:
#      x y z
#    x 1.841180 0.000000 0.031060 
#    y 0.000000 1.905380 0.000000 
#    z 0.031060 0.000000 1.860840 
# 
# From -- ./inp_files/8534.got.cif
#   From: 2010.03.12/outbox.cif.g09.slc.cpg/sg14_5_cif.got.tgz:8534.got - 2010.03.31 13:35:05.
