data_PCOD8124991
_publ_section_title
;
Structure prediction by ZEFSAII (Michael W. Deem and Ramdas Pophale) SiO2 
 PCOD8124991
Probable space group: P 21/C
;
_chemical_formula_sum "Si O2"
_cell_formula_units_Z 28
_cell_length_a 12.480297
_cell_length_b 22.256533
_cell_length_c 5.279918
_cell_angle_alpha 90.000000
_cell_angle_beta 116.613244
_cell_angle_gamma 90.000000
_cell_volume 1311.208529
_symmetry_space_group_name_H-M "P 21/C"
_symmetry_group_IT_number 14
_symmetry_cell_setting 'monoclinic'
loop_
_space_group_symop_operation_xyz
x,y,z
-x,1/2+y,1/2-z
-x,-y,-z
x,1/2-y,1/2+z
loop_
_atom_site_type_symbol
_atom_site_label
_atom_site_fract_x
_atom_site_fract_y
_atom_site_fract_z
Si Si1 0.584988 0.219534 0.403683
Si Si2 0.568727 0.416175 0.996342
Si Si3 0.948614 0.067063 0.452998
Si Si4 0.298792 0.416034 0.621669
Si Si5 0.050991 0.432827 0.561341
Si Si6 0.317719 0.966316 0.870325
Si Si7 0.303229 0.219590 0.059942
O O1 0.640887 0.258010 0.696054
O O2 0.616027 0.150128 0.483043
O O3 0.444244 0.230963 0.230418
O O4 0.628532 0.440391 0.312975
O O5 0.426597 0.417503 0.897897
O O6 0.596192 0.457704 0.780686
O O7 0.805629 0.068109 0.314114
O O8 0.999025 0.100514 0.255031
O O9 0.000000 0.000000 0.500000
O O10 0.001197 0.100736 0.756704
O O11 0.195816 0.433830 0.715177
O O12 0.295215 0.462651 0.383616
O O13 0.273384 0.350148 0.484083
O O14 0.000000 0.500000 0.500000
O O15 0.246915 0.243888 0.263686
#
# Coordination Sequence:
#
# PCOD8124991 Si02
#       7
#     4   4   4   4   4   4   4
#     4   9  17  35  58  75 110 156 201 237 277 348
#     4  11  25  36  54  95 125 155 188 240 312 364
#     4  10  20  37  57  77 113 148 207 230 263 337
#     4  11  23  38  62  85 127 162 187 241 310 365
#     4  10  20  36  58  82 110 149 204 232 269 347
#     4  12  23  38  56  86 134 154 187 240 300 369
#     4   9  20  36  54  83 111 148 200 245 287 349
#
# _framework density 21.354348000000002
#
# number of rings (size 3 to 8) (size 9 to 14) (size 15 to 20)
#    0.000    1.714    2.857    2.571    2.000    6.857 
#    0.000    0.000    0.000    0.000    0.000   20.000 
#    0.000    0.000    0.000    0.000    0.000    0.000 
#
# Total GULP energy -347095.577939 kJ/mol
# GULP energy per Si atom -12396.270641 kJ/mol
# Density = 2.130574 g / cm^3
# Si number density = 21.354348 Si / 1000 Ang^3
#
#
#
# Elastic Constant Matrix: (Units=GPa)
#
#
# Indices 1 2 3 4 5 6 
#
# 1 95.2471 33.4695 56.8706 0.0000 -6.0308 0.0000
# 2 33.4695 97.8410 44.3889 0.0000 -8.1671 0.0000
# 3 56.8706 44.3889 142.3441 0.0000 -35.2486 0.0000
# 4 0.0000 0.0000 0.0000 14.5377 0.0000 -9.2767
# 5 -6.0308 -8.1671 -35.2486 0.0000 40.7178 0.0000
# 6 0.0000 0.0000 0.0000 -9.2767 0.0000 14.3155
#
#
#
# Elastic Compliance Matrix: (Units=1/GPa)
#
#
# Indices 1 2 3 4 5 6 
#
# 1 0.014748 -0.002646 -0.005929 0.000000 -0.003479 0.000000
# 2 -0.002646 0.012415 -0.002921 0.000000 -0.000430 0.000000
# 3 -0.005929 -0.002921 0.012655 0.000000 0.009491 0.000000
# 4 0.000000 0.000000 0.000000 0.117286 0.000000 0.076004
# 5 -0.003479 -0.000430 0.009491 0.000000 0.032174 0.000000
# 6 0.000000 0.000000 0.000000 0.076004 0.000000 0.119107
#
#
# Mechanical properties :
#
#
# Convention : Reuss Voigt Hill
#
# Bulk Modulus (GPa) = 59.42660 67.21000 63.31830
# Shear Modulus (GPa) = 14.83739 27.29441 21.06590
#
# Velocity S-wave (km/s) = 2.63880 3.57902 3.14425
# Velocity P-wave (km/s) = 6.09701 6.97289 6.54961
#
# Compressibility (1/GPa) = 0.01682748
#
# Stress axis : x y z
#
# Youngs Moduli (GPa) = 67.80373 80.54751 79.01889
#
# Poissons Ratio (x) = 0.21311 0.46849
# Poissons Ratio (y) = 0.17939 0.23082
# Poissons Ratio (z) = 0.40200 0.23528
#
# Static dielectric constant tensor:
#      x y z
#    x -0.799890 0.000000 6.106410 
#    y 0.000000 3.611560 0.000000 
#    z 6.106410 0.000000 -4.516400 
# 
# 
# High freq. dielectric constant tensor:
#      x y z
#    x 1.825170 0.000000 -0.021140 
#    y 0.000000 1.798970 0.000000 
#    z -0.021140 0.000000 1.846770 
# 
# From -- ./inp_files/2997.got.cif
#   From: 2010.03.12/outbox.cif.g09.slc.cpg/sg14_2_cif.got.tgz:2997.got - 2010.03.31 13:35:05.
