data_PCOD8124533
_publ_section_title
;
Structure prediction by ZEFSAII (Michael W. Deem and Ramdas Pophale) SiO2 
 PCOD8124533
Probable space group: P 21/C
;
_chemical_formula_sum "Si O2"
_cell_formula_units_Z 24
_cell_length_a 9.104061
_cell_length_b 15.745832
_cell_length_c 15.595496
_cell_angle_alpha 90.000000
_cell_angle_beta 34.143733
_cell_angle_gamma 90.000000
_cell_volume 1254.794113
_symmetry_space_group_name_H-M "P 21/C"
_symmetry_group_IT_number 14
_symmetry_cell_setting 'monoclinic'
loop_
_space_group_symop_operation_xyz
x,y,z
-x,1/2+y,1/2-z
-x,-y,-z
x,1/2-y,1/2+z
loop_
_atom_site_type_symbol
_atom_site_label
_atom_site_fract_x
_atom_site_fract_y
_atom_site_fract_z
Si Si1 0.557873 0.328917 0.814370
Si Si2 0.929067 0.608200 0.629333
Si Si3 0.395019 0.984417 0.831959
Si Si4 0.910724 0.437899 0.115835
Si Si5 0.953360 0.747837 0.992944
Si Si6 0.688896 0.577458 0.926242
O O1 0.497121 0.412202 0.785478
O O2 0.861220 0.302362 0.661201
O O3 0.496420 0.350352 0.942956
O O4 0.351232 0.255131 0.887915
O O5 0.737476 0.558507 0.658837
O O6 0.818263 0.613350 0.778071
O O7 0.204678 0.558507 0.493874
O O8 0.966552 0.705397 0.578686
O O9 0.617481 0.031574 0.779798
O O10 0.918944 0.344938 0.068801
O O11 0.079475 0.446036 0.120294
O O12 0.000000 0.500000 0.000000
O O13 0.500000 0.500000 0.000000
#
# Coordination Sequence:
#
# PCOD8124533 Si02
#       6
#     4   4   4   4   4   4
#     4  10  20  38  63  87 121 158 207 242 305 363
#     4  10  21  37  63  90 120 158 203 251 303 362
#     4  10  19  38  63  87 117 165 201 237 306 375
#     4  11  20  38  64  86 120 162 202 245 303 367
#     4  10  21  37  61  87 119 160 202 248 299 367
#     4  11  21  38  61  92 120 157 204 251 301 359
#
# _framework density 19.126643999999999
#
# number of rings (size 3 to 8) (size 9 to 14) (size 15 to 20)
#    0.000    1.667    5.000    1.000    0.000    0.667 
#    0.000   13.333    0.000    0.000    0.000    0.000 
#    0.000    0.000    0.000    0.000    0.000    0.000 
#
# Total GULP energy -297435.203698 kJ/mol
# GULP energy per Si atom -12393.133487 kJ/mol
# Density = 1.908311 g / cm^3
# Si number density = 19.126644 Si / 1000 Ang^3
#
#
#
# Elastic Constant Matrix: (Units=GPa)
#
#
# Indices 1 2 3 4 5 6 
#
# 1 83.7454 53.5525 58.5375 0.0000 -3.6273 0.0000
# 2 53.5525 110.5968 48.8487 0.0000 4.2544 0.0000
# 3 58.5375 48.8487 149.8452 0.0000 15.2043 0.0000
# 4 0.0000 0.0000 0.0000 32.6467 0.0000 -8.8298
# 5 -3.6273 4.2544 15.2043 0.0000 39.8764 0.0000
# 6 0.0000 0.0000 0.0000 -8.8298 0.0000 29.2431
#
#
#
# Elastic Compliance Matrix: (Units=1/GPa)
#
#
# Indices 1 2 3 4 5 6 
#
# 1 0.021708 -0.007865 -0.006452 0.000000 0.005274 0.000000
# 2 -0.007865 0.013414 -0.001126 0.000000 -0.001717 0.000000
# 3 -0.006452 -0.001126 0.009995 0.000000 -0.004278 0.000000
# 4 0.000000 0.000000 0.000000 0.033355 0.000000 0.010071
# 5 0.005274 -0.001717 -0.004278 0.000000 0.027371 0.000000
# 6 0.000000 0.000000 0.000000 0.010071 0.000000 0.037237
#
#
# Mechanical properties :
#
#
# Convention : Reuss Voigt Hill
#
# Bulk Modulus (GPa) = 70.26497 74.00723 72.13610
# Shear Modulus (GPa) = 27.97839 32.56981 30.27410
#
# Velocity S-wave (km/s) = 3.82880 4.13104 3.98279
# Velocity P-wave (km/s) = 7.50751 7.84418 7.67769
#
# Compressibility (1/GPa) = 0.01423184
#
# Stress axis : x y z
#
# Youngs Moduli (GPa) = 46.06533 74.55172 100.04929
#
# Poissons Ratio (x) = 0.58633 0.64548
# Poissons Ratio (y) = 0.36229 0.11267
# Poissons Ratio (z) = 0.29720 0.08395
#
# Static dielectric constant tensor:
#      x y z
#    x 4.279000 0.000000 -0.758040 
#    y 0.000000 3.590460 0.000000 
#    z -0.758040 0.000000 4.140080 
# 
# 
# High freq. dielectric constant tensor:
#      x y z
#    x 1.712910 0.000000 -0.021410 
#    y 0.000000 1.748600 0.000000 
#    z -0.021410 0.000000 1.765180 
# 
# From -- ./inp_files/41078.got.cif
#   From: 2010.03.12/outbox.cif.g09.slc.cpg/sg14_21_cif.got.tgz:41078.got - 2010.03.31 13:35:05.
