data_PCOD8124957
_publ_section_title
;
Structure prediction by ZEFSAII (Michael W. Deem and Ramdas Pophale) SiO2 
 PCOD8124957
Probable space group: P 21/C
;
_chemical_formula_sum "Si O2"
_cell_formula_units_Z 28
_cell_length_a 23.463545
_cell_length_b 10.965646
_cell_length_c 17.736911
_cell_angle_alpha 90.000000
_cell_angle_beta 160.645751
_cell_angle_gamma 90.000000
_cell_volume 1512.406857
_symmetry_space_group_name_H-M "P 21/C"
_symmetry_group_IT_number 14
_symmetry_cell_setting 'monoclinic'
loop_
_space_group_symop_operation_xyz
x,y,z
-x,1/2+y,1/2-z
-x,-y,-z
x,1/2-y,1/2+z
loop_
_atom_site_type_symbol
_atom_site_label
_atom_site_fract_x
_atom_site_fract_y
_atom_site_fract_z
Si Si1 0.375394 0.328357 0.465664
Si Si2 0.193223 0.750786 0.430296
Si Si3 0.625941 0.134260 0.720988
Si Si4 0.824783 0.829776 0.426373
Si Si5 0.316961 0.000771 0.627494
Si Si6 0.554454 0.639477 0.150005
Si Si7 0.541701 0.774751 0.283897
O O1 0.455500 0.201761 0.537126
O O2 0.213553 0.359156 0.209917
O O3 0.507587 0.440882 0.622638
O O4 0.334791 0.301240 0.503512
O O5 0.205540 0.699799 0.532466
O O6 0.358722 0.694272 0.593978
O O7 0.200688 0.898121 0.441392
O O8 0.023375 0.705824 0.177704
O O9 0.614288 0.142592 0.615197
O O10 0.625640 0.995810 0.747993
O O11 0.786571 0.947550 0.430076
O O12 0.710459 0.719709 0.313698
O O13 0.360044 0.103986 0.619686
O O14 0.494739 0.687871 0.155840
#
# Coordination Sequence:
#
# PCOD8124957 Si02
#       7
#     4   4   4   4   4   4   4
#     4   9  19  33  57  78 108 142 181 213 266 322
#     4  10  22  33  55  82 111 135 178 228 273 302
#     4   8  17  32  54  79 101 138 184 216 256 324
#     4  10  20  36  53  82 111 138 174 229 269 313
#     4   9  19  37  56  76 103 150 182 213 261 326
#     4   9  17  33  59  76 100 143 185 215 263 321
#     4   9  19  34  56  76 107 142 185 210 261 324
#
# _framework density 18.513536999999999
#
# number of rings (size 3 to 8) (size 9 to 14) (size 15 to 20)
#    0.000    3.143    0.000    0.429   10.000    1.143 
#    0.000    4.286    0.000    0.000    0.000    0.000 
#    0.000    0.000    0.000    0.000    0.000    0.000 
#
# Total GULP energy -346945.792627 kJ/mol
# GULP energy per Si atom -12390.921165 kJ/mol
# Density = 1.847140 g / cm^3
# Si number density = 18.513537 Si / 1000 Ang^3
#
#
#
# Elastic Constant Matrix: (Units=GPa)
#
#
# Indices 1 2 3 4 5 6 
#
# 1 95.1841 36.2725 51.4025 0.0000 -26.1349 0.0000
# 2 36.2725 96.8947 28.0159 0.0000 -10.6179 0.0000
# 3 51.4025 28.0159 125.4152 0.0000 -24.0309 0.0000
# 4 0.0000 0.0000 0.0000 13.2030 0.0000 -0.0066
# 5 -26.1349 -10.6179 -24.0309 0.0000 23.5579 0.0000
# 6 0.0000 0.0000 0.0000 -0.0066 0.0000 22.1185
#
#
#
# Elastic Compliance Matrix: (Units=1/GPa)
#
#
# Indices 1 2 3 4 5 6 
#
# 1 0.018014 -0.004096 -0.003720 0.000000 0.014344 0.000000
# 2 -0.004096 0.012144 -0.001064 0.000000 -0.000156 0.000000
# 3 -0.003720 -0.001064 0.011004 0.000000 0.006619 0.000000
# 4 0.000000 0.000000 0.000000 0.075740 0.000000 0.000023
# 5 0.014344 -0.000156 0.006619 0.000000 0.065043 0.000000
# 6 0.000000 0.000000 0.000000 0.000023 0.000000 0.045211
#
#
# Mechanical properties :
#
#
# Convention : Reuss Voigt Hill
#
# Bulk Modulus (GPa) = 42.72981 60.98619 51.85800
# Shear Modulus (GPa) = 19.78491 25.22942 22.50717
#
# Velocity S-wave (km/s) = 3.27260 3.69556 3.49049
# Velocity P-wave (km/s) = 6.11640 7.15698 6.65705
#
# Compressibility (1/GPa) = 0.02340287
#
# Stress axis : x y z
#
# Youngs Moduli (GPa) = 55.51178 82.34226 90.87628
#
# Poissons Ratio (x) = 0.33729 0.33804
# Poissons Ratio (y) = 0.22739 0.09668
# Poissons Ratio (z) = 0.20649 0.08760
#
# Static dielectric constant tensor:
#      x y z
#    x 3.613680 0.000000 -0.555760 
#    y 0.000000 3.485380 0.000000 
#    z -0.555760 0.000000 3.313450 
# 
# 
# High freq. dielectric constant tensor:
#      x y z
#    x 1.706980 0.000000 -0.036370 
#    y 0.000000 1.730160 0.000000 
#    z -0.036370 0.000000 1.690800 
# 
# From -- ./inp_files/61938.got.cif
#   From: 2010.03.12/outbox.cif.g09.slc.cpg/sg14_31_cif.got.tgz:61938.got - 2010.03.31 13:35:05.
