data_PCOD8124234
_publ_section_title
;
Structure prediction by ZEFSAII (Michael W. Deem and Ramdas Pophale) SiO2 
 PCOD8124234
Probable space group: P 21/C
;
_chemical_formula_sum "Si O2"
_cell_formula_units_Z 32
_cell_length_a 17.773203
_cell_length_b 12.394847
_cell_length_c 15.309771
_cell_angle_alpha 90.000000
_cell_angle_beta 152.194243
_cell_angle_gamma 90.000000
_cell_volume 1573.274209
_symmetry_space_group_name_H-M "P 21/C"
_symmetry_group_IT_number 14
_symmetry_cell_setting 'monoclinic'
loop_
_space_group_symop_operation_xyz
x,y,z
-x,1/2+y,1/2-z
-x,-y,-z
x,1/2-y,1/2+z
loop_
_atom_site_type_symbol
_atom_site_label
_atom_site_fract_x
_atom_site_fract_y
_atom_site_fract_z
Si Si1 0.244406 0.668378 0.962413
Si Si2 0.685314 0.830944 0.040037
Si Si3 0.599765 0.001924 0.256881
Si Si4 0.465362 0.652115 0.747846
Si Si5 0.683258 0.491564 0.273126
Si Si6 0.428929 0.659263 0.973757
Si Si7 0.127182 0.163887 0.948924
Si Si8 0.687956 0.674521 0.733584
O O1 0.355381 0.645296 0.993293
O O2 0.061274 0.684827 0.747662
O O3 0.265932 0.569669 0.052160
O O4 0.303086 0.780490 0.063544
O O5 0.804660 0.842636 0.080218
O O6 0.773947 0.823120 0.225698
O O7 0.563036 0.931028 0.921106
O O8 0.586052 0.721033 0.930291
O O9 0.558318 0.885809 0.257528
O O10 0.676795 0.953611 0.246942
O O11 0.418707 0.541728 0.747212
O O12 0.704722 0.383727 0.234375
O O13 0.847265 0.548238 0.475804
O O14 0.584688 0.583029 0.120817
O O15 0.502477 0.778491 0.033172
O O16 0.209261 0.259011 0.089220
#
# Coordination Sequence:
#
# PCOD8124234 Si02
#       8
#     4   4   4   4   4   4   4   4
#     4  11  24  38  58  90 125 156 194 239 304 365
#     4  11  22  39  63  90 118 153 205 248 289 350
#     4  11  20  39  65  88 110 157 206 250 284 344
#     4  11  18  38  65  83 115 158 202 247 287 339
#     4  10  19  36  62  86 111 153 202 246 290 334
#     4  10  19  35  62  89 111 146 208 252 275 346
#     4  11  24  40  56  88 132 159 187 241 309 367
#     4  11  21  39  64  90 116 156 203 249 295 342
#
# _framework density 20.339746000000002
#
# number of rings (size 3 to 8) (size 9 to 14) (size 15 to 20)
#    0.000    1.250    6.250    1.875    0.000    1.500 
#    2.250    0.625    0.000    0.000    0.000    0.000 
#    0.000    0.000    0.000    0.000    0.000    0.000 
#
# Total GULP energy -396508.647140 kJ/mol
# GULP energy per Si atom -12390.895223 kJ/mol
# Density = 2.029345 g / cm^3
# Si number density = 20.339746 Si / 1000 Ang^3
#
#
#
# Elastic Constant Matrix: (Units=GPa)
#
#
# Indices 1 2 3 4 5 6 
#
# 1 66.5000 15.6493 28.0040 0.0000 -26.4092 0.0000
# 2 15.6493 76.0043 25.9151 0.0000 -3.8046 0.0000
# 3 28.0040 25.9151 64.6539 0.0000 -3.2308 0.0000
# 4 0.0000 0.0000 0.0000 17.2925 0.0000 -4.3875
# 5 -26.4092 -3.8046 -3.2308 0.0000 28.0620 0.0000
# 6 0.0000 0.0000 0.0000 -4.3875 0.0000 27.9880
#
#
#
# Elastic Compliance Matrix: (Units=1/GPa)
#
#
# Indices 1 2 3 4 5 6 
#
# 1 0.031368 -0.001043 -0.011768 0.000000 0.028024 0.000000
# 2 -0.001043 0.015327 -0.005670 0.000000 0.000443 0.000000
# 3 -0.011768 -0.005670 0.022374 0.000000 -0.009268 0.000000
# 4 0.000000 0.000000 0.000000 0.060224 0.000000 0.009441
# 5 0.028024 0.000443 -0.009268 0.000000 0.061002 0.000000
# 6 0.000000 0.000000 0.000000 0.009441 0.000000 0.037210
#
#
# Mechanical properties :
#
#
# Convention : Reuss Voigt Hill
#
# Bulk Modulus (GPa) = 31.14585 38.47723 34.81154
# Shear Modulus (GPa) = 18.17067 23.84114 21.00590
#
# Velocity S-wave (km/s) = 2.99215 3.42738 3.21713
# Velocity P-wave (km/s) = 5.22335 5.88395 5.56346
#
# Compressibility (1/GPa) = 0.03210701
#
# Stress axis : x y z
#
# Youngs Moduli (GPa) = 31.87963 65.24299 44.69563
#
# Poissons Ratio (x) = 0.06807 0.52598
# Poissons Ratio (y) = 0.03326 0.25341
# Poissons Ratio (z) = 0.37516 0.36990
#
# Static dielectric constant tensor:
#      x y z
#    x 3.648960 0.000000 -0.397860 
#    y 0.000000 3.792390 0.000000 
#    z -0.397860 0.000000 3.527790 
# 
# 
# High freq. dielectric constant tensor:
#      x y z
#    x 1.789800 0.000000 -0.035410 
#    y 0.000000 1.804910 0.000000 
#    z -0.035410 0.000000 1.764260 
# 
# From -- ./inp_files/40345.got.cif
#   From: 2010.03.12/outbox.cif.g09.slc.cpg/sg14_21_cif.got.tgz:40345.got - 2010.03.31 13:35:05.
