data_PCOD8124946
_publ_section_title
;
Structure prediction by ZEFSAII (Michael W. Deem and Ramdas Pophale) SiO2 
 PCOD8124946
Probable space group: P 21/C
;
_chemical_formula_sum "Si O2"
_cell_formula_units_Z 32
_cell_length_a 11.208486
_cell_length_b 8.847114
_cell_length_c 19.704759
_cell_angle_alpha 90.000000
_cell_angle_beta 53.422569
_cell_angle_gamma 90.000000
_cell_volume 1569.146591
_symmetry_space_group_name_H-M "P 21/C"
_symmetry_group_IT_number 14
_symmetry_cell_setting 'monoclinic'
loop_
_space_group_symop_operation_xyz
x,y,z
-x,1/2+y,1/2-z
-x,-y,-z
x,1/2-y,1/2+z
loop_
_atom_site_type_symbol
_atom_site_label
_atom_site_fract_x
_atom_site_fract_y
_atom_site_fract_z
Si Si1 0.287648 0.609792 0.869257
Si Si2 0.816454 0.784574 0.322774
Si Si3 0.132565 0.782317 0.037842
Si Si4 0.631240 0.883398 0.264487
Si Si5 0.905493 0.118201 0.316792
Si Si6 0.193537 0.220253 0.401625
Si Si7 0.152656 0.372439 0.554191
Si Si8 0.813764 0.322481 0.703376
O O1 0.459186 0.576101 0.823808
O O2 0.189989 0.459887 0.912691
O O3 0.262534 0.673567 0.801891
O O4 0.231534 0.736047 0.940562
O O5 0.674567 0.823389 0.324764
O O6 0.763997 0.699004 0.408689
O O7 0.925048 0.676611 0.242607
O O8 0.905637 0.937014 0.312355
O O9 0.169048 0.670348 0.087849
O O10 0.959288 0.779455 0.078250
O O11 0.179705 0.949234 0.044277
O O12 0.669869 0.758362 0.194772
O O13 0.721590 0.031461 0.212357
O O14 0.815532 0.190999 0.284272
O O15 0.222547 0.297923 0.463966
O O16 0.978554 0.336723 0.617614
#
# Coordination Sequence:
#
# PCOD8124946 Si02
#       8
#     4   4   4   4   4   4   4   4
#     4  12  26  38  62  93 131 162 208 253 311 382
#     4  10  21  38  63  91 124 161 206 258 320 363
#     4  12  22  40  62  95 121 160 212 263 305 359
#     4  11  23  44  60  89 131 171 195 251 322 380
#     4  10  20  35  63  92 121 153 208 262 304 363
#     4  12  23  39  64  94 122 163 213 256 306 367
#     4  11  22  39  66  90 119 157 208 271 307 358
#     4  10  21  40  61  90 124 160 204 254 317 359
#
# _framework density 20.393250999999999
#
# number of rings (size 3 to 8) (size 9 to 14) (size 15 to 20)
#    0.000    1.000    3.750    4.500    3.500    1.000 
#    0.000    7.500    0.000    0.000    0.000    0.000 
#    0.000    0.000    0.000    0.000    0.000    0.000 
#
# Total GULP energy -396973.600900 kJ/mol
# GULP energy per Si atom -12405.425028 kJ/mol
# Density = 2.034683 g / cm^3
# Si number density = 20.393251 Si / 1000 Ang^3
#
#
#
# Elastic Constant Matrix: (Units=GPa)
#
#
# Indices 1 2 3 4 5 6 
#
# 1 49.8957 14.8969 30.5478 0.0000 6.0835 0.0000
# 2 14.8969 99.4780 26.0511 0.0000 12.1433 0.0000
# 3 30.5478 26.0511 78.6252 0.0000 20.1836 0.0000
# 4 0.0000 0.0000 0.0000 31.8183 0.0000 10.9135
# 5 6.0835 12.1433 20.1836 0.0000 30.2860 0.0000
# 6 0.0000 0.0000 0.0000 10.9135 0.0000 26.8268
#
#
#
# Elastic Compliance Matrix: (Units=1/GPa)
#
#
# Indices 1 2 3 4 5 6 
#
# 1 0.026591 -0.001530 -0.010388 0.000000 0.002195 0.000000
# 2 -0.001530 0.011241 -0.002476 0.000000 -0.002550 0.000000
# 3 -0.010388 -0.002476 0.020248 0.000000 -0.010415 0.000000
# 4 0.000000 0.000000 0.000000 0.036525 0.000000 -0.014859
# 5 0.002195 -0.002550 -0.010415 0.000000 0.040541 0.000000
# 6 0.000000 0.000000 0.000000 -0.014859 0.000000 0.043321
#
#
# Mechanical properties :
#
#
# Convention : Reuss Voigt Hill
#
# Bulk Modulus (GPa) = 34.13652 41.22117 37.67885
# Shear Modulus (GPa) = 23.03963 28.21977 25.62970
#
# Velocity S-wave (km/s) = 3.36485 3.72395 3.54895
# Velocity P-wave (km/s) = 5.64551 6.22475 5.94219
#
# Compressibility (1/GPa) = 0.02929414
#
# Stress axis : x y z
#
# Youngs Moduli (GPa) = 37.60731 88.95889 49.38688
#
# Poissons Ratio (x) = 0.13607 0.51302
# Poissons Ratio (y) = 0.05752 0.12227
# Poissons Ratio (z) = 0.39065 0.22023
#
# Static dielectric constant tensor:
#      x y z
#    x 3.618210 0.000000 0.323340 
#    y 0.000000 3.781580 0.000000 
#    z 0.323340 0.000000 3.627080 
# 
# 
# High freq. dielectric constant tensor:
#      x y z
#    x 1.782960 0.000000 0.028600 
#    y 0.000000 1.809860 0.000000 
#    z 0.028600 0.000000 1.787740 
# 
# From -- ./inp_files/67024.got.cif
#   From: 2010.03.12/outbox.cif.g09.slc.cpg/sg14_34_cif.got.tgz:67024.got - 2010.03.31 13:35:05.
