data_PCOD8124810
_publ_section_title
;
Structure prediction by ZEFSAII (Michael W. Deem and Ramdas Pophale) SiO2 
 PCOD8124810
Probable space group: P 21/C
;
_chemical_formula_sum "Si O2"
_cell_formula_units_Z 32
_cell_length_a 5.361501
_cell_length_b 9.241413
_cell_length_c 29.507627
_cell_angle_alpha 90.000000
_cell_angle_beta 101.270440
_cell_angle_gamma 90.000000
_cell_volume 1433.844809
_symmetry_space_group_name_H-M "P 21/C"
_symmetry_group_IT_number 14
_symmetry_cell_setting 'monoclinic'
loop_
_space_group_symop_operation_xyz
x,y,z
-x,1/2+y,1/2-z
-x,-y,-z
x,1/2-y,1/2+z
loop_
_atom_site_type_symbol
_atom_site_label
_atom_site_fract_x
_atom_site_fract_y
_atom_site_fract_z
Si Si1 0.121435 0.131646 0.610024
Si Si2 0.948196 0.203947 0.184230
Si Si3 0.287838 0.298220 0.775583
Si Si4 0.437877 0.650645 0.942391
Si Si5 0.886258 0.209474 0.402835
Si Si6 0.369927 0.609404 0.771014
Si Si7 0.007594 0.388670 0.325301
Si Si8 0.445623 0.189106 0.455098
O O1 0.346364 0.194070 0.586515
O O2 0.148827 0.202011 0.661128
O O3 0.846154 0.190600 0.583569
O O4 0.130032 0.957857 0.612861
O O5 0.701114 0.304331 0.185069
O O6 0.036309 0.160935 0.238194
O O7 0.890643 0.049267 0.157569
O O8 0.447085 0.445722 0.789323
O O9 0.398771 0.181976 0.745327
O O10 0.238697 0.223634 0.822673
O O11 0.454200 0.481927 0.951987
O O12 0.496985 0.735788 0.991112
O O13 0.838393 0.316050 0.358603
O O14 0.669449 0.252006 0.431267
O O15 0.166608 0.247137 0.432041
O O16 0.146092 0.600817 0.726529
#
# Coordination Sequence:
#
# PCOD8124810 Si02
#       8
#     4   4   4   4   4   4   4   4
#     4  10  20  34  57  87 114 149 193 241 289 343
#     4  10  22  38  54  80 114 152 193 238 289 343
#     4  10  21  37  58  81 111 151 193 239 288 341
#     4   9  18  34  57  85 115 147 189 241 293 343
#     4  10  20  34  57  87 114 149 193 241 289 343
#     4  10  21  37  58  81 111 151 193 239 288 341
#     4  10  22  38  54  80 114 152 193 238 289 343
#     4   9  18  34  57  85 115 147 189 241 293 343
#
# _framework density 22.317618
#
# number of rings (size 3 to 8) (size 9 to 14) (size 15 to 20)
#    0.000    2.250    0.000    2.250    3.500    6.000 
#    0.000    0.000    0.000    4.500    0.000    0.000 
#    0.000    0.000    0.000    0.000    0.000    0.000 
#
# Total GULP energy -396504.737227 kJ/mol
# GULP energy per Si atom -12390.773038 kJ/mol
# Density = 2.226682 g / cm^3
# Si number density = 22.317618 Si / 1000 Ang^3
#
#
#
# Elastic Constant Matrix: (Units=GPa)
#
#
# Indices 1 2 3 4 5 6 
#
# 1 105.0174 2.9062 28.2479 0.0000 -21.7189 0.0000
# 2 2.9062 70.2742 20.2464 0.0000 3.9254 0.0000
# 3 28.2479 20.2464 83.5312 0.0000 -27.9240 0.0000
# 4 0.0000 0.0000 0.0000 18.6509 0.0000 -6.3658
# 5 -21.7189 3.9254 -27.9240 0.0000 27.3571 0.0000
# 6 0.0000 0.0000 0.0000 -6.3658 0.0000 18.0962
#
#
#
# Elastic Compliance Matrix: (Units=1/GPa)
#
#
# Indices 1 2 3 4 5 6 
#
# 1 0.011506 -0.000652 -0.000984 0.000000 0.008224 0.000000
# 2 -0.000652 0.016980 -0.007412 0.000000 -0.010519 0.000000
# 3 -0.000984 -0.007412 0.021548 0.000000 0.022277 0.000000
# 4 0.000000 0.000000 0.000000 0.060933 0.000000 0.021435
# 5 0.008224 -0.010519 0.022277 0.000000 0.067330 0.000000
# 6 0.000000 0.000000 0.000000 0.021435 0.000000 0.062801
#
#
# Mechanical properties :
#
#
# Convention : Reuss Voigt Hill
#
# Bulk Modulus (GPa) = 31.30988 40.18041 35.74515
# Shear Modulus (GPa) = 18.52972 26.64901 22.58936
#
# Velocity S-wave (km/s) = 2.88457 3.45929 3.18492
# Velocity P-wave (km/s) = 5.01538 5.83083 5.43841
#
# Compressibility (1/GPa) = 0.03193880
#
# Stress axis : x y z
#
# Youngs Moduli (GPa) = 86.91373 58.89336 46.40882
#
# Poissons Ratio (x) = 0.03838 0.04565
# Poissons Ratio (y) = 0.05665 0.34397
# Poissons Ratio (z) = 0.08550 0.43650
#
# Static dielectric constant tensor:
#      x y z
#    x 4.006660 0.000000 -0.081780 
#    y 0.000000 4.118220 0.000000 
#    z -0.081780 0.000000 4.141750 
# 
# 
# High freq. dielectric constant tensor:
#      x y z
#    x 1.875970 0.000000 -0.013700 
#    y 0.000000 1.852560 0.000000 
#    z -0.013700 0.000000 1.874810 
# 
# From -- ./inp_files/78825.got.cif
#   From: 2010.03.12/outbox.cif.g09.slc.cpg/sg14_40_cif.got.tgz:78825.got - 2010.03.31 13:35:05.
