data_PCOD8124751
_publ_section_title
;
Structure prediction by ZEFSAII (Michael W. Deem and Ramdas Pophale) SiO2 
 PCOD8124751
Probable space group: P 21/C
;
_chemical_formula_sum "Si O2"
_cell_formula_units_Z 32
_cell_length_a 26.842035
_cell_length_b 9.201920
_cell_length_c 21.169931
_cell_angle_alpha 90.000000
_cell_angle_beta 161.594301
_cell_angle_gamma 90.000000
_cell_volume 1651.002147
_symmetry_space_group_name_H-M "P 21/C"
_symmetry_group_IT_number 14
_symmetry_cell_setting 'monoclinic'
loop_
_space_group_symop_operation_xyz
x,y,z
-x,1/2+y,1/2-z
-x,-y,-z
x,1/2-y,1/2+z
loop_
_atom_site_type_symbol
_atom_site_label
_atom_site_fract_x
_atom_site_fract_y
_atom_site_fract_z
Si Si1 0.685076 0.662535 0.438761
Si Si2 0.747597 0.059307 0.627354
Si Si3 0.575652 0.955290 0.686445
Si Si4 0.141187 0.246500 0.239895
Si Si5 0.433949 0.783640 0.407524
Si Si6 0.443302 0.023229 0.713711
Si Si7 0.400371 0.413283 0.484274
Si Si8 0.184224 0.687375 0.203449
O O1 0.708465 0.614261 0.393385
O O2 0.845040 0.705926 0.669046
O O3 0.608980 0.522889 0.381536
O O4 0.568777 0.802255 0.302064
O O5 0.588812 0.032068 0.475213
O O6 0.700606 0.056875 0.496358
O O7 0.818672 0.211946 0.736816
O O8 0.874494 0.928054 0.788773
O O9 0.563186 0.855916 0.609108
O O10 0.618997 0.116595 0.715312
O O11 0.308528 0.282710 0.408125
O O12 0.996656 0.332945 0.035052
O O13 0.520448 0.638837 0.485853
O O14 0.273537 0.759540 0.252329
O O15 0.451820 0.971551 0.796635
O O16 0.267735 0.535867 0.316537
#
# Coordination Sequence:
#
# PCOD8124751 Si02
#       8
#     4   4   4   4   4   4   4   4
#     4   9  18  31  54  77 108 135 173 223 263 308
#     4   9  17  34  55  81 104 140 179 223 258 313
#     4   9  17  34  55  79 100 134 186 221 268 307
#     4  10  20  35  55  78 110 144 174 216 271 317
#     4  10  20  33  56  77 103 139 177 223 263 317
#     4   9  17  29  52  83 103 129 176 226 266 296
#     4  11  20  34  54  82 108 137 174 226 271 309
#     4  11  22  34  53  80 114 142 175 214 267 328
#
# _framework density 19.382168
#
# number of rings (size 3 to 8) (size 9 to 14) (size 15 to 20)
#    0.000    2.250    1.250    3.375    1.750    0.000 
#    0.000    0.000    8.250    0.000    0.000    0.000 
#    0.000    0.000    0.000    0.000    0.000    0.000 
#
# Total GULP energy -396488.318748 kJ/mol
# GULP energy per Si atom -12390.259961 kJ/mol
# Density = 1.933805 g / cm^3
# Si number density = 19.382168 Si / 1000 Ang^3
#
#
#
# Elastic Constant Matrix: (Units=GPa)
#
#
# Indices 1 2 3 4 5 6 
#
# 1 58.2747 30.0662 29.4887 0.0000 -23.9871 0.0000
# 2 30.0662 98.5358 32.4703 0.0000 -19.1915 0.0000
# 3 29.4887 32.4703 83.9263 0.0000 -25.2050 0.0000
# 4 0.0000 0.0000 0.0000 23.1238 0.0000 -8.1342
# 5 -23.9871 -19.1915 -25.2050 0.0000 26.5730 0.0000
# 6 0.0000 0.0000 0.0000 -8.1342 0.0000 34.7526
#
#
#
# Elastic Compliance Matrix: (Units=1/GPa)
#
#
# Indices 1 2 3 4 5 6 
#
# 1 0.029122 -0.003991 -0.002320 0.000000 0.021205 0.000000
# 2 -0.003991 0.012850 -0.002606 0.000000 0.003205 0.000000
# 3 -0.002320 -0.002606 0.017541 0.000000 0.012662 0.000000
# 4 0.000000 0.000000 0.000000 0.047126 0.000000 0.011030
# 5 0.021205 0.003205 0.012662 0.000000 0.071098 0.000000
# 6 0.000000 0.000000 0.000000 0.011030 0.000000 0.031357
#
#
# Mechanical properties :
#
#
# Convention : Reuss Voigt Hill
#
# Bulk Modulus (GPa) = 23.99386 47.19856 35.59621
# Shear Modulus (GPa) = 20.76232 26.80397 23.78315
#
# Velocity S-wave (km/s) = 3.27648 3.72280 3.50675
# Velocity P-wave (km/s) = 5.16914 6.54854 5.89929
#
# Compressibility (1/GPa) = 0.04167733
#
# Stress axis : x y z
#
# Youngs Moduli (GPa) = 34.33868 77.82337 57.00809
#
# Poissons Ratio (x) = 0.31063 0.13225
# Poissons Ratio (y) = 0.13706 0.14859
# Poissons Ratio (z) = 0.07966 0.20284
#
# Static dielectric constant tensor:
#      x y z
#    x 3.599470 0.000000 -0.529310 
#    y 0.000000 3.630390 0.000000 
#    z -0.529310 0.000000 3.362270 
# 
# 
# High freq. dielectric constant tensor:
#      x y z
#    x 1.733910 0.000000 -0.042570 
#    y 0.000000 1.766040 0.000000 
#    z -0.042570 0.000000 1.722810 
# 
# From -- ./inp_files/70515.got.cif
#   From: 2010.03.12/outbox.cif.g09.slc.cpg/sg14_36_cif.got.tgz:70515.got - 2010.03.31 13:35:05.
