data_PCOD8124833
_publ_section_title
;
Structure prediction by ZEFSAII (Michael W. Deem and Ramdas Pophale) SiO2 
 PCOD8124833
Probable space group: P 21/C
;
_chemical_formula_sum "Si O2"
_cell_formula_units_Z 32
_cell_length_a 5.249854
_cell_length_b 17.007356
_cell_length_c 22.195694
_cell_angle_alpha 90.000000
_cell_angle_beta 124.681670
_cell_angle_gamma 90.000000
_cell_volume 1629.659390
_symmetry_space_group_name_H-M "P 21/C"
_symmetry_group_IT_number 14
_symmetry_cell_setting 'monoclinic'
loop_
_space_group_symop_operation_xyz
x,y,z
-x,1/2+y,1/2-z
-x,-y,-z
x,1/2-y,1/2+z
loop_
_atom_site_type_symbol
_atom_site_label
_atom_site_fract_x
_atom_site_fract_y
_atom_site_fract_z
Si Si1 0.176744 0.087147 0.031867
Si Si2 0.930144 0.725818 0.836113
Si Si3 0.263253 0.713349 0.265818
Si Si4 0.736348 0.048853 0.180643
Si Si5 0.665948 0.599807 0.731628
Si Si6 0.653995 0.190296 0.020622
Si Si7 0.017777 0.964935 0.119454
Si Si8 0.776000 0.805491 0.135590
O O1 0.361790 0.045199 0.114419
O O2 0.430035 0.149484 0.040439
O O3 0.878469 0.128889 0.018357
O O4 0.049825 0.026680 0.962282
O O5 0.627900 0.781736 0.800751
O O6 0.803108 0.635387 0.812536
O O7 0.156676 0.739632 0.810158
O O8 0.142419 0.740027 0.922485
O O9 0.173925 0.622830 0.266643
O O10 0.077106 0.749466 0.183538
O O11 0.872622 0.971626 0.233147
O O12 0.896474 0.045016 0.135932
O O13 0.637059 0.675004 0.682816
O O14 0.339370 0.558043 0.694017
O O15 0.465488 0.236170 0.942239
O O16 0.812628 0.888835 0.107136
#
# Coordination Sequence:
#
# PCOD8124833 Si02
#       8
#     4   4   4   4   4   4   4   4
#     4  11  22  35  53  84 116 150 178 224 274 348
#     4  11  21  39  57  81 109 149 191 234 269 329
#     4  11  22  37  58  81 111 146 194 233 270 322
#     4  11  23  34  52  84 115 153 181 229 279 335
#     4  10  21  35  56  75 117 149 186 221 284 333
#     4  11  20  36  59  82 110 145 192 230 277 319
#     4  10  20  35  51  81 117 152 178 220 283 343
#     4   9  20  37  55  80 110 150 187 231 275 331
#
# _framework density 19.636008
#
# number of rings (size 3 to 8) (size 9 to 14) (size 15 to 20)
#    0.000    1.500    5.000    0.375    3.500    0.500 
#    0.000    0.000    0.000    0.750    0.000    0.875 
#    0.000    0.000    0.000    0.000    0.000    0.000 
#
# Total GULP energy -396437.882732 kJ/mol
# GULP energy per Si atom -12388.683835 kJ/mol
# Density = 1.959132 g / cm^3
# Si number density = 19.636008 Si / 1000 Ang^3
#
#
#
# Elastic Constant Matrix: (Units=GPa)
#
#
# Indices 1 2 3 4 5 6 
#
# 1 75.4017 6.3665 12.5408 0.0000 2.3983 0.0000
# 2 6.3665 67.7722 34.9335 0.0000 -4.4022 0.0000
# 3 12.5408 34.9335 91.1698 0.0000 11.0721 0.0000
# 4 0.0000 0.0000 0.0000 42.4411 0.0000 -0.4614
# 5 2.3983 -4.4022 11.0721 0.0000 25.3678 0.0000
# 6 0.0000 0.0000 0.0000 -0.4614 0.0000 22.5690
#
#
#
# Elastic Compliance Matrix: (Units=1/GPa)
#
#
# Indices 1 2 3 4 5 6 
#
# 1 0.013591 -0.000497 -0.001597 0.000000 -0.000674 0.000000
# 2 -0.000497 0.019521 -0.008267 0.000000 0.007043 0.000000
# 3 -0.001597 -0.008267 0.015324 0.000000 -0.007972 0.000000
# 4 0.000000 0.000000 0.000000 0.023567 0.000000 0.000482
# 5 -0.000674 0.007043 -0.007972 0.000000 0.044185 0.000000
# 6 0.000000 0.000000 0.000000 0.000482 0.000000 0.044318
#
#
# Mechanical properties :
#
#
# Convention : Reuss Voigt Hill
#
# Bulk Modulus (GPa) = 36.08314 38.00282 37.04298
# Shear Modulus (GPa) = 26.25131 30.10911 28.18021
#
# Velocity S-wave (km/s) = 3.66033 3.92006 3.79242
# Velocity P-wave (km/s) = 6.02328 6.31545 6.17109
#
# Compressibility (1/GPa) = 0.02771378
#
# Stress axis : x y z
#
# Youngs Moduli (GPa) = 73.57606 51.22813 65.25774
#
# Poissons Ratio (x) = 0.02548 0.10422
# Poissons Ratio (y) = 0.03659 0.53946
# Poissons Ratio (z) = 0.11751 0.42348
#
# Static dielectric constant tensor:
#      x y z
#    x 3.959690 0.000000 -0.122700 
#    y 0.000000 3.826210 0.000000 
#    z -0.122700 0.000000 3.929160 
# 
# 
# High freq. dielectric constant tensor:
#      x y z
#    x 1.790820 0.000000 0.004390 
#    y 0.000000 1.733340 0.000000 
#    z 0.004390 0.000000 1.750500 
# 
# From -- ./inp_files/63765.got.cif
#   From: 2010.03.12/outbox.cif.g09.slc.cpg/sg14_32_cif.got.tgz:63765.got - 2010.03.31 13:35:05.
