data_PCOD8124287
_publ_section_title
;
Structure prediction by ZEFSAII (Michael W. Deem and Ramdas Pophale) SiO2 
 PCOD8124287
Probable space group: P 21/C
;
_chemical_formula_sum "Si O2"
_cell_formula_units_Z 32
_cell_length_a 15.314857
_cell_length_b 8.652024
_cell_length_c 15.554179
_cell_angle_alpha 90.000000
_cell_angle_beta 53.895430
_cell_angle_gamma 90.000000
_cell_volume 1665.169377
_symmetry_space_group_name_H-M "P 21/C"
_symmetry_group_IT_number 14
_symmetry_cell_setting 'monoclinic'
loop_
_space_group_symop_operation_xyz
x,y,z
-x,1/2+y,1/2-z
-x,-y,-z
x,1/2-y,1/2+z
loop_
_atom_site_type_symbol
_atom_site_label
_atom_site_fract_x
_atom_site_fract_y
_atom_site_fract_z
Si Si1 0.095367 0.195824 0.523902
Si Si2 0.653085 0.545581 0.350713
Si Si3 0.086545 0.379709 0.369346
Si Si4 0.530881 0.248392 0.474043
Si Si5 0.887158 0.197302 0.082156
Si Si6 0.807647 0.752922 0.356811
Si Si7 0.624427 0.970756 0.522623
Si Si8 0.258498 0.959793 0.378838
O O1 0.144709 0.296934 0.416779
O O2 0.124240 0.280324 0.596790
O O3 0.965085 0.181425 0.588984
O O4 0.149723 0.028277 0.485104
O O5 0.615022 0.370567 0.387132
O O6 0.553300 0.664635 0.414293
O O7 0.741791 0.597793 0.369860
O O8 0.705535 0.552454 0.226370
O O9 0.133702 0.554254 0.341019
O O10 0.110628 0.296066 0.266430
O O11 0.955528 0.371843 0.460753
O O12 0.471569 0.156541 0.430348
O O13 0.597669 0.128118 0.490522
O O14 0.774951 0.281066 0.121216
O O15 0.729445 0.898163 0.417387
O O16 0.643703 0.018913 0.610525
#
# Coordination Sequence:
#
# PCOD8124287 Si02
#       8
#     4   4   4   4   4   4   4   4
#     4   9  19  37  54  80 115 148 184 232 272 324
#     4  10  20  35  60  80 110 143 185 232 278 344
#     4   9  19  38  53  75 118 149 179 237 272 322
#     4   9  20  40  54  80 113 140 179 238 287 335
#     4   9  20  37  52  78 116 147 185 232 271 323
#     4  10  19  36  58  83 109 153 187 223 286 328
#     4   9  21  37  58  80 112 143 182 233 284 341
#     4  11  20  35  58  84 107 146 190 226 278 336
#
# _framework density 19.217265000000001
#
# number of rings (size 3 to 8) (size 9 to 14) (size 15 to 20)
#    0.750    1.750    1.250    0.375    1.750    2.000 
#    6.750    0.000    0.000    0.000    0.000    0.000 
#    0.000    0.000    0.000    0.000    0.000    0.000 
#
# Total GULP energy -396499.689961 kJ/mol
# GULP energy per Si atom -12390.615311 kJ/mol
# Density = 1.917353 g / cm^3
# Si number density = 19.217265 Si / 1000 Ang^3
#
#
#
# Elastic Constant Matrix: (Units=GPa)
#
#
# Indices 1 2 3 4 5 6 
#
# 1 89.1448 40.9876 36.5346 0.0000 22.7870 0.0000
# 2 40.9876 89.9312 17.8663 0.0000 4.8924 0.0000
# 3 36.5346 17.8663 78.9925 0.0000 18.4566 0.0000
# 4 0.0000 0.0000 0.0000 21.3573 0.0000 -3.8010
# 5 22.7870 4.8924 18.4566 0.0000 27.1720 0.0000
# 6 0.0000 0.0000 0.0000 -3.8010 0.0000 26.7468
#
#
#
# Elastic Compliance Matrix: (Units=1/GPa)
#
#
# Indices 1 2 3 4 5 6 
#
# 1 0.019519 -0.007337 -0.004579 0.000000 -0.011938 0.000000
# 2 -0.007337 0.014404 -0.000827 0.000000 0.004122 0.000000
# 3 -0.004579 -0.000827 0.016680 0.000000 -0.007341 0.000000
# 4 0.000000 0.000000 0.000000 0.048037 0.000000 0.006827
# 5 -0.011938 0.004122 -0.007341 0.000000 0.051058 0.000000
# 6 0.000000 0.000000 0.000000 0.006827 0.000000 0.038358
#
#
# Mechanical properties :
#
#
# Convention : Reuss Voigt Hill
#
# Bulk Modulus (GPa) = 39.81584 49.87174 44.84379
# Shear Modulus (GPa) = 22.53115 25.90054 24.21585
#
# Velocity S-wave (km/s) = 3.42781 3.67519 3.55365
# Velocity P-wave (km/s) = 6.03575 6.63455 6.34222
#
# Compressibility (1/GPa) = 0.02511563
#
# Stress axis : x y z
#
# Youngs Moduli (GPa) = 51.23090 69.42621 59.95370
#
# Poissons Ratio (x) = 0.50939 0.27453
# Poissons Ratio (y) = 0.37589 0.04960
# Poissons Ratio (z) = 0.23459 0.05744
#
# Static dielectric constant tensor:
#      x y z
#    x 3.479060 0.000000 0.054470 
#    y 0.000000 3.429010 0.000000 
#    z 0.054470 0.000000 3.284380 
# 
# 
# High freq. dielectric constant tensor:
#      x y z
#    x 1.735140 0.000000 0.002930 
#    y 0.000000 1.748900 0.000000 
#    z 0.002930 0.000000 1.729450 
# 
# From -- ./inp_files/46494.got.cif
#   From: 2010.03.12/outbox.cif.g09.slc.cpg/sg14_24_cif.got.tgz:46494.got - 2010.03.31 13:35:05.
