data_PCOD8124547
_publ_section_title
;
Structure prediction by ZEFSAII (Michael W. Deem and Ramdas Pophale) SiO2 
 PCOD8124547
Probable space group: P 21/C
;
_chemical_formula_sum "Si O2"
_cell_formula_units_Z 32
_cell_length_a 18.184883
_cell_length_b 10.258036
_cell_length_c 27.088721
_cell_angle_alpha 90.000000
_cell_angle_beta 161.853373
_cell_angle_gamma 90.000000
_cell_volume 1573.806585
_symmetry_space_group_name_H-M "P 21/C"
_symmetry_group_IT_number 14
_symmetry_cell_setting 'monoclinic'
loop_
_space_group_symop_operation_xyz
x,y,z
-x,1/2+y,1/2-z
-x,-y,-z
x,1/2-y,1/2+z
loop_
_atom_site_type_symbol
_atom_site_label
_atom_site_fract_x
_atom_site_fract_y
_atom_site_fract_z
Si Si1 0.883659 0.291712 0.552014
Si Si2 0.825765 0.075507 0.117063
Si Si3 0.533937 0.339959 0.158619
Si Si4 0.953950 0.356321 0.488866
Si Si5 0.468513 0.365721 0.827795
Si Si6 0.600036 0.717672 0.622540
Si Si7 0.391931 0.631291 0.908640
Si Si8 0.073934 0.204055 0.840476
O O1 0.889735 0.395993 0.600520
O O2 0.857843 0.365781 0.483653
O O3 0.665314 0.196522 0.419075
O O4 0.118577 0.201369 0.697885
O O5 0.984389 0.173757 0.250973
O O6 0.875583 0.923887 0.161367
O O7 0.545808 0.092390 0.950638
O O8 0.764791 0.278978 0.333578
O O9 0.504504 0.480996 0.165182
O O10 0.576734 0.362095 0.128918
O O11 0.305306 0.247983 0.019152
O O12 0.000000 0.500000 0.500000
O O13 0.217723 0.295572 0.654128
O O14 0.498567 0.336610 0.905615
O O15 0.529939 0.748858 0.521639
O O16 0.115513 0.651885 0.741486
O O17 0.500000 0.500000 0.000000
#
# Coordination Sequence:
#
# PCOD8124547 Si02
#       8
#     4   4   4   4   4   4   4   4
#     4  10  19  38  65  85 120 171 205 258 322 370
#     4  10  23  38  61  94 127 163 211 254 314 385
#     4  11  22  39  57  93 123 156 214 268 304 375
#     4   9  21  38  60  91 121 159 218 264 303 382
#     4   9  19  36  64  86 119 160 213 256 310 379
#     4   9  18  35  58  92 118 159 207 250 309 384
#     4  11  20  36  62  88 125 168 203 250 316 374
#     4  11  24  39  63  93 130 167 207 262 317 385
#
# _framework density 20.332865999999999
#
# number of rings (size 3 to 8) (size 9 to 14) (size 15 to 20)
#    0.000    2.000    1.250    2.250    7.000    1.000 
#    4.500    1.875    0.000    2.250    0.000    0.000 
#    0.000    0.000    0.000    0.000    0.000    0.000 
#
# Total GULP energy -396475.227524 kJ/mol
# GULP energy per Si atom -12389.850860 kJ/mol
# Density = 2.028659 g / cm^3
# Si number density = 20.332866 Si / 1000 Ang^3
#
#
#
# Elastic Constant Matrix: (Units=GPa)
#
#
# Indices 1 2 3 4 5 6 
#
# 1 105.9335 17.7009 62.9390 0.0000 9.0848 0.0000
# 2 17.7009 78.9731 49.6974 0.0000 12.5136 0.0000
# 3 62.9390 49.6974 153.6706 0.0000 11.7568 0.0000
# 4 0.0000 0.0000 0.0000 32.1261 0.0000 1.7830
# 5 9.0848 12.5136 11.7568 0.0000 33.9931 0.0000
# 6 0.0000 0.0000 0.0000 1.7830 0.0000 20.5522
#
#
#
# Elastic Compliance Matrix: (Units=1/GPa)
#
#
# Indices 1 2 3 4 5 6 
#
# 1 0.012599 0.000785 -0.005274 0.000000 -0.001832 0.000000
# 2 0.000785 0.016549 -0.005332 0.000000 -0.004457 0.000000
# 3 -0.005274 -0.005332 0.010409 0.000000 -0.000228 0.000000
# 4 0.000000 0.000000 0.000000 0.031278 0.000000 -0.002714
# 5 -0.001832 -0.004457 -0.000228 0.000000 0.031627 0.000000
# 6 0.000000 0.000000 0.000000 -0.002714 0.000000 0.048892
#
#
# Mechanical properties :
#
#
# Convention : Reuss Voigt Hill
#
# Bulk Modulus (GPa) = 50.21379 66.58354 58.39866
# Shear Modulus (GPa) = 28.14758 31.21693 29.68226
#
# Velocity S-wave (km/s) = 3.72471 3.92253 3.82490
# Velocity P-wave (km/s) = 6.57628 7.30294 6.94911
#
# Compressibility (1/GPa) = 0.01991485
#
# Stress axis : x y z
#
# Youngs Moduli (GPa) = 79.36923 60.42838 96.06621
#
# Poissons Ratio (x) = -0.04745 0.50666
# Poissons Ratio (y) = -0.06233 0.51227
# Poissons Ratio (z) = 0.41860 0.32223
#
# Static dielectric constant tensor:
#      x y z
#    x 3.518000 0.000000 0.189360 
#    y 0.000000 3.504370 0.000000 
#    z 0.189360 0.000000 4.368630 
# 
# 
# High freq. dielectric constant tensor:
#      x y z
#    x 1.789840 0.000000 0.011820 
#    y 0.000000 1.760360 0.000000 
#    z 0.011820 0.000000 1.810880 
# 
# From -- ./inp_files/77823.got.cif
#   From: 2010.03.12/outbox.cif.g09.slc.cpg/sg14_39_cif.got.tgz:77823.got - 2010.03.31 13:35:05.
