data_PCOD8124412
_publ_section_title
;
Structure prediction by ZEFSAII (Michael W. Deem and Ramdas Pophale) SiO2 
 PCOD8124412
Probable space group: P 21/C
;
_chemical_formula_sum "Si O2"
_cell_formula_units_Z 28
_cell_length_a 16.016714
_cell_length_b 8.072940
_cell_length_c 15.073544
_cell_angle_alpha 90.000000
_cell_angle_beta 42.752169
_cell_angle_gamma 90.000000
_cell_volume 1323.063273
_symmetry_space_group_name_H-M "P 21/C"
_symmetry_group_IT_number 14
_symmetry_cell_setting 'monoclinic'
loop_
_space_group_symop_operation_xyz
x,y,z
-x,1/2+y,1/2-z
-x,-y,-z
x,1/2-y,1/2+z
loop_
_atom_site_type_symbol
_atom_site_label
_atom_site_fract_x
_atom_site_fract_y
_atom_site_fract_z
Si Si1 0.720739 0.129285 0.443583
Si Si2 0.920122 0.121975 0.793214
Si Si3 0.731329 0.808056 0.334669
Si Si4 0.870572 0.971135 0.645421
Si Si5 0.168989 0.204177 0.071600
Si Si6 0.495734 0.151224 0.071213
Si Si7 0.685262 0.939665 0.648513
O O1 0.847107 0.213094 0.377972
O O2 0.628358 0.268085 0.479532
O O3 0.750323 0.002560 0.339999
O O4 0.664790 0.038519 0.573449
O O5 0.064888 0.159259 0.678958
O O6 0.868447 0.074362 0.737181
O O7 0.891509 0.977975 0.888394
O O8 0.840460 0.723733 0.190377
O O9 0.730324 0.707362 0.428495
O O10 0.599575 0.787138 0.391306
O O11 0.765342 0.038555 0.660261
O O12 0.000000 0.000000 0.500000
O O13 0.238569 0.267025 0.929076
O O14 0.448573 0.093707 0.205345
O O15 0.500000 0.000000 0.000000
#
# Coordination Sequence:
#
# PCOD8124412 Si02
#       7
#     4   4   4   4   4   4   4
#     4  11  23  40  62  94 123 163 213 262 308 377
#     4  11  22  37  64  87 128 164 204 251 324 373
#     4   9  21  37  62  87 122 158 204 250 308 368
#     4  10  19  38  62  88 127 169 197 253 316 382
#     4  10  19  37  59  90 121 160 202 255 311 376
#     4  11  23  43  66  87 122 169 208 259 321 374
#     4  10  22  39  61  93 123 158 215 260 312 378
#
# _framework density 21.163008999999999
#
# number of rings (size 3 to 8) (size 9 to 14) (size 15 to 20)
#    0.000    1.714    1.429    4.714    2.000    3.429 
#    0.000    7.857    0.000    0.000    0.000    0.000 
#    0.000    0.000    0.000    0.000    0.000    0.000 
#
# Total GULP energy -347021.456367 kJ/mol
# GULP energy per Si atom -12393.623442 kJ/mol
# Density = 2.111484 g / cm^3
# Si number density = 21.163009 Si / 1000 Ang^3
#
#
#
# Elastic Constant Matrix: (Units=GPa)
#
#
# Indices 1 2 3 4 5 6 
#
# 1 59.5231 3.0359 6.2899 0.0000 10.1898 0.0000
# 2 3.0359 102.6177 43.6248 0.0000 6.7672 0.0000
# 3 6.2899 43.6248 113.5736 0.0000 0.3122 0.0000
# 4 0.0000 0.0000 0.0000 30.3863 0.0000 -1.3404
# 5 10.1898 6.7672 0.3122 0.0000 29.0058 0.0000
# 6 0.0000 0.0000 0.0000 -1.3404 0.0000 35.0658
#
#
#
# Elastic Compliance Matrix: (Units=1/GPa)
#
#
# Indices 1 2 3 4 5 6 
#
# 1 0.017995 0.000365 -0.001119 0.000000 -0.006395 0.000000
# 2 0.000365 0.011865 -0.004570 0.000000 -0.002847 0.000000
# 3 -0.001119 -0.004570 0.010618 0.000000 0.001345 0.000000
# 4 0.000000 0.000000 0.000000 0.032965 0.000000 0.001260
# 5 -0.006395 -0.002847 0.001345 0.000000 0.037372 0.000000
# 6 0.000000 0.000000 0.000000 0.001260 0.000000 0.028566
#
#
# Mechanical properties :
#
#
# Convention : Reuss Voigt Hill
#
# Bulk Modulus (GPa) = 33.52338 42.40174 37.96256
# Shear Modulus (GPa) = 31.25553 33.74248 32.49900
#
# Velocity S-wave (km/s) = 3.84721 3.99734 3.92299
# Velocity P-wave (km/s) = 5.96738 6.43306 6.20459
#
# Compressibility (1/GPa) = 0.02982993
#
# Stress axis : x y z
#
# Youngs Moduli (GPa) = 55.57234 84.28487 94.17600
#
# Poissons Ratio (x) = -0.03078 0.10541
# Poissons Ratio (y) = -0.02029 0.43035
# Poissons Ratio (z) = 0.06220 0.38516
#
# Static dielectric constant tensor:
#      x y z
#    x 3.879980 0.000000 0.044740 
#    y 0.000000 3.775610 0.000000 
#    z 0.044740 0.000000 3.861730 
# 
# 
# High freq. dielectric constant tensor:
#      x y z
#    x 1.834690 0.000000 -0.001580 
#    y 0.000000 1.814760 0.000000 
#    z -0.001580 0.000000 1.823010 
# 
# From -- ./inp_files/48544.got.cif
#   From: 2010.03.12/outbox.cif.g09.slc.cpg/sg14_25_cif.got.tgz:48544.got - 2010.03.31 13:35:05.
