data_PCOD8124629
_publ_section_title
;
Structure prediction by ZEFSAII (Michael W. Deem and Ramdas Pophale) SiO2 
 PCOD8124629
Probable space group: P 21/C
;
_chemical_formula_sum "Si O2"
_cell_formula_units_Z 32
_cell_length_a 7.846737
_cell_length_b 20.531814
_cell_length_c 13.990150
_cell_angle_alpha 90.000000
_cell_angle_beta 137.744542
_cell_angle_gamma 90.000000
_cell_volume 1515.620936
_symmetry_space_group_name_H-M "P 21/C"
_symmetry_group_IT_number 14
_symmetry_cell_setting 'monoclinic'
loop_
_space_group_symop_operation_xyz
x,y,z
-x,1/2+y,1/2-z
-x,-y,-z
x,1/2-y,1/2+z
loop_
_atom_site_type_symbol
_atom_site_label
_atom_site_fract_x
_atom_site_fract_y
_atom_site_fract_z
Si Si1 0.051466 0.134826 0.117872
Si Si2 0.695373 0.816673 0.126672
Si Si3 0.570875 0.081139 0.114924
Si Si4 0.424922 0.170632 0.420211
Si Si5 0.616942 0.187444 0.829772
Si Si6 0.890925 0.001660 0.108115
Si Si7 0.434028 0.671167 0.225579
Si Si8 0.789564 0.381552 0.220742
O O1 0.151606 0.144324 0.269073
O O2 0.266841 0.156381 0.131250
O O3 0.985397 0.058524 0.076446
O O4 0.819001 0.183141 0.000535
O O5 0.621171 0.743995 0.061630
O O6 0.651964 0.820396 0.225110
O O7 0.986302 0.833191 0.221401
O O8 0.504367 0.866211 0.996335
O O9 0.697665 0.118125 0.259556
O O10 0.778967 0.032925 0.158603
O O11 0.321019 0.039205 0.037621
O O12 0.621135 0.165244 0.411080
O O13 0.543894 0.125940 0.551457
O O14 0.631218 0.254436 0.774826
O O15 0.686601 0.131322 0.784600
O O16 0.118703 0.955935 0.239329
#
# Coordination Sequence:
#
# PCOD8124629 Si02
#       8
#     4   4   4   4   4   4   4   4
#     4  10  21  40  62  91 124 167 205 262 313 372
#     4  10  21  38  65  91 125 161 215 270 322 369
#     4  10  19  40  61  95 124 164 216 265 308 372
#     4   9  23  38  62  88 132 165 204 266 332 374
#     4  11  22  39  66  94 125 157 215 263 318 381
#     4  10  22  37  64  88 129 167 222 250 306 387
#     4   9  22  37  62  92 123 159 210 261 324 378
#     4  11  24  41  60  97 129 167 213 266 315 380
#
# _framework density 21.113458000000001
#
# number of rings (size 3 to 8) (size 9 to 14) (size 15 to 20)
#    0.750    1.250    1.250    2.250    3.500    3.500 
#    0.000    1.875    0.000    0.000    0.000    0.000 
#    0.000    0.000    0.000    0.000    0.000    0.000 
#
# Total GULP energy -396443.154030 kJ/mol
# GULP energy per Si atom -12388.848563 kJ/mol
# Density = 2.106540 g / cm^3
# Si number density = 21.113458 Si / 1000 Ang^3
#
#
#
# Elastic Constant Matrix: (Units=GPa)
#
#
# Indices 1 2 3 4 5 6 
#
# 1 61.0278 22.6911 19.5791 0.0000 -5.6134 0.0000
# 2 22.6911 149.7021 43.7577 0.0000 -0.3214 0.0000
# 3 19.5791 43.7577 82.8832 0.0000 -5.0027 0.0000
# 4 0.0000 0.0000 0.0000 31.4215 0.0000 -0.6140
# 5 -5.6134 -0.3214 -5.0027 0.0000 15.1110 0.0000
# 6 0.0000 0.0000 0.0000 -0.6140 0.0000 42.8237
#
#
#
# Elastic Compliance Matrix: (Units=1/GPa)
#
#
# Indices 1 2 3 4 5 6 
#
# 1 0.018612 -0.001924 -0.003027 0.000000 0.005871 0.000000
# 2 -0.001924 0.008120 -0.003944 0.000000 -0.001848 0.000000
# 3 -0.003027 -0.003944 0.015091 0.000000 0.003788 0.000000
# 4 0.000000 0.000000 0.000000 0.031834 0.000000 0.000456
# 5 0.005871 -0.001848 0.003788 0.000000 0.069573 0.000000
# 6 0.000000 0.000000 0.000000 0.000456 0.000000 0.023358
#
#
# Mechanical properties :
#
#
# Convention : Reuss Voigt Hill
#
# Bulk Modulus (GPa) = 41.60691 51.74100 46.67395
# Shear Modulus (GPa) = 25.98889 31.71026 28.84957
#
# Velocity S-wave (km/s) = 3.51225 3.87964 3.70050
# Velocity P-wave (km/s) = 6.01639 6.68043 6.35709
#
# Compressibility (1/GPa) = 0.02403447
#
# Stress axis : x y z
#
# Youngs Moduli (GPa) = 53.72771 123.14570 66.26431
#
# Poissons Ratio (x) = 0.23692 0.20056
# Poissons Ratio (y) = 0.10337 0.26136
# Poissons Ratio (z) = 0.16261 0.48571
#
# Static dielectric constant tensor:
#      x y z
#    x 3.782300 0.000000 -0.005030 
#    y 0.000000 3.859710 0.000000 
#    z -0.005030 0.000000 3.463570 
# 
# 
# High freq. dielectric constant tensor:
#      x y z
#    x 1.827980 0.000000 -0.004590 
#    y 0.000000 1.830070 0.000000 
#    z -0.004590 0.000000 1.791740 
# 
# From -- ./inp_files/42069.got.cif
#   From: 2010.03.12/outbox.cif.g09.slc.cpg/sg14_22_cif.got.tgz:42069.got - 2010.03.31 13:35:05.
