data_PCOD8124764
_publ_section_title
;
Structure prediction by ZEFSAII (Michael W. Deem and Ramdas Pophale) SiO2 
 PCOD8124764
Probable space group: P 21/C
;
_chemical_formula_sum "Si O2"
_cell_formula_units_Z 32
_cell_length_a 29.917553
_cell_length_b 8.741236
_cell_length_c 13.076305
_cell_angle_alpha 90.000000
_cell_angle_beta 150.482715
_cell_angle_gamma 90.000000
_cell_volume 1684.822960
_symmetry_space_group_name_H-M "P 21/C"
_symmetry_group_IT_number 14
_symmetry_cell_setting 'monoclinic'
loop_
_space_group_symop_operation_xyz
x,y,z
-x,1/2+y,1/2-z
-x,-y,-z
x,1/2-y,1/2+z
loop_
_atom_site_type_symbol
_atom_site_label
_atom_site_fract_x
_atom_site_fract_y
_atom_site_fract_z
Si Si1 0.401594 0.512087 0.934528
Si Si2 0.194005 0.984892 0.027410
Si Si3 0.486752 0.251206 0.974903
Si Si4 0.802845 0.958084 0.738741
Si Si5 0.962874 0.233470 0.258670
Si Si6 0.007484 0.578114 0.385577
Si Si7 0.399588 0.984692 0.672508
Si Si8 0.893841 0.783723 0.302438
O O1 0.297131 0.553086 0.704780
O O2 0.459429 0.645893 0.998644
O O3 0.422857 0.351346 0.921635
O O4 0.423756 0.502089 0.099975
O O5 0.189436 0.076539 0.124773
O O6 0.146518 0.087274 0.848194
O O7 0.139482 0.825600 0.927237
O O8 0.553550 0.162044 0.184266
O O9 0.427757 0.137417 0.788499
O O10 0.707860 0.039367 0.525060
O O11 0.810290 0.794357 0.697161
O O12 0.886248 0.066701 0.870843
O O13 0.000558 0.195643 0.222533
O O14 0.965659 0.415027 0.272885
O O15 0.032000 0.145429 0.472911
O O16 0.948140 0.644734 0.358007
#
# Coordination Sequence:
#
# PCOD8124764 Si02
#       8
#     4   4   4   4   4   4   4   4
#     4  10  21  38  56  80 112 138 172 225 270 314
#     4  10  21  35  53  76 106 138 172 215 259 304
#     4  10  21  36  59  83 103 139 180 213 271 333
#     4   9  19  33  51  76 104 134 169 212 259 302
#     4  10  20  34  50  74 103 138 177 211 253 302
#     4  10  20  34  52  74 105 140 174 212 255 302
#     4  10  20  37  58  80 108 139 175 221 267 320
#     4  11  19  33  54  75 103 139 176 212 253 302
#
# _framework density 18.993092999999998
#
# number of rings (size 3 to 8) (size 9 to 14) (size 15 to 20)
#    0.000    2.000    0.000    5.625    0.000    2.000 
#    0.000    2.500    0.000   13.500    0.000    0.000 
#    0.000    0.000    0.000    0.000    0.000    0.000 
#
# Total GULP energy -396695.649322 kJ/mol
# GULP energy per Si atom -12396.739041 kJ/mol
# Density = 1.894986 g / cm^3
# Si number density = 18.993093 Si / 1000 Ang^3
#
#
#
# Elastic Constant Matrix: (Units=GPa)
#
#
# Indices 1 2 3 4 5 6 
#
# 1 99.4544 32.7736 47.8199 0.0000 -0.8295 0.0000
# 2 32.7736 65.0493 26.9592 0.0000 5.1882 0.0000
# 3 47.8199 26.9592 101.5895 0.0000 4.7326 0.0000
# 4 0.0000 0.0000 0.0000 23.2403 0.0000 -2.9480
# 5 -0.8295 5.1882 4.7326 0.0000 30.2212 0.0000
# 6 0.0000 0.0000 0.0000 -2.9480 0.0000 28.2329
#
#
#
# Elastic Compliance Matrix: (Units=1/GPa)
#
#
# Indices 1 2 3 4 5 6 
#
# 1 0.014426 -0.005150 -0.005524 0.000000 0.002145 0.000000
# 2 -0.005150 0.019266 -0.002547 0.000000 -0.003050 0.000000
# 3 -0.005524 -0.002547 0.013202 0.000000 -0.001782 0.000000
# 4 0.000000 0.000000 0.000000 0.043606 0.000000 0.004553
# 5 0.002145 -0.003050 -0.001782 0.000000 0.033951 0.000000
# 6 0.000000 0.000000 0.000000 0.004553 0.000000 0.035895
#
#
# Mechanical properties :
#
#
# Convention : Reuss Voigt Hill
#
# Bulk Modulus (GPa) = 48.88982 53.46651 51.17816
# Shear Modulus (GPa) = 25.82575 26.90824 26.36700
#
# Velocity S-wave (km/s) = 3.69147 3.76804 3.72995
# Velocity P-wave (km/s) = 6.63069 6.86604 6.74939
#
# Compressibility (1/GPa) = 0.02045416
#
# Stress axis : x y z
#
# Youngs Moduli (GPa) = 69.32045 51.90416 75.74351
#
# Poissons Ratio (x) = 0.26730 0.41839
# Poissons Ratio (y) = 0.35699 0.19288
# Poissons Ratio (z) = 0.38291 0.13218
#
# Static dielectric constant tensor:
#      x y z
#    x 3.745580 0.000000 -0.103450 
#    y 0.000000 3.260410 0.000000 
#    z -0.103450 0.000000 3.654080 
# 
# 
# High freq. dielectric constant tensor:
#      x y z
#    x 1.755480 0.000000 -0.007960 
#    y 0.000000 1.726760 0.000000 
#    z -0.007960 0.000000 1.744700 
# 
# From -- ./inp_files/36493.got.cif
#   From: 2010.03.12/outbox.cif.g09.slc.cpg/sg14_19_cif.got.tgz:36493.got - 2010.03.31 13:35:05.
