data_PCOD8124527
_publ_section_title
;
Structure prediction by ZEFSAII (Michael W. Deem and Ramdas Pophale) SiO2 
 PCOD8124527
Probable space group: P 21/C
;
_chemical_formula_sum "Si O2"
_cell_formula_units_Z 28
_cell_length_a 14.938475
_cell_length_b 9.844975
_cell_length_c 14.203999
_cell_angle_alpha 90.000000
_cell_angle_beta 142.845269
_cell_angle_gamma 90.000000
_cell_volume 1261.672364
_symmetry_space_group_name_H-M "P 21/C"
_symmetry_group_IT_number 14
_symmetry_cell_setting 'monoclinic'
loop_
_space_group_symop_operation_xyz
x,y,z
-x,1/2+y,1/2-z
-x,-y,-z
x,1/2-y,1/2+z
loop_
_atom_site_type_symbol
_atom_site_label
_atom_site_fract_x
_atom_site_fract_y
_atom_site_fract_z
Si Si1 0.685643 0.518854 0.558060
Si Si2 0.619143 0.671786 0.321520
Si Si3 0.960350 0.026781 0.821693
Si Si4 0.647927 0.926668 0.231434
Si Si5 0.756840 0.036488 0.814966
Si Si6 0.298060 0.699386 0.136212
Si Si7 0.919330 0.307443 0.697845
O O1 0.711537 0.619479 0.490626
O O2 0.527343 0.449097 0.412784
O O3 0.696851 0.604285 0.664620
O O4 0.804235 0.398142 0.660595
O O5 0.692281 0.807981 0.340733
O O6 0.628168 0.564124 0.243148
O O7 0.448450 0.694592 0.202550
O O8 0.803389 0.014990 0.745364
O O9 0.955145 0.914135 0.733764
O O10 0.987554 0.184287 0.815324
O O11 0.098580 0.987393 0.001155
O O12 0.734980 0.058760 0.339562
O O13 0.691144 0.187027 0.773479
O O14 0.161543 0.731130 0.955107
#
# Coordination Sequence:
#
# PCOD8124527 Si02
#       7
#     4   4   4   4   4   4   4
#     4  10  20  39  61  86 131 160 202 260 316 367
#     4  11  19  38  65  92 125 163 202 260 319 374
#     4  10  23  39  67  85 125 172 213 254 311 366
#     4  10  21  34  63  93 119 166 203 247 324 387
#     4  10  21  42  60  91 127 166 207 263 310 371
#     4  10  19  38  62  89 129 161 197 263 324 364
#     4  11  21  42  61  91 124 167 210 264 309 370
#
# _framework density 22.192767
#
# number of rings (size 3 to 8) (size 9 to 14) (size 15 to 20)
#    0.000    1.714    4.286    1.714    0.000    2.286 
#    2.571    0.714    0.000    6.857    0.000    0.000 
#    0.000    0.000    0.000    0.000    0.000    0.000 
#
# Total GULP energy -347071.800458 kJ/mol
# GULP energy per Si atom -12395.421445 kJ/mol
# Density = 2.214225 g / cm^3
# Si number density = 22.192767 Si / 1000 Ang^3
#
#
#
# Elastic Constant Matrix: (Units=GPa)
#
#
# Indices 1 2 3 4 5 6 
#
# 1 146.7375 72.8077 17.1115 0.0000 -17.3506 0.0000
# 2 72.8077 176.3047 24.2827 0.0000 -18.9564 0.0000
# 3 17.1115 24.2827 19.1431 0.0000 -4.1876 0.0000
# 4 0.0000 0.0000 0.0000 31.4035 0.0000 1.4530
# 5 -17.3506 -18.9564 -4.1876 0.0000 24.0757 0.0000
# 6 0.0000 0.0000 0.0000 1.4530 0.0000 41.9482
#
#
#
# Elastic Compliance Matrix: (Units=1/GPa)
#
#
# Indices 1 2 3 4 5 6 
#
# 1 0.009096 -0.002851 -0.003712 0.000000 0.003665 0.000000
# 2 -0.002851 0.008168 -0.007127 0.000000 0.003137 0.000000
# 3 -0.003712 -0.007127 0.065267 0.000000 0.003065 0.000000
# 4 0.000000 0.000000 0.000000 0.031895 0.000000 -0.001105
# 5 0.003665 0.003137 0.003065 0.000000 0.047180 0.000000
# 6 0.000000 0.000000 0.000000 -0.001105 0.000000 0.023877
#
#
# Mechanical properties :
#
#
# Convention : Reuss Voigt Hill
#
# Bulk Modulus (GPa) = 18.13195 63.39879 40.76537
# Shear Modulus (GPa) = 21.62192 34.68436 28.15314
#
# Velocity S-wave (km/s) = 3.12473 3.95760 3.56557
# Velocity P-wave (km/s) = 4.60505 7.03653 5.94640
#
# Compressibility (1/GPa) = 0.05515127
#
# Stress axis : x y z
#
# Youngs Moduli (GPa) = 109.94277 122.42624 15.32158
#
# Poissons Ratio (x) = 0.34902 0.05688
# Poissons Ratio (y) = 0.31343 0.10919
# Poissons Ratio (z) = 0.40816 0.87249
#
# Static dielectric constant tensor:
#      x y z
#    x 4.537620 0.000000 -0.165360 
#    y 0.000000 4.259310 0.000000 
#    z -0.165360 0.000000 3.507060 
# 
# 
# High freq. dielectric constant tensor:
#      x y z
#    x 1.891080 0.000000 -0.002690 
#    y 0.000000 1.882940 0.000000 
#    z -0.002690 0.000000 1.827780 
# 
# From -- ./inp_files/46740.got.cif
#   From: 2010.03.12/outbox.cif.g09.slc.cpg/sg14_24_cif.got.tgz:46740.got - 2010.03.31 13:35:05.
