data_PCOD8124702
_publ_section_title
;
Structure prediction by ZEFSAII (Michael W. Deem and Ramdas Pophale) SiO2 
 PCOD8124702
Probable space group: P 21/C
;
_chemical_formula_sum "Si O2"
_cell_formula_units_Z 20
_cell_length_a 9.433100
_cell_length_b 15.267734
_cell_length_c 8.928237
_cell_angle_alpha 90.000000
_cell_angle_beta 131.496456
_cell_angle_gamma 90.000000
_cell_volume 963.107225
_symmetry_space_group_name_H-M "P 21/C"
_symmetry_group_IT_number 14
_symmetry_cell_setting 'monoclinic'
loop_
_space_group_symop_operation_xyz
x,y,z
-x,1/2+y,1/2-z
-x,-y,-z
x,1/2-y,1/2+z
loop_
_atom_site_type_symbol
_atom_site_label
_atom_site_fract_x
_atom_site_fract_y
_atom_site_fract_z
Si Si1 0.368962 0.224193 0.433917
Si Si2 0.386020 0.423385 0.500383
Si Si3 0.571345 0.424566 0.944873
Si Si4 0.977879 0.125320 0.671028
Si Si5 0.897889 0.739463 0.999990
O O1 0.432454 0.326160 0.470435
O O2 0.550952 0.166140 0.522836
O O3 0.277353 0.196724 0.529195
O O4 0.203617 0.202661 0.198407
O O5 0.500000 0.500000 0.500000
O O6 0.160197 0.437603 0.319906
O O7 0.436398 0.426070 0.708474
O O8 0.791420 0.433982 0.055027
O O9 0.500000 0.500000 0.000000
O O10 0.976784 0.167257 0.501735
O O11 0.979542 0.200545 0.801364
#
# Coordination Sequence:
#
# PCOD8124702 Si02
#       5
#     4   4   4   4   4
#     4  10  19  43  66  91 131 167 214 275 320 384
#     4  10  24  46  64  97 133 172 218 271 325 390
#     4  12  27  40  64 101 132 175 219 265 330 389
#     4  10  22  42  65  99 129 172 222 266 330 389
#     4   8  18  39  68  89 125 166 219 260 326 382
#
# _framework density 20.766119
#
# number of rings (size 3 to 8) (size 9 to 14) (size 15 to 20)
#    0.000    2.400    4.000    0.000    8.400    1.600 
#    0.000    0.000    0.000    0.000    0.000    0.000 
#    0.000    0.000    0.000    0.000    0.000    0.000 
#
# Total GULP energy -247778.096763 kJ/mol
# GULP energy per Si atom -12388.904838 kJ/mol
# Density = 2.071885 g / cm^3
# Si number density = 20.766119 Si / 1000 Ang^3
#
#
#
# Elastic Constant Matrix: (Units=GPa)
#
#
# Indices 1 2 3 4 5 6 
#
# 1 149.6521 71.4283 42.3277 0.0000 3.8011 0.0000
# 2 71.4283 109.7296 21.7704 0.0000 -0.5008 0.0000
# 3 42.3277 21.7704 52.1312 0.0000 -16.3024 0.0000
# 4 0.0000 0.0000 0.0000 13.9963 0.0000 -0.7395
# 5 3.8011 -0.5008 -16.3024 0.0000 41.5556 0.0000
# 6 0.0000 0.0000 0.0000 -0.7395 0.0000 53.5850
#
#
#
# Elastic Compliance Matrix: (Units=1/GPa)
#
#
# Indices 1 2 3 4 5 6 
#
# 1 0.012286 -0.006270 -0.008813 0.000000 -0.004657 0.000000
# 2 -0.006270 0.013246 -0.000241 0.000000 0.000639 0.000000
# 3 -0.008813 -0.000241 0.030422 0.000000 0.012738 0.000000
# 4 0.000000 0.000000 0.000000 0.071500 0.000000 0.000987
# 5 -0.004657 0.000639 0.012738 0.000000 0.029495 0.000000
# 6 0.000000 0.000000 0.000000 0.000987 0.000000 0.018676
#
#
# Mechanical properties :
#
#
# Convention : Reuss Voigt Hill
#
# Bulk Modulus (GPa) = 39.51725 64.72951 52.12338
# Shear Modulus (GPa) = 23.28750 33.55981 28.42366
#
# Velocity S-wave (km/s) = 3.35239 4.02442 3.70368
# Velocity P-wave (km/s) = 5.83573 7.26863 6.59123
#
# Compressibility (1/GPa) = 0.02530541
#
# Stress axis : x y z
#
# Youngs Moduli (GPa) = 81.39369 75.49702 32.87074
#
# Poissons Ratio (x) = 0.47338 0.28970
# Poissons Ratio (y) = 0.51036 0.00791
# Poissons Ratio (z) = 0.71735 0.01816
#
# Static dielectric constant tensor:
#      x y z
#    x 4.012470 0.000000 -0.355710 
#    y 0.000000 3.450360 0.000000 
#    z -0.355710 0.000000 3.678520 
# 
# 
# High freq. dielectric constant tensor:
#      x y z
#    x 1.820360 0.000000 -0.017360 
#    y 0.000000 1.785030 0.000000 
#    z -0.017360 0.000000 1.815990 
# 
# From -- ./inp_files/9242.got.cif
#   From: 2010.03.12/outbox.cif.g09.slc.cpg/sg14_5_cif.got.tgz:9242.got - 2010.03.31 13:35:05.
