data_PCOD8124891
_publ_section_title
;
Structure prediction by ZEFSAII (Michael W. Deem and Ramdas Pophale) SiO2 
 PCOD8124891
Probable space group: P 21/C
;
_chemical_formula_sum "Si O2"
_cell_formula_units_Z 20
_cell_length_a 11.843315
_cell_length_b 18.851653
_cell_length_c 4.977077
_cell_angle_alpha 90.000000
_cell_angle_beta 117.924937
_cell_angle_gamma 90.000000
_cell_volume 981.824922
_symmetry_space_group_name_H-M "P 21/C"
_symmetry_group_IT_number 14
_symmetry_cell_setting 'monoclinic'
loop_
_space_group_symop_operation_xyz
x,y,z
-x,1/2+y,1/2-z
-x,-y,-z
x,1/2-y,1/2+z
loop_
_atom_site_type_symbol
_atom_site_label
_atom_site_fract_x
_atom_site_fract_y
_atom_site_fract_z
Si Si1 0.621769 0.452353 0.079218
Si Si2 0.023995 0.064091 0.819672
Si Si3 0.786060 0.020702 0.263912
Si Si4 0.652336 0.296165 0.090002
Si Si5 0.950563 0.294314 0.455660
O O1 0.294248 0.558100 0.559243
O O2 0.582094 0.371730 0.956950
O O3 0.500000 0.500000 0.000000
O O4 0.698051 0.492538 0.926296
O O5 0.904809 0.070999 0.479669
O O6 0.037353 0.136966 0.996017
O O7 0.153446 0.051839 0.790605
O O8 0.000000 0.000000 0.000000
O O9 0.610703 0.260850 0.321699
O O10 0.802540 0.313774 0.248655
O O11 0.985445 0.269463 0.792501
#
# Coordination Sequence:
#
# PCOD8124891 Si02
#       5
#     4   4   4   4   4
#     4  12  24  41  61  90 123 158 211 254 289 356
#     4  11  22  38  65  88 129 156 195 250 300 383
#     4  11  23  37  62  91 118 159 204 236 313 344
#     4  10  20  35  58  85 118 151 192 253 308 352
#     4  10  22  33  56  89 123 152 190 249 311 357
#
# _framework density 20.370228999999998
#
# number of rings (size 3 to 8) (size 9 to 14) (size 15 to 20)
#    0.000    1.200    4.000    1.800   11.200    0.000 
#    0.000    0.000    0.000    7.200    0.000    0.000 
#    0.000    0.000    0.000    0.000    0.000    0.000 
#
# Total GULP energy -247986.581408 kJ/mol
# GULP energy per Si atom -12399.329070 kJ/mol
# Density = 2.032387 g / cm^3
# Si number density = 20.370229 Si / 1000 Ang^3
#
#
#
# Elastic Constant Matrix: (Units=GPa)
#
#
# Indices 1 2 3 4 5 6 
#
# 1 100.2429 49.3507 25.2872 0.0000 -20.4744 0.0000
# 2 49.3507 116.4595 11.3065 0.0000 0.1577 0.0000
# 3 25.2872 11.3065 83.2088 0.0000 -15.3857 0.0000
# 4 0.0000 0.0000 0.0000 19.9457 0.0000 -13.6477
# 5 -20.4744 0.1577 -15.3857 0.0000 24.9658 0.0000
# 6 0.0000 0.0000 0.0000 -13.6477 0.0000 33.8699
#
#
#
# Elastic Compliance Matrix: (Units=1/GPa)
#
#
# Indices 1 2 3 4 5 6 
#
# 1 0.016237 -0.006728 -0.001750 0.000000 0.012281 0.000000
# 2 -0.006728 0.011506 -0.000624 0.000000 -0.005974 0.000000
# 3 -0.001750 -0.000624 0.013961 0.000000 0.007173 0.000000
# 4 0.000000 0.000000 0.000000 0.069221 0.000000 0.027892
# 5 0.012281 -0.005974 0.007173 0.000000 0.054584 0.000000
# 6 0.000000 0.000000 0.000000 0.027892 0.000000 0.040764
#
#
# Mechanical properties :
#
#
# Convention : Reuss Voigt Hill
#
# Bulk Modulus (GPa) = 42.54854 52.42223 47.48539
# Shear Modulus (GPa) = 21.52302 30.02073 25.77187
#
# Velocity S-wave (km/s) = 3.25405 3.84312 3.56079
# Velocity P-wave (km/s) = 5.92042 6.74413 6.34566
#
# Compressibility (1/GPa) = 0.02350257
#
# Stress axis : x y z
#
# Youngs Moduli (GPa) = 61.58596 86.90993 71.62972
#
# Poissons Ratio (x) = 0.58469 0.12533
# Poissons Ratio (y) = 0.41432 0.04467
# Poissons Ratio (z) = 0.10776 0.05420
#
# Static dielectric constant tensor:
#      x y z
#    x 3.576550 0.000000 -0.347680 
#    y 0.000000 3.565690 0.000000 
#    z -0.347680 0.000000 3.851110 
# 
# 
# High freq. dielectric constant tensor:
#      x y z
#    x 1.760600 0.000000 -0.039560 
#    y 0.000000 1.788720 0.000000 
#    z -0.039560 0.000000 1.802670 
# 
# From -- ./inp_files/1050.got.cif
#   From: 2010.03.12/outbox.cif.g09.slc.cpg/sg14_1_cif.got.tgz:1050.got - 2010.03.31 13:35:05.
