data_PCOD8124522
_publ_section_title
;
Structure prediction by ZEFSAII (Michael W. Deem and Ramdas Pophale) SiO2 
 PCOD8124522
Probable space group: P 21/C
;
_chemical_formula_sum "Si O2"
_cell_formula_units_Z 28
_cell_length_a 8.708367
_cell_length_b 9.167064
_cell_length_c 27.448854
_cell_angle_alpha 90.000000
_cell_angle_beta 139.448352
_cell_angle_gamma 90.000000
_cell_volume 1424.602073
_symmetry_space_group_name_H-M "P 21/C"
_symmetry_group_IT_number 14
_symmetry_cell_setting 'monoclinic'
loop_
_space_group_symop_operation_xyz
x,y,z
-x,1/2+y,1/2-z
-x,-y,-z
x,1/2-y,1/2+z
loop_
_atom_site_type_symbol
_atom_site_label
_atom_site_fract_x
_atom_site_fract_y
_atom_site_fract_z
Si Si1 0.911617 0.334287 0.840074
Si Si2 0.233561 0.811437 0.543503
Si Si3 0.788067 0.946988 0.390032
Si Si4 0.577305 0.915414 0.952086
Si Si5 0.523538 0.669720 0.330503
Si Si6 0.873101 0.083129 0.906381
Si Si7 0.589699 0.783390 0.054777
O O1 0.917580 0.479195 0.875139
O O2 0.730464 0.367054 0.752979
O O3 0.834833 0.195649 0.853437
O O4 0.164750 0.300523 0.877322
O O5 0.225871 0.652181 0.567034
O O6 0.392732 0.813208 0.533850
O O7 0.968552 0.854091 0.466121
O O8 0.333726 0.928679 0.606200
O O9 0.586956 0.831895 0.326731
O O10 0.506807 0.838646 0.884870
O O11 0.409226 0.054795 0.921140
O O12 0.531323 0.795362 0.983277
O O13 0.853428 0.961166 0.021229
O O14 0.721608 0.559559 0.357728
#
# Coordination Sequence:
#
# PCOD8124522 Si02
#       7
#     4   4   4   4   4   4   4
#     4  10  24  39  55  87 129 156 183 243 309 364
#     4  10  19  38  62  86 116 149 197 251 292 340
#     4  10  22  37  60  88 113 152 201 245 293 345
#     4  10  20  36  65  90 108 150 208 252 276 342
#     4  12  20  38  63  90 114 155 204 245 289 353
#     4  10  19  38  67  88 110 154 207 251 284 339
#     4  10  21  39  57  86 120 154 190 240 299 349
#
# _framework density 19.654612
#
# number of rings (size 3 to 8) (size 9 to 14) (size 15 to 20)
#    0.000    1.714    2.857    2.143    2.000    0.571 
#    2.571    0.000    3.143    0.000    0.000    0.000 
#    0.000    0.000    0.000    0.000    0.000    0.000 
#
# Total GULP energy -347228.194579 kJ/mol
# GULP energy per Si atom -12401.006949 kJ/mol
# Density = 1.960988 g / cm^3
# Si number density = 19.654612 Si / 1000 Ang^3
#
#
#
# Elastic Constant Matrix: (Units=GPa)
#
#
# Indices 1 2 3 4 5 6 
#
# 1 112.6999 26.6309 27.1492 0.0000 -7.0027 0.0000
# 2 26.6309 86.5459 22.2622 0.0000 0.6479 0.0000
# 3 27.1492 22.2622 86.8407 0.0000 -8.2196 0.0000
# 4 0.0000 0.0000 0.0000 22.7090 0.0000 3.8454
# 5 -7.0027 0.6479 -8.2196 0.0000 12.9918 0.0000
# 6 0.0000 0.0000 0.0000 3.8454 0.0000 32.6566
#
#
#
# Elastic Compliance Matrix: (Units=1/GPa)
#
#
# Indices 1 2 3 4 5 6 
#
# 1 0.010280 -0.002649 -0.002125 0.000000 0.004329 0.000000
# 2 -0.002649 0.013149 -0.002914 0.000000 -0.003927 0.000000
# 3 -0.002125 -0.002914 0.013650 0.000000 0.007636 0.000000
# 4 0.000000 0.000000 0.000000 0.044931 0.000000 -0.005291
# 5 0.004329 -0.003927 0.007636 0.000000 0.084331 0.000000
# 6 0.000000 0.000000 0.000000 -0.005291 0.000000 0.031245
#
#
# Mechanical properties :
#
#
# Convention : Reuss Voigt Hill
#
# Bulk Modulus (GPa) = 46.07986 48.68566 47.38276
# Shear Modulus (GPa) = 22.70703 27.67443 25.19073
#
# Velocity S-wave (km/s) = 3.40266 3.75645 3.58393
# Velocity P-wave (km/s) = 6.23965 6.60598 6.42542
#
# Compressibility (1/GPa) = 0.02170145
#
# Stress axis : x y z
#
# Youngs Moduli (GPa) = 97.27664 76.05289 73.26264
#
# Poissons Ratio (x) = 0.20146 0.15569
# Poissons Ratio (y) = 0.25769 0.21351
# Poissons Ratio (z) = 0.20672 0.22164
#
# Static dielectric constant tensor:
#      x y z
#    x 3.595100 0.000000 -0.131520 
#    y 0.000000 3.610800 0.000000 
#    z -0.131520 0.000000 3.347240 
# 
# 
# High freq. dielectric constant tensor:
#      x y z
#    x 1.764110 0.000000 -0.011680 
#    y 0.000000 1.772720 0.000000 
#    z -0.011680 0.000000 1.743190 
# 
# From -- ./inp_files/64528.got.cif
#   From: 2010.03.12/outbox.cif.g09.slc.cpg/sg14_33_cif.got.tgz:64528.got - 2010.03.31 13:35:05.
