data_PCOD8124254
_publ_section_title
;
Structure prediction by ZEFSAII (Michael W. Deem and Ramdas Pophale) SiO2 
 PCOD8124254
Probable space group: P 21/C
;
_chemical_formula_sum "Si O2"
_cell_formula_units_Z 28
_cell_length_a 9.114307
_cell_length_b 17.081218
_cell_length_c 19.280125
_cell_angle_alpha 90.000000
_cell_angle_beta 25.769567
_cell_angle_gamma 90.000000
_cell_volume 1304.952638
_symmetry_space_group_name_H-M "P 21/C"
_symmetry_group_IT_number 14
_symmetry_cell_setting 'monoclinic'
loop_
_space_group_symop_operation_xyz
x,y,z
-x,1/2+y,1/2-z
-x,-y,-z
x,1/2-y,1/2+z
loop_
_atom_site_type_symbol
_atom_site_label
_atom_site_fract_x
_atom_site_fract_y
_atom_site_fract_z
Si Si1 0.337897 0.451618 0.869480
Si Si2 0.512059 0.350918 0.542459
Si Si3 0.525669 0.983876 0.837429
Si Si4 0.227211 0.692577 0.098501
Si Si5 0.316062 0.969078 0.511092
Si Si6 0.561575 0.195332 0.339417
Si Si7 0.304599 0.144595 0.979258
O O1 0.548975 0.451386 0.708396
O O2 0.290333 0.361724 0.916505
O O3 0.512881 0.496707 0.860020
O O4 0.000000 0.500000 0.000000
O O5 0.629552 0.422801 0.540642
O O6 0.757946 0.276297 0.445957
O O7 0.504884 0.375438 0.464965
O O8 0.151478 0.320617 0.718652
O O9 0.925195 0.996494 0.680113
O O10 0.323466 0.065155 0.927469
O O11 0.342114 0.624994 0.996415
O O12 0.465101 0.687308 0.065550
O O13 0.500000 0.000000 0.500000
O O14 0.481288 0.286444 0.358803
O O15 0.923427 0.170391 0.156032
#
# Coordination Sequence:
#
# PCOD8124254 Si02
#       7
#     4   4   4   4   4   4   4
#     4  10  22  39  60  87 127 160 204 254 321 375
#     4   9  19  37  57  89 122 157 204 256 305 360
#     4  10  22  39  59  90 128 164 200 261 317 368
#     4   9  18  35  58  88 116 155 208 253 297 360
#     4  10  19  35  65  88 120 164 212 254 309 369
#     4  10  21  38  61  91 119 159 209 256 309 370
#     4  10  22  38  66  90 124 162 212 257 310 373
#
# _framework density 21.456717000000001
#
# number of rings (size 3 to 8) (size 9 to 14) (size 15 to 20)
#    0.000    2.286    1.429    0.429    4.000    2.857 
#    5.143    1.429    0.000    0.000    0.000    0.000 
#    0.000    0.000    0.000    0.000    0.000    0.000 
#
# Total GULP energy -347015.009200 kJ/mol
# GULP energy per Si atom -12393.393186 kJ/mol
# Density = 2.140788 g / cm^3
# Si number density = 21.456717 Si / 1000 Ang^3
#
#
#
# Elastic Constant Matrix: (Units=GPa)
#
#
# Indices 1 2 3 4 5 6 
#
# 1 91.9064 53.8517 27.6454 0.0000 23.0357 0.0000
# 2 53.8517 188.1132 50.9059 0.0000 21.9657 0.0000
# 3 27.6454 50.9059 38.7536 0.0000 15.1780 0.0000
# 4 0.0000 0.0000 0.0000 39.8646 0.0000 5.8704
# 5 23.0357 21.9657 15.1780 0.0000 29.6675 0.0000
# 6 0.0000 0.0000 0.0000 5.8704 0.0000 37.7585
#
#
#
# Elastic Compliance Matrix: (Units=1/GPa)
#
#
# Indices 1 2 3 4 5 6 
#
# 1 0.015710 -0.002140 -0.005301 0.000000 -0.007901 0.000000
# 2 -0.002140 0.008551 -0.009851 0.000000 0.000370 0.000000
# 3 -0.005301 -0.009851 0.047593 0.000000 -0.012939 0.000000
# 4 0.000000 0.000000 0.000000 0.025673 0.000000 -0.003991
# 5 -0.007901 0.000370 -0.012939 0.000000 0.046188 0.000000
# 6 0.000000 0.000000 0.000000 -0.003991 0.000000 0.027105
#
#
# Mechanical properties :
#
#
# Convention : Reuss Voigt Hill
#
# Bulk Modulus (GPa) = 26.83108 64.84216 45.83662
# Shear Modulus (GPa) = 22.95408 33.88278 28.41843
#
# Velocity S-wave (km/s) = 3.27431 3.97813 3.64325
# Velocity P-wave (km/s) = 5.17945 7.16842 6.25352
#
# Compressibility (1/GPa) = 0.03727021
#
# Stress axis : x y z
#
# Youngs Moduli (GPa) = 63.65575 116.94300 21.01139
#
# Poissons Ratio (x) = 0.25027 0.11138
# Poissons Ratio (y) = 0.13623 0.20698
# Poissons Ratio (z) = 0.33742 1.15200
#
# Static dielectric constant tensor:
#      x y z
#    x 4.126640 0.000000 0.409690 
#    y 0.000000 4.300730 0.000000 
#    z 0.409690 0.000000 3.853790 
# 
# 
# High freq. dielectric constant tensor:
#      x y z
#    x 1.822970 0.000000 0.012960 
#    y 0.000000 1.854980 0.000000 
#    z 0.012960 0.000000 1.822210 
# 
# From -- ./inp_files/56143.got.cif
#   From: 2010.03.12/outbox.cif.g09.slc.cpg/sg14_29_cif.got.tgz:56143.got - 2010.03.31 13:35:05.
