data_PCOD8124201
_publ_section_title
;
Structure prediction by ZEFSAII (Michael W. Deem and Ramdas Pophale) SiO2 
 PCOD8124201
Probable space group: P 21/C
;
_chemical_formula_sum "Si O2"
_cell_formula_units_Z 28
_cell_length_a 14.799303
_cell_length_b 14.773727
_cell_length_c 17.713951
_cell_angle_alpha 90.000000
_cell_angle_beta 20.946951
_cell_angle_gamma 90.000000
_cell_volume 1384.608402
_symmetry_space_group_name_H-M "P 21/C"
_symmetry_group_IT_number 14
_symmetry_cell_setting 'monoclinic'
loop_
_space_group_symop_operation_xyz
x,y,z
-x,1/2+y,1/2-z
-x,-y,-z
x,1/2-y,1/2+z
loop_
_atom_site_type_symbol
_atom_site_label
_atom_site_fract_x
_atom_site_fract_y
_atom_site_fract_z
Si Si1 0.066483 0.565334 0.608282
Si Si2 0.466526 0.480136 0.939519
Si Si3 0.153241 0.674682 0.400996
Si Si4 0.391526 0.530094 0.488038
Si Si5 0.105961 0.045625 0.342509
Si Si6 0.618253 0.143787 0.733205
Si Si7 0.270193 0.110024 0.871131
O O1 0.047207 0.651489 0.567656
O O2 0.296289 0.581157 0.487619
O O3 0.103778 0.472073 0.533755
O O4 0.815584 0.555819 0.854549
O O5 0.661716 0.405469 0.762720
O O6 0.520253 0.570928 0.849983
O O7 0.500000 0.500000 0.000000
O O8 0.318076 0.765814 0.269830
O O9 0.919738 0.678726 0.523921
O O10 0.621553 0.588428 0.345289
O O11 0.165234 0.520930 0.725747
O O12 0.499044 0.430098 0.382768
O O13 0.889732 0.115064 0.484969
O O14 0.000000 0.000000 0.500000
O O15 0.419252 0.163051 0.820943
#
# Coordination Sequence:
#
# PCOD8124201 Si02
#       7
#     4   4   4   4   4   4   4
#     4  10  19  35  59  84 108 142 193 241 276 337
#     4  11  18  35  62  81 105 149 196 236 281 333
#     4  11  22  35  55  86 117 144 189 238 288 340
#     4   9  19  36  60  85 109 150 199 226 278 350
#     4   9  18  37  59  79 109 152 190 226 273 336
#     4  10  22  36  55  82 122 150 179 237 293 338
#     4  10  20  37  56  81 110 150 190 231 282 343
#
# _framework density 20.222325000000001
#
# number of rings (size 3 to 8) (size 9 to 14) (size 15 to 20)
#    0.000    2.000    2.857    1.714    0.000    3.429 
#    0.000    4.286    3.143    0.000    0.000    0.000 
#    0.000    0.000    0.000    0.000    0.000    0.000 
#
# Total GULP energy -346980.046258 kJ/mol
# GULP energy per Si atom -12392.144509 kJ/mol
# Density = 2.017630 g / cm^3
# Si number density = 20.222325 Si / 1000 Ang^3
#
#
#
# Elastic Constant Matrix: (Units=GPa)
#
#
# Indices 1 2 3 4 5 6 
#
# 1 124.2444 21.7811 34.1513 0.0000 -20.2514 0.0000
# 2 21.7811 42.7145 14.8438 0.0000 -11.0872 0.0000
# 3 34.1513 14.8438 91.6836 0.0000 -1.1919 0.0000
# 4 0.0000 0.0000 0.0000 22.1854 0.0000 -8.3301
# 5 -20.2514 -11.0872 -1.1919 0.0000 40.8683 0.0000
# 6 0.0000 0.0000 0.0000 -8.3301 0.0000 20.7269
#
#
#
# Elastic Compliance Matrix: (Units=1/GPa)
#
#
# Indices 1 2 3 4 5 6 
#
# 1 0.010131 -0.002971 -0.003239 0.000000 0.004120 0.000000
# 2 -0.002971 0.027605 -0.003286 0.000000 0.005921 0.000000
# 3 -0.003239 -0.003286 0.012618 0.000000 -0.002129 0.000000
# 4 0.000000 0.000000 0.000000 0.053086 0.000000 0.021335
# 5 0.004120 0.005921 -0.002129 0.000000 0.028055 0.000000
# 6 0.000000 0.000000 0.000000 0.021335 0.000000 0.056821
#
#
# Mechanical properties :
#
#
# Convention : Reuss Voigt Hill
#
# Bulk Modulus (GPa) = 31.88550 44.46612 38.17581
# Shear Modulus (GPa) = 22.96086 29.28053 26.12069
#
# Velocity S-wave (km/s) = 3.37326 3.80930 3.59789
# Velocity P-wave (km/s) = 5.56539 6.43304 6.01488
#
# Compressibility (1/GPa) = 0.03136222
#
# Stress axis : x y z
#
# Youngs Moduli (GPa) = 98.70258 36.22539 79.25214
#
# Poissons Ratio (x) = 0.10763 0.25672
# Poissons Ratio (y) = 0.29326 0.26039
# Poissons Ratio (z) = 0.31972 0.11902
#
# Static dielectric constant tensor:
#      x y z
#    x 3.784600 0.000000 -0.264380 
#    y 0.000000 3.215010 0.000000 
#    z -0.264380 0.000000 4.132470 
# 
# 
# High freq. dielectric constant tensor:
#      x y z
#    x 1.807930 0.000000 -0.007790 
#    y 0.000000 1.729550 0.000000 
#    z -0.007790 0.000000 1.805470 
# 
# From -- ./inp_files/59677.got.cif
#   From: 2010.03.12/outbox.cif.g09.slc.cpg/sg14_30_cif.got.tgz:59677.got - 2010.03.31 13:35:05.
