data_PCOD8124493
_publ_section_title
;
Structure prediction by ZEFSAII (Michael W. Deem and Ramdas Pophale) SiO2 
 PCOD8124493
Probable space group: P 21/C
;
_chemical_formula_sum "Si O2"
_cell_formula_units_Z 28
_cell_length_a 23.818161
_cell_length_b 12.476622
_cell_length_c 13.344759
_cell_angle_alpha 90.000000
_cell_angle_beta 158.511455
_cell_angle_gamma 90.000000
_cell_volume 1452.683230
_symmetry_space_group_name_H-M "P 21/C"
_symmetry_group_IT_number 14
_symmetry_cell_setting 'monoclinic'
loop_
_space_group_symop_operation_xyz
x,y,z
-x,1/2+y,1/2-z
-x,-y,-z
x,1/2-y,1/2+z
loop_
_atom_site_type_symbol
_atom_site_label
_atom_site_fract_x
_atom_site_fract_y
_atom_site_fract_z
Si Si1 0.751967 0.887748 0.692577
Si Si2 0.026533 0.753733 0.076471
Si Si3 0.770977 0.123389 0.734889
Si Si4 0.247974 0.886238 0.065763
Si Si5 0.555664 0.697961 0.359989
Si Si6 0.771947 0.893477 0.080118
Si Si7 0.591206 0.817877 0.606619
O O1 0.627606 0.808963 0.432742
O O2 0.696527 0.900036 0.716392
O O3 0.753176 0.007675 0.650448
O O4 0.919206 0.833384 0.962319
O O5 0.088952 0.815632 0.083359
O O6 0.164889 0.714816 0.376403
O O7 0.936363 0.650150 0.885973
O O8 0.810632 0.109397 0.917500
O O9 0.617532 0.191507 0.463936
O O10 0.429818 0.872018 0.363993
O O11 0.204986 0.992542 0.932891
O O12 0.659425 0.598991 0.491449
O O13 0.568594 0.707821 0.503885
O O14 0.686392 0.805200 0.866855
#
# Coordination Sequence:
#
# PCOD8124493 Si02
#       7
#     4   4   4   4   4   4   4
#     4   9  21  39  56  83 119 156 192 230 297 350
#     4  11  25  38  55  91 128 151 192 243 294 347
#     4  12  21  37  64  85 118 161 192 239 296 351
#     4  12  22  37  63  91 113 153 204 243 284 346
#     4   9  20  35  59  88 111 146 198 247 277 338
#     4  11  21  39  61  87 116 158 194 244 285 344
#     4  10  19  38  59  85 113 144 203 238 284 343
#
# _framework density 19.274677000000001
#
# number of rings (size 3 to 8) (size 9 to 14) (size 15 to 20)
#    0.857    0.571    4.286    2.143    2.000    0.000 
#    0.000    0.000    0.000   11.143    0.000    0.000 
#    0.000    0.000    0.000    0.000    0.000    0.000 
#
# Total GULP energy -346928.058037 kJ/mol
# GULP energy per Si atom -12390.287787 kJ/mol
# Density = 1.923081 g / cm^3
# Si number density = 19.274677 Si / 1000 Ang^3
#
#
#
# Elastic Constant Matrix: (Units=GPa)
#
#
# Indices 1 2 3 4 5 6 
#
# 1 80.1662 30.8796 27.4621 0.0000 15.3968 0.0000
# 2 30.8796 62.1033 20.0202 0.0000 1.4267 0.0000
# 3 27.4621 20.0202 74.7495 0.0000 11.6345 0.0000
# 4 0.0000 0.0000 0.0000 17.7241 0.0000 -5.0335
# 5 15.3968 1.4267 11.6345 0.0000 34.8829 0.0000
# 6 0.0000 0.0000 0.0000 -5.0335 0.0000 27.4939
#
#
#
# Elastic Compliance Matrix: (Units=1/GPa)
#
#
# Indices 1 2 3 4 5 6 
#
# 1 0.017828 -0.007581 -0.003526 0.000000 -0.006383 0.000000
# 2 -0.007581 0.020875 -0.003368 0.000000 0.003616 0.000000
# 3 -0.003526 -0.003368 0.016150 0.000000 -0.003693 0.000000
# 4 0.000000 0.000000 0.000000 0.059515 0.000000 0.010896
# 5 -0.006383 0.003616 -0.003693 0.000000 0.032568 0.000000
# 6 0.000000 0.000000 0.000000 0.010896 0.000000 0.038366
#
#
# Mechanical properties :
#
#
# Convention : Reuss Voigt Hill
#
# Bulk Modulus (GPa) = 38.60728 41.52698 40.06713
# Shear Modulus (GPa) = 22.43281 25.26399 23.84840
#
# Velocity S-wave (km/s) = 3.41522 3.62433 3.52133
# Velocity P-wave (km/s) = 5.96869 6.25348 6.11274
#
# Compressibility (1/GPa) = 0.02590185
#
# Stress axis : x y z
#
# Youngs Moduli (GPa) = 56.09097 47.90479 61.91849
#
# Poissons Ratio (x) = 0.36319 0.21831
# Poissons Ratio (y) = 0.42525 0.20857
# Poissons Ratio (z) = 0.19777 0.16136
#
# Static dielectric constant tensor:
#      x y z
#    x 3.667570 0.000000 0.102080 
#    y 0.000000 3.318980 0.000000 
#    z 0.102080 0.000000 3.394170 
# 
# 
# High freq. dielectric constant tensor:
#      x y z
#    x 1.755780 0.000000 0.015850 
#    y 0.000000 1.730690 0.000000 
#    z 0.015850 0.000000 1.745130 
# 
# From -- ./inp_files/51994.got.cif
#   From: 2010.03.12/outbox.cif.g09.slc.cpg/sg14_26_cif.got.tgz:51994.got - 2010.03.31 13:35:05.
