data_PCOD8124336
_publ_section_title
;
Structure prediction by ZEFSAII (Michael W. Deem and Ramdas Pophale) SiO2 
 PCOD8124336
Probable space group: P 21/C
;
_chemical_formula_sum "Si O2"
_cell_formula_units_Z 32
_cell_length_a 16.140368
_cell_length_b 17.974306
_cell_length_c 12.165225
_cell_angle_alpha 90.000000
_cell_angle_beta 153.203738
_cell_angle_gamma 90.000000
_cell_volume 1591.066077
_symmetry_space_group_name_H-M "P 21/C"
_symmetry_group_IT_number 14
_symmetry_cell_setting 'monoclinic'
loop_
_space_group_symop_operation_xyz
x,y,z
-x,1/2+y,1/2-z
-x,-y,-z
x,1/2-y,1/2+z
loop_
_atom_site_type_symbol
_atom_site_label
_atom_site_fract_x
_atom_site_fract_y
_atom_site_fract_z
Si Si1 0.712326 0.377284 0.616521
Si Si2 0.988535 0.809002 0.810439
Si Si3 0.116908 0.151151 0.544976
Si Si4 0.775463 0.813570 0.771626
Si Si5 0.394056 0.800334 0.224049
Si Si6 0.933641 0.640399 0.682979
Si Si7 0.652087 0.132640 0.295134
Si Si8 0.696532 0.949578 0.072794
O O1 0.595920 0.333839 0.386828
O O2 0.621456 0.364467 0.627154
O O3 0.722346 0.463157 0.595809
O O4 0.916588 0.343652 0.863451
O O5 0.899044 0.856190 0.605280
O O6 0.907339 0.838283 0.827939
O O7 0.935414 0.722844 0.734588
O O8 0.207917 0.821564 0.068274
O O9 0.221498 0.225669 0.703212
O O10 0.226617 0.079826 0.719197
O O11 0.564494 0.833468 0.494330
O O12 0.846461 0.860519 0.958784
O O13 0.404562 0.711733 0.220973
O O14 0.810072 0.586931 0.609315
O O15 0.141693 0.609516 0.927023
O O16 0.518349 0.071124 0.189822
#
# Coordination Sequence:
#
# PCOD8124336 Si02
#       8
#     4   4   4   4   4   4   4   4
#     4  11  24  40  63  94 127 152 198 262 308 357
#     4   9  19  35  57  89 118 155 209 254 294 349
#     4  10  19  36  61  88 121 157 194 252 307 352
#     4  11  20  38  62  89 121 162 207 244 299 360
#     4  10  22  38  60  90 120 160 202 254 300 355
#     4  10  22  36  58  87 124 162 201 252 300 360
#     4  11  22  39  61  91 121 156 207 248 302 361
#     4  12  22  40  61  94 124 161 196 252 320 355
#
# _framework density 20.112300999999999
#
# number of rings (size 3 to 8) (size 9 to 14) (size 15 to 20)
#    0.000    1.500    3.750    2.250    1.750    2.000 
#    0.000    0.625    0.000    3.750    0.000    0.000 
#    0.000    0.000    0.000    0.000    0.000    0.000 
#
# Total GULP energy -396918.165909 kJ/mol
# GULP energy per Si atom -12403.692685 kJ/mol
# Density = 2.006652 g / cm^3
# Si number density = 20.112301 Si / 1000 Ang^3
#
#
#
# Elastic Constant Matrix: (Units=GPa)
#
#
# Indices 1 2 3 4 5 6 
#
# 1 83.8007 37.2998 63.8150 0.0000 -6.7360 0.0000
# 2 37.2998 70.6295 32.0275 0.0000 -8.6478 0.0000
# 3 63.8150 32.0275 142.6564 0.0000 -1.0861 0.0000
# 4 0.0000 0.0000 0.0000 15.9195 0.0000 -6.2263
# 5 -6.7360 -8.6478 -1.0861 0.0000 26.4638 0.0000
# 6 0.0000 0.0000 0.0000 -6.2263 0.0000 19.0369
#
#
#
# Elastic Compliance Matrix: (Units=1/GPa)
#
#
# Indices 1 2 3 4 5 6 
#
# 1 0.021492 -0.007422 -0.007927 0.000000 0.002720 0.000000
# 2 -0.007422 0.019019 -0.000917 0.000000 0.004288 0.000000
# 3 -0.007927 -0.000917 0.010747 0.000000 -0.001876 0.000000
# 4 0.000000 0.000000 0.000000 0.072030 0.000000 0.023558
# 5 0.002720 0.004288 -0.001876 0.000000 0.039804 0.000000
# 6 0.000000 0.000000 0.000000 0.023558 0.000000 0.060235
#
#
# Mechanical properties :
#
#
# Convention : Reuss Voigt Hill
#
# Bulk Modulus (GPa) = 53.40271 62.59680 57.99975
# Shear Modulus (GPa) = 19.07658 23.21366 21.14512
#
# Velocity S-wave (km/s) = 3.08312 3.40104 3.24597
# Velocity P-wave (km/s) = 6.26770 6.82744 6.55355
#
# Compressibility (1/GPa) = 0.01872564
#
# Stress axis : x y z
#
# Youngs Moduli (GPa) = 46.52926 52.57883 93.04555
#
# Poissons Ratio (x) = 0.39026 0.73757
# Poissons Ratio (y) = 0.34536 0.08532
# Poissons Ratio (z) = 0.36883 0.04821
#
# Static dielectric constant tensor:
#      x y z
#    x 3.672850 0.000000 -0.025070 
#    y 0.000000 3.343470 0.000000 
#    z -0.025070 0.000000 3.885310 
# 
# 
# High freq. dielectric constant tensor:
#      x y z
#    x 1.787750 0.000000 0.006300 
#    y 0.000000 1.749400 0.000000 
#    z 0.006300 0.000000 1.799090 
# 
# From -- ./inp_files/33069.got.cif
#   From: 2010.03.12/outbox.cif.g09.slc.cpg/sg14_17_cif.got.tgz:33069.got - 2010.03.31 13:35:05.
