data_PCOD8124187
_publ_section_title
;
Structure prediction by ZEFSAII (Michael W. Deem and Ramdas Pophale) SiO2 
 PCOD8124187
Probable space group: P 21/C
;
_chemical_formula_sum "Si O2"
_cell_formula_units_Z 32
_cell_length_a 24.853719
_cell_length_b 7.731656
_cell_length_c 14.130705
_cell_angle_alpha 90.000000
_cell_angle_beta 150.251586
_cell_angle_gamma 90.000000
_cell_volume 1347.342183
_symmetry_space_group_name_H-M "P 21/C"
_symmetry_group_IT_number 14
_symmetry_cell_setting 'monoclinic'
loop_
_space_group_symop_operation_xyz
x,y,z
-x,1/2+y,1/2-z
-x,-y,-z
x,1/2-y,1/2+z
loop_
_atom_site_type_symbol
_atom_site_label
_atom_site_fract_x
_atom_site_fract_y
_atom_site_fract_z
Si Si1 0.652972 0.868631 0.222279
Si Si2 0.090405 0.408041 0.461364
Si Si3 0.081920 0.712936 0.952837
Si Si4 0.644019 0.694801 0.406131
Si Si5 0.718307 0.391000 0.292428
Si Si6 0.569492 0.289635 0.689061
Si Si7 0.177296 0.098667 0.682073
Si Si8 0.580208 0.050230 0.401673
O O1 0.678348 0.759584 0.355336
O O2 0.756911 0.894939 0.315756
O O3 0.606540 0.057072 0.175882
O O4 0.560050 0.763528 0.021278
O O5 0.052520 0.593984 0.447709
O O6 0.212850 0.429680 0.602845
O O7 0.096769 0.265560 0.554455
O O8 0.011354 0.353650 0.257452
O O9 0.194843 0.733401 0.067087
O O10 0.102661 0.574410 0.068743
O O11 0.748851 0.602743 0.612155
O O12 0.544701 0.557731 0.253368
O O13 0.607088 0.854390 0.415620
O O14 0.635367 0.381172 0.254164
O O15 0.656071 0.373105 0.098224
O O16 0.600242 0.325028 0.843473
#
# Coordination Sequence:
#
# PCOD8124187 Si02
#       8
#     4   4   4   4   4   4   4   4
#     4  10  20  34  58  87 121 165 204 235 297 371
#     4  10  21  38  64  93 112 155 211 252 304 366
#     4  10  21  37  67  89 114 156 208 253 308 356
#     4  11  23  36  57  87 124 163 202 242 298 365
#     4  10  20  38  57  90 121 153 205 245 293 367
#     4  10  19  35  58  83 125 167 198 241 299 358
#     4  12  20  40  63  88 124 163 196 254 306 348
#     4  11  22  36  56  86 125 163 201 244 298 362
#
# _framework density 23.750461000000001
#
# number of rings (size 3 to 8) (size 9 to 14) (size 15 to 20)
#    0.750    0.750    6.250    0.000    1.750    0.000 
#    2.250    1.875    0.000    9.000    0.000    0.000 
#    0.000    0.000    0.000    0.000    0.000    0.000 
#
# Total GULP energy -396624.253209 kJ/mol
# GULP energy per Si atom -12394.507913 kJ/mol
# Density = 2.369640 g / cm^3
# Si number density = 23.750461 Si / 1000 Ang^3
#
#
#
# Elastic Constant Matrix: (Units=GPa)
#
#
# Indices 1 2 3 4 5 6 
#
# 1 48.5271 -5.8351 17.0157 0.0000 -17.6096 0.0000
# 2 -5.8351 80.0930 14.8207 0.0000 5.6748 0.0000
# 3 17.0157 14.8207 164.3926 0.0000 -5.0854 0.0000
# 4 0.0000 0.0000 0.0000 33.9839 0.0000 10.1839
# 5 -17.6096 5.6748 -5.0854 0.0000 15.2155 0.0000
# 6 0.0000 0.0000 0.0000 10.1839 0.0000 20.8213
#
#
#
# Elastic Compliance Matrix: (Units=1/GPa)
#
#
# Indices 1 2 3 4 5 6 
#
# 1 0.036519 0.000197 -0.002519 0.000000 0.041350 0.000000
# 2 0.000197 0.013114 -0.001361 0.000000 -0.005118 0.000000
# 3 -0.002519 -0.001361 0.006459 0.000000 -0.000249 0.000000
# 4 0.000000 0.000000 0.000000 0.034479 0.000000 -0.016864
# 5 0.041350 -0.005118 -0.000249 0.000000 0.115405 0.000000
# 6 0.000000 0.000000 0.000000 -0.016864 0.000000 0.056276
#
#
# Mechanical properties :
#
#
# Convention : Reuss Voigt Hill
#
# Bulk Modulus (GPa) = 20.52267 38.33503 29.42885
# Shear Modulus (GPa) = 17.49106 31.80489 24.64798
#
# Velocity S-wave (km/s) = 2.71671 3.66338 3.22497
# Velocity P-wave (km/s) = 4.30121 5.83692 5.12689
#
# Compressibility (1/GPa) = 0.04872661
#
# Stress axis : x y z
#
# Youngs Moduli (GPa) = 27.38294 76.25248 154.82995
#
# Poissons Ratio (x) = -0.01501 0.38995
# Poissons Ratio (y) = -0.00539 0.21073
# Poissons Ratio (z) = 0.06897 0.10378
#
# Static dielectric constant tensor:
#      x y z
#    x 3.861910 0.000000 0.130750 
#    y 0.000000 4.589380 0.000000 
#    z 0.130750 0.000000 4.241470 
# 
# 
# High freq. dielectric constant tensor:
#      x y z
#    x 1.899580 0.000000 0.002920 
#    y 0.000000 1.964620 0.000000 
#    z 0.002920 0.000000 1.945710 
# 
# From -- ./inp_files/52254.got.cif
#   From: 2010.03.12/outbox.cif.g09.slc.cpg/sg14_27_cif.got.tgz:52254.got - 2010.03.31 13:35:05.
