data_PCOD8124318
_publ_section_title
;
Structure prediction by ZEFSAII (Michael W. Deem and Ramdas Pophale) SiO2 
 PCOD8124318
Probable space group: P 21/C
;
_chemical_formula_sum "Si O2"
_cell_formula_units_Z 20
_cell_length_a 11.687236
_cell_length_b 8.751367
_cell_length_c 8.999355
_cell_angle_alpha 90.000000
_cell_angle_beta 109.051485
_cell_angle_gamma 90.000000
_cell_volume 870.030725
_symmetry_space_group_name_H-M "P 21/C"
_symmetry_group_IT_number 14
_symmetry_cell_setting 'monoclinic'
loop_
_space_group_symop_operation_xyz
x,y,z
-x,1/2+y,1/2-z
-x,-y,-z
x,1/2-y,1/2+z
loop_
_atom_site_type_symbol
_atom_site_label
_atom_site_fract_x
_atom_site_fract_y
_atom_site_fract_z
Si Si1 0.580618 0.076758 0.241173
Si Si2 0.823496 0.552220 0.914228
Si Si3 0.057270 0.237426 0.795091
Si Si4 0.628691 0.365576 0.431444
Si Si5 0.893411 0.200139 0.976082
O O1 0.562833 0.212579 0.349824
O O2 0.677390 0.957255 0.348709
O O3 0.448316 0.008097 0.159288
O O4 0.636076 0.142260 0.111824
O O5 0.864420 0.627173 0.776197
O O6 0.883300 0.385191 0.956886
O O7 0.855848 0.654006 0.070922
O O8 0.972799 0.138183 0.871787
O O9 0.965210 0.338398 0.657041
O O10 0.763403 0.381571 0.421640
#
# Coordination Sequence:
#
# PCOD8124318 Si02
#       5
#     4   4   4   4   4
#     4  10  23  44  64  91 123 158 206 254 306 361
#     4  10  22  39  58  87 125 158 203 254 302 363
#     4  10  19  36  60  85 120 160 199 247 296 356
#     4  10  22  42  67  90 122 161 203 255 303 364
#     4  10  20  39  60  87 122 162 202 246 305 364
#
# _framework density 22.987693
#
# number of rings (size 3 to 8) (size 9 to 14) (size 15 to 20)
#    0.000    2.000    0.000    4.800    0.000    4.000 
#    0.000   39.000    0.000    0.000    0.000    0.000 
#    0.000    0.000    0.000    0.000    0.000    0.000 
#
# Total GULP energy -248010.387540 kJ/mol
# GULP energy per Si atom -12400.519377 kJ/mol
# Density = 2.293537 g / cm^3
# Si number density = 22.987693 Si / 1000 Ang^3
#
#
#
# Elastic Constant Matrix: (Units=GPa)
#
#
# Indices 1 2 3 4 5 6 
#
# 1 43.0134 19.5704 39.0216 0.0000 -0.9133 0.0000
# 2 19.5704 58.3909 39.5156 0.0000 -0.1671 0.0000
# 3 39.0216 39.5156 147.0549 0.0000 2.4979 0.0000
# 4 0.0000 0.0000 0.0000 34.0027 0.0000 2.8067
# 5 -0.9133 -0.1671 2.4979 0.0000 24.7724 0.0000
# 6 0.0000 0.0000 0.0000 2.8067 0.0000 34.3852
#
#
#
# Elastic Compliance Matrix: (Units=1/GPa)
#
#
# Indices 1 2 3 4 5 6 
#
# 1 0.032415 -0.006132 -0.006985 0.000000 0.001858 0.000000
# 2 -0.006132 0.022105 -0.004319 0.000000 0.000359 0.000000
# 3 -0.006985 -0.004319 0.009836 0.000000 -0.001278 0.000000
# 4 0.000000 0.000000 0.000000 0.029609 0.000000 -0.002417
# 5 0.001858 0.000359 -0.001278 0.000000 0.040567 0.000000
# 6 0.000000 0.000000 0.000000 -0.002417 0.000000 0.029280
#
#
# Mechanical properties :
#
#
# Convention : Reuss Voigt Hill
#
# Bulk Modulus (GPa) = 33.91669 49.40828 41.66248
# Shear Modulus (GPa) = 23.97951 28.65551 26.31751
#
# Velocity S-wave (km/s) = 3.23328 3.53449 3.38724
# Velocity P-wave (km/s) = 5.35958 6.18036 5.78455
#
# Compressibility (1/GPa) = 0.02948401
#
# Stress axis : x y z
#
# Youngs Moduli (GPa) = 30.85000 45.23893 101.66713
#
# Poissons Ratio (x) = 0.27739 0.71018
# Poissons Ratio (y) = 0.18916 0.43909
# Poissons Ratio (z) = 0.21550 0.19538
#
# Static dielectric constant tensor:
#      x y z
#    x 4.093130 0.000000 0.126000 
#    y 0.000000 3.833590 0.000000 
#    z 0.126000 0.000000 4.416700 
# 
# 
# High freq. dielectric constant tensor:
#      x y z
#    x 1.907300 0.000000 0.011370 
#    y 0.000000 1.891120 0.000000 
#    z 0.011370 0.000000 1.930130 
# 
# From -- ./inp_files/11761.got.cif
#   From: 2010.03.12/outbox.cif.g09.slc.cpg/sg14_6_cif.got.tgz:11761.got - 2010.03.31 13:35:05.
