data_PCOD8124837
_publ_section_title
;
Structure prediction by ZEFSAII (Michael W. Deem and Ramdas Pophale) SiO2 
 PCOD8124837
Probable space group: P 21/C
;
_chemical_formula_sum "Si O2"
_cell_formula_units_Z 32
_cell_length_a 9.303504
_cell_length_b 22.074097
_cell_length_c 16.100863
_cell_angle_alpha 90.000000
_cell_angle_beta 29.664725
_cell_angle_gamma 90.000000
_cell_volume 1636.503652
_symmetry_space_group_name_H-M "P 21/C"
_symmetry_group_IT_number 14
_symmetry_cell_setting 'monoclinic'
loop_
_space_group_symop_operation_xyz
x,y,z
-x,1/2+y,1/2-z
-x,-y,-z
x,1/2-y,1/2+z
loop_
_atom_site_type_symbol
_atom_site_label
_atom_site_fract_x
_atom_site_fract_y
_atom_site_fract_z
Si Si1 0.019559 0.537881 0.806861
Si Si2 0.964627 0.744706 0.519373
Si Si3 0.456129 0.825056 0.191508
Si Si4 0.488321 0.069355 0.325776
Si Si5 0.486286 0.968499 0.197243
Si Si6 0.484389 0.672072 0.324936
Si Si7 0.483268 0.627618 0.510467
Si Si8 0.020276 0.449445 0.667421
O O1 0.213532 0.505609 0.781194
O O2 0.226986 0.579432 0.647568
O O3 0.882886 0.491558 0.808645
O O4 0.772613 0.575589 0.977839
O O5 0.762555 0.705845 0.559467
O O6 0.744822 0.779922 0.689823
O O7 0.173989 0.791645 0.367871
O O8 0.166596 0.700132 0.470900
O O9 0.457950 0.895370 0.221605
O O10 0.424346 0.819785 0.107684
O O11 0.457051 0.119093 0.270345
O O12 0.772347 0.081982 0.237506
O O13 0.494091 0.001923 0.282263
O O14 0.775195 0.985691 0.000461
O O15 0.488805 0.649161 0.415088
O O16 0.796296 0.600912 0.376877
#
# Coordination Sequence:
#
# PCOD8124837 Si02
#       8
#     4   4   4   4   4   4   4   4
#     4  10  20  35  53  83 119 154 185 226 283 344
#     4  10  22  40  62  82 114 148 194 238 274 336
#     4   9  20  39  59  85 113 150 189 232 285 331
#     4  12  22  35  60  89 116 149 190 237 288 339
#     4  10  20  36  59  85 115 152 188 232 287 344
#     4  11  22  40  60  86 112 151 192 234 284 336
#     4  10  21  38  59  79 114 152 190 231 283 342
#     4  10  20  35  53  83 119 154 185 226 283 344
#
# _framework density 19.553882000000002
#
# number of rings (size 3 to 8) (size 9 to 14) (size 15 to 20)
#    0.000    2.000    0.000    7.125    0.000    3.000 
#    0.000    2.500    0.000    0.000    0.000    0.000 
#    0.000    0.000    0.000    0.000    0.000    0.000 
#
# Total GULP energy -396618.130345 kJ/mol
# GULP energy per Si atom -12394.316573 kJ/mol
# Density = 1.950938 g / cm^3
# Si number density = 19.553882 Si / 1000 Ang^3
#
#
#
# Elastic Constant Matrix: (Units=GPa)
#
#
# Indices 1 2 3 4 5 6 
#
# 1 86.2828 21.4766 29.5921 0.0000 7.9373 0.0000
# 2 21.4766 64.2633 5.6986 0.0000 7.2609 0.0000
# 3 29.5921 5.6986 58.4573 0.0000 -8.8244 0.0000
# 4 0.0000 0.0000 0.0000 15.8584 0.0000 1.9176
# 5 7.9373 7.2609 -8.8244 0.0000 32.5363 0.0000
# 6 0.0000 0.0000 0.0000 1.9176 0.0000 29.1995
#
#
#
# Elastic Compliance Matrix: (Units=1/GPa)
#
#
# Indices 1 2 3 4 5 6 
#
# 1 0.015990 -0.003988 -0.008508 0.000000 -0.005318 0.000000
# 2 -0.003988 0.017230 -0.000098 0.000000 -0.002899 0.000000
# 3 -0.008508 -0.000098 0.022668 0.000000 0.008245 0.000000
# 4 0.000000 0.000000 0.000000 0.063563 0.000000 -0.004174
# 5 -0.005318 -0.002899 0.008245 0.000000 0.034916 0.000000
# 6 0.000000 0.000000 0.000000 -0.004174 0.000000 0.034521
#
#
# Mechanical properties :
#
#
# Convention : Reuss Voigt Hill
#
# Bulk Modulus (GPa) = 32.57559 35.83757 34.20658
# Shear Modulus (GPa) = 22.29056 25.66791 23.97924
#
# Velocity S-wave (km/s) = 3.37999 3.62702 3.50568
# Velocity P-wave (km/s) = 5.65048 5.99231 5.82390
#
# Compressibility (1/GPa) = 0.03069783
#
# Stress axis : x y z
#
# Youngs Moduli (GPa) = 62.53968 58.03786 44.11536
#
# Poissons Ratio (x) = 0.23148 0.37535
# Poissons Ratio (y) = 0.24943 0.00434
# Poissons Ratio (z) = 0.53211 0.00570
#
# Static dielectric constant tensor:
#      x y z
#    x 3.658860 0.000000 -0.084420 
#    y 0.000000 3.507310 0.000000 
#    z -0.084420 0.000000 3.678570 
# 
# 
# High freq. dielectric constant tensor:
#      x y z
#    x 1.767160 0.000000 -0.004890 
#    y 0.000000 1.746260 0.000000 
#    z -0.004890 0.000000 1.770800 
# 
# From -- ./inp_files/42212.got.cif
#   From: 2010.03.12/outbox.cif.g09.slc.cpg/sg14_22_cif.got.tgz:42212.got - 2010.03.31 13:35:05.
