data_PCOD8124498
_publ_section_title
;
Structure prediction by ZEFSAII (Michael W. Deem and Ramdas Pophale) SiO2 
 PCOD8124498
Probable space group: P 21/C
;
_chemical_formula_sum "Si O2"
_cell_formula_units_Z 20
_cell_length_a 8.961775
_cell_length_b 9.425503
_cell_length_c 15.040125
_cell_angle_alpha 90.000000
_cell_angle_beta 53.106173
_cell_angle_gamma 90.000000
_cell_volume 1016.023866
_symmetry_space_group_name_H-M "P 21/C"
_symmetry_group_IT_number 14
_symmetry_cell_setting 'monoclinic'
loop_
_space_group_symop_operation_xyz
x,y,z
-x,1/2+y,1/2-z
-x,-y,-z
x,1/2-y,1/2+z
loop_
_atom_site_type_symbol
_atom_site_label
_atom_site_fract_x
_atom_site_fract_y
_atom_site_fract_z
Si Si1 0.204854 0.374704 0.496324
Si Si2 0.597731 0.278321 0.318648
Si Si3 0.857777 0.203971 0.371299
Si Si4 0.191688 0.683529 0.424730
Si Si5 0.853417 0.494497 0.300592
O O1 0.375140 0.274095 0.406564
O O2 0.219925 0.519285 0.436087
O O3 0.218185 0.400303 0.597073
O O4 0.013683 0.292086 0.543412
O O5 0.688089 0.175890 0.362409
O O6 0.651526 0.226273 0.201772
O O7 0.676058 0.439406 0.306684
O O8 0.782204 0.216046 0.498743
O O9 0.953057 0.356417 0.310765
O O10 0.003963 0.075870 0.314424
#
# Coordination Sequence:
#
# PCOD8124498 Si02
#       5
#     4   4   4   4   4
#     4  10  19  38  60  81 114 159 190 234 285 354
#     4  10  21  36  59  86 114 150 195 237 280 344
#     4   9  20  36  60  84 115 155 191 235 288 340
#     4  10  21  36  59  86 115 148 198 235 288 338
#     4   9  18  36  60  82 113 152 190 233 286 339
#
# _framework density 19.684576
#
# number of rings (size 3 to 8) (size 9 to 14) (size 15 to 20)
#    1.200    1.200    2.000    0.600    0.000    2.400 
#    0.000    2.000    0.000    6.000    0.000    0.000 
#    0.000    0.000    0.000    0.000    0.000    0.000 
#
# Total GULP energy -247899.504600 kJ/mol
# GULP energy per Si atom -12394.975230 kJ/mol
# Density = 1.963977 g / cm^3
# Si number density = 19.684576 Si / 1000 Ang^3
#
#
#
# Elastic Constant Matrix: (Units=GPa)
#
#
# Indices 1 2 3 4 5 6 
#
# 1 37.7526 -0.6182 22.1407 0.0000 -4.5618 0.0000
# 2 -0.6182 17.4547 1.9951 0.0000 0.6070 0.0000
# 3 22.1407 1.9951 64.6911 0.0000 12.5154 0.0000
# 4 0.0000 0.0000 0.0000 32.8673 0.0000 -7.2605
# 5 -4.5618 0.6070 12.5154 0.0000 40.8161 0.0000
# 6 0.0000 0.0000 0.0000 -7.2605 0.0000 15.5174
#
#
#
# Elastic Compliance Matrix: (Units=1/GPa)
#
#
# Indices 1 2 3 4 5 6 
#
# 1 0.035654 0.002563 -0.013868 0.000000 0.008199 0.000000
# 2 0.002563 0.057682 -0.002706 0.000000 0.000258 0.000000
# 3 -0.013868 -0.002706 0.021878 0.000000 -0.008218 0.000000
# 4 0.000000 0.000000 0.000000 0.033933 0.000000 0.015877
# 5 0.008199 0.000258 -0.008218 0.000000 0.027933 0.000000
# 6 0.000000 0.000000 0.000000 0.015877 0.000000 0.071872
#
#
# Mechanical properties :
#
#
# Convention : Reuss Voigt Hill
#
# Bulk Modulus (GPa) = 11.46897 18.54818 15.00858
# Shear Modulus (GPa) = 16.33783 24.26555 20.30169
#
# Velocity S-wave (km/s) = 2.88406 3.51482 3.21495
# Velocity P-wave (km/s) = 4.11454 5.09069 4.62842
#
# Compressibility (1/GPa) = 0.08719177
#
# Stress axis : x y z
#
# Youngs Moduli (GPa) = 28.04728 17.33633 45.70844
#
# Poissons Ratio (x) = -0.04443 0.63388
# Poissons Ratio (y) = -0.07188 0.12369
# Poissons Ratio (z) = 0.38896 0.04691
#
# Static dielectric constant tensor:
#      x y z
#    x 3.479450 0.000000 0.162800 
#    y 0.000000 3.222190 0.000000 
#    z 0.162800 0.000000 3.394210 
# 
# 
# High freq. dielectric constant tensor:
#      x y z
#    x 1.754450 0.000000 0.014490 
#    y 0.000000 1.733540 0.000000 
#    z 0.014490 0.000000 1.765940 
# 
# From -- ./inp_files/23555.got.cif
#   From: 2010.03.12/outbox.cif.g09.slc.cpg/sg14_12_cif.got.tgz:23555.got - 2010.03.31 13:35:05.
