data_PCOD8124537
_publ_section_title
;
Structure prediction by ZEFSAII (Michael W. Deem and Ramdas Pophale) SiO2 
 PCOD8124537
Probable space group: P 21/C
;
_chemical_formula_sum "Si O2"
_cell_formula_units_Z 28
_cell_length_a 8.899756
_cell_length_b 17.303746
_cell_length_c 15.417044
_cell_angle_alpha 90.000000
_cell_angle_beta 36.101049
_cell_angle_gamma 90.000000
_cell_volume 1398.911693
_symmetry_space_group_name_H-M "P 21/C"
_symmetry_group_IT_number 14
_symmetry_cell_setting 'monoclinic'
loop_
_space_group_symop_operation_xyz
x,y,z
-x,1/2+y,1/2-z
-x,-y,-z
x,1/2-y,1/2+z
loop_
_atom_site_type_symbol
_atom_site_label
_atom_site_fract_x
_atom_site_fract_y
_atom_site_fract_z
Si Si1 0.110459 0.035982 0.705936
Si Si2 0.488520 0.359574 0.751906
Si Si3 0.442547 0.609522 0.084424
Si Si4 0.016890 0.923250 0.051705
Si Si5 0.060709 0.044025 0.383189
Si Si6 0.289927 0.284287 0.267258
Si Si7 0.809535 0.305659 0.934676
O O1 0.297810 0.107819 0.595106
O O2 0.300776 0.971375 0.651023
O O3 0.947614 0.011813 0.697085
O O4 0.927012 0.055813 0.873245
O O5 0.468127 0.378927 0.860882
O O6 0.776284 0.363544 0.582685
O O7 0.344339 0.422375 0.759425
O O8 0.350448 0.276367 0.815182
O O9 0.244909 0.673969 0.141182
O O10 0.756588 0.870958 0.173170
O O11 0.000000 0.000000 0.000000
O O12 0.866478 0.115278 0.460759
O O13 0.000000 0.000000 0.500000
O O14 0.541389 0.273586 0.092639
O O15 0.035924 0.256666 0.333529
#
# Coordination Sequence:
#
# PCOD8124537 Si02
#       7
#     4   4   4   4   4   4   4
#     4  10  20  36  64  94 125 166 214 262 325 389
#     4  11  23  41  64  95 131 170 216 272 327 391
#     4  10  19  38  63  92 122 170 221 254 321 401
#     4  12  24  40  67  94 132 169 220 272 334 379
#     4  10  21  37  64  95 127 163 216 264 321 394
#     4  11  23  44  62  91 131 175 215 272 335 385
#     4  10  22  40  65  87 129 173 214 267 324 392
#
# _framework density 20.015559
#
# number of rings (size 3 to 8) (size 9 to 14) (size 15 to 20)
#    0.000    1.429    5.714    0.000    2.000    0.571 
#    2.571    1.429    0.000    0.000    0.000    0.000 
#    0.000    0.000    0.000    0.000    0.000    0.000 
#
# Total GULP energy -346925.624219 kJ/mol
# GULP energy per Si atom -12390.200865 kJ/mol
# Density = 1.997000 g / cm^3
# Si number density = 20.015559 Si / 1000 Ang^3
#
#
#
# Elastic Constant Matrix: (Units=GPa)
#
#
# Indices 1 2 3 4 5 6 
#
# 1 119.7338 39.0571 35.1337 0.0000 13.6506 0.0000
# 2 39.0571 71.5990 23.2415 0.0000 3.5259 0.0000
# 3 35.1337 23.2415 97.3920 0.0000 3.0706 0.0000
# 4 0.0000 0.0000 0.0000 26.8203 0.0000 -3.3485
# 5 13.6506 3.5259 3.0706 0.0000 39.1330 0.0000
# 6 0.0000 0.0000 0.0000 -3.3485 0.0000 19.2785
#
#
#
# Elastic Compliance Matrix: (Units=1/GPa)
#
#
# Indices 1 2 3 4 5 6 
#
# 1 0.011165 -0.005048 -0.002721 0.000000 -0.003226 0.000000
# 2 -0.005048 0.017468 -0.002359 0.000000 0.000372 0.000000
# 3 -0.002721 -0.002359 0.011805 0.000000 0.000236 0.000000
# 4 0.000000 0.000000 0.000000 0.038112 0.000000 0.006620
# 5 -0.003226 0.000372 0.000236 0.000000 0.026627 0.000000
# 6 0.000000 0.000000 0.000000 0.006620 0.000000 0.053021
#
#
# Mechanical properties :
#
#
# Convention : Reuss Voigt Hill
#
# Bulk Modulus (GPa) = 49.55252 53.73217 51.64235
# Shear Modulus (GPa) = 27.00048 29.79918 28.39983
#
# Velocity S-wave (km/s) = 3.67682 3.86268 3.77090
# Velocity P-wave (km/s) = 6.54493 6.84085 6.69453
#
# Compressibility (1/GPa) = 0.02018061
#
# Stress axis : x y z
#
# Youngs Moduli (GPa) = 89.56630 57.24774 84.70970
#
# Poissons Ratio (x) = 0.28900 0.23052
# Poissons Ratio (y) = 0.45215 0.19984
# Poissons Ratio (z) = 0.24373 0.13506
#
# Static dielectric constant tensor:
#      x y z
#    x 3.732770 0.000000 -0.050250 
#    y 0.000000 3.865260 0.000000 
#    z -0.050250 0.000000 3.581540 
# 
# 
# High freq. dielectric constant tensor:
#      x y z
#    x 1.779200 0.000000 -0.000940 
#    y 0.000000 1.782160 0.000000 
#    z -0.000940 0.000000 1.772010 
# 
# From -- ./inp_files/26665.got.cif
#   From: 2010.03.12/outbox.cif.g09.slc.cpg/sg14_14_cif.got.tgz:26665.got - 2010.03.31 13:35:05.
