data_PCOD8124212
_publ_section_title
;
Structure prediction by ZEFSAII (Michael W. Deem and Ramdas Pophale) SiO2 
 PCOD8124212
Probable space group: P 21/C
;
_chemical_formula_sum "Si O2"
_cell_formula_units_Z 28
_cell_length_a 10.500192
_cell_length_b 10.870699
_cell_length_c 22.275948
_cell_angle_alpha 90.000000
_cell_angle_beta 145.322282
_cell_angle_gamma 90.000000
_cell_volume 1446.679919
_symmetry_space_group_name_H-M "P 21/C"
_symmetry_group_IT_number 14
_symmetry_cell_setting 'monoclinic'
loop_
_space_group_symop_operation_xyz
x,y,z
-x,1/2+y,1/2-z
-x,-y,-z
x,1/2-y,1/2+z
loop_
_atom_site_type_symbol
_atom_site_label
_atom_site_fract_x
_atom_site_fract_y
_atom_site_fract_z
Si Si1 0.292597 0.759042 0.912139
Si Si2 0.378040 0.158557 0.371950
Si Si3 0.140130 0.920569 0.633350
Si Si4 0.658413 0.981031 0.404366
Si Si5 0.256462 0.809044 0.260658
Si Si6 0.953004 0.492874 0.694044
Si Si7 0.143480 0.374145 0.229521
O O1 0.304308 0.747900 0.844748
O O2 0.215888 0.896251 0.902681
O O3 0.115710 0.664361 0.871562
O O4 0.533082 0.726857 0.033747
O O5 0.308653 0.256446 0.293447
O O6 0.158237 0.081557 0.305201
O O7 0.568855 0.069422 0.421629
O O8 0.192772 0.796888 0.689606
O O9 0.882778 0.914471 0.513514
O O10 0.298727 0.933786 0.637032
O O11 0.195147 0.041675 0.693057
O O12 0.476440 0.875625 0.320077
O O13 0.052121 0.907925 0.185273
O O14 0.808846 0.555789 0.689931
#
# Coordination Sequence:
#
# PCOD8124212 Si02
#       7
#     4   4   4   4   4   4   4
#     4  10  19  35  60  85 118 147 187 242 299 352
#     4  10  21  36  59  85 116 152 195 233 298 354
#     4  11  22  42  59  82 118 155 204 237 283 349
#     4  10  24  40  63  83 112 165 198 236 288 350
#     4  10  22  37  62  88 117 155 193 248 290 349
#     4   9  20  36  54  90 115 152 183 244 297 336
#     4  10  20  34  57  82 114 150 188 243 280 342
#
# _framework density 19.354662000000001
#
# number of rings (size 3 to 8) (size 9 to 14) (size 15 to 20)
#    0.000    2.000    2.857    0.000    4.000    2.286 
#    2.571    0.000    0.000    1.714    0.000    0.000 
#    0.000    0.000    0.000    0.000    0.000    0.000 
#
# Total GULP energy -347155.379935 kJ/mol
# GULP energy per Si atom -12398.406426 kJ/mol
# Density = 1.931061 g / cm^3
# Si number density = 19.354662 Si / 1000 Ang^3
#
#
#
# Elastic Constant Matrix: (Units=GPa)
#
#
# Indices 1 2 3 4 5 6 
#
# 1 57.3669 21.1680 26.9018 0.0000 3.2720 0.0000
# 2 21.1680 96.6373 37.6553 0.0000 -7.2480 0.0000
# 3 26.9018 37.6553 72.8812 0.0000 -6.7134 0.0000
# 4 0.0000 0.0000 0.0000 28.3490 0.0000 -5.0636
# 5 3.2720 -7.2480 -6.7134 0.0000 19.5332 0.0000
# 6 0.0000 0.0000 0.0000 -5.0636 0.0000 27.2760
#
#
#
# Elastic Compliance Matrix: (Units=1/GPa)
#
#
# Indices 1 2 3 4 5 6 
#
# 1 0.022340 -0.002461 -0.007646 0.000000 -0.007283 0.000000
# 2 -0.002461 0.013355 -0.005677 0.000000 0.003417 0.000000
# 3 -0.007646 -0.005677 0.020035 0.000000 0.006060 0.000000
# 4 0.000000 0.000000 0.000000 0.036484 0.000000 0.006773
# 5 -0.007283 0.003417 0.006060 0.000000 0.055765 0.000000
# 6 0.000000 0.000000 0.000000 0.006773 0.000000 0.037920
#
#
# Mechanical properties :
#
#
# Convention : Reuss Voigt Hill
#
# Bulk Modulus (GPa) = 41.38557 44.25950 42.82254
# Shear Modulus (GPa) = 22.17081 24.44234 23.30657
#
# Velocity S-wave (km/s) = 3.38820 3.55754 3.47390
# Velocity P-wave (km/s) = 6.06100 6.30809 6.18578
#
# Compressibility (1/GPa) = 0.02416301
#
# Stress axis : x y z
#
# Youngs Moduli (GPa) = 44.76187 74.87609 49.91347
#
# Poissons Ratio (x) = 0.18424 0.38163
# Poissons Ratio (y) = 0.11014 0.28338
# Poissons Ratio (z) = 0.34224 0.42510
#
# Static dielectric constant tensor:
#      x y z
#    x 3.374710 0.000000 0.140290 
#    y 0.000000 3.751230 0.000000 
#    z 0.140290 0.000000 3.366110 
# 
# 
# High freq. dielectric constant tensor:
#      x y z
#    x 1.734920 0.000000 0.012410 
#    y 0.000000 1.768490 0.000000 
#    z 0.012410 0.000000 1.740730 
# 
# From -- ./inp_files/73231.got.cif
#   From: 2010.03.12/outbox.cif.g09.slc.cpg/sg14_37_cif.got.tgz:73231.got - 2010.03.31 13:35:05.
