data_PCOD8124908
_publ_section_title
;
Structure prediction by ZEFSAII (Michael W. Deem and Ramdas Pophale) SiO2 
 PCOD8124908
Probable space group: P 21/C
;
_chemical_formula_sum "Si O2"
_cell_formula_units_Z 32
_cell_length_a 20.402979
_cell_length_b 14.165195
_cell_length_c 11.867078
_cell_angle_alpha 90.000000
_cell_angle_beta 150.328683
_cell_angle_gamma 90.000000
_cell_volume 1697.797853
_symmetry_space_group_name_H-M "P 21/C"
_symmetry_group_IT_number 14
_symmetry_cell_setting 'monoclinic'
loop_
_space_group_symop_operation_xyz
x,y,z
-x,1/2+y,1/2-z
-x,-y,-z
x,1/2-y,1/2+z
loop_
_atom_site_type_symbol
_atom_site_label
_atom_site_fract_x
_atom_site_fract_y
_atom_site_fract_z
Si Si1 0.053891 0.373871 0.687577
Si Si2 0.132845 0.576151 0.797468
Si Si3 0.342308 0.082050 0.113086
Si Si4 0.361977 0.944566 0.476546
Si Si5 0.683908 0.379068 0.337730
Si Si6 0.190317 0.272350 0.252132
Si Si7 0.611984 0.648701 0.076380
Si Si8 0.063714 0.732278 0.280313
O O1 0.111086 0.472953 0.822248
O O2 0.171690 0.306790 0.820576
O O3 0.962567 0.404641 0.449019
O O4 0.970876 0.313027 0.652028
O O5 0.097869 0.655531 0.839269
O O6 0.280810 0.583104 0.967324
O O7 0.484757 0.073872 0.265451
O O8 0.357931 0.145630 0.246749
O O9 0.288503 0.980841 0.068319
O O10 0.234092 0.128311 0.869924
O O11 0.317565 0.884214 0.300760
O O12 0.337354 0.054327 0.410159
O O13 0.800586 0.314302 0.560017
O O14 0.545063 0.338178 0.176396
O O15 0.309611 0.238957 0.350932
O O16 0.054484 0.289141 0.982461
#
# Coordination Sequence:
#
# PCOD8124908 Si02
#       8
#     4   4   4   4   4   4   4   4
#     4  10  21  37  54  82 112 145 190 228 269 328
#     4  10  20  35  60  81 105 149 187 231 269 326
#     4   9  20  33  57  84 109 147 184 229 275 325
#     4   9  16  36  61  80 102 140 195 234 267 309
#     4   9  19  36  57  83 112 137 184 244 272 313
#     4  11  21  34  55  81 117 153 180 217 284 348
#     4   9  18  35  58  82 106 142 191 237 267 312
#     4  11  23  34  56  86 114 143 183 233 283 327
#
# _framework density 18.847944999999999
#
# number of rings (size 3 to 8) (size 9 to 14) (size 15 to 20)
#    0.000    2.250    2.500    2.250    1.750    1.500 
#    0.000    1.250    0.000    0.750    0.000    0.000 
#    0.000    0.000    0.000    0.000    0.000    0.000 
#
# Total GULP energy -396653.644823 kJ/mol
# GULP energy per Si atom -12395.426401 kJ/mol
# Density = 1.880505 g / cm^3
# Si number density = 18.847945 Si / 1000 Ang^3
#
#
#
# Elastic Constant Matrix: (Units=GPa)
#
#
# Indices 1 2 3 4 5 6 
#
# 1 75.7010 36.3374 12.4245 0.0000 18.3752 0.0000
# 2 36.3374 86.5645 32.5004 0.0000 6.4065 0.0000
# 3 12.4245 32.5004 72.5471 0.0000 17.0904 0.0000
# 4 0.0000 0.0000 0.0000 31.1838 0.0000 3.0366
# 5 18.3752 6.4065 17.0904 0.0000 20.5296 0.0000
# 6 0.0000 0.0000 0.0000 3.0366 0.0000 24.1058
#
#
#
# Elastic Compliance Matrix: (Units=1/GPa)
#
#
# Indices 1 2 3 4 5 6 
#
# 1 0.022259 -0.009887 0.005702 0.000000 -0.021585 0.000000
# 2 -0.009887 0.018298 -0.009011 0.000000 0.010641 0.000000
# 3 0.005702 -0.009011 0.021625 0.000000 -0.020294 0.000000
# 4 0.000000 0.000000 0.000000 0.032466 0.000000 -0.004090
# 5 -0.021585 0.010641 -0.020294 0.000000 0.081604 0.000000
# 6 0.000000 0.000000 0.000000 -0.004090 0.000000 0.041999
#
#
# Mechanical properties :
#
#
# Convention : Reuss Voigt Hill
#
# Bulk Modulus (GPa) = 27.94013 44.14860 36.04436
# Shear Modulus (GPa) = 19.48759 25.40053 22.44406
#
# Velocity S-wave (km/s) = 3.21898 3.67503 3.45454
# Velocity P-wave (km/s) = 5.35462 6.44066 5.92259
#
# Compressibility (1/GPa) = 0.03579081
#
# Stress axis : x y z
#
# Youngs Moduli (GPa) = 44.92482 54.65069 46.24242
#
# Poissons Ratio (x) = 0.54035 -0.26368
# Poissons Ratio (y) = 0.44418 0.41668
# Poissons Ratio (z) = -0.25617 0.49244
#
# Static dielectric constant tensor:
#      x y z
#    x 3.421810 0.000000 0.267020 
#    y 0.000000 3.602630 0.000000 
#    z 0.267020 0.000000 3.257720 
# 
# 
# High freq. dielectric constant tensor:
#      x y z
#    x 1.726460 0.000000 0.029020 
#    y 0.000000 1.728550 0.000000 
#    z 0.029020 0.000000 1.713470 
# 
# From -- ./inp_files/35294.got.cif
#   From: 2010.03.12/outbox.cif.g09.slc.cpg/sg14_18_cif.got.tgz:35294.got - 2010.03.31 13:35:05.
