data_PCOD8124098
_publ_section_title
;
Structure prediction by ZEFSAII (Michael W. Deem and Ramdas Pophale) SiO2 
 PCOD8124098
Probable space group: P 21/C
;
_chemical_formula_sum "Si O2"
_cell_formula_units_Z 32
_cell_length_a 19.611077
_cell_length_b 16.647337
_cell_length_c 14.455738
_cell_angle_alpha 90.000000
_cell_angle_beta 20.408516
_cell_angle_gamma 90.000000
_cell_volume 1645.707212
_symmetry_space_group_name_H-M "P 21/C"
_symmetry_group_IT_number 14
_symmetry_cell_setting 'monoclinic'
loop_
_space_group_symop_operation_xyz
x,y,z
-x,1/2+y,1/2-z
-x,-y,-z
x,1/2-y,1/2+z
loop_
_atom_site_type_symbol
_atom_site_label
_atom_site_fract_x
_atom_site_fract_y
_atom_site_fract_z
Si Si1 0.532225 0.163304 0.062824
Si Si2 0.531849 0.836495 0.060584
Si Si3 0.775264 0.190502 0.254411
Si Si4 0.210096 0.311955 0.266924
Si Si5 0.212451 0.792311 0.967713
Si Si6 0.454310 0.908795 0.763813
Si Si7 0.197600 0.207646 0.989809
Si Si8 0.446953 0.092680 0.777319
O O1 0.519853 0.096144 0.157758
O O2 0.366889 0.228770 0.287660
O O3 0.505875 0.125026 0.993523
O O4 0.733078 0.214014 0.820009
O O5 0.350887 0.780975 0.319052
O O6 0.545726 0.905554 0.120010
O O7 0.726830 0.781595 0.816947
O O8 0.732549 0.170083 0.201561
O O9 0.639147 0.134119 0.490004
O O10 0.000416 0.174301 0.988703
O O11 0.196622 0.335405 0.391662
O O12 0.362429 0.369053 0.021209
O O13 0.253386 0.863508 0.989394
O O14 0.996291 0.757348 0.243013
O O15 0.440534 0.001101 0.752667
O O16 0.246045 0.136557 0.000796
#
# Coordination Sequence:
#
# PCOD8124098 Si02
#       8
#     4   4   4   4   4   4   4   4
#     4   9  19  35  56  79 104 144 192 228 261 315
#     4   9  19  35  56  79 104 144 192 228 261 315
#     4  10  19  34  59  83 106 142 187 227 264 320
#     4  10  19  34  59  83 106 142 187 227 264 320
#     4  10  19  35  59  80 104 144 189 226 264 322
#     4  11  22  35  53  82 118 145 173 225 284 328
#     4  10  19  35  59  80 104 144 189 226 264 322
#     4  11  22  35  53  82 118 145 173 225 284 328
#
# _framework density 19.444527999999998
#
# number of rings (size 3 to 8) (size 9 to 14) (size 15 to 20)
#    0.000    2.000    0.000    8.250    0.000    3.000 
#    0.000    3.750    0.000   14.250    0.000    0.000 
#    0.000    0.000    0.000    0.000    0.000    0.000 
#
# Total GULP energy -396643.236300 kJ/mol
# GULP energy per Si atom -12395.101134 kJ/mol
# Density = 1.940027 g / cm^3
# Si number density = 19.444528 Si / 1000 Ang^3
#
#
#
# Elastic Constant Matrix: (Units=GPa)
#
#
# Indices 1 2 3 4 5 6 
#
# 1 109.7628 40.0313 29.2385 0.0000 17.7658 0.0000
# 2 40.0313 58.9066 26.2035 0.0000 5.6327 0.0000
# 3 29.2385 26.2035 62.6399 0.0000 0.5885 0.0000
# 4 0.0000 0.0000 0.0000 15.0839 0.0000 1.4071
# 5 17.7658 5.6327 0.5885 0.0000 39.0343 0.0000
# 6 0.0000 0.0000 0.0000 1.4071 0.0000 20.3588
#
#
#
# Elastic Compliance Matrix: (Units=1/GPa)
#
#
# Indices 1 2 3 4 5 6 
#
# 1 0.013401 -0.007207 -0.003193 0.000000 -0.005011 0.000000
# 2 -0.007207 0.025062 -0.007118 0.000000 -0.000229 0.000000
# 3 -0.003193 -0.007118 0.020412 0.000000 0.002173 0.000000
# 4 0.000000 0.000000 0.000000 0.066726 0.000000 -0.004612
# 5 -0.005011 -0.000229 0.002173 0.000000 0.027899 0.000000
# 6 0.000000 0.000000 0.000000 -0.004612 0.000000 0.049437
#
#
# Mechanical properties :
#
#
# Convention : Reuss Voigt Hill
#
# Bulk Modulus (GPa) = 41.94890 46.91731 44.43311
# Shear Modulus (GPa) = 20.33191 23.95116 22.14154
#
# Velocity S-wave (km/s) = 3.23714 3.51346 3.37813
# Velocity P-wave (km/s) = 5.96595 6.37498 6.17385
#
# Compressibility (1/GPa) = 0.02383853
#
# Stress axis : x y z
#
# Youngs Moduli (GPa) = 74.62304 39.90133 48.99152
#
# Poissons Ratio (x) = 0.28758 0.15643
# Poissons Ratio (y) = 0.53782 0.34870
# Poissons Ratio (z) = 0.23828 0.28400
#
# Static dielectric constant tensor:
#      x y z
#    x 3.895800 0.000000 0.050320 
#    y 0.000000 3.185940 0.000000 
#    z 0.050320 0.000000 3.684580 
# 
# 
# High freq. dielectric constant tensor:
#      x y z
#    x 1.782620 0.000000 0.003920 
#    y 0.000000 1.712280 0.000000 
#    z 0.003920 0.000000 1.753090 
# 
# From -- ./inp_files/50664.got.cif
#   From: 2010.03.12/outbox.cif.g09.slc.cpg/sg14_26_cif.got.tgz:50664.got - 2010.03.31 13:35:05.
