data_PCOD8124517
_publ_section_title
;
Structure prediction by ZEFSAII (Michael W. Deem and Ramdas Pophale) SiO2 
 PCOD8124517
Probable space group: P 21/C
;
_chemical_formula_sum "Si O2"
_cell_formula_units_Z 32
_cell_length_a 20.284611
_cell_length_b 12.111383
_cell_length_c 13.724895
_cell_angle_alpha 90.000000
_cell_angle_beta 150.879156
_cell_angle_gamma 90.000000
_cell_volume 1640.926228
_symmetry_space_group_name_H-M "P 21/C"
_symmetry_group_IT_number 14
_symmetry_cell_setting 'monoclinic'
loop_
_space_group_symop_operation_xyz
x,y,z
-x,1/2+y,1/2-z
-x,-y,-z
x,1/2-y,1/2+z
loop_
_atom_site_type_symbol
_atom_site_label
_atom_site_fract_x
_atom_site_fract_y
_atom_site_fract_z
Si Si1 0.872674 0.613350 0.892503
Si Si2 0.528002 0.284130 0.707970
Si Si3 0.557654 0.283910 0.461767
Si Si4 0.674001 0.717041 0.205387
Si Si5 0.019026 0.604155 0.892638
Si Si6 0.763023 0.977851 0.949896
Si Si7 0.764601 0.216639 0.882344
Si Si8 0.372858 0.488249 0.529240
O O1 0.819503 0.721970 0.880598
O O2 0.996013 0.639218 0.976884
O O3 0.759279 0.576204 0.671649
O O4 0.910314 0.516823 0.017388
O O5 0.517910 0.267651 0.809059
O O6 0.410620 0.209297 0.505150
O O7 0.676182 0.259651 0.858887
O O8 0.501623 0.415120 0.664239
O O9 0.419799 0.291753 0.345470
O O10 0.672096 0.213616 0.665935
O O11 0.620044 0.403149 0.525550
O O12 0.696197 0.595595 0.278075
O O13 0.885170 0.592398 0.653903
O O14 0.109142 0.700751 0.962599
O O15 0.815821 0.092490 0.970727
O O16 0.646021 0.008240 0.878667
#
# Coordination Sequence:
#
# PCOD8124517 Si02
#       8
#     4   4   4   4   4   4   4   4
#     4   9  20  39  63  83 116 158 210 256 285 352
#     4  10  22  37  63  93 126 160 196 252 304 369
#     4  11  21  38  64  92 128 154 199 255 301 374
#     4  10  23  38  62  93 122 158 202 247 310 358
#     4  10  22  40  62  85 116 164 208 255 294 352
#     4  11  23  40  62  88 128 162 198 250 310 365
#     4  11  24  39  63  94 120 160 209 246 308 361
#     4  10  19  38  61  91 121 160 203 243 305 353
#
# _framework density 19.501183000000001
#
# number of rings (size 3 to 8) (size 9 to 14) (size 15 to 20)
#    0.000    1.750    3.750    0.000    3.500    4.500 
#    0.000    0.625    0.000    0.000    0.000    0.000 
#    0.000    0.000    0.000    0.000    0.000    0.000 
#
# Total GULP energy -396645.482763 kJ/mol
# GULP energy per Si atom -12395.171336 kJ/mol
# Density = 1.945680 g / cm^3
# Si number density = 19.501183 Si / 1000 Ang^3
#
#
#
# Elastic Constant Matrix: (Units=GPa)
#
#
# Indices 1 2 3 4 5 6 
#
# 1 66.9526 34.1870 37.1067 0.0000 -1.2525 0.0000
# 2 34.1870 98.2023 28.5610 0.0000 5.9219 0.0000
# 3 37.1067 28.5610 62.5120 0.0000 -2.5338 0.0000
# 4 0.0000 0.0000 0.0000 27.5654 0.0000 -1.2543
# 5 -1.2525 5.9219 -2.5338 0.0000 34.7287 0.0000
# 6 0.0000 0.0000 0.0000 -1.2543 0.0000 31.5604
#
#
#
# Elastic Compliance Matrix: (Units=1/GPa)
#
#
# Indices 1 2 3 4 5 6 
#
# 1 0.024156 -0.004958 -0.012039 0.000000 0.000838 0.000000
# 2 -0.004958 0.012964 -0.003086 0.000000 -0.002615 0.000000
# 3 -0.012039 -0.003086 0.024630 0.000000 0.001889 0.000000
# 4 0.000000 0.000000 0.000000 0.036343 0.000000 0.001444
# 5 0.000838 -0.002615 0.001889 0.000000 0.029409 0.000000
# 6 0.000000 0.000000 0.000000 0.001444 0.000000 0.031743
#
#
# Mechanical properties :
#
#
# Convention : Reuss Voigt Hill
#
# Bulk Modulus (GPa) = 46.33329 47.48623 46.90976
# Shear Modulus (GPa) = 24.20061 27.29173 25.74617
#
# Velocity S-wave (km/s) = 3.52658 3.74504 3.63745
# Velocity P-wave (km/s) = 6.35556 6.56534 6.46130
#
# Compressibility (1/GPa) = 0.02158275
#
# Stress axis : x y z
#
# Youngs Moduli (GPa) = 41.39762 77.13426 40.60101
#
# Poissons Ratio (x) = 0.38246 0.48881
# Poissons Ratio (y) = 0.20527 0.12529
# Poissons Ratio (z) = 0.49840 0.23803
#
# Static dielectric constant tensor:
#      x y z
#    x 3.710060 0.000000 0.050300 
#    y 0.000000 3.611230 0.000000 
#    z 0.050300 0.000000 3.546780 
# 
# 
# High freq. dielectric constant tensor:
#      x y z
#    x 1.761120 0.000000 -0.004260 
#    y 0.000000 1.750260 0.000000 
#    z -0.004260 0.000000 1.753090 
# 
# From -- ./inp_files/50398.got.cif
#   From: 2010.03.12/outbox.cif.g09.slc.cpg/sg14_26_cif.got.tgz:50398.got - 2010.03.31 13:35:05.
