data_PCOD8124631
_publ_section_title
;
Structure prediction by ZEFSAII (Michael W. Deem and Ramdas Pophale) SiO2 
 PCOD8124631
Probable space group: P 21/C
;
_chemical_formula_sum "Si O2"
_cell_formula_units_Z 20
_cell_length_a 14.596367
_cell_length_b 10.110945
_cell_length_c 8.853580
_cell_angle_alpha 90.000000
_cell_angle_beta 132.798542
_cell_angle_gamma 90.000000
_cell_volume 958.742254
_symmetry_space_group_name_H-M "P 21/C"
_symmetry_group_IT_number 14
_symmetry_cell_setting 'monoclinic'
loop_
_space_group_symop_operation_xyz
x,y,z
-x,1/2+y,1/2-z
-x,-y,-z
x,1/2-y,1/2+z
loop_
_atom_site_type_symbol
_atom_site_label
_atom_site_fract_x
_atom_site_fract_y
_atom_site_fract_z
Si Si1 0.940035 0.605647 0.120571
Si Si2 0.547891 0.379528 0.454876
Si Si3 0.812491 0.010418 0.212298
Si Si4 0.546650 0.865667 0.480688
Si Si5 0.817997 0.780848 0.761465
O O1 0.886934 0.614890 0.229827
O O2 0.087483 0.574608 0.290964
O O3 0.870050 0.488178 0.948224
O O4 0.912229 0.745798 0.004476
O O5 0.500000 0.500000 0.500000
O O6 0.690591 0.399836 0.566263
O O7 0.538340 0.248862 0.544304
O O8 0.463664 0.366608 0.211764
O O9 0.782365 0.857421 0.135205
O O10 0.691710 0.845210 0.684535
O O11 0.500000 0.000000 0.500000
#
# Coordination Sequence:
#
# PCOD8124631 Si02
#       5
#     4   4   4   4   4
#     4   9  20  38  64  87 116 167 204 256 326 368
#     4  12  23  43  66  90 135 170 215 270 320 386
#     4   9  21  39  65  85 123 166 212 256 323 379
#     4  12  26  39  65 100 125 174 217 261 333 383
#     4  10  19  40  63  84 128 153 213 257 319 370
#
# _framework density 20.860664
#
# number of rings (size 3 to 8) (size 9 to 14) (size 15 to 20)
#    1.200    0.400    2.000    3.600    2.800    1.600 
#    3.600    1.000    0.000    0.000    0.000    0.000 
#    0.000    0.000    0.000    0.000    0.000    0.000 
#
# Total GULP energy -247946.292075 kJ/mol
# GULP energy per Si atom -12397.314604 kJ/mol
# Density = 2.081318 g / cm^3
# Si number density = 20.860664 Si / 1000 Ang^3
#
#
#
# Elastic Constant Matrix: (Units=GPa)
#
#
# Indices 1 2 3 4 5 6 
#
# 1 125.4792 55.0888 12.2227 0.0000 27.0667 0.0000
# 2 55.0888 117.4590 12.5441 0.0000 6.4004 0.0000
# 3 12.2227 12.5441 37.7546 0.0000 2.3278 0.0000
# 4 0.0000 0.0000 0.0000 27.7953 0.0000 1.0671
# 5 27.0667 6.4004 2.3278 0.0000 43.8410 0.0000
# 6 0.0000 0.0000 0.0000 1.0671 0.0000 53.1351
#
#
#
# Elastic Compliance Matrix: (Units=1/GPa)
#
#
# Indices 1 2 3 4 5 6 
#
# 1 0.011694 -0.004949 -0.001747 0.000000 -0.006404 0.000000
# 2 -0.004949 0.010978 -0.002142 0.000000 0.001566 0.000000
# 3 -0.001747 -0.002142 0.027769 0.000000 -0.000083 0.000000
# 4 0.000000 0.000000 0.000000 0.036005 0.000000 -0.000723
# 5 -0.006404 0.001566 -0.000083 0.000000 0.026539 0.000000
# 6 0.000000 0.000000 0.000000 -0.000723 0.000000 0.018834
#
#
# Mechanical properties :
#
#
# Convention : Reuss Voigt Hill
#
# Bulk Modulus (GPa) = 30.51941 48.93379 39.72660
# Shear Modulus (GPa) = 31.16883 38.34343 34.75613
#
# Velocity S-wave (km/s) = 3.86961 4.29193 4.08623
# Velocity P-wave (km/s) = 5.88448 6.93320 6.43025
#
# Compressibility (1/GPa) = 0.03276604
#
# Stress axis : x y z
#
# Youngs Moduli (GPa) = 85.51589 91.09079 36.01127
#
# Poissons Ratio (x) = 0.45080 0.06290
# Poissons Ratio (y) = 0.42321 0.07713
# Poissons Ratio (z) = 0.14936 0.19511
#
# Static dielectric constant tensor:
#      x y z
#    x 3.680550 0.000000 0.050280 
#    y 0.000000 3.615440 0.000000 
#    z 0.050280 0.000000 3.586220 
# 
# 
# High freq. dielectric constant tensor:
#      x y z
#    x 1.826800 0.000000 0.004520 
#    y 0.000000 1.800040 0.000000 
#    z 0.004520 0.000000 1.799430 
# 
# From -- ./inp_files/12070.got.cif
#   From: 2010.03.12/outbox.cif.g09.slc.cpg/sg14_7_cif.got.tgz:12070.got - 2010.03.31 13:35:05.
