data_PCOD8124175
_publ_section_title
;
Structure prediction by ZEFSAII (Michael W. Deem and Ramdas Pophale) SiO2 
 PCOD8124175
Probable space group: P 21/C
;
_chemical_formula_sum "Si O2"
_cell_formula_units_Z 32
_cell_length_a 11.445990
_cell_length_b 9.308713
_cell_length_c 17.949976
_cell_angle_alpha 90.000000
_cell_angle_beta 56.221076
_cell_angle_gamma 90.000000
_cell_volume 1589.668926
_symmetry_space_group_name_H-M "P 21/C"
_symmetry_group_IT_number 14
_symmetry_cell_setting 'monoclinic'
loop_
_space_group_symop_operation_xyz
x,y,z
-x,1/2+y,1/2-z
-x,-y,-z
x,1/2-y,1/2+z
loop_
_atom_site_type_symbol
_atom_site_label
_atom_site_fract_x
_atom_site_fract_y
_atom_site_fract_z
Si Si1 0.405480 0.487342 0.289547
Si Si2 0.853500 0.606937 0.706206
Si Si3 0.091500 0.787480 0.796193
Si Si4 0.599853 0.235904 0.788989
Si Si5 0.431541 0.195922 0.995199
Si Si6 0.111291 0.788155 0.616069
Si Si7 0.822436 0.887509 0.390218
Si Si8 0.644061 0.102781 0.031649
O O1 0.274972 0.392544 0.306190
O O2 0.452059 0.603141 0.211499
O O3 0.533955 0.380592 0.257271
O O4 0.366831 0.576643 0.376908
O O5 0.934320 0.454114 0.674992
O O6 0.800711 0.624992 0.809447
O O7 0.954833 0.738566 0.646077
O O8 0.232795 0.727412 0.784581
O O9 0.120135 0.755834 0.699879
O O10 0.953915 0.705287 0.872848
O O11 0.554115 0.207477 0.889984
O O12 0.323679 0.327998 0.024759
O O13 0.508788 0.191288 0.048128
O O14 0.344749 0.048843 0.015509
O O15 0.216819 0.692696 0.531453
O O16 0.146676 0.954310 0.589308
#
# Coordination Sequence:
#
# PCOD8124175 Si02
#       8
#     4   4   4   4   4   4   4   4
#     4  10  23  37  57  87 116 163 191 242 300 359
#     4   9  20  37  56  83 120 154 192 236 305 350
#     4   9  18  38  56  83 115 154 189 245 289 346
#     4  10  21  40  60  83 123 152 196 239 298 349
#     4  10  21  38  59  88 115 155 196 248 283 350
#     4  10  19  35  57  88 114 150 195 246 288 346
#     4  10  21  34  62  91 113 145 202 252 294 331
#     4  10  21  37  58  85 117 156 199 230 301 353
#
# _framework density 20.129978000000001
#
# number of rings (size 3 to 8) (size 9 to 14) (size 15 to 20)
#    0.000    2.250    1.250    0.750    1.750    4.000 
#    0.000    1.250    0.000    6.750    0.000    0.000 
#    0.000    0.000    0.000    0.000    0.000    0.000 
#
# Total GULP energy -396733.602348 kJ/mol
# GULP energy per Si atom -12397.925073 kJ/mol
# Density = 2.008416 g / cm^3
# Si number density = 20.129978 Si / 1000 Ang^3
#
#
#
# Elastic Constant Matrix: (Units=GPa)
#
#
# Indices 1 2 3 4 5 6 
#
# 1 109.6046 39.4149 31.0974 0.0000 5.1015 0.0000
# 2 39.4149 83.9122 18.4918 0.0000 -6.3147 0.0000
# 3 31.0974 18.4918 30.5419 0.0000 -7.9319 0.0000
# 4 0.0000 0.0000 0.0000 31.3557 0.0000 -5.9488
# 5 5.1015 -6.3147 -7.9319 0.0000 21.7309 0.0000
# 6 0.0000 0.0000 0.0000 -5.9488 0.0000 37.4032
#
#
#
# Elastic Compliance Matrix: (Units=1/GPa)
#
#
# Indices 1 2 3 4 5 6 
#
# 1 0.015952 -0.004746 -0.016239 0.000000 -0.011051 0.000000
# 2 -0.004746 0.015186 -0.003233 0.000000 0.004347 0.000000
# 3 -0.016239 -0.003233 0.057423 0.000000 0.023832 0.000000
# 4 0.000000 0.000000 0.000000 0.032884 0.000000 0.005230
# 5 -0.011051 0.004347 0.023832 0.000000 0.058574 0.000000
# 6 0.000000 0.000000 0.000000 0.005230 0.000000 0.027567
#
#
# Mechanical properties :
#
#
# Convention : Reuss Voigt Hill
#
# Bulk Modulus (GPa) = 24.92207 44.67408 34.79807
# Shear Modulus (GPa) = 18.55990 27.10162 22.83076
#
# Velocity S-wave (km/s) = 3.03974 3.67322 3.37139
# Velocity P-wave (km/s) = 4.97268 6.34279 5.69906
#
# Compressibility (1/GPa) = 0.04012509
#
# Stress axis : x y z
#
# Youngs Moduli (GPa) = 62.68760 65.84947 17.41464
#
# Poissons Ratio (x) = 0.31253 0.28279
# Poissons Ratio (y) = 0.29752 0.05631
# Poissons Ratio (z) = 1.01797 0.21291
#
# Static dielectric constant tensor:
#      x y z
#    x 3.770910 0.000000 0.023410 
#    y 0.000000 3.797520 0.000000 
#    z 0.023410 0.000000 3.273120 
# 
# 
# High freq. dielectric constant tensor:
#      x y z
#    x 1.791820 0.000000 -0.003770 
#    y 0.000000 1.790050 0.000000 
#    z -0.003770 0.000000 1.757410 
# 
# From -- ./inp_files/57266.got.cif
#   From: 2010.03.12/outbox.cif.g09.slc.cpg/sg14_29_cif.got.tgz:57266.got - 2010.03.31 13:35:05.
