data_PCOD8124356
_publ_section_title
;
Structure prediction by ZEFSAII (Michael W. Deem and Ramdas Pophale) SiO2 
 PCOD8124356
Probable space group: P 21/C
;
_chemical_formula_sum "Si O2"
_cell_formula_units_Z 32
_cell_length_a 25.765207
_cell_length_b 8.852822
_cell_length_c 19.601773
_cell_angle_alpha 90.000000
_cell_angle_beta 160.551472
_cell_angle_gamma 90.000000
_cell_volume 1488.684451
_symmetry_space_group_name_H-M "P 21/C"
_symmetry_group_IT_number 14
_symmetry_cell_setting 'monoclinic'
loop_
_space_group_symop_operation_xyz
x,y,z
-x,1/2+y,1/2-z
-x,-y,-z
x,1/2-y,1/2+z
loop_
_atom_site_type_symbol
_atom_site_label
_atom_site_fract_x
_atom_site_fract_y
_atom_site_fract_z
Si Si1 0.327617 0.981429 0.899998
Si Si2 0.437282 0.768162 0.792282
Si Si3 0.098389 0.273715 0.102443
Si Si4 0.180826 0.770862 0.150947
Si Si5 0.668108 0.252006 0.982087
Si Si6 0.086121 0.662354 0.899811
Si Si7 0.003048 0.176639 0.338237
Si Si8 0.332021 0.482270 0.911850
O O1 0.299530 0.872081 0.799639
O O2 0.163803 0.067631 0.712949
O O3 0.388259 0.882317 0.038597
O O4 0.455951 0.105021 0.040102
O O5 0.454053 0.774758 0.730860
O O6 0.264514 0.804751 0.601885
O O7 0.501469 0.601478 0.893977
O O8 0.199830 0.141512 0.261173
O O9 0.920184 0.246923 0.904397
O O10 0.112219 0.273465 0.036678
O O11 0.283027 0.923252 0.283150
O O12 0.066592 0.764917 0.944047
O O13 0.827471 0.196116 0.145369
O O14 0.670367 0.409710 0.025284
O O15 0.971867 0.717776 0.697677
O O16 0.044403 0.491563 0.865449
#
# Coordination Sequence:
#
# PCOD8124356 Si02
#       8
#     4   4   4   4   4   4   4   4
#     4  10  19  36  63  87 117 165 207 256 305 375
#     4  10  23  40  56  89 132 165 196 253 320 389
#     4  11  20  38  66  93 121 156 216 264 309 361
#     4  11  21  37  63  92 120 159 212 262 306 369
#     4  10  20  39  65  90 124 153 215 265 308 363
#     4  11  26  41  61  90 131 167 204 258 324 383
#     4  11  23  42  62  91 127 165 206 263 318 374
#     4  10  22  36  64  95 116 164 204 259 312 366
#
# _framework density 21.49549
#
# number of rings (size 3 to 8) (size 9 to 14) (size 15 to 20)
#    0.000    1.500    3.750    2.250    1.750    2.000 
#    0.000    6.250    0.000    0.000    0.000    0.000 
#    0.000    0.000    0.000    0.000    0.000    0.000 
#
# Total GULP energy -396566.810271 kJ/mol
# GULP energy per Si atom -12392.712821 kJ/mol
# Density = 2.144657 g / cm^3
# Si number density = 21.495490 Si / 1000 Ang^3
#
#
#
# Elastic Constant Matrix: (Units=GPa)
#
#
# Indices 1 2 3 4 5 6 
#
# 1 77.3737 36.9879 21.8351 0.0000 -19.9653 0.0000
# 2 36.9879 129.3947 34.7211 0.0000 -1.2134 0.0000
# 3 21.8351 34.7211 66.2175 0.0000 -10.4200 0.0000
# 4 0.0000 0.0000 0.0000 35.5660 0.0000 -4.8025
# 5 -19.9653 -1.2134 -10.4200 0.0000 37.9369 0.0000
# 6 0.0000 0.0000 0.0000 -4.8025 0.0000 27.1570
#
#
#
# Elastic Compliance Matrix: (Units=1/GPa)
#
#
# Indices 1 2 3 4 5 6 
#
# 1 0.017912 -0.004446 -0.002210 0.000000 0.008678 0.000000
# 2 -0.004446 0.010138 -0.004355 0.000000 -0.003212 0.000000
# 3 -0.002210 -0.004355 0.018718 0.000000 0.003839 0.000000
# 4 0.000000 0.000000 0.000000 0.028805 0.000000 0.005094
# 5 0.008678 -0.003212 0.003839 0.000000 0.031878 0.000000
# 6 0.000000 0.000000 0.000000 0.005094 0.000000 0.037724
#
#
# Mechanical properties :
#
#
# Convention : Reuss Voigt Hill
#
# Bulk Modulus (GPa) = 40.40969 51.11934 45.76451
# Shear Modulus (GPa) = 28.49893 32.09478 30.29685
#
# Velocity S-wave (km/s) = 3.64512 3.86825 3.75834
# Velocity P-wave (km/s) = 6.04614 6.61696 6.33798
#
# Compressibility (1/GPa) = 0.02474654
#
# Stress axis : x y z
#
# Youngs Moduli (GPa) = 55.82706 98.64188 53.42429
#
# Poissons Ratio (x) = 0.43856 0.11806
# Poissons Ratio (y) = 0.24821 0.23266
# Poissons Ratio (z) = 0.12337 0.42959
#
# Static dielectric constant tensor:
#      x y z
#    x 3.825030 0.000000 -0.500330 
#    y 0.000000 4.038850 0.000000 
#    z -0.500330 0.000000 4.141330 
# 
# 
# High freq. dielectric constant tensor:
#      x y z
#    x 1.818190 0.000000 -0.026050 
#    y 0.000000 1.856420 0.000000 
#    z -0.026050 0.000000 1.847440 
# 
# From -- ./inp_files/70725.got.cif
#   From: 2010.03.12/outbox.cif.g09.slc.cpg/sg14_36_cif.got.tgz:70725.got - 2010.03.31 13:35:05.
