data_PCOD8124770
_publ_section_title
;
Structure prediction by ZEFSAII (Michael W. Deem and Ramdas Pophale) SiO2 
 PCOD8124770
Probable space group: P 21/C
;
_chemical_formula_sum "Si O2"
_cell_formula_units_Z 32
_cell_length_a 8.371533
_cell_length_b 27.697304
_cell_length_c 14.045568
_cell_angle_alpha 90.000000
_cell_angle_beta 147.022772
_cell_angle_gamma 90.000000
_cell_volume 1772.656766
_symmetry_space_group_name_H-M "P 21/C"
_symmetry_group_IT_number 14
_symmetry_cell_setting 'monoclinic'
loop_
_space_group_symop_operation_xyz
x,y,z
-x,1/2+y,1/2-z
-x,-y,-z
x,1/2-y,1/2+z
loop_
_atom_site_type_symbol
_atom_site_label
_atom_site_fract_x
_atom_site_fract_y
_atom_site_fract_z
Si Si1 0.841280 0.049675 0.900705
Si Si2 0.841290 0.549675 0.940590
Si Si3 0.839584 0.883165 0.077714
Si Si4 0.839577 0.383165 0.761867
Si Si5 0.839977 0.866756 0.293120
Si Si6 0.160056 0.866755 0.953159
Si Si7 0.159206 0.200475 0.068570
Si Si8 0.159226 0.799527 0.590637
O O1 0.499996 0.039966 0.713910
O O2 0.970785 0.073261 0.869942
O O3 0.901355 0.084246 0.020290
O O4 0.000000 0.000000 0.000000
O O5 0.901397 0.584252 0.881107
O O6 0.000000 0.500000 0.000000
O O7 0.970784 0.573254 0.100863
O O8 0.943951 0.874919 0.237472
O O9 0.500005 0.898514 0.902965
O O10 0.898110 0.834142 0.049605
O O11 0.943922 0.374905 0.706467
O O12 0.898122 0.334150 0.848532
O O13 0.027669 0.822887 0.429326
O O14 0.500017 0.851850 0.128530
O O15 0.972364 0.822891 0.901691
O O16 0.499989 0.210306 0.256369
O O17 0.999994 0.250002 0.964439
#
# Coordination Sequence:
#
# PCOD8124770 Si02
#       8
#     4   4   4   4   4   4   4   4
#     4  10  20  34  53  76 104 136 170 210 254 303
#     4  10  20  34  53  76 104 136 170 210 254 303
#     4   9  19  36  55  75 101 133 170 211 254 300
#     4   9  19  36  55  75 101 133 170 211 254 300
#     4   9  19  36  55  75 101 134 171 210 253 300
#     4   9  19  36  55  75 101 134 171 210 253 300
#     4  10  20  34  53  76 103 133 166 207 251 299
#     4  10  20  34  53  76 103 133 166 207 251 299
#
# _framework density 18.052
#
# number of rings (size 3 to 8) (size 9 to 14) (size 15 to 20)
#    0.000    2.500    0.000    1.500    0.000    5.000 
#    0.000    7.500    0.000    0.000    0.000    0.000 
#    0.000    0.000    0.000    0.000    0.000    0.000 
#
# Total GULP energy -396943.482510 kJ/mol
# GULP energy per Si atom -12404.483828 kJ/mol
# Density = 1.801091 g / cm^3
# Si number density = 18.052000 Si / 1000 Ang^3
#
#
#
# Elastic Constant Matrix: (Units=GPa)
#
#
# Indices 1 2 3 4 5 6 
#
# 1 111.9590 36.0821 43.9862 0.0000 -10.7446 0.0000
# 2 36.0821 94.6883 46.6052 0.0000 10.5950 0.0000
# 3 43.9862 46.6052 95.2343 0.0000 -6.0899 0.0000
# 4 0.0000 0.0000 0.0000 32.3944 0.0000 12.1467
# 5 -10.7446 10.5950 -6.0899 0.0000 33.3441 0.0000
# 6 0.0000 0.0000 0.0000 12.1467 0.0000 20.3364
#
#
#
# Elastic Compliance Matrix: (Units=1/GPa)
#
#
# Indices 1 2 3 4 5 6 
#
# 1 0.011773 -0.003165 -0.003624 0.000000 0.004138 0.000000
# 2 -0.003165 0.015937 -0.006805 0.000000 -0.007327 0.000000
# 3 -0.003624 -0.006805 0.015752 0.000000 0.003872 0.000000
# 4 0.000000 0.000000 0.000000 0.039778 0.000000 -0.023759
# 5 0.004138 -0.007327 0.003872 0.000000 0.034359 0.000000
# 6 0.000000 0.000000 0.000000 -0.023759 0.000000 0.063364
#
#
# Mechanical properties :
#
#
# Convention : Reuss Voigt Hill
#
# Bulk Modulus (GPa) = 61.45512 61.69208 61.57360
# Shear Modulus (GPa) = 23.41085 28.89553 26.15319
#
# Velocity S-wave (km/s) = 3.60510 4.00519 3.81040
# Velocity P-wave (km/s) = 7.17260 7.45906 7.31724
#
# Compressibility (1/GPa) = 0.01627204
#
# Stress axis : x y z
#
# Youngs Moduli (GPa) = 84.94128 62.74855 63.48333
#
# Poissons Ratio (x) = 0.19863 0.23006
# Poissons Ratio (y) = 0.26888 0.43203
# Poissons Ratio (z) = 0.30782 0.42703
#
# Static dielectric constant tensor:
#      x y z
#    x 3.424280 0.000000 -0.004370 
#    y 0.000000 3.272230 0.000000 
#    z -0.004370 0.000000 3.420010 
# 
# 
# High freq. dielectric constant tensor:
#      x y z
#    x 1.702080 0.000000 0.002760 
#    y 0.000000 1.699810 0.000000 
#    z 0.002760 0.000000 1.704820 
# 
# From -- ./inp_files/17000.got.cif
#   From: 2010.03.12/outbox.cif.g09.slc.cpg/sg14_9_cif.got.tgz:17000.got - 2010.03.31 13:35:05.
