data_PCOD8124178
_publ_section_title
;
Structure prediction by ZEFSAII (Michael W. Deem and Ramdas Pophale) SiO2 
 PCOD8124178
Probable space group: P 21/C
;
_chemical_formula_sum "Si O2"
_cell_formula_units_Z 28
_cell_length_a 10.581136
_cell_length_b 5.028563
_cell_length_c 32.247831
_cell_angle_alpha 90.000000
_cell_angle_beta 123.125871
_cell_angle_gamma 90.000000
_cell_volume 1436.967751
_symmetry_space_group_name_H-M "P 21/C"
_symmetry_group_IT_number 14
_symmetry_cell_setting 'monoclinic'
loop_
_space_group_symop_operation_xyz
x,y,z
-x,1/2+y,1/2-z
-x,-y,-z
x,1/2-y,1/2+z
loop_
_atom_site_type_symbol
_atom_site_label
_atom_site_fract_x
_atom_site_fract_y
_atom_site_fract_z
Si Si1 0.172498 0.372085 0.753499
Si Si2 0.547619 0.547189 0.961798
Si Si3 0.598959 0.998742 0.776291
Si Si4 0.300749 0.010189 0.112144
Si Si5 0.439267 0.452335 0.400795
Si Si6 0.174292 0.984887 0.544029
Si Si7 0.828735 0.372635 0.694049
O O1 0.268511 0.424254 0.730631
O O2 0.211113 0.577801 0.797374
O O3 0.999135 0.403257 0.709290
O O4 0.207462 0.076446 0.775290
O O5 0.516517 0.857272 0.948533
O O6 0.721623 0.485431 0.979328
O O7 0.441156 0.353027 0.915630
O O8 0.500000 0.500000 0.000000
O O9 0.466135 0.783466 0.748808
O O10 0.680826 0.007525 0.835359
O O11 0.471066 0.983586 0.126113
O O12 0.223096 0.282926 0.084064
O O13 0.195675 0.781663 0.074276
O O14 0.269428 0.551349 0.363570
O O15 0.000000 0.000000 0.500000
#
# Coordination Sequence:
#
# PCOD8124178 Si02
#       7
#     4   4   4   4   4   4   4
#     4  10  21  36  55  81 117 145 188 229 269 333
#     4  10  21  37  55  83 107 135 188 232 273 335
#     4  12  23  37  58  87 120 152 190 236 283 328
#     4  10  21  36  58  85 111 146 193 222 272 356
#     4  10  19  35  58  78 107 142 182 220 277 327
#     4  10  21  40  59  80 112 153 183 234 291 332
#     4  10  20  37  57  80 110 153 185 225 281 326
#
# _framework density 19.485476999999999
#
# number of rings (size 3 to 8) (size 9 to 14) (size 15 to 20)
#    0.000    1.714    0.000    5.143    0.000    2.286 
#    5.143    0.000    0.000    0.000    0.000    0.000 
#    0.000    0.000    0.000    0.000    0.000    0.000 
#
# Total GULP energy -347181.846152 kJ/mol
# GULP energy per Si atom -12399.351648 kJ/mol
# Density = 1.944113 g / cm^3
# Si number density = 19.485477 Si / 1000 Ang^3
#
#
#
# Elastic Constant Matrix: (Units=GPa)
#
#
# Indices 1 2 3 4 5 6 
#
# 1 98.5255 3.4328 44.0744 0.0000 -12.6153 0.0000
# 2 3.4328 61.1849 -10.5068 0.0000 1.3066 0.0000
# 3 44.0744 -10.5068 71.4489 0.0000 4.0555 0.0000
# 4 0.0000 0.0000 0.0000 16.3352 0.0000 5.6897
# 5 -12.6153 1.3066 4.0555 0.0000 28.4973 0.0000
# 6 0.0000 0.0000 0.0000 5.6897 0.0000 22.1542
#
#
#
# Elastic Compliance Matrix: (Units=1/GPa)
#
#
# Indices 1 2 3 4 5 6 
#
# 1 0.016328 -0.002999 -0.011020 0.000000 0.008934 0.000000
# 2 -0.002999 0.017354 0.004560 0.000000 -0.002772 0.000000
# 3 -0.011020 0.004560 0.021930 0.000000 -0.008209 0.000000
# 4 0.000000 0.000000 0.000000 0.067232 0.000000 -0.017267
# 5 0.008934 -0.002772 -0.008209 0.000000 0.040341 0.000000
# 6 0.000000 0.000000 0.000000 -0.017267 0.000000 0.049573
#
#
# Mechanical properties :
#
#
# Convention : Reuss Voigt Hill
#
# Bulk Modulus (GPa) = 27.25341 33.90666 30.58003
# Shear Modulus (GPa) = 20.49946 26.34129 23.42037
#
# Velocity S-wave (km/s) = 3.24703 3.68073 3.47066
# Velocity P-wave (km/s) = 5.29854 5.95839 5.63813
#
# Compressibility (1/GPa) = 0.03669266
#
# Stress axis : x y z
#
# Youngs Moduli (GPa) = 61.24501 57.62244 45.59869
#
# Poissons Ratio (x) = 0.17283 0.50251
# Poissons Ratio (y) = 0.18369 -0.20791
# Poissons Ratio (z) = 0.67494 -0.26273
#
# Static dielectric constant tensor:
#      x y z
#    x 3.588840 0.000000 0.096140 
#    y 0.000000 3.985010 0.000000 
#    z 0.096140 0.000000 3.331230 
# 
# 
# High freq. dielectric constant tensor:
#      x y z
#    x 1.754300 0.000000 0.006910 
#    y 0.000000 1.783430 0.000000 
#    z 0.006910 0.000000 1.746040 
# 
# From -- ./inp_files/79204.got.cif
#   From: 2010.03.12/outbox.cif.g09.slc.cpg/sg14_40_cif.got.tgz:79204.got - 2010.03.31 13:35:05.
