data_PCOD8124688
_publ_section_title
;
Structure prediction by ZEFSAII (Michael W. Deem and Ramdas Pophale) SiO2 
 PCOD8124688
Probable space group: P 21/C
;
_chemical_formula_sum "Si O2"
_cell_formula_units_Z 32
_cell_length_a 11.354945
_cell_length_b 21.971916
_cell_length_c 10.341708
_cell_angle_alpha 90.000000
_cell_angle_beta 145.618504
_cell_angle_gamma 90.000000
_cell_volume 1457.012936
_symmetry_space_group_name_H-M "P 21/C"
_symmetry_group_IT_number 14
_symmetry_cell_setting 'monoclinic'
loop_
_space_group_symop_operation_xyz
x,y,z
-x,1/2+y,1/2-z
-x,-y,-z
x,1/2-y,1/2+z
loop_
_atom_site_type_symbol
_atom_site_label
_atom_site_fract_x
_atom_site_fract_y
_atom_site_fract_z
Si Si1 0.098581 0.312732 0.740995
Si Si2 0.054033 0.018888 0.843488
Si Si3 0.614785 0.581460 0.509384
Si Si4 0.459497 0.223051 0.043980
Si Si5 0.678044 0.213322 0.981024
Si Si6 0.723451 0.990337 0.346605
Si Si7 0.462590 0.107291 0.665441
Si Si8 0.851239 0.410008 0.378967
O O1 0.243777 0.258603 0.818849
O O2 0.927665 0.285442 0.686244
O O3 0.982895 0.347927 0.518920
O O4 0.240997 0.361437 0.943602
O O5 0.262551 0.057395 0.005990
O O6 0.896687 0.061899 0.781047
O O7 0.950093 0.003516 0.610988
O O8 0.097899 0.957198 0.959939
O O9 0.598506 0.653276 0.491626
O O10 0.383118 0.552279 0.301019
O O11 0.742907 0.559853 0.751582
O O12 0.620243 0.236140 0.072145
O O13 0.565439 0.245379 0.271521
O O14 0.594299 0.144120 0.892966
O O15 0.574802 0.961339 0.322347
O O16 0.604074 0.105620 0.663084
#
# Coordination Sequence:
#
# PCOD8124688 Si02
#       8
#     4   4   4   4   4   4   4   4
#     4  10  23  43  71  93 134 184 221 282 346 408
#     4  11  23  39  63 105 136 174 222 281 341 407
#     4  11  25  43  65  96 138 173 231 282 340 411
#     4  11  25  46  69 100 134 180 233 287 339 411
#     4  10  24  45  69  98 129 177 231 283 340 414
#     4  11  22  41  66  94 131 181 215 280 342 403
#     4  10  19  42  66  93 129 178 222 269 341 406
#     4  10  22  39  67 100 137 174 226 275 339 421
#
# _framework density 21.962743
#
# number of rings (size 3 to 8) (size 9 to 14) (size 15 to 20)
#    0.000    1.500    3.750    0.375    1.750    4.500 
#   11.250    0.000    0.000    0.000    0.000    0.000 
#    0.000    0.000    0.000    0.000    0.000    0.000 
#
# Total GULP energy -396798.713510 kJ/mol
# GULP energy per Si atom -12399.959797 kJ/mol
# Density = 2.191275 g / cm^3
# Si number density = 21.962743 Si / 1000 Ang^3
#
#
#
# Elastic Constant Matrix: (Units=GPa)
#
#
# Indices 1 2 3 4 5 6 
#
# 1 84.0934 37.8316 32.2470 0.0000 15.1978 0.0000
# 2 37.8316 133.0050 35.0038 0.0000 7.4925 0.0000
# 3 32.2470 35.0038 85.1472 0.0000 13.9701 0.0000
# 4 0.0000 0.0000 0.0000 24.9624 0.0000 4.8712
# 5 15.1978 7.4925 13.9701 0.0000 39.3300 0.0000
# 6 0.0000 0.0000 0.0000 4.8712 0.0000 30.5972
#
#
#
# Elastic Compliance Matrix: (Units=1/GPa)
#
#
# Indices 1 2 3 4 5 6 
#
# 1 0.015545 -0.003162 -0.003930 0.000000 -0.004009 0.000000
# 2 -0.003162 0.009080 -0.002604 0.000000 0.000417 0.000000
# 3 -0.003930 -0.002604 0.014837 0.000000 -0.003256 0.000000
# 4 0.000000 0.000000 0.000000 0.041345 0.000000 -0.006582
# 5 -0.004009 0.000417 -0.003256 0.000000 0.028052 0.000000
# 6 0.000000 0.000000 0.000000 -0.006582 0.000000 0.033731
#
#
# Mechanical properties :
#
#
# Convention : Reuss Voigt Hill
#
# Bulk Modulus (GPa) = 49.82099 56.93449 53.37774
# Shear Modulus (GPa) = 29.64368 32.12215 30.88292
#
# Velocity S-wave (km/s) = 3.67785 3.82851 3.75394
# Velocity P-wave (km/s) = 6.38506 6.74706 6.56855
#
# Compressibility (1/GPa) = 0.02007186
#
# Stress axis : x y z
#
# Youngs Moduli (GPa) = 64.32803 110.13813 67.39821
#
# Poissons Ratio (x) = 0.34821 0.26487
# Poissons Ratio (y) = 0.20338 0.17548
# Poissons Ratio (z) = 0.25280 0.28675
#
# Static dielectric constant tensor:
#      x y z
#    x 3.974000 0.000000 0.232630 
#    y 0.000000 3.984750 0.000000 
#    z 0.232630 0.000000 3.802200 
# 
# 
# High freq. dielectric constant tensor:
#      x y z
#    x 1.863000 0.000000 0.017940 
#    y 0.000000 1.867310 0.000000 
#    z 0.017940 0.000000 1.853780 
# 
# From -- ./inp_files/30825.got.cif
#   From: 2010.03.12/outbox.cif.g09.slc.cpg/sg14_16_cif.got.tgz:30825.got - 2010.03.31 13:35:05.
