data_PCOD8124701
_publ_section_title
;
Structure prediction by ZEFSAII (Michael W. Deem and Ramdas Pophale) SiO2 
 PCOD8124701
Probable space group: P 21/C
;
_chemical_formula_sum "Si O2"
_cell_formula_units_Z 28
_cell_length_a 7.141437
_cell_length_b 9.610229
_cell_length_c 16.231379
_cell_angle_alpha 90.000000
_cell_angle_beta 112.648015
_cell_angle_gamma 90.000000
_cell_volume 1028.072378
_symmetry_space_group_name_H-M "P 21/C"
_symmetry_group_IT_number 14
_symmetry_cell_setting 'monoclinic'
loop_
_space_group_symop_operation_xyz
x,y,z
-x,1/2+y,1/2-z
-x,-y,-z
x,1/2-y,1/2+z
loop_
_atom_site_type_symbol
_atom_site_label
_atom_site_fract_x
_atom_site_fract_y
_atom_site_fract_z
Si Si1 0.808431 0.593034 0.571203
Si Si2 0.404652 0.432098 0.069393
Si Si3 0.523344 0.701791 0.760566
Si Si4 0.807345 0.140774 0.190965
Si Si5 0.234496 0.141346 0.333818
Si Si6 0.254703 0.564287 0.592412
Si Si7 0.725383 0.188203 0.529904
O O1 0.714824 0.493445 0.626841
O O2 0.789800 0.752668 0.593265
O O3 0.701018 0.563051 0.463906
O O4 0.040647 0.543538 0.600640
O O5 0.335815 0.366480 0.143847
O O6 0.621874 0.513219 0.118647
O O7 0.485837 0.314480 0.018630
O O8 0.229888 0.532744 0.001446
O O9 0.351666 0.802204 0.769348
O O10 0.675563 0.786932 0.731424
O O11 0.422173 0.574639 0.692394
O O12 0.858860 0.260976 0.130519
O O13 0.008881 0.091447 0.272332
O O14 0.257857 0.709179 0.543636
#
# Coordination Sequence:
#
# PCOD8124701 Si02
#       7
#     4   4   4   4   4   4   4
#     4  10  23  40  67  95 132 172 223 265 338 387
#     4  10  22  42  64  99 135 171 223 272 323 404
#     4  11  23  41  68  94 134 171 219 275 330 384
#     4  10  23  44  65  95 134 173 214 279 324 391
#     4  12  24  39  69  99 126 176 225 265 330 400
#     4  10  19  43  65  93 129 172 214 280 323 393
#     4   9  20  43  66  87 136 175 207 275 337 373
#
# _framework density 27.235437000000001
#
# number of rings (size 3 to 8) (size 9 to 14) (size 15 to 20)
#    0.000    1.714    2.857    0.857    4.000    0.571 
#    0.000   14.286    0.000    0.000    0.000    0.000 
#    0.000    0.000    0.000    0.000    0.000    0.000 
#
# Total GULP energy -346909.518739 kJ/mol
# GULP energy per Si atom -12389.625669 kJ/mol
# Density = 2.717345 g / cm^3
# Si number density = 27.235437 Si / 1000 Ang^3
#
#
#
# Elastic Constant Matrix: (Units=GPa)
#
#
# Indices 1 2 3 4 5 6 
#
# 1 26.6339 -6.7975 3.7580 0.0000 -10.4829 0.0000
# 2 -6.7975 27.0481 -21.2524 0.0000 1.6638 0.0000
# 3 3.7580 -21.2524 65.5415 0.0000 -19.5595 0.0000
# 4 0.0000 0.0000 0.0000 31.5195 0.0000 2.6673
# 5 -10.4829 1.6638 -19.5595 0.0000 35.6729 0.0000
# 6 0.0000 0.0000 0.0000 2.6673 0.0000 29.0010
#
#
#
# Elastic Compliance Matrix: (Units=1/GPa)
#
#
# Indices 1 2 3 4 5 6 
#
# 1 0.047791 0.017339 0.008168 0.000000 0.017714 0.000000
# 2 0.017339 0.057775 0.022067 0.000000 0.014500 0.000000
# 3 0.008168 0.022067 0.026727 0.000000 0.016026 0.000000
# 4 0.000000 0.000000 0.000000 0.031975 0.000000 -0.002941
# 5 0.017714 0.014500 0.016026 0.000000 0.041349 0.000000
# 6 0.000000 0.000000 0.000000 -0.002941 0.000000 0.034752
#
#
# Mechanical properties :
#
#
# Convention : Reuss Voigt Hill
#
# Bulk Modulus (GPa) = 4.39672 7.84888 6.12280
# Shear Modulus (GPa) = 22.62089 28.80637 25.71363
#
# Velocity S-wave (km/s) = 2.88508 3.25573 3.07599
# Velocity P-wave (km/s) = 3.56597 4.12567 3.85599
#
# Compressibility (1/GPa) = 0.22744233
#
# Stress axis : x y z
#
# Youngs Moduli (GPa) = 20.92446 17.30842 37.41510
#
# Poissons Ratio (x) = -0.30011 -0.30562
# Poissons Ratio (y) = -0.36281 -0.82565
# Poissons Ratio (z) = -0.17092 -0.38195
#
# Static dielectric constant tensor:
#      x y z
#    x 4.540170 0.000000 -0.144310 
#    y 0.000000 5.019290 0.000000 
#    z -0.144310 0.000000 5.571030 
# 
# 
# High freq. dielectric constant tensor:
#      x y z
#    x 2.065590 0.000000 -0.015470 
#    y 0.000000 2.097080 0.000000 
#    z -0.015470 0.000000 2.125750 
# 
# From -- ./inp_files/54933.got.cif
#   From: 2010.03.12/outbox.cif.g09.slc.cpg/sg14_28_cif.got.tgz:54933.got - 2010.03.31 13:35:05.
