data_PCOD8124484
_publ_section_title
;
Structure prediction by ZEFSAII (Michael W. Deem and Ramdas Pophale) SiO2 
 PCOD8124484
Probable space group: P 21/C
;
_chemical_formula_sum "Si O2"
_cell_formula_units_Z 24
_cell_length_a 14.149013
_cell_length_b 8.675255
_cell_length_c 14.150295
_cell_angle_alpha 90.000000
_cell_angle_beta 32.092890
_cell_angle_gamma 90.000000
_cell_volume 922.801631
_symmetry_space_group_name_H-M "P 21/C"
_symmetry_group_IT_number 14
_symmetry_cell_setting 'monoclinic'
loop_
_space_group_symop_operation_xyz
x,y,z
-x,1/2+y,1/2-z
-x,-y,-z
x,1/2-y,1/2+z
loop_
_atom_site_type_symbol
_atom_site_label
_atom_site_fract_x
_atom_site_fract_y
_atom_site_fract_z
Si Si1 0.330168 0.306694 0.002809
Si Si2 0.370592 0.551862 0.503074
Si Si3 0.975287 0.996539 0.183741
Si Si4 0.236840 0.521514 0.811145
Si Si5 0.034852 0.157972 0.617908
Si Si6 0.296660 0.674341 0.367464
O O1 0.527505 0.380356 0.837837
O O2 0.338720 0.126374 0.012265
O O3 0.242599 0.322287 0.973287
O O4 0.206040 0.399534 0.182913
O O5 0.225352 0.598689 0.712958
O O6 0.577410 0.573564 0.359488
O O7 0.338862 0.667512 0.443484
O O8 0.938848 0.175745 0.200041
O O9 0.047227 0.957386 0.230680
O O10 0.130654 0.935801 0.981384
O O11 0.251067 0.649388 0.880832
O O12 0.067742 0.412383 0.983678
#
# Coordination Sequence:
#
# PCOD8124484 Si02
#       6
#     4   4   4   4   4   4
#     4   9  21  36  61  91 120 170 215 251 322 372
#     4  10  19  40  63  94 131 168 213 264 318 382
#     4  10  20  35  62  89 123 169 213 257 310 379
#     4  10  22  35  66  97 125 167 220 259 315 392
#     4  10  19  38  57  91 124 160 215 259 307 371
#     4  11  19  38  67  87 124 171 207 260 321 374
#
# _framework density 26.007756000000001
#
# number of rings (size 3 to 8) (size 9 to 14) (size 15 to 20)
#    1.000    1.000    3.333    1.000    0.000    0.000 
#    0.000    4.167    3.667    7.000    0.000    1.167 
#    0.000    0.000    0.000    0.000    0.000    0.000 
#
# Total GULP energy -297425.789237 kJ/mol
# GULP energy per Si atom -12392.741218 kJ/mol
# Density = 2.594856 g / cm^3
# Si number density = 26.007756 Si / 1000 Ang^3
#
#
#
# Elastic Constant Matrix: (Units=GPa)
#
#
# Indices 1 2 3 4 5 6 
#
# 1 53.7061 43.5487 33.0452 0.0000 5.6339 0.0000
# 2 43.5487 125.8405 79.0049 0.0000 5.6896 0.0000
# 3 33.0452 79.0049 199.7371 0.0000 -27.0322 0.0000
# 4 0.0000 0.0000 0.0000 39.8750 0.0000 -6.5015
# 5 5.6339 5.6896 -27.0322 0.0000 41.4495 0.0000
# 6 0.0000 0.0000 0.0000 -6.5015 0.0000 30.0301
#
#
#
# Elastic Compliance Matrix: (Units=1/GPa)
#
#
# Indices 1 2 3 4 5 6 
#
# 1 0.026489 -0.007901 -0.001752 0.000000 -0.003659 0.000000
# 2 -0.007901 0.013787 -0.004669 0.000000 -0.003863 0.000000
# 3 -0.001752 -0.004669 0.007965 0.000000 0.006074 0.000000
# 4 0.000000 0.000000 0.000000 0.025996 0.000000 0.005628
# 5 -0.003659 -0.003863 0.006074 0.000000 0.029115 0.000000
# 6 0.000000 0.000000 0.000000 0.005628 0.000000 0.034518
#
#
# Mechanical properties :
#
#
# Convention : Reuss Voigt Hill
#
# Bulk Modulus (GPa) = 51.03113 76.72015 63.87564
# Shear Modulus (GPa) = 28.89394 37.18323 33.03859
#
# Velocity S-wave (km/s) = 3.33674 3.78524 3.56804
# Velocity P-wave (km/s) = 5.87446 6.97617 6.44889
#
# Compressibility (1/GPa) = 0.01959588
#
# Stress axis : x y z
#
# Youngs Moduli (GPa) = 37.75199 72.53286 125.54466
#
# Poissons Ratio (x) = 0.57310 0.21998
# Poissons Ratio (y) = 0.29829 0.58617
# Poissons Ratio (z) = 0.06615 0.33866
#
# Static dielectric constant tensor:
#      x y z
#    x 5.156190 0.000000 -0.598480 
#    y 0.000000 4.172240 0.000000 
#    z -0.598480 0.000000 5.310760 
# 
# 
# High freq. dielectric constant tensor:
#      x y z
#    x 2.051540 0.000000 -0.040280 
#    y 0.000000 2.011810 0.000000 
#    z -0.040280 0.000000 2.074470 
# 
# From -- ./inp_files/48492.got.cif
#   From: 2010.03.12/outbox.cif.g09.slc.cpg/sg14_25_cif.got.tgz:48492.got - 2010.03.31 13:35:05.
