data_PCOD8124488
_publ_section_title
;
Structure prediction by ZEFSAII (Michael W. Deem and Ramdas Pophale) SiO2 
 PCOD8124488
Probable space group: P 21/C
;
_chemical_formula_sum "Si O2"
_cell_formula_units_Z 24
_cell_length_a 7.685938
_cell_length_b 8.944330
_cell_length_c 19.804120
_cell_angle_alpha 90.000000
_cell_angle_beta 59.493884
_cell_angle_gamma 90.000000
_cell_volume 1172.987322
_symmetry_space_group_name_H-M "P 21/C"
_symmetry_group_IT_number 14
_symmetry_cell_setting 'monoclinic'
loop_
_space_group_symop_operation_xyz
x,y,z
-x,1/2+y,1/2-z
-x,-y,-z
x,1/2-y,1/2+z
loop_
_atom_site_type_symbol
_atom_site_label
_atom_site_fract_x
_atom_site_fract_y
_atom_site_fract_z
Si Si1 0.629204 0.144210 0.394746
Si Si2 0.178695 0.757148 0.852350
Si Si3 0.744892 0.636627 0.944482
Si Si4 0.773589 0.082350 0.793727
Si Si5 0.204292 0.019886 0.757046
Si Si6 0.417928 0.275103 0.660557
O O1 0.397988 0.165888 0.463341
O O2 0.733012 0.306474 0.365117
O O3 0.748691 0.040920 0.425993
O O4 0.627925 0.062697 0.322428
O O5 0.242947 0.667931 0.773221
O O6 0.345228 0.735678 0.877782
O O7 0.964429 0.698667 0.921698
O O8 0.175005 0.934711 0.833819
O O9 0.657574 0.727162 0.897999
O O10 0.993998 0.011478 0.758022
O O11 0.608924 0.951605 0.825042
O O12 0.285178 0.190677 0.745442
#
# Coordination Sequence:
#
# PCOD8124488 Si02
#       6
#     4   4   4   4   4   4
#     4   9  20  36  62  81 114 156 191 235 296 344
#     4  11  21  36  60  85 115 151 194 243 286 347
#     4  10  20  40  58  82 119 153 189 240 291 353
#     4  11  19  37  63  85 112 155 195 239 289 342
#     4  10  19  38  58  86 112 152 193 239 291 340
#     4  11  21  35  60  86 117 149 195 240 291 340
#
# _framework density 20.460578000000002
#
# number of rings (size 3 to 8) (size 9 to 14) (size 15 to 20)
#    0.000    1.667    5.000    2.000    0.000    0.667 
#    0.000    8.333    7.333    0.000    0.000    0.000 
#    0.000    0.000    0.000    0.000    0.000    0.000 
#
# Total GULP energy -297495.616208 kJ/mol
# GULP energy per Si atom -12395.650675 kJ/mol
# Density = 2.041401 g / cm^3
# Si number density = 20.460578 Si / 1000 Ang^3
#
#
#
# Elastic Constant Matrix: (Units=GPa)
#
#
# Indices 1 2 3 4 5 6 
#
# 1 117.9140 18.7701 21.8338 0.0000 -27.3788 0.0000
# 2 18.7701 107.8554 36.5146 0.0000 -13.9973 0.0000
# 3 21.8338 36.5146 90.5019 0.0000 -33.3824 0.0000
# 4 0.0000 0.0000 0.0000 16.0079 0.0000 -3.9238
# 5 -27.3788 -13.9973 -33.3824 0.0000 23.7614 0.0000
# 6 0.0000 0.0000 0.0000 -3.9238 0.0000 22.5836
#
#
#
# Elastic Compliance Matrix: (Units=1/GPa)
#
#
# Indices 1 2 3 4 5 6 
#
# 1 0.012636 -0.001231 0.005295 0.000000 0.021273 0.000000
# 2 -0.001231 0.010861 -0.004667 0.000000 -0.001576 0.000000
# 3 0.005295 -0.004667 0.026757 0.000000 0.040943 0.000000
# 4 0.000000 0.000000 0.000000 0.065248 0.000000 0.011337
# 5 0.021273 -0.001576 0.040943 0.000000 0.123189 0.000000
# 6 0.000000 0.000000 0.000000 0.011337 0.000000 0.046250
#
#
# Mechanical properties :
#
#
# Convention : Reuss Voigt Hill
#
# Bulk Modulus (GPa) = 20.38770 52.27869 36.33319
# Shear Modulus (GPa) = 16.52918 28.41410 22.47164
#
# Velocity S-wave (km/s) = 2.84536 3.73060 3.31764
# Velocity P-wave (km/s) = 4.55860 6.64552 5.69841
#
# Compressibility (1/GPa) = 0.04904919
#
# Stress axis : x y z
#
# Youngs Moduli (GPa) = 79.14071 92.07083 37.37333
#
# Poissons Ratio (x) = 0.11332 -0.19789
# Poissons Ratio (y) = 0.09741 0.17441
# Poissons Ratio (z) = -0.41905 0.42966
#
# Static dielectric constant tensor:
#      x y z
#    x 3.409130 0.000000 -0.240770 
#    y 0.000000 4.079810 0.000000 
#    z -0.240770 0.000000 3.585860 
# 
# 
# High freq. dielectric constant tensor:
#      x y z
#    x 1.776490 0.000000 -0.023420 
#    y 0.000000 1.810560 0.000000 
#    z -0.023420 0.000000 1.776140 
# 
# From -- ./inp_files/54576.got.cif
#   From: 2010.03.12/outbox.cif.g09.slc.cpg/sg14_28_cif.got.tgz:54576.got - 2010.03.31 13:35:05.
