data_PCOD8124368
_publ_section_title
;
Structure prediction by ZEFSAII (Michael W. Deem and Ramdas Pophale) SiO2 
 PCOD8124368
Probable space group: P 21/C
;
_chemical_formula_sum "Si O2"
_cell_formula_units_Z 28
_cell_length_a 11.236161
_cell_length_b 15.709052
_cell_length_c 7.718470
_cell_angle_alpha 90.000000
_cell_angle_beta 117.729517
_cell_angle_gamma 90.000000
_cell_volume 1205.918632
_symmetry_space_group_name_H-M "P 21/C"
_symmetry_group_IT_number 14
_symmetry_cell_setting 'monoclinic'
loop_
_space_group_symop_operation_xyz
x,y,z
-x,1/2+y,1/2-z
-x,-y,-z
x,1/2-y,1/2+z
loop_
_atom_site_type_symbol
_atom_site_label
_atom_site_fract_x
_atom_site_fract_y
_atom_site_fract_z
Si Si1 0.167893 0.942425 0.683320
Si Si2 0.625092 0.411970 0.222025
Si Si3 0.898959 0.626441 0.912547
Si Si4 0.549751 0.095043 0.048894
Si Si5 0.583523 0.886472 0.708028
Si Si6 0.078328 0.585657 0.509250
Si Si7 0.851089 0.802556 0.758391
O O1 0.310770 0.899573 0.748597
O O2 0.053657 0.902932 0.480514
O O3 0.192269 0.043411 0.674387
O O4 0.122320 0.924134 0.844009
O O5 0.569701 0.369484 0.366117
O O6 0.615750 0.513729 0.225989
O O7 0.784094 0.394400 0.291613
O O8 0.539484 0.370401 0.009259
O O9 0.858869 0.700114 0.751194
O O10 0.868950 0.660493 0.081613
O O11 0.451208 0.143807 0.117058
O O12 0.500000 0.000000 0.000000
O O13 0.709194 0.830246 0.739404
O O14 0.000000 0.500000 0.500000
O O15 0.973718 0.663518 0.462281
#
# Coordination Sequence:
#
# PCOD8124368 Si02
#       7
#     4   4   4   4   4   4   4
#     4   9  21  41  65  91 122 179 218 263 328 397
#     4   9  19  34  59  93 128 161 214 258 309 396
#     4  10  24  41  64  91 129 164 221 271 328 394
#     4   9  19  34  62  92 125 164 208 261 316 384
#     4  10  20  35  60  93 123 163 209 259 322 385
#     4  10  19  36  64  95 124 169 218 266 325 389
#     4  11  24  40  62  94 127 167 214 277 336 378
#
# _framework density 23.218812
#
# number of rings (size 3 to 8) (size 9 to 14) (size 15 to 20)
#    0.000    2.286    1.429    0.000    8.000    1.143 
#    0.000    0.000    6.286    0.000    0.000    0.000 
#    0.000    0.000    0.000    0.000    0.000    0.000 
#
# Total GULP energy -346958.877591 kJ/mol
# GULP energy per Si atom -12391.388485 kJ/mol
# Density = 2.316596 g / cm^3
# Si number density = 23.218812 Si / 1000 Ang^3
#
#
#
# Elastic Constant Matrix: (Units=GPa)
#
#
# Indices 1 2 3 4 5 6 
#
# 1 121.9200 29.4155 42.6544 0.0000 9.9926 0.0000
# 2 29.4155 85.2997 17.0428 0.0000 1.0438 0.0000
# 3 42.6544 17.0428 85.0224 0.0000 21.2755 0.0000
# 4 0.0000 0.0000 0.0000 22.6097 0.0000 3.5047
# 5 9.9926 1.0438 21.2755 0.0000 28.6525 0.0000
# 6 0.0000 0.0000 0.0000 3.5047 0.0000 14.0994
#
#
#
# Elastic Compliance Matrix: (Units=1/GPa)
#
#
# Indices 1 2 3 4 5 6 
#
# 1 0.010504 -0.002679 -0.004717 0.000000 -0.000063 0.000000
# 2 -0.002679 0.012962 -0.001683 0.000000 0.001711 0.000000
# 3 -0.004717 -0.001683 0.017242 0.000000 -0.011096 0.000000
# 4 0.000000 0.000000 0.000000 0.046001 0.000000 -0.011435
# 5 -0.000063 0.001711 -0.011096 0.000000 0.043100 0.000000
# 6 0.000000 0.000000 0.000000 -0.011435 0.000000 0.073768
#
#
# Mechanical properties :
#
#
# Convention : Reuss Voigt Hill
#
# Bulk Modulus (GPa) = 44.34306 52.27418 48.30862
# Shear Modulus (GPa) = 21.81013 26.61427 24.21220
#
# Velocity S-wave (km/s) = 3.06817 3.38929 3.23272
# Velocity P-wave (km/s) = 5.62947 6.15459 5.89788
#
# Compressibility (1/GPa) = 0.02255144
#
# Stress axis : x y z
#
# Youngs Moduli (GPa) = 95.20326 77.14577 57.99824
#
# Poissons Ratio (x) = 0.20668 0.27356
# Poissons Ratio (y) = 0.25505 0.09759
# Poissons Ratio (z) = 0.44905 0.12980
#
# Static dielectric constant tensor:
#      x y z
#    x 4.616140 0.000000 0.356310 
#    y 0.000000 4.254050 0.000000 
#    z 0.356310 0.000000 4.770780 
# 
# 
# High freq. dielectric constant tensor:
#      x y z
#    x 1.935160 0.000000 0.005810 
#    y 0.000000 1.875860 0.000000 
#    z 0.005810 0.000000 1.922200 
# 
# From -- ./inp_files/13404.got.cif
#   From: 2010.03.12/outbox.cif.g09.slc.cpg/sg14_7_cif.got.tgz:13404.got - 2010.03.31 13:35:05.
