data_PCOD8124104
_publ_section_title
;
Structure prediction by ZEFSAII (Michael W. Deem and Ramdas Pophale) SiO2 
 PCOD8124104
Probable space group: P 21/C
;
_chemical_formula_sum "Si O2"
_cell_formula_units_Z 32
_cell_length_a 9.887388
_cell_length_b 11.708401
_cell_length_c 14.695281
_cell_angle_alpha 90.000000
_cell_angle_beta 63.672182
_cell_angle_gamma 90.000000
_cell_volume 1524.742496
_symmetry_space_group_name_H-M "P 21/C"
_symmetry_group_IT_number 14
_symmetry_cell_setting 'monoclinic'
loop_
_space_group_symop_operation_xyz
x,y,z
-x,1/2+y,1/2-z
-x,-y,-z
x,1/2-y,1/2+z
loop_
_atom_site_type_symbol
_atom_site_label
_atom_site_fract_x
_atom_site_fract_y
_atom_site_fract_z
Si Si1 0.248772 0.347307 0.155657
Si Si2 0.693978 0.922177 0.161110
Si Si3 0.181397 0.832426 0.841136
Si Si4 0.105966 0.070965 0.402757
Si Si5 0.350394 0.601124 0.801964
Si Si6 0.567525 0.112009 0.522510
Si Si7 0.147059 0.898490 0.655326
Si Si8 0.136447 0.229575 0.020212
O O1 0.238222 0.353659 0.269973
O O2 0.421682 0.309130 0.081993
O O3 0.191595 0.468323 0.134419
O O4 0.156951 0.254113 0.123083
O O5 0.513033 0.915794 0.207845
O O6 0.732509 0.055997 0.149890
O O7 0.762536 0.874812 0.046618
O O8 0.299129 0.729709 0.797098
O O9 0.106088 0.858708 0.767184
O O10 0.039784 0.798429 0.946828
O O11 0.188148 0.164864 0.440965
O O12 0.999195 0.131709 0.360183
O O13 0.225621 0.993429 0.309554
O O14 0.000000 0.000000 0.500000
O O15 0.355054 0.577443 0.907096
O O16 0.700252 0.169275 0.422461
O O17 0.500000 0.000000 0.500000
#
# Coordination Sequence:
#
# PCOD8124104 Si02
#       8
#     4   4   4   4   4   4   4   4
#     4   9  19  36  58  91 121 162 215 255 311 389
#     4  10  26  41  64  92 133 177 213 269 335 390
#     4  11  24  41  62  94 135 171 218 262 332 405
#     4  12  20  38  65  98 122 162 223 278 318 374
#     4  11  22  41  66  96 125 168 223 274 323 396
#     4   9  16  32  60  92 122 152 203 268 319 366
#     4  10  19  34  59  92 125 159 202 274 316 371
#     4  12  23  40  67  92 132 173 213 269 330 390
#
# _framework density 20.987148999999999
#
# number of rings (size 3 to 8) (size 9 to 14) (size 15 to 20)
#    0.000    1.500    3.750    1.875    5.250    0.000 
#    0.000    0.000    0.000    3.750    0.000    0.000 
#    0.000    0.000    0.000    0.000    0.000    0.000 
#
# Total GULP energy -396466.564126 kJ/mol
# GULP energy per Si atom -12389.580129 kJ/mol
# Density = 2.093938 g / cm^3
# Si number density = 20.987149 Si / 1000 Ang^3
#
#
#
# Elastic Constant Matrix: (Units=GPa)
#
#
# Indices 1 2 3 4 5 6 
#
# 1 106.5268 43.7519 26.9559 0.0000 -12.9753 0.0000
# 2 43.7519 94.7174 33.1951 0.0000 -8.2888 0.0000
# 3 26.9559 33.1951 56.5413 0.0000 -10.3122 0.0000
# 4 0.0000 0.0000 0.0000 22.8983 0.0000 -5.1835
# 5 -12.9753 -8.2888 -10.3122 0.0000 40.3516 0.0000
# 6 0.0000 0.0000 0.0000 -5.1835 0.0000 26.1742
#
#
#
# Elastic Compliance Matrix: (Units=1/GPa)
#
#
# Indices 1 2 3 4 5 6 
#
# 1 0.012203 -0.004462 -0.002779 0.000000 0.002297 0.000000
# 2 -0.004462 0.014947 -0.006660 0.000000 -0.000066 0.000000
# 3 -0.002779 -0.006660 0.023609 0.000000 0.003772 0.000000
# 4 0.000000 0.000000 0.000000 0.045721 0.000000 0.009054
# 5 0.002297 -0.000066 0.003772 0.000000 0.026471 0.000000
# 6 0.000000 0.000000 0.000000 0.009054 0.000000 0.039999
#
#
# Mechanical properties :
#
#
# Convention : Reuss Voigt Hill
#
# Bulk Modulus (GPa) = 43.56043 51.73238 47.64640
# Shear Modulus (GPa) = 25.20098 28.14366 26.67232
#
# Velocity S-wave (km/s) = 3.46899 3.66593 3.56882
# Velocity P-wave (km/s) = 6.07009 6.52854 6.30348
#
# Compressibility (1/GPa) = 0.02295662
#
# Stress axis : x y z
#
# Youngs Moduli (GPa) = 81.94797 66.90275 42.35604
#
# Poissons Ratio (x) = 0.29850 0.11772
# Poissons Ratio (y) = 0.36563 0.28211
# Poissons Ratio (z) = 0.22776 0.44560
#
# Static dielectric constant tensor:
#      x y z
#    x 4.048750 0.000000 -0.158070 
#    y 0.000000 3.585790 0.000000 
#    z -0.158070 0.000000 3.791190 
# 
# 
# High freq. dielectric constant tensor:
#      x y z
#    x 1.834370 0.000000 -0.009660 
#    y 0.000000 1.791810 0.000000 
#    z -0.009660 0.000000 1.813730 
# 
# From -- ./inp_files/40272.got.cif
#   From: 2010.03.12/outbox.cif.g09.slc.cpg/sg14_21_cif.got.tgz:40272.got - 2010.03.31 13:35:05.
