data_PCOD8124799
_publ_section_title
;
Structure prediction by ZEFSAII (Michael W. Deem and Ramdas Pophale) SiO2 
 PCOD8124799
Probable space group: P 21/C
;
_chemical_formula_sum "Si O2"
_cell_formula_units_Z 28
_cell_length_a 8.860255
_cell_length_b 11.105545
_cell_length_c 20.308380
_cell_angle_alpha 90.000000
_cell_angle_beta 43.874371
_cell_angle_gamma 90.000000
_cell_volume 1384.982863
_symmetry_space_group_name_H-M "P 21/C"
_symmetry_group_IT_number 14
_symmetry_cell_setting 'monoclinic'
loop_
_space_group_symop_operation_xyz
x,y,z
-x,1/2+y,1/2-z
-x,-y,-z
x,1/2-y,1/2+z
loop_
_atom_site_type_symbol
_atom_site_label
_atom_site_fract_x
_atom_site_fract_y
_atom_site_fract_z
Si Si1 0.348976 0.817611 0.529677
Si Si2 0.154142 0.824068 0.971475
Si Si3 0.734169 0.049454 0.258606
Si Si4 0.304428 0.434782 0.362900
Si Si5 0.003643 0.249243 0.608133
Si Si6 0.810024 0.555218 0.869011
Si Si7 0.519854 0.743293 0.600992
O O1 0.286890 0.744902 0.485049
O O2 0.588647 0.871897 0.448451
O O3 0.350070 0.728258 0.593363
O O4 0.184587 0.928245 0.593938
O O5 0.152614 0.738468 0.906851
O O6 0.276200 0.948020 0.916928
O O7 0.912737 0.853831 0.072634
O O8 0.530947 0.125596 0.351557
O O9 0.930720 0.133234 0.171508
O O10 0.635279 0.968666 0.230906
O O11 0.840561 0.965091 0.281400
O O12 0.500428 0.357138 0.334881
O O13 0.995271 0.134541 0.659878
O O14 0.241095 0.269004 0.503794
#
# Coordination Sequence:
#
# PCOD8124799 Si02
#       7
#     4   4   4   4   4   4   4
#     4   9  18  34  57  80 104 141 181 220 274 329
#     4   9  18  34  57  80 104 141 181 220 274 329
#     4  10  20  34  56  80 108 144 184 226 272 320
#     4   9  19  35  53  76 109 141 176 227 272 316
#     4   9  19  37  56  78 109 142 181 224 269 326
#     4   9  19  35  53  76 109 141 176 227 272 316
#     4   9  19  37  56  78 109 142 181 224 269 326
#
# _framework density 20.216856
#
# number of rings (size 3 to 8) (size 9 to 14) (size 15 to 20)
#    0.000    2.857    0.000    1.714    0.000    5.714 
#    0.000    5.714    0.000    0.000    0.000    0.000 
#    0.000    0.000    0.000    0.000    0.000    0.000 
#
# Total GULP energy -346944.951712 kJ/mol
# GULP energy per Si atom -12390.891133 kJ/mol
# Density = 2.017084 g / cm^3
# Si number density = 20.216856 Si / 1000 Ang^3
#
#
#
# Elastic Constant Matrix: (Units=GPa)
#
#
# Indices 1 2 3 4 5 6 
#
# 1 119.0084 67.6715 19.9161 0.0000 42.9238 0.0000
# 2 67.6715 82.2827 14.2079 0.0000 23.9015 0.0000
# 3 19.9161 14.2079 58.7439 0.0000 25.0251 0.0000
# 4 0.0000 0.0000 0.0000 28.7877 0.0000 13.8972
# 5 42.9238 23.9015 25.0251 0.0000 37.1709 0.0000
# 6 0.0000 0.0000 0.0000 13.8972 0.0000 47.2728
#
#
#
# Elastic Compliance Matrix: (Units=1/GPa)
#
#
# Indices 1 2 3 4 5 6 
#
# 1 0.022742 -0.013499 0.004269 0.000000 -0.020456 0.000000
# 2 -0.013499 0.022976 -0.001861 0.000000 0.002067 0.000000
# 3 0.004269 -0.001861 0.024700 0.000000 -0.020362 0.000000
# 4 0.000000 0.000000 0.000000 0.040482 0.000000 -0.011901
# 5 -0.020456 0.002067 -0.020362 0.000000 0.062904 0.000000
# 6 0.000000 0.000000 0.000000 -0.011901 0.000000 0.024652
#
#
# Mechanical properties :
#
#
# Convention : Reuss Voigt Hill
#
# Bulk Modulus (GPa) = 20.73126 51.51400 36.12263
# Shear Modulus (GPa) = 21.12213 33.19558 27.15886
#
# Velocity S-wave (km/s) = 3.23581 4.05653 3.66919
# Velocity P-wave (km/s) = 4.92314 6.89032 5.98807
#
# Compressibility (1/GPa) = 0.04823633
#
# Stress axis : x y z
#
# Youngs Moduli (GPa) = 43.97088 43.52376 40.48539
#
# Poissons Ratio (x) = 0.58752 -0.17283
# Poissons Ratio (y) = 0.59356 0.07535
# Poissons Ratio (z) = -0.18771 0.08100
#
# Static dielectric constant tensor:
#      x y z
#    x 3.872620 0.000000 0.471220 
#    y 0.000000 3.819340 0.000000 
#    z 0.471220 0.000000 3.691190 
# 
# 
# High freq. dielectric constant tensor:
#      x y z
#    x 1.781310 0.000000 0.031420 
#    y 0.000000 1.779270 0.000000 
#    z 0.031420 0.000000 1.785690 
# 
# From -- ./inp_files/65379.got.cif
#   From: 2010.03.12/outbox.cif.g09.slc.cpg/sg14_33_cif.got.tgz:65379.got - 2010.03.31 13:35:05.
