data_PCOD8124569
_publ_section_title
;
Structure prediction by ZEFSAII (Michael W. Deem and Ramdas Pophale) SiO2 
 PCOD8124569
Probable space group: P 21/C
;
_chemical_formula_sum "Si O2"
_cell_formula_units_Z 28
_cell_length_a 15.496255
_cell_length_b 9.903973
_cell_length_c 13.742112
_cell_angle_alpha 90.000000
_cell_angle_beta 134.056894
_cell_angle_gamma 90.000000
_cell_volume 1515.677869
_symmetry_space_group_name_H-M "P 21/C"
_symmetry_group_IT_number 14
_symmetry_cell_setting 'monoclinic'
loop_
_space_group_symop_operation_xyz
x,y,z
-x,1/2+y,1/2-z
-x,-y,-z
x,1/2-y,1/2+z
loop_
_atom_site_type_symbol
_atom_site_label
_atom_site_fract_x
_atom_site_fract_y
_atom_site_fract_z
Si Si1 0.009862 0.920077 0.843054
Si Si2 0.334539 0.415320 0.327071
Si Si3 0.585575 0.412297 0.446420
Si Si4 0.175353 0.322663 0.646220
Si Si5 0.729548 0.080889 0.869372
Si Si6 0.001991 0.228977 0.844163
Si Si7 0.745175 0.199809 0.224819
O O1 0.925093 0.895243 0.868265
O O2 0.970260 0.826970 0.723286
O O3 0.997204 0.075663 0.801222
O O4 0.145611 0.885672 0.979122
O O5 0.443488 0.382656 0.338663
O O6 0.387368 0.444367 0.477170
O O7 0.246203 0.288431 0.263509
O O8 0.261820 0.548737 0.234492
O O9 0.623039 0.421295 0.364072
O O10 0.659792 0.294550 0.561731
O O11 0.267048 0.436740 0.681282
O O12 0.111411 0.251900 0.504678
O O13 0.696843 0.194906 0.765696
O O14 0.880422 0.268025 0.802560
#
# Coordination Sequence:
#
# PCOD8124569 Si02
#       7
#     4   4   4   4   4   4   4
#     4  11  22  37  58  88 126 150 189 237 303 353
#     4   9  22  41  59  83 118 156 199 245 280 349
#     4   9  21  42  63  79 118 162 199 235 301 336
#     4  11  23  37  57  92 120 145 195 248 291 349
#     4  11  20  38  63  84 120 157 187 245 301 346
#     4  11  22  37  58  90 117 157 186 237 302 352
#     4  10  19  39  60  85 115 155 197 236 288 352
#
# _framework density 18.473582
#
# number of rings (size 3 to 8) (size 9 to 14) (size 15 to 20)
#    0.857    0.857    4.286    0.857    6.000    2.857 
#    0.000    0.714    0.000    0.000    0.000    0.000 
#    0.000    0.000    0.000    0.000    0.000    0.000 
#
# Total GULP energy -347169.577899 kJ/mol
# GULP energy per Si atom -12398.913496 kJ/mol
# Density = 1.843153 g / cm^3
# Si number density = 18.473582 Si / 1000 Ang^3
#
#
#
# Elastic Constant Matrix: (Units=GPa)
#
#
# Indices 1 2 3 4 5 6 
#
# 1 98.2868 30.9700 9.3310 0.0000 -9.0893 0.0000
# 2 30.9700 91.0531 31.5390 0.0000 -1.0555 0.0000
# 3 9.3310 31.5390 30.5757 0.0000 -3.9268 0.0000
# 4 0.0000 0.0000 0.0000 22.3307 0.0000 -6.0130
# 5 -9.0893 -1.0555 -3.9268 0.0000 27.1655 0.0000
# 6 0.0000 0.0000 0.0000 -6.0130 0.0000 25.1059
#
#
#
# Elastic Compliance Matrix: (Units=1/GPa)
#
#
# Indices 1 2 3 4 5 6 
#
# 1 0.011819 -0.004516 0.001566 0.000000 0.004005 0.000000
# 2 -0.004516 0.018912 -0.018574 0.000000 -0.003461 0.000000
# 3 0.001566 -0.018574 0.052334 0.000000 0.007367 0.000000
# 4 0.000000 0.000000 0.000000 0.047869 0.000000 0.011465
# 5 0.004005 -0.003461 0.007367 0.000000 0.039082 0.000000
# 6 0.000000 0.000000 0.000000 0.011465 0.000000 0.042577
#
#
# Mechanical properties :
#
#
# Convention : Reuss Voigt Hill
#
# Bulk Modulus (GPa) = 24.99025 40.39951 32.69488
# Shear Modulus (GPa) = 18.58870 24.79212 21.69041
#
# Velocity S-wave (km/s) = 3.17556 3.66735 3.43028
# Velocity P-wave (km/s) = 5.19639 6.31260 5.78149
#
# Compressibility (1/GPa) = 0.04001560
#
# Stress axis : x y z
#
# Youngs Moduli (GPa) = 84.60923 52.87561 19.10818
#
# Poissons Ratio (x) = 0.23878 -0.02992
# Poissons Ratio (y) = 0.38209 0.35492
# Poissons Ratio (z) = -0.13247 0.98214
#
# Static dielectric constant tensor:
#      x y z
#    x 3.405080 0.000000 -0.033900 
#    y 0.000000 3.359080 0.000000 
#    z -0.033900 0.000000 3.173000 
# 
# 
# High freq. dielectric constant tensor:
#      x y z
#    x 1.725700 0.000000 0.000960 
#    y 0.000000 1.711280 0.000000 
#    z 0.000960 0.000000 1.694820 
# 
# From -- ./inp_files/33834.got.cif
#   From: 2010.03.12/outbox.cif.g09.slc.cpg/sg14_17_cif.got.tgz:33834.got - 2010.03.31 13:35:05.
