data_PCOD8124106
_publ_section_title
;
Structure prediction by ZEFSAII (Michael W. Deem and Ramdas Pophale) SiO2 
 PCOD8124106
Probable space group: P 21/C
;
_chemical_formula_sum "Si O2"
_cell_formula_units_Z 28
_cell_length_a 13.242058
_cell_length_b 16.266217
_cell_length_c 16.539512
_cell_angle_alpha 90.000000
_cell_angle_beta 24.586850
_cell_angle_gamma 90.000000
_cell_volume 1482.290536
_symmetry_space_group_name_H-M "P 21/C"
_symmetry_group_IT_number 14
_symmetry_cell_setting 'monoclinic'
loop_
_space_group_symop_operation_xyz
x,y,z
-x,1/2+y,1/2-z
-x,-y,-z
x,1/2-y,1/2+z
loop_
_atom_site_type_symbol
_atom_site_label
_atom_site_fract_x
_atom_site_fract_y
_atom_site_fract_z
Si Si1 0.831347 0.442956 0.069063
Si Si2 0.278675 0.893152 0.605398
Si Si3 0.719371 0.850782 0.385974
Si Si4 0.097792 0.516639 0.571913
Si Si5 0.439112 0.471025 0.874064
Si Si6 0.969751 0.676185 0.195310
Si Si7 0.601207 0.959718 0.007126
O O1 0.761726 0.499026 0.043050
O O2 0.603559 0.419600 0.288398
O O3 0.000000 0.500000 0.000000
O O4 0.941371 0.355765 0.958169
O O5 0.463322 0.841704 0.525908
O O6 0.187143 0.831813 0.601861
O O7 0.430770 0.969186 0.457469
O O8 0.047756 0.929164 0.824570
O O9 0.647321 0.881420 0.529500
O O10 0.867199 0.766949 0.274436
O O11 0.901715 0.912128 0.208014
O O12 0.288275 0.526736 0.359846
O O13 0.241203 0.523692 0.553643
O O14 0.751724 0.617868 0.374288
O O15 0.500000 0.000000 0.000000
#
# Coordination Sequence:
#
# PCOD8124106 Si02
#       7
#     4   4   4   4   4   4   4
#     4  10  19  36  60  84 110 150 195 234 273 335
#     4   9  20  38  55  79 110 154 188 230 287 342
#     4  11  22  35  57  85 115 149 183 237 293 337
#     4   9  19  35  58  81 109 146 193 235 273 344
#     4   9  19  36  59  84 110 144 197 233 272 349
#     4  10  22  38  53  83 122 142 185 241 285 337
#     4  10  19  34  60  82 108 153 195 228 281 335
#
# _framework density 18.889683000000002
#
# number of rings (size 3 to 8) (size 9 to 14) (size 15 to 20)
#    0.000    2.286    1.429    2.571    0.000    4.571 
#    0.000    0.000    0.000    0.000    0.000    0.000 
#    0.000    0.000    0.000    0.000    0.000    0.000 
#
# Total GULP energy -346972.065220 kJ/mol
# GULP energy per Si atom -12391.859472 kJ/mol
# Density = 1.884669 g / cm^3
# Si number density = 18.889683 Si / 1000 Ang^3
#
#
#
# Elastic Constant Matrix: (Units=GPa)
#
#
# Indices 1 2 3 4 5 6 
#
# 1 91.2556 40.5803 40.7310 0.0000 -5.2418 0.0000
# 2 40.5803 85.9211 42.3074 0.0000 -0.3592 0.0000
# 3 40.7310 42.3074 131.2470 0.0000 7.2550 0.0000
# 4 0.0000 0.0000 0.0000 25.0561 0.0000 -1.5035
# 5 -5.2418 -0.3592 7.2550 0.0000 32.7716 0.0000
# 6 0.0000 0.0000 0.0000 -1.5035 0.0000 17.9171
#
#
#
# Elastic Compliance Matrix: (Units=1/GPa)
#
#
# Indices 1 2 3 4 5 6 
#
# 1 0.014949 -0.005565 -0.003011 0.000000 0.002997 0.000000
# 2 -0.005565 0.015949 -0.003416 0.000000 0.000041 0.000000
# 3 -0.003011 -0.003416 0.009804 0.000000 -0.002689 0.000000
# 4 0.000000 0.000000 0.000000 0.040112 0.000000 0.003366
# 5 0.002997 0.000041 -0.002689 0.000000 0.031589 0.000000
# 6 0.000000 0.000000 0.000000 0.003366 0.000000 0.056095
#
#
# Mechanical properties :
#
#
# Convention : Reuss Voigt Hill
#
# Bulk Modulus (GPa) = 59.82020 61.74013 60.78017
# Shear Modulus (GPa) = 25.24528 27.46928 26.35728
#
# Velocity S-wave (km/s) = 3.65973 3.81753 3.73946
# Velocity P-wave (km/s) = 7.04238 7.22405 7.13379
#
# Compressibility (1/GPa) = 0.01671676
#
# Stress axis : x y z
#
# Youngs Moduli (GPa) = 66.89369 62.69796 102.00346
#
# Poissons Ratio (x) = 0.34893 0.30713
# Poissons Ratio (y) = 0.37228 0.34849
# Poissons Ratio (z) = 0.20141 0.21420
#
# Static dielectric constant tensor:
#      x y z
#    x 3.629700 0.000000 -0.036500 
#    y 0.000000 3.251020 0.000000 
#    z -0.036500 0.000000 3.879890 
# 
# 
# High freq. dielectric constant tensor:
#      x y z
#    x 1.739520 0.000000 -0.007160 
#    y 0.000000 1.694750 0.000000 
#    z -0.007160 0.000000 1.756050 
# 
# From -- ./inp_files/45281.got.cif
#   From: 2010.03.12/outbox.cif.g09.slc.cpg/sg14_23_cif.got.tgz:45281.got - 2010.03.31 13:35:05.
