data_PCOD8124471
_publ_section_title
;
Structure prediction by ZEFSAII (Michael W. Deem and Ramdas Pophale) SiO2 
 PCOD8124471
Probable space group: P 21/C
;
_chemical_formula_sum "Si O2"
_cell_formula_units_Z 28
_cell_length_a 16.234411
_cell_length_b 11.521780
_cell_length_c 9.046391
_cell_angle_alpha 90.000000
_cell_angle_beta 52.128576
_cell_angle_gamma 90.000000
_cell_volume 1335.744171
_symmetry_space_group_name_H-M "P 21/C"
_symmetry_group_IT_number 14
_symmetry_cell_setting 'monoclinic'
loop_
_space_group_symop_operation_xyz
x,y,z
-x,1/2+y,1/2-z
-x,-y,-z
x,1/2-y,1/2+z
loop_
_atom_site_type_symbol
_atom_site_label
_atom_site_fract_x
_atom_site_fract_y
_atom_site_fract_z
Si Si1 0.736624 0.508123 0.506408
Si Si2 0.272680 0.270652 0.670179
Si Si3 0.389422 0.048605 0.573312
Si Si4 0.056220 0.921552 0.320268
Si Si5 0.272676 0.593332 0.993157
Si Si6 0.846838 0.873539 0.419786
Si Si7 0.249241 0.692479 0.709749
O O1 0.695989 0.625614 0.473705
O O2 0.697286 0.502923 0.716201
O O3 0.863898 0.500407 0.365984
O O4 0.691099 0.398824 0.463562
O O5 0.376051 0.189383 0.581533
O O6 0.181040 0.191229 0.701119
O O7 0.227820 0.322256 0.870595
O O8 0.500000 0.000000 0.500000
O O9 0.365572 0.995827 0.436232
O O10 0.124187 0.827141 0.335632
O O11 0.969778 0.856677 0.315768
O O12 0.000000 0.000000 0.500000
O O13 0.171915 0.512570 0.073252
O O14 0.266176 0.675964 0.142915
O O15 0.293136 0.672752 0.826864
#
# Coordination Sequence:
#
# PCOD8124471 Si02
#       7
#     4   4   4   4   4   4   4
#     4  10  21  43  65  97 133 179 224 279 338 401
#     4  11  21  40  71  95 135 172 228 286 338 404
#     4  11  26  48  69  96 132 171 237 293 345 399
#     4  10  19  37  67  95 142 182 222 270 331 413
#     4  11  22  43  65  96 135 178 221 287 337 406
#     4  11  21  39  65 100 136 181 221 278 335 407
#     4  10  22  38  68  89 145 178 218 272 338 399
#
# _framework density 20.962097
#
# number of rings (size 3 to 8) (size 9 to 14) (size 15 to 20)
#    0.857    0.571    5.714    0.857    0.000    2.286 
#    5.143    2.143    0.000    0.000    0.000    0.000 
#    0.000    0.000    0.000    0.000    0.000    0.000 
#
# Total GULP energy -346930.232276 kJ/mol
# GULP energy per Si atom -12390.365438 kJ/mol
# Density = 2.091439 g / cm^3
# Si number density = 20.962097 Si / 1000 Ang^3
#
#
#
# Elastic Constant Matrix: (Units=GPa)
#
#
# Indices 1 2 3 4 5 6 
#
# 1 104.7835 39.2468 24.7328 0.0000 4.1954 0.0000
# 2 39.2468 131.5117 34.0822 0.0000 5.8465 0.0000
# 3 24.7328 34.0822 62.9773 0.0000 12.1214 0.0000
# 4 0.0000 0.0000 0.0000 34.7704 0.0000 13.4281
# 5 4.1954 5.8465 12.1214 0.0000 27.7549 0.0000
# 6 0.0000 0.0000 0.0000 13.4281 0.0000 40.9027
#
#
#
# Elastic Compliance Matrix: (Units=1/GPa)
#
#
# Indices 1 2 3 4 5 6 
#
# 1 0.011217 -0.002565 -0.003052 0.000000 0.000177 0.000000
# 2 -0.002565 0.009432 -0.004137 0.000000 0.000208 0.000000
# 3 -0.003052 -0.004137 0.020809 0.000000 -0.007755 0.000000
# 4 0.000000 0.000000 0.000000 0.032936 0.000000 -0.010813
# 5 0.000177 0.000208 -0.007755 0.000000 0.039346 0.000000
# 6 0.000000 0.000000 0.000000 -0.010813 0.000000 0.027998
#
#
# Mechanical properties :
#
#
# Convention : Reuss Voigt Hill
#
# Bulk Modulus (GPa) = 45.55524 55.04402 50.29963
# Shear Modulus (GPa) = 29.66265 34.09966 31.88116
#
# Velocity S-wave (km/s) = 3.76581 4.03765 3.90410
# Velocity P-wave (km/s) = 6.37870 6.93200 6.66110
#
# Compressibility (1/GPa) = 0.02195137
#
# Stress axis : x y z
#
# Youngs Moduli (GPa) = 89.14856 106.01949 48.05648
#
# Poissons Ratio (x) = 0.27190 0.14665
# Poissons Ratio (y) = 0.22863 0.19883
# Poissons Ratio (z) = 0.27204 0.43864
#
# Static dielectric constant tensor:
#      x y z
#    x 3.891280 0.000000 0.232060 
#    y 0.000000 3.985870 0.000000 
#    z 0.232060 0.000000 3.565780 
# 
# 
# High freq. dielectric constant tensor:
#      x y z
#    x 1.806890 0.000000 0.031140 
#    y 0.000000 1.835450 0.000000 
#    z 0.031140 0.000000 1.793520 
# 
# From -- ./inp_files/15677.got.cif
#   From: 2010.03.12/outbox.cif.g09.slc.cpg/sg14_8_cif.got.tgz:15677.got - 2010.03.31 13:35:05.
