data_PCOD8124472
_publ_section_title
;
Structure prediction by ZEFSAII (Michael W. Deem and Ramdas Pophale) SiO2 
 PCOD8124472
Probable space group: P 21/C
;
_chemical_formula_sum "Si O2"
_cell_formula_units_Z 24
_cell_length_a 11.060095
_cell_length_b 14.459101
_cell_length_c 13.646904
_cell_angle_alpha 90.000000
_cell_angle_beta 31.924360
_cell_angle_gamma 90.000000
_cell_volume 1154.051276
_symmetry_space_group_name_H-M "P 21/C"
_symmetry_group_IT_number 14
_symmetry_cell_setting 'monoclinic'
loop_
_space_group_symop_operation_xyz
x,y,z
-x,1/2+y,1/2-z
-x,-y,-z
x,1/2-y,1/2+z
loop_
_atom_site_type_symbol
_atom_site_label
_atom_site_fract_x
_atom_site_fract_y
_atom_site_fract_z
Si Si1 0.041065 0.093506 0.843539
Si Si2 0.523605 0.698203 0.968304
Si Si3 0.670193 0.056176 0.248337
Si Si4 0.129350 0.002501 0.220583
Si Si5 0.329623 0.599821 0.920760
Si Si6 0.547065 0.385312 0.376073
O O1 0.206256 0.182817 0.739826
O O2 0.173445 0.000345 0.783683
O O3 0.966582 0.078837 0.782765
O O4 0.823140 0.109295 0.062954
O O5 0.374415 0.674554 0.975125
O O6 0.467026 0.631549 0.097044
O O7 0.470211 0.802391 0.034402
O O8 0.491238 0.989413 0.318686
O O9 0.932059 0.068224 0.397916
O O10 0.259035 0.956852 0.222699
O O11 0.302296 0.064902 0.038196
O O12 0.385148 0.649051 0.778995
#
# Coordination Sequence:
#
# PCOD8124472 Si02
#       6
#     4   4   4   4   4   4
#     4  10  19  38  68  92 120 167 207 257 317 372
#     4  11  23  40  65  99 124 157 222 273 303 366
#     4  10  19  37  69  97 118 163 218 259 308 377
#     4  11  22  44  63  86 133 175 204 251 325 387
#     4  11  21  44  67  90 127 173 213 258 317 382
#     4  11  27  40  59  98 132 166 210 260 323 375
#
# _framework density 20.796303000000002
#
# number of rings (size 3 to 8) (size 9 to 14) (size 15 to 20)
#    0.000    1.333    5.000    1.500    0.000    4.000 
#    0.000    0.000    0.000    0.000    0.000    0.000 
#    0.000    0.000    0.000    0.000    0.000    0.000 
#
# Total GULP energy -297716.955035 kJ/mol
# GULP energy per Si atom -12404.873126 kJ/mol
# Density = 2.074897 g / cm^3
# Si number density = 20.796303 Si / 1000 Ang^3
#
#
#
# Elastic Constant Matrix: (Units=GPa)
#
#
# Indices 1 2 3 4 5 6 
#
# 1 86.6482 33.9566 57.8264 0.0000 0.2068 0.0000
# 2 33.9566 69.9511 31.8287 0.0000 2.8955 0.0000
# 3 57.8264 31.8287 120.3529 0.0000 -1.5262 0.0000
# 4 0.0000 0.0000 0.0000 19.8456 0.0000 5.5309
# 5 0.2068 2.8955 -1.5262 0.0000 35.5887 0.0000
# 6 0.0000 0.0000 0.0000 5.5309 0.0000 18.0479
#
#
#
# Elastic Compliance Matrix: (Units=1/GPa)
#
#
# Indices 1 2 3 4 5 6 
#
# 1 0.018796 -0.005703 -0.007522 0.000000 0.000032 0.000000
# 2 -0.005703 0.018063 -0.002056 0.000000 -0.001525 0.000000
# 3 -0.007522 -0.002056 0.012476 0.000000 0.000746 0.000000
# 4 0.000000 0.000000 0.000000 0.055095 0.000000 -0.016884
# 5 0.000032 -0.001525 0.000746 0.000000 0.028255 0.000000
# 6 0.000000 0.000000 0.000000 -0.016884 0.000000 0.060583
#
#
# Mechanical properties :
#
#
# Convention : Reuss Voigt Hill
#
# Bulk Modulus (GPa) = 53.26960 58.24173 55.75566
# Shear Modulus (GPa) = 21.73091 24.91913 23.32502
#
# Velocity S-wave (km/s) = 3.23606 3.46533 3.35265
# Velocity P-wave (km/s) = 6.29550 6.63912 6.46959
#
# Compressibility (1/GPa) = 0.01877243
#
# Stress axis : x y z
#
# Youngs Moduli (GPa) = 53.20310 55.36272 80.15096
#
# Poissons Ratio (x) = 0.31572 0.60293
# Poissons Ratio (y) = 0.30340 0.16481
# Poissons Ratio (z) = 0.40021 0.11384
#
# Static dielectric constant tensor:
#      x y z
#    x 3.647810 0.000000 -0.045320 
#    y 0.000000 3.372580 0.000000 
#    z -0.045320 0.000000 4.058620 
# 
# 
# High freq. dielectric constant tensor:
#      x y z
#    x 1.817490 0.000000 -0.001560 
#    y 0.000000 1.782040 0.000000 
#    z -0.001560 0.000000 1.832590 
# 
# From -- ./inp_files/44874.got.cif
#   From: 2010.03.12/outbox.cif.g09.slc.cpg/sg14_23_cif.got.tgz:44874.got - 2010.03.31 13:35:05.
