data_PCOD8124388
_publ_section_title
;
Structure prediction by ZEFSAII (Michael W. Deem and Ramdas Pophale) SiO2 
 PCOD8124388
Probable space group: P 21/C
;
_chemical_formula_sum "Si O2"
_cell_formula_units_Z 28
_cell_length_a 7.987991
_cell_length_b 17.492537
_cell_length_c 11.856177
_cell_angle_alpha 90.000000
_cell_angle_beta 56.536690
_cell_angle_gamma 90.000000
_cell_volume 1382.055801
_symmetry_space_group_name_H-M "P 21/C"
_symmetry_group_IT_number 14
_symmetry_cell_setting 'monoclinic'
loop_
_space_group_symop_operation_xyz
x,y,z
-x,1/2+y,1/2-z
-x,-y,-z
x,1/2-y,1/2+z
loop_
_atom_site_type_symbol
_atom_site_label
_atom_site_fract_x
_atom_site_fract_y
_atom_site_fract_z
Si Si1 0.738877 0.306112 0.354344
Si Si2 0.512779 0.329988 0.234377
Si Si3 0.831864 0.595087 0.497409
Si Si4 0.751500 0.424928 0.540537
Si Si5 0.592660 0.841599 0.709385
Si Si6 0.427736 0.311719 0.031160
Si Si7 0.110738 0.294419 0.727555
O O1 0.705701 0.346970 0.243398
O O2 0.799625 0.372916 0.415273
O O3 0.524471 0.270680 0.466923
O O4 0.878929 0.230491 0.310519
O O5 0.303317 0.363439 0.358307
O O6 0.516940 0.238138 0.228543
O O7 0.540954 0.357280 0.092305
O O8 0.735458 0.512559 0.507582
O O9 0.833295 0.642371 0.383481
O O10 0.062785 0.587067 0.445670
O O11 0.541911 0.405908 0.680338
O O12 0.602605 0.861544 0.571369
O O13 0.816327 0.831886 0.680331
O O14 0.213841 0.287377 0.162456
#
# Coordination Sequence:
#
# PCOD8124388 Si02
#       7
#     4   4   4   4   4   4   4
#     4  11  21  34  59  87 117 156 196 245 293 350
#     4  10  19  37  55  83 118 151 198 242 292 347
#     4  11  22  37  59  89 120 154 198 248 297 350
#     4  11  22  37  59  89 120 154 198 248 297 350
#     4  10  19  37  55  83 118 151 198 242 292 347
#     4  10  20  36  56  86 118 148 206 240 290 348
#     4  11  21  34  59  87 117 156 196 245 293 350
#
# _framework density 20.259675000000001
#
# number of rings (size 3 to 8) (size 9 to 14) (size 15 to 20)
#    0.000    1.429    5.714    3.429    0.000    2.286 
#    0.000    0.714    0.000    1.714    0.000    8.000 
#    0.000    0.000    0.000    0.000    0.000    0.000 
#
# Total GULP energy -346898.574956 kJ/mol
# GULP energy per Si atom -12389.234820 kJ/mol
# Density = 2.021356 g / cm^3
# Si number density = 20.259675 Si / 1000 Ang^3
#
#
#
# Elastic Constant Matrix: (Units=GPa)
#
#
# Indices 1 2 3 4 5 6 
#
# 1 95.0999 10.8891 43.3660 0.0000 23.8925 0.0000
# 2 10.8891 63.4331 26.1388 0.0000 6.7523 0.0000
# 3 43.3660 26.1388 98.7797 0.0000 40.7767 0.0000
# 4 0.0000 0.0000 0.0000 21.5510 0.0000 -1.2872
# 5 23.8925 6.7523 40.7767 0.0000 42.1362 0.0000
# 6 0.0000 0.0000 0.0000 -1.2872 0.0000 24.4965
#
#
#
# Elastic Compliance Matrix: (Units=1/GPa)
#
#
# Indices 1 2 3 4 5 6 
#
# 1 0.013398 -0.000089 -0.004543 0.000000 -0.003186 0.000000
# 2 -0.000089 0.017899 -0.005885 0.000000 0.002877 0.000000
# 3 -0.004543 -0.005885 0.020354 0.000000 -0.016178 0.000000
# 4 0.000000 0.000000 0.000000 0.046548 0.000000 0.002446
# 5 -0.003186 0.002877 -0.016178 0.000000 0.040734 0.000000
# 6 0.000000 0.000000 0.000000 0.002446 0.000000 0.040951
#
#
# Mechanical properties :
#
#
# Convention : Reuss Voigt Hill
#
# Bulk Modulus (GPa) = 32.66258 46.45562 39.55910
# Shear Modulus (GPa) = 23.68310 29.43132 26.55721
#
# Velocity S-wave (km/s) = 3.42274 3.81557 3.62448
# Velocity P-wave (km/s) = 5.63712 6.51086 6.08968
#
# Compressibility (1/GPa) = 0.03061608
#
# Stress axis : x y z
#
# Youngs Moduli (GPa) = 74.64063 55.87013 49.13145
#
# Poissons Ratio (x) = 0.00495 0.22321
# Poissons Ratio (y) = 0.00662 0.28914
# Poissons Ratio (z) = 0.33910 0.32880
#
# Static dielectric constant tensor:
#      x y z
#    x 4.114580 0.000000 0.462170 
#    y 0.000000 3.352670 0.000000 
#    z 0.462170 0.000000 3.814550 
# 
# 
# High freq. dielectric constant tensor:
#      x y z
#    x 1.809570 0.000000 0.022120 
#    y 0.000000 1.747740 0.000000 
#    z 0.022120 0.000000 1.782450 
# 
# From -- ./inp_files/25099.got.cif
#   From: 2010.03.12/outbox.cif.g09.slc.cpg/sg14_13_cif.got.tgz:25099.got - 2010.03.31 13:35:05.
