data_PCOD8124307
_publ_section_title
;
Structure prediction by ZEFSAII (Michael W. Deem and Ramdas Pophale) SiO2 
 PCOD8124307
Probable space group: P 21/C
;
_chemical_formula_sum "Si O2"
_cell_formula_units_Z 32
_cell_length_a 14.214397
_cell_length_b 15.261946
_cell_length_c 14.829663
_cell_angle_alpha 90.000000
_cell_angle_beta 149.828282
_cell_angle_gamma 90.000000
_cell_volume 1616.911693
_symmetry_space_group_name_H-M "P 21/C"
_symmetry_group_IT_number 14
_symmetry_cell_setting 'monoclinic'
loop_
_space_group_symop_operation_xyz
x,y,z
-x,1/2+y,1/2-z
-x,-y,-z
x,1/2-y,1/2+z
loop_
_atom_site_type_symbol
_atom_site_label
_atom_site_fract_x
_atom_site_fract_y
_atom_site_fract_z
Si Si1 0.043569 0.756302 0.043447
Si Si2 0.427941 0.461676 0.220903
Si Si3 0.780368 0.664334 0.183698
Si Si4 0.373636 0.987999 0.481988
Si Si5 0.727359 0.116498 0.095372
Si Si6 0.623559 0.301684 0.071079
Si Si7 0.830806 0.433197 0.870307
Si Si8 0.870296 0.821121 0.568046
O O1 0.947020 0.817680 0.890666
O O2 0.926129 0.752454 0.040592
O O3 0.245955 0.797378 0.232194
O O4 0.071719 0.659452 0.026116
O O5 0.483333 0.490703 0.165696
O O6 0.619313 0.441145 0.432331
O O7 0.312853 0.540891 0.170513
O O8 0.296666 0.376586 0.114036
O O9 0.805524 0.719209 0.110960
O O10 0.790235 0.560751 0.164772
O O11 0.588602 0.691864 0.071794
O O12 0.309283 0.886744 0.430919
O O13 0.500000 0.000000 0.500000
O O14 0.646209 0.215713 0.028101
O O15 0.705198 0.073028 0.175597
O O16 0.949123 0.118261 0.259244
O O17 0.000000 0.500000 0.000000
#
# Coordination Sequence:
#
# PCOD8124307 Si02
#       8
#     4   4   4   4   4   4   4   4
#     4  10  21  37  59  84 116 150 189 243 293 345
#     4  11  19  37  62  81 118 158 185 238 304 345
#     4  10  20  37  61  80 112 158 195 233 302 337
#     4   9  21  39  57  80 116 154 198 245 275 334
#     4  10  21  36  63  87 116 151 192 234 301 358
#     4   9  20  39  57  83 116 149 195 247 282 342
#     4  10  19  36  59  87 121 141 182 243 293 351
#     4   9  20  36  55  85 112 151 188 240 284 344
#
# _framework density 19.790814999999998
#
# number of rings (size 3 to 8) (size 9 to 14) (size 15 to 20)
#    0.000    2.500    2.500    1.125    0.000    5.500 
#    0.000   12.500    0.000    0.000    0.000    0.000 
#    0.000    0.000    0.000    0.000    0.000    0.000 
#
# Total GULP energy -396566.078866 kJ/mol
# GULP energy per Si atom -12392.689965 kJ/mol
# Density = 1.974577 g / cm^3
# Si number density = 19.790815 Si / 1000 Ang^3
#
#
#
# Elastic Constant Matrix: (Units=GPa)
#
#
# Indices 1 2 3 4 5 6 
#
# 1 71.6343 15.4727 19.1135 0.0000 -24.4302 0.0000
# 2 15.4727 81.1115 31.5983 0.0000 -20.5011 0.0000
# 3 19.1135 31.5983 106.3591 0.0000 -19.5149 0.0000
# 4 0.0000 0.0000 0.0000 25.8247 0.0000 -8.9845
# 5 -24.4302 -20.5011 -19.5149 0.0000 30.8741 0.0000
# 6 0.0000 0.0000 0.0000 -8.9845 0.0000 18.4205
#
#
#
# Elastic Compliance Matrix: (Units=1/GPa)
#
#
# Indices 1 2 3 4 5 6 
#
# 1 0.019184 0.000444 -0.000837 0.000000 0.014946 0.000000
# 2 0.000444 0.015684 -0.003127 0.000000 0.008790 0.000000
# 3 -0.000837 -0.003127 0.011288 0.000000 0.004396 0.000000
# 4 0.000000 0.000000 0.000000 0.046636 0.000000 0.022747
# 5 0.014946 0.008790 0.004396 0.000000 0.052832 0.000000
# 6 0.000000 0.000000 0.000000 0.022747 0.000000 0.065382
#
#
# Mechanical properties :
#
#
# Convention : Reuss Voigt Hill
#
# Bulk Modulus (GPa) = 25.56427 43.49708 34.53067
# Shear Modulus (GPa) = 21.63717 27.88523 24.76120
#
# Velocity S-wave (km/s) = 3.31009 3.75774 3.54099
# Velocity P-wave (km/s) = 5.24921 6.39168 5.84841
#
# Compressibility (1/GPa) = 0.03911709
#
# Stress axis : x y z
#
# Youngs Moduli (GPa) = 52.12544 63.76106 88.58900
#
# Poissons Ratio (x) = -0.02833 0.07417
# Poissons Ratio (y) = -0.02316 0.27698
# Poissons Ratio (z) = 0.04364 0.19935
#
# Static dielectric constant tensor:
#      x y z
#    x 3.673910 0.000000 -0.089790 
#    y 0.000000 3.835020 0.000000 
#    z -0.089790 0.000000 3.531030 
# 
# 
# High freq. dielectric constant tensor:
#      x y z
#    x 1.770830 0.000000 -0.006360 
#    y 0.000000 1.756870 0.000000 
#    z -0.006360 0.000000 1.768850 
# 
# From -- ./inp_files/47425.got.cif
#   From: 2010.03.12/outbox.cif.g09.slc.cpg/sg14_24_cif.got.tgz:47425.got - 2010.03.31 13:35:05.
