data_PCOD8124260
_publ_section_title
;
Structure prediction by ZEFSAII (Michael W. Deem and Ramdas Pophale) SiO2 
 PCOD8124260
Probable space group: P 21/C
;
_chemical_formula_sum "Si O2"
_cell_formula_units_Z 28
_cell_length_a 14.119860
_cell_length_b 8.155296
_cell_length_c 15.282050
_cell_angle_alpha 90.000000
_cell_angle_beta 122.762008
_cell_angle_gamma 90.000000
_cell_volume 1479.821451
_symmetry_space_group_name_H-M "P 21/C"
_symmetry_group_IT_number 14
_symmetry_cell_setting 'monoclinic'
loop_
_space_group_symop_operation_xyz
x,y,z
-x,1/2+y,1/2-z
-x,-y,-z
x,1/2-y,1/2+z
loop_
_atom_site_type_symbol
_atom_site_label
_atom_site_fract_x
_atom_site_fract_y
_atom_site_fract_z
Si Si1 0.869456 0.194186 0.068885
Si Si2 0.724643 0.000001 0.862322
Si Si3 0.238610 0.502069 0.331842
Si Si4 0.130544 0.194186 0.199430
Si Si5 0.238610 0.002070 0.406768
Si Si6 0.372015 0.200267 0.032551
Si Si7 0.627985 0.299732 0.160537
O O1 0.830558 0.379756 0.066445
O O2 0.000000 0.191836 0.110643
O O3 0.847918 0.081425 0.142638
O O4 0.802784 0.127108 0.952426
O O5 0.643314 0.099993 0.757351
O O6 0.802782 0.872893 0.850355
O O7 0.643316 0.900010 0.885966
O O8 0.169441 0.379757 0.235886
O O9 0.339117 0.409261 0.432476
O O10 0.292908 0.639578 0.296998
O O11 0.152081 0.081427 0.294722
O O12 0.339117 0.909263 0.406639
O O13 0.292910 0.139576 0.495911
O O14 0.500001 0.249997 0.085164
#
# Coordination Sequence:
#
# PCOD8124260 Si02
#       7
#     4   4   4   4   4   4   4
#     4  10  19  36  55  77 107 139 172 220 263 305
#     4  10  23  34  50  80 110 140 177 208 260 324
#     4   9  20  35  57  81 100 134 186 215 253 317
#     4  10  19  36  55  77 107 139 172 220 263 305
#     4   9  20  35  57  81 100 134 186 215 253 317
#     4  10  20  37  56  78 107 139 172 219 262 304
#     4  10  20  37  56  78 107 139 172 219 262 304
#
# _framework density 18.921202000000001
#
# number of rings (size 3 to 8) (size 9 to 14) (size 15 to 20)
#    0.000    2.286    0.000    2.143    0.000    3.429 
#    0.000    8.571    0.000    0.000    0.000    0.000 
#    0.000    0.000    0.000    0.000    0.000    0.000 
#
# Total GULP energy -347332.911516 kJ/mol
# GULP energy per Si atom -12404.746840 kJ/mol
# Density = 1.887814 g / cm^3
# Si number density = 18.921202 Si / 1000 Ang^3
#
#
#
# Elastic Constant Matrix: (Units=GPa)
#
#
# Indices 1 2 3 4 5 6 
#
# 1 58.5144 14.9023 23.2200 0.0000 15.5819 0.0000
# 2 14.9023 97.4344 16.2971 0.0000 -1.7062 0.0000
# 3 23.2200 16.2971 43.4044 0.0000 2.9235 0.0000
# 4 0.0000 0.0000 0.0000 28.2522 0.0000 -6.4059
# 5 15.5819 -1.7062 2.9235 0.0000 26.7827 0.0000
# 6 0.0000 0.0000 0.0000 -6.4059 0.0000 23.0183
#
#
#
# Elastic Compliance Matrix: (Units=1/GPa)
#
#
# Indices 1 2 3 4 5 6 
#
# 1 0.026277 -0.002212 -0.012278 0.000000 -0.014088 0.000000
# 2 -0.002212 0.011173 -0.003170 0.000000 0.002345 0.000000
# 3 -0.012278 -0.003170 0.030555 0.000000 0.003606 0.000000
# 4 0.000000 0.000000 0.000000 0.037779 0.000000 0.010514
# 5 -0.014088 0.002345 0.003606 0.000000 0.045290 0.000000
# 6 0.000000 0.000000 0.000000 0.010514 0.000000 0.046370
#
#
# Mechanical properties :
#
#
# Convention : Reuss Voigt Hill
#
# Bulk Modulus (GPa) = 30.59475 34.24356 32.41915
# Shear Modulus (GPa) = 20.52061 25.27288 22.89674
#
# Velocity S-wave (km/s) = 3.29679 3.65868 3.48244
# Velocity P-wave (km/s) = 5.54044 5.99876 5.77415
#
# Compressibility (1/GPa) = 0.03268535
#
# Stress axis : x y z
#
# Youngs Moduli (GPa) = 38.05616 89.50253 32.72829
#
# Poissons Ratio (x) = 0.19799 0.40183
# Poissons Ratio (y) = 0.08418 0.10374
# Poissons Ratio (z) = 0.46725 0.28369
#
# Static dielectric constant tensor:
#      x y z
#    x 3.296880 0.000000 -0.026300 
#    y 0.000000 3.731060 0.000000 
#    z -0.026300 0.000000 3.318410 
# 
# 
# High freq. dielectric constant tensor:
#      x y z
#    x 1.731190 0.000000 0.003910 
#    y 0.000000 1.753230 0.000000 
#    z 0.003910 0.000000 1.727990 
# 
# From -- ./inp_files/43603.got.cif
#   From: 2010.03.12/outbox.cif.g09.slc.cpg/sg14_22_cif.got.tgz:43603.got - 2010.03.31 13:35:05.
