data_PCOD8124518
_publ_section_title
;
Structure prediction by ZEFSAII (Michael W. Deem and Ramdas Pophale) SiO2 
 PCOD8124518
Probable space group: P 21/C
;
_chemical_formula_sum "Si O2"
_cell_formula_units_Z 32
_cell_length_a 9.049389
_cell_length_b 10.206074
_cell_length_c 23.905670
_cell_angle_alpha 90.000000
_cell_angle_beta 38.179436
_cell_angle_gamma 90.000000
_cell_volume 1364.759467
_symmetry_space_group_name_H-M "P 21/C"
_symmetry_group_IT_number 14
_symmetry_cell_setting 'monoclinic'
loop_
_space_group_symop_operation_xyz
x,y,z
-x,1/2+y,1/2-z
-x,-y,-z
x,1/2-y,1/2+z
loop_
_atom_site_type_symbol
_atom_site_label
_atom_site_fract_x
_atom_site_fract_y
_atom_site_fract_z
Si Si1 0.309094 0.440160 0.750793
Si Si2 0.204068 0.730982 0.778302
Si Si3 0.259971 0.300527 0.873654
Si Si4 0.846611 0.995253 0.109877
Si Si5 0.870667 0.773155 0.975191
Si Si6 0.103757 0.543056 0.641019
Si Si7 0.461969 0.318687 0.526009
Si Si8 0.158545 0.266942 0.204106
O O1 0.219449 0.578780 0.755655
O O2 0.195792 0.407408 0.845878
O O3 0.596035 0.440347 0.668477
O O4 0.221257 0.327817 0.735899
O O5 0.456721 0.798161 0.705253
O O6 0.098206 0.728660 0.872292
O O7 0.037557 0.798636 0.780277
O O8 0.151258 0.160341 0.889697
O O9 0.164555 0.332194 0.964517
O O10 0.063203 0.081061 0.015395
O O11 0.918229 0.029728 0.154197
O O12 0.633683 0.782344 0.007656
O O13 0.321851 0.446334 0.593864
O O14 0.252985 0.659638 0.563757
O O15 0.950908 0.599449 0.738251
O O16 0.392774 0.207938 0.593873
#
# Coordination Sequence:
#
# PCOD8124518 Si02
#       8
#     4   4   4   4   4   4   4   4
#     4  11  23  40  63  96 126 164 216 253 320 386
#     4  10  23  41  61  89 129 165 210 256 311 384
#     4  11  21  39  63  92 124 165 204 263 313 372
#     4  10  21  38  62  95 125 156 212 265 310 374
#     4  10  20  37  63  89 126 167 206 255 317 364
#     4  10  19  38  61  91 124 161 206 264 320 356
#     4   9  21  36  61  94 121 161 217 256 307 383
#     4  11  21  39  64  89 124 168 205 263 316 370
#
# _framework density 23.447355000000002
#
# number of rings (size 3 to 8) (size 9 to 14) (size 15 to 20)
#    0.000    1.750    2.500    1.875    0.000    6.500 
#    0.000    0.000    2.750    3.000    0.000    0.000 
#    0.000    0.000    0.000    0.000    0.000    0.000 
#
# Total GULP energy -396452.566726 kJ/mol
# GULP energy per Si atom -12389.142710 kJ/mol
# Density = 2.339399 g / cm^3
# Si number density = 23.447355 Si / 1000 Ang^3
#
#
#
# Elastic Constant Matrix: (Units=GPa)
#
#
# Indices 1 2 3 4 5 6 
#
# 1 95.0613 9.9668 33.2890 0.0000 -1.9890 0.0000
# 2 9.9668 22.6109 3.5083 0.0000 -4.1521 0.0000
# 3 33.2890 3.5083 107.8818 0.0000 4.0219 0.0000
# 4 0.0000 0.0000 0.0000 31.6673 0.0000 1.8391
# 5 -1.9890 -4.1521 4.0219 0.0000 21.3533 0.0000
# 6 0.0000 0.0000 0.0000 1.8391 0.0000 32.3366
#
#
#
# Elastic Compliance Matrix: (Units=1/GPa)
#
#
# Indices 1 2 3 4 5 6 
#
# 1 0.012321 -0.004689 -0.003684 0.000000 0.000930 0.000000
# 2 -0.004689 0.048013 -0.000450 0.000000 0.008984 0.000000
# 3 -0.003684 -0.000450 0.010511 0.000000 -0.002410 0.000000
# 4 0.000000 0.000000 0.000000 0.031683 0.000000 -0.001802
# 5 0.000930 0.008984 -0.002410 0.000000 0.049119 0.000000
# 6 0.000000 0.000000 0.000000 -0.001802 0.000000 0.031027
#
#
# Mechanical properties :
#
#
# Convention : Reuss Voigt Hill
#
# Bulk Modulus (GPa) = 18.79706 35.45358 27.12532
# Shear Modulus (GPa) = 22.93051 28.99076 25.96063
#
# Velocity S-wave (km/s) = 3.13062 3.52009 3.33105
# Velocity P-wave (km/s) = 4.59367 5.62803 5.13695
#
# Compressibility (1/GPa) = 0.05319980
#
# Stress axis : x y z
#
# Youngs Moduli (GPa) = 81.16468 20.82784 95.14169
#
# Poissons Ratio (x) = 0.09765 0.35050
# Poissons Ratio (y) = 0.38054 0.04277
# Poissons Ratio (z) = 0.29901 0.00936
#
# Static dielectric constant tensor:
#      x y z
#    x 4.269070 0.000000 0.211130 
#    y 0.000000 4.219080 0.000000 
#    z 0.211130 0.000000 4.409740 
# 
# 
# High freq. dielectric constant tensor:
#      x y z
#    x 1.940790 0.000000 0.014780 
#    y 0.000000 1.900240 0.000000 
#    z 0.014780 0.000000 1.927610 
# 
# From -- ./inp_files/49042.got.cif
#   From: 2010.03.12/outbox.cif.g09.slc.cpg/sg14_25_cif.got.tgz:49042.got - 2010.03.31 13:35:05.
