data_PCOD8124305
_publ_section_title
;
Structure prediction by ZEFSAII (Michael W. Deem and Ramdas Pophale) SiO2 
 PCOD8124305
Probable space group: P 21/C
;
_chemical_formula_sum "Si O2"
_cell_formula_units_Z 28
_cell_length_a 13.840442
_cell_length_b 12.597507
_cell_length_c 10.182080
_cell_angle_alpha 90.000000
_cell_angle_beta 44.354463
_cell_angle_gamma 90.000000
_cell_volume 1241.101903
_symmetry_space_group_name_H-M "P 21/C"
_symmetry_group_IT_number 14
_symmetry_cell_setting 'monoclinic'
loop_
_space_group_symop_operation_xyz
x,y,z
-x,1/2+y,1/2-z
-x,-y,-z
x,1/2-y,1/2+z
loop_
_atom_site_type_symbol
_atom_site_label
_atom_site_fract_x
_atom_site_fract_y
_atom_site_fract_z
Si Si1 0.348837 0.421107 0.259273
Si Si2 0.917912 0.193616 0.180410
Si Si3 0.129937 0.365942 0.277908
Si Si4 0.872392 0.642394 0.314657
Si Si5 0.388418 0.717462 0.054895
Si Si6 0.060501 0.911529 0.259805
Si Si7 0.340859 0.855353 0.870035
O O1 0.262200 0.428180 0.206764
O O2 0.251505 0.365638 0.460750
O O3 0.403606 0.535415 0.253441
O O4 0.486317 0.355863 0.105734
O O5 0.757253 0.162235 0.343274
O O6 0.940849 0.321149 0.125009
O O7 0.982879 0.175162 0.260383
O O8 0.997610 0.118659 0.001414
O O9 0.169243 0.239518 0.239778
O O10 0.085264 0.413846 0.179436
O O11 0.898069 0.526965 0.220436
O O12 0.378898 0.735047 0.222803
O O13 0.403314 0.825008 0.952878
O O14 0.176344 0.871521 0.042434
#
# Coordination Sequence:
#
# PCOD8124305 Si02
#       7
#     4   4   4   4   4   4   4
#     4  10  23  38  61  87 120 160 205 249 305 368
#     4   9  19  34  56  83 112 157 197 246 296 356
#     4  10  19  36  59  86 118 155 205 245 304 357
#     4   9  20  35  56  84 117 154 193 256 301 351
#     4  11  22  40  62  88 122 158 205 251 303 363
#     4   9  18  35  58  85 118 153 203 249 301 358
#     4  10  22  40  64  89 119 164 202 253 301 367
#
# _framework density 22.560596
#
# number of rings (size 3 to 8) (size 9 to 14) (size 15 to 20)
#    0.000    2.286    1.429    0.429    4.000    2.286 
#    0.000    0.714    3.143    0.000    0.000    0.000 
#    0.000    0.000    0.000    0.000    0.000    0.000 
#
# Total GULP energy -346875.157374 kJ/mol
# GULP energy per Si atom -12388.398478 kJ/mol
# Density = 2.250925 g / cm^3
# Si number density = 22.560596 Si / 1000 Ang^3
#
#
#
# Elastic Constant Matrix: (Units=GPa)
#
#
# Indices 1 2 3 4 5 6 
#
# 1 40.5230 11.6531 11.8180 0.0000 -12.8959 0.0000
# 2 11.6531 95.4651 11.1291 0.0000 0.8265 0.0000
# 3 11.8180 11.1291 40.3759 0.0000 -22.5016 0.0000
# 4 0.0000 0.0000 0.0000 23.8618 0.0000 3.2525
# 5 -12.8959 0.8265 -22.5016 0.0000 32.6833 0.0000
# 6 0.0000 0.0000 0.0000 3.2525 0.0000 23.7988
#
#
#
# Elastic Compliance Matrix: (Units=1/GPa)
#
#
# Indices 1 2 3 4 5 6 
#
# 1 0.029552 -0.003482 -0.001854 0.000000 0.010472 0.000000
# 2 -0.003482 0.011528 -0.005008 0.000000 -0.005113 0.000000
# 3 -0.001854 -0.005008 0.042760 0.000000 0.028834 0.000000
# 4 0.000000 0.000000 0.000000 0.042703 0.000000 -0.005836
# 5 0.010472 -0.005113 0.028834 0.000000 0.054709 0.000000
# 6 0.000000 0.000000 0.000000 -0.005836 0.000000 0.042816
#
#
# Mechanical properties :
#
#
# Convention : Reuss Voigt Hill
#
# Bulk Modulus (GPa) = 15.83493 27.28493 21.55993
# Shear Modulus (GPa) = 18.81062 25.51970 22.16516
#
# Velocity S-wave (km/s) = 2.89066 3.36692 3.13784
# Velocity P-wave (km/s) = 4.26325 5.21874 4.76500
#
# Compressibility (1/GPa) = 0.06315153
#
# Stress axis : x y z
#
# Youngs Moduli (GPa) = 33.83877 86.74424 23.38660
#
# Poissons Ratio (x) = 0.30203 0.04336
# Poissons Ratio (y) = 0.11782 0.11712
# Poissons Ratio (z) = 0.06274 0.43442
#
# Static dielectric constant tensor:
#      x y z
#    x 3.868070 0.000000 0.061020 
#    y 0.000000 4.293010 0.000000 
#    z 0.061020 0.000000 4.061830 
# 
# 
# High freq. dielectric constant tensor:
#      x y z
#    x 1.861410 0.000000 -0.003750 
#    y 0.000000 1.883140 0.000000 
#    z -0.003750 0.000000 1.883690 
# 
# From -- ./inp_files/32573.got.cif
#   From: 2010.03.12/outbox.cif.g09.slc.cpg/sg14_17_cif.got.tgz:32573.got - 2010.03.31 13:35:05.
