data_PCOD8124711
_publ_section_title
;
Structure prediction by ZEFSAII (Michael W. Deem and Ramdas Pophale) SiO2 
 PCOD8124711
Probable space group: P 21/C
;
_chemical_formula_sum "Si O2"
_cell_formula_units_Z 32
_cell_length_a 24.778297
_cell_length_b 15.693115
_cell_length_c 24.683315
_cell_angle_alpha 90.000000
_cell_angle_beta 11.693428
_cell_angle_gamma 90.000000
_cell_volume 1945.289414
_symmetry_space_group_name_H-M "P 21/C"
_symmetry_group_IT_number 14
_symmetry_cell_setting 'monoclinic'
loop_
_space_group_symop_operation_xyz
x,y,z
-x,1/2+y,1/2-z
-x,-y,-z
x,1/2-y,1/2+z
loop_
_atom_site_type_symbol
_atom_site_label
_atom_site_fract_x
_atom_site_fract_y
_atom_site_fract_z
Si Si1 0.032441 0.558856 0.223045
Si Si2 0.137274 0.772724 0.669876
Si Si3 0.875572 0.821144 0.781974
Si Si4 0.360091 0.771943 0.833021
Si Si5 0.274450 0.057330 0.287902
Si Si6 0.778700 0.556881 0.283802
Si Si7 0.532564 0.440324 0.722811
Si Si8 0.378324 0.320442 0.778888
O O1 0.057759 0.627711 0.247143
O O2 0.996607 0.603895 0.200131
O O3 0.794245 0.495811 0.467600
O O4 0.294229 0.503347 0.967546
O O5 0.248020 0.750080 0.502094
O O6 0.386343 0.749006 0.464278
O O7 0.874946 0.719531 0.942050
O O8 0.783432 0.858090 0.815044
O O9 0.110859 0.751643 0.538730
O O10 0.622276 0.781564 0.061293
O O11 0.441685 0.871345 0.753600
O O12 0.235865 0.087047 0.264024
O O13 0.289357 0.142709 0.308640
O O14 0.034565 0.999774 0.544364
O O15 0.532957 0.000767 0.042099
O O16 0.497386 0.395612 0.699111
#
# Coordination Sequence:
#
# PCOD8124711 Si02
#       8
#     4   4   4   4   4   4   4   4
#     4  11  19  29  45  66  92 122 156 187 224 274
#     4  10  20  32  45  66  94 124 158 195 229 275
#     4  11  19  32  48  66  95 130 158 185 234 279
#     4  10  20  32  45  66  94 124 158 195 229 275
#     4  10  20  33  49  72  99 126 161 199 229 268
#     4  10  20  33  49  72  99 126 161 199 229 268
#     4  11  19  29  45  66  92 122 156 187 224 274
#     4  11  19  32  48  66  95 130 158 185 234 279
#
# _framework density 16.449994
#
# number of rings (size 3 to 8) (size 9 to 14) (size 15 to 20)
#    0.000    1.500    0.000   10.500    0.000    0.000 
#    0.000    0.000    0.000    0.000    0.000    0.000 
#    0.000   20.000    0.000    0.000    0.000    0.000 
#
# Total GULP energy -396708.720906 kJ/mol
# GULP energy per Si atom -12397.147528 kJ/mol
# Density = 1.641255 g / cm^3
# Si number density = 16.449994 Si / 1000 Ang^3
#
#
#
# Elastic Constant Matrix: (Units=GPa)
#
#
# Indices 1 2 3 4 5 6 
#
# 1 67.6652 50.3717 27.1386 0.0000 -7.7419 0.0000
# 2 50.3717 109.1156 61.7237 0.0000 -3.9916 0.0000
# 3 27.1386 61.7237 142.0346 0.0000 -11.3436 0.0000
# 4 0.0000 0.0000 0.0000 -23.1247 0.0000 -2.4451
# 5 -7.7419 -3.9916 -11.3436 0.0000 22.6026 0.0000
# 6 0.0000 0.0000 0.0000 -2.4451 0.0000 25.6230
#
#
#
# Elastic Compliance Matrix: (Units=1/GPa)
#
#
# Indices 1 2 3 4 5 6 
#
# 1 0.023405 -0.011046 0.000847 0.000000 0.006491 0.000000
# 2 -0.011046 0.017371 -0.005725 0.000000 -0.003589 0.000000
# 3 0.000847 -0.005725 0.009698 0.000000 0.004146 0.000000
# 4 0.000000 0.000000 0.000000 -0.042812 0.000000 -0.004085
# 5 0.006491 -0.003589 0.004146 0.000000 0.047913 0.000000
# 6 0.000000 0.000000 0.000000 -0.004085 0.000000 0.038638
#
#
# Mechanical properties :
#
#
# Convention : Reuss Voigt Hill
#
# Bulk Modulus (GPa) = 53.69151 66.36481 60.02816
# Shear Modulus (GPa) = 37.80190 16.99227 27.39709
#
# Velocity S-wave (km/s) = 4.79893 3.21746 4.08545
# Velocity P-wave (km/s) = 7.96344 7.36435 7.66975
#
# Compressibility (1/GPa) = 0.01862492
#
# Stress axis : x y z
#
# Youngs Moduli (GPa) = 42.72674 57.56751 103.11663
#
# Poissons Ratio (x) = 0.63588 -0.08730
# Poissons Ratio (y) = 0.47195 0.59034
# Poissons Ratio (z) = -0.03617 0.32957
#
# Static dielectric constant tensor:
#      x y z
#    x 2.982070 0.000000 -0.279540 
#    y 0.000000 3.502700 0.000000 
#    z -0.279540 0.000000 3.441840 
# 
# 
# High freq. dielectric constant tensor:
#      x y z
#    x 1.592050 0.000000 -0.014200 
#    y 0.000000 1.628010 0.000000 
#    z -0.014200 0.000000 1.665400 
# 
# From -- ./inp_files/47672.got.cif
#   From: 2010.03.12/outbox.cif.g09.slc.cpg/sg14_24_cif.got.tgz:47672.got - 2010.03.31 13:35:05.
