data_PCOD8124895
_publ_section_title
;
Structure prediction by ZEFSAII (Michael W. Deem and Ramdas Pophale) SiO2 
 PCOD8124895
Probable space group: P 21/C
;
_chemical_formula_sum "Si O2"
_cell_formula_units_Z 28
_cell_length_a 11.879235
_cell_length_b 6.948299
_cell_length_c 15.992542
_cell_angle_alpha 90.000000
_cell_angle_beta 111.961846
_cell_angle_gamma 90.000000
_cell_volume 1224.241413
_symmetry_space_group_name_H-M "P 21/C"
_symmetry_group_IT_number 14
_symmetry_cell_setting 'monoclinic'
loop_
_space_group_symop_operation_xyz
x,y,z
-x,1/2+y,1/2-z
-x,-y,-z
x,1/2-y,1/2+z
loop_
_atom_site_type_symbol
_atom_site_label
_atom_site_fract_x
_atom_site_fract_y
_atom_site_fract_z
Si Si1 0.832564 0.755448 0.160577
Si Si2 0.624950 0.668670 0.213820
Si Si3 0.611593 0.519250 0.836944
Si Si4 0.158710 0.322451 0.015696
Si Si5 0.225957 0.829558 0.167256
Si Si6 0.082780 0.830738 0.289638
Si Si7 0.075139 0.749678 0.466238
O O1 0.699144 0.782826 0.162831
O O2 0.854282 0.528797 0.172644
O O3 0.938040 0.868247 0.239555
O O4 0.833620 0.815047 0.063556
O O5 0.509878 0.546780 0.146202
O O6 0.566079 0.836568 0.252848
O O7 0.714464 0.533518 0.293246
O O8 0.703941 0.642048 0.918089
O O9 0.674151 0.333913 0.814367
O O10 0.097320 0.523779 0.976662
O O11 0.069386 0.214552 0.056862
O O12 0.137476 0.751437 0.217290
O O13 0.154915 0.858563 0.059107
O O14 0.103951 0.688754 0.376846
#
# Coordination Sequence:
#
# PCOD8124895 Si02
#       7
#     4   4   4   4   4   4   4
#     4  10  21  36  57  91 122 154 201 247 307 360
#     4  11  23  39  61  88 115 165 210 240 302 359
#     4  11  22  40  63  82 118 164 209 246 299 354
#     4   9  18  34  60  86 118 159 197 247 304 359
#     4  10  21  40  62  88 125 155 198 261 296 358
#     4  10  20  35  58  89 124 154 196 247 306 367
#     4   9  17  34  60  89 120 156 195 243 316 360
#
# _framework density 22.871306000000001
#
# number of rings (size 3 to 8) (size 9 to 14) (size 15 to 20)
#    0.000    2.000    2.857    0.857    4.000    0.571 
#    2.571    2.143    0.000    1.714    0.000    0.000 
#    0.000    0.000    0.000    0.000    0.000    0.000 
#
# Total GULP energy -346943.828169 kJ/mol
# GULP energy per Si atom -12390.851006 kJ/mol
# Density = 2.281925 g / cm^3
# Si number density = 22.871306 Si / 1000 Ang^3
#
#
#
# Elastic Constant Matrix: (Units=GPa)
#
#
# Indices 1 2 3 4 5 6 
#
# 1 140.9137 -8.7935 44.2974 0.0000 5.4797 0.0000
# 2 -8.7935 15.6680 -11.0320 0.0000 -0.2229 0.0000
# 3 44.2974 -11.0320 110.5938 0.0000 -15.8234 0.0000
# 4 0.0000 0.0000 0.0000 9.7323 0.0000 0.8117
# 5 5.4797 -0.2229 -15.8234 0.0000 38.0089 0.0000
# 6 0.0000 0.0000 0.0000 0.8117 0.0000 19.6498
#
#
#
# Elastic Compliance Matrix: (Units=1/GPa)
#
#
# Indices 1 2 3 4 5 6 
#
# 1 0.008455 0.002207 -0.003550 0.000000 -0.002684 0.000000
# 2 0.002207 0.069652 0.006462 0.000000 0.002780 0.000000
# 3 -0.003550 0.006462 0.011896 0.000000 0.005502 0.000000
# 4 0.000000 0.000000 0.000000 0.103106 0.000000 -0.004259
# 5 -0.002684 0.002780 0.005502 0.000000 0.029003 0.000000
# 6 0.000000 0.000000 0.000000 -0.004259 0.000000 0.051067
#
#
# Mechanical properties :
#
#
# Convention : Reuss Voigt Hill
#
# Bulk Modulus (GPa) = 9.97607 35.12439 22.55023
# Shear Modulus (GPa) = 16.87161 29.65843 23.26502
#
# Velocity S-wave (km/s) = 2.71897 3.60495 3.19284
# Velocity P-wave (km/s) = 3.77205 5.71999 4.84493
#
# Compressibility (1/GPa) = 0.10023992
#
# Stress axis : x y z
#
# Youngs Moduli (GPa) = 118.27715 14.35704 84.06227
#
# Poissons Ratio (x) = -0.03169 0.29845
# Poissons Ratio (y) = -0.26105 -0.54319
# Poissons Ratio (z) = 0.41992 -0.09277
#
# Static dielectric constant tensor:
#      x y z
#    x 4.341050 0.000000 -0.392780 
#    y 0.000000 3.888870 0.000000 
#    z -0.392780 0.000000 4.330850 
# 
# 
# High freq. dielectric constant tensor:
#      x y z
#    x 1.899250 0.000000 -0.005230 
#    y 0.000000 1.899770 0.000000 
#    z -0.005230 0.000000 1.889390 
# 
# From -- ./inp_files/43474.got.cif
#   From: 2010.03.12/outbox.cif.g09.slc.cpg/sg14_22_cif.got.tgz:43474.got - 2010.03.31 13:35:05.
