data_PCOD8124744
_publ_section_title
;
Structure prediction by ZEFSAII (Michael W. Deem and Ramdas Pophale) SiO2 
 PCOD8124744
Probable space group: P 21/C
;
_chemical_formula_sum "Si O2"
_cell_formula_units_Z 32
_cell_length_a 8.068278
_cell_length_b 10.004997
_cell_length_c 21.292310
_cell_angle_alpha 90.000000
_cell_angle_beta 79.901064
_cell_angle_gamma 90.000000
_cell_volume 1692.151163
_symmetry_space_group_name_H-M "P 21/C"
_symmetry_group_IT_number 14
_symmetry_cell_setting 'monoclinic'
loop_
_space_group_symop_operation_xyz
x,y,z
-x,1/2+y,1/2-z
-x,-y,-z
x,1/2-y,1/2+z
loop_
_atom_site_type_symbol
_atom_site_label
_atom_site_fract_x
_atom_site_fract_y
_atom_site_fract_z
Si Si1 0.659971 0.925078 0.785450
Si Si2 0.212095 0.146878 0.734131
Si Si3 0.366381 0.416977 0.347288
Si Si4 0.962255 0.905378 0.060538
Si Si5 0.752254 0.418751 0.858878
Si Si6 0.611826 0.887614 0.642597
Si Si7 0.963899 0.600341 0.057884
Si Si8 0.876128 0.144202 0.824091
O O1 0.713606 0.777939 0.805042
O O2 0.604482 0.921165 0.716748
O O3 0.518471 0.977450 0.844233
O O4 0.815135 0.026642 0.782820
O O5 0.344653 0.084076 0.773494
O O6 0.057082 0.194296 0.787831
O O7 0.161856 0.035920 0.687170
O O8 0.205716 0.467350 0.396857
O O9 0.408263 0.269565 0.369099
O O10 0.941134 0.753517 0.036728
O O11 0.107324 0.906290 0.104621
O O12 0.000000 0.000000 0.000000
O O13 0.552289 0.453787 0.881051
O O14 0.756549 0.273637 0.824914
O O15 0.866676 0.409820 0.912524
O O16 0.789667 0.942687 0.603908
O O17 0.000000 0.500000 0.000000
#
# Coordination Sequence:
#
# PCOD8124744 Si02
#       8
#     4   4   4   4   4   4   4   4
#     4  11  19  34  57  89 115 144 185 226 286 343
#     4  10  20  33  52  89 116 143 188 230 276 348
#     4   9  18  35  56  80 117 146 176 231 283 338
#     4   9  20  40  60  78 106 150 195 234 283 331
#     4  11  20  37  59  80 117 154 183 230 294 336
#     4  10  20  37  60  83 117 153 182 228 290 344
#     4  10  23  41  59  81 111 152 197 235 282 338
#     4  10  20  35  59  80 114 155 184 228 293 346
#
# _framework density 18.910841000000001
#
# number of rings (size 3 to 8) (size 9 to 14) (size 15 to 20)
#    0.000    2.000    2.500    3.750    0.000    1.500 
#    2.250    1.875    0.000    0.000    0.000    0.000 
#    0.000    0.000    0.000    0.000    0.000    0.000 
#
# Total GULP energy -396553.320356 kJ/mol
# GULP energy per Si atom -12392.291261 kJ/mol
# Density = 1.886780 g / cm^3
# Si number density = 18.910841 Si / 1000 Ang^3
#
#
#
# Elastic Constant Matrix: (Units=GPa)
#
#
# Indices 1 2 3 4 5 6 
#
# 1 106.4538 35.0866 35.1014 0.0000 -2.2141 0.0000
# 2 35.0866 106.3337 59.6335 0.0000 -1.0251 0.0000
# 3 35.1014 59.6335 70.4903 0.0000 -7.9215 0.0000
# 4 0.0000 0.0000 0.0000 36.0869 0.0000 -0.6402
# 5 -2.2141 -1.0251 -7.9215 0.0000 22.2992 0.0000
# 6 0.0000 0.0000 0.0000 -0.6402 0.0000 28.6294
#
#
#
# Elastic Compliance Matrix: (Units=1/GPa)
#
#
# Indices 1 2 3 4 5 6 
#
# 1 0.011314 -0.001026 -0.004838 0.000000 -0.000642 0.000000
# 2 -0.001026 0.018482 -0.015666 0.000000 -0.004817 0.000000
# 3 -0.004838 -0.015666 0.030949 0.000000 0.009794 0.000000
# 4 0.000000 0.000000 0.000000 0.027722 0.000000 0.000620
# 5 -0.000642 -0.004817 0.009794 0.000000 0.048039 0.000000
# 6 0.000000 0.000000 0.000000 0.000620 0.000000 0.034943
#
#
# Mechanical properties :
#
#
# Convention : Reuss Voigt Hill
#
# Bulk Modulus (GPa) = 56.54488 60.32453 58.43470
# Shear Modulus (GPa) = 22.68563 27.63352 25.15957
#
# Velocity S-wave (km/s) = 3.46730 3.82678 3.65146
# Velocity P-wave (km/s) = 6.78198 7.17596 6.98175
#
# Compressibility (1/GPa) = 0.01768507
#
# Stress axis : x y z
#
# Youngs Moduli (GPa) = 88.38742 54.10595 32.31110
#
# Poissons Ratio (x) = 0.05553 0.15632
# Poissons Ratio (y) = 0.09071 0.50618
# Poissons Ratio (z) = 0.42760 0.84762
#
# Static dielectric constant tensor:
#      x y z
#    x 3.637960 0.000000 -0.043480 
#    y 0.000000 3.441790 0.000000 
#    z -0.043480 0.000000 3.098460 
# 
# 
# High freq. dielectric constant tensor:
#      x y z
#    x 1.749530 0.000000 -0.004150 
#    y 0.000000 1.731740 0.000000 
#    z -0.004150 0.000000 1.698990 
# 
# From -- ./inp_files/64818.got.cif
#   From: 2010.03.12/outbox.cif.g09.slc.cpg/sg14_33_cif.got.tgz:64818.got - 2010.03.31 13:35:05.
