data_PCOD8124302
_publ_section_title
;
Structure prediction by ZEFSAII (Michael W. Deem and Ramdas Pophale) SiO2 
 PCOD8124302
Probable space group: P 21/C
;
_chemical_formula_sum "Si O2"
_cell_formula_units_Z 24
_cell_length_a 18.015041
_cell_length_b 8.844732
_cell_length_c 23.594829
_cell_angle_alpha 90.000000
_cell_angle_beta 161.036731
_cell_angle_gamma 90.000000
_cell_volume 1221.713190
_symmetry_space_group_name_H-M "P 21/C"
_symmetry_group_IT_number 14
_symmetry_cell_setting 'monoclinic'
loop_
_space_group_symop_operation_xyz
x,y,z
-x,1/2+y,1/2-z
-x,-y,-z
x,1/2-y,1/2+z
loop_
_atom_site_type_symbol
_atom_site_label
_atom_site_fract_x
_atom_site_fract_y
_atom_site_fract_z
Si Si1 0.492186 0.182691 0.404745
Si Si2 0.021103 0.337406 0.599554
Si Si3 0.823250 0.158063 0.747783
Si Si4 0.674346 0.819484 0.913373
Si Si5 0.640643 0.176772 0.902156
Si Si6 0.640143 0.355668 0.231467
O O1 0.239237 0.256424 0.233563
O O2 0.629710 0.181232 0.561928
O O3 0.630020 0.289683 0.460952
O O4 0.473776 0.016266 0.364639
O O5 0.141212 0.482272 0.713835
O O6 0.874011 0.253953 0.542499
O O7 0.851219 0.382812 0.426211
O O8 0.733300 0.229401 0.742245
O O9 0.059760 0.228686 0.895785
O O10 0.573992 0.755306 0.782532
O O11 0.554366 0.748568 0.881564
O O12 0.639845 0.998822 0.889367
#
# Coordination Sequence:
#
# PCOD8124302 Si02
#       6
#     4   4   4   4   4   4
#     4  11  20  33  56  81 109 140 174 215 264 319
#     4   9  18  34  56  77 103 140 181 215 252 312
#     4  10  20  33  54  81 110 142 173 211 266 324
#     4  10  21  37  57  78 105 138 180 222 261 310
#     4  10  20  37  55  79 104 138 178 220 262 308
#     4  10  19  36  59  80 102 140 184 221 254 307
#
# _framework density 19.644545999999998
#
# number of rings (size 3 to 8) (size 9 to 14) (size 15 to 20)
#    0.000    2.000    0.000    8.000    0.000    4.000 
#    0.000   10.000    0.000    0.000    0.000    0.000 
#    0.000    0.000    0.000    0.000    0.000    0.000 
#
# Total GULP energy -297466.878305 kJ/mol
# GULP energy per Si atom -12394.453263 kJ/mol
# Density = 1.959983 g / cm^3
# Si number density = 19.644546 Si / 1000 Ang^3
#
#
#
# Elastic Constant Matrix: (Units=GPa)
#
#
# Indices 1 2 3 4 5 6 
#
# 1 134.4286 15.3209 70.6844 0.0000 34.4236 0.0000
# 2 15.3209 38.1698 19.7490 0.0000 13.0486 0.0000
# 3 70.6844 19.7490 105.9669 0.0000 10.9702 0.0000
# 4 0.0000 0.0000 0.0000 19.6007 0.0000 5.0059
# 5 34.4236 13.0486 10.9702 0.0000 29.4530 0.0000
# 6 0.0000 0.0000 0.0000 5.0059 0.0000 30.3609
#
#
#
# Elastic Compliance Matrix: (Units=1/GPa)
#
#
# Indices 1 2 3 4 5 6 
#
# 1 0.016948 0.004704 -0.010313 0.000000 -0.018051 0.000000
# 2 0.004704 0.034404 -0.007699 0.000000 -0.017872 0.000000
# 3 -0.010313 -0.007699 0.016798 0.000000 0.009208 0.000000
# 4 0.000000 0.000000 0.000000 0.053261 0.000000 -0.008782
# 5 -0.018051 -0.017872 0.009208 0.000000 0.059538 0.000000
# 6 0.000000 0.000000 0.000000 -0.008782 0.000000 0.034385
#
#
# Mechanical properties :
#
#
# Convention : Reuss Voigt Hill
#
# Bulk Modulus (GPa) = 24.07731 54.45266 39.26498
# Shear Modulus (GPa) = 19.54694 27.40365 23.47530
#
# Velocity S-wave (km/s) = 3.15783 3.73899 3.46063
# Velocity P-wave (km/s) = 5.05757 6.81316 5.99992
#
# Compressibility (1/GPa) = 0.04153289
#
# Stress axis : x y z
#
# Youngs Moduli (GPa) = 59.00491 29.06647 59.53197
#
# Poissons Ratio (x) = -0.13673 0.61394
# Poissons Ratio (y) = -0.27756 0.45836
# Poissons Ratio (z) = 0.60851 0.22379
#
# Static dielectric constant tensor:
#      x y z
#    x 4.179160 0.000000 0.440500 
#    y 0.000000 3.136780 0.000000 
#    z 0.440500 0.000000 3.762260 
# 
# 
# High freq. dielectric constant tensor:
#      x y z
#    x 1.792780 0.000000 0.015390 
#    y 0.000000 1.714600 0.000000 
#    z 0.015390 0.000000 1.772690 
# 
# From -- ./inp_files/38896.got.cif
#   From: 2010.03.12/outbox.cif.g09.slc.cpg/sg14_20_cif.got.tgz:38896.got - 2010.03.31 13:35:05.
