data_PCOD8124058
_publ_section_title
;
Structure prediction by ZEFSAII (Michael W. Deem and Ramdas Pophale) SiO2 
 PCOD8124058
Probable space group: P 21/C
;
_chemical_formula_sum "Si O2"
_cell_formula_units_Z 24
_cell_length_a 15.551566
_cell_length_b 5.012640
_cell_length_c 15.860505
_cell_angle_alpha 90.000000
_cell_angle_beta 58.303615
_cell_angle_gamma 90.000000
_cell_volume 1051.980594
_symmetry_space_group_name_H-M "P 21/C"
_symmetry_group_IT_number 14
_symmetry_cell_setting 'monoclinic'
loop_
_space_group_symop_operation_xyz
x,y,z
-x,1/2+y,1/2-z
-x,-y,-z
x,1/2-y,1/2+z
loop_
_atom_site_type_symbol
_atom_site_label
_atom_site_fract_x
_atom_site_fract_y
_atom_site_fract_z
Si Si1 0.640523 0.416543 0.074778
Si Si2 0.414956 0.085200 0.979105
Si Si3 0.794704 0.854935 0.815816
Si Si4 0.151001 0.649235 0.128991
Si Si5 0.784540 0.624227 0.129231
Si Si6 0.100166 0.873762 0.985667
O O1 0.561715 0.631945 0.077058
O O2 0.678019 0.509756 0.148150
O O3 0.587390 0.128835 0.096923
O O4 0.738841 0.388742 0.966690
O O5 0.310004 0.117103 0.081501
O O6 0.500000 0.000000 0.000000
O O7 0.872267 0.637587 0.817119
O O8 0.771276 0.779665 0.731585
O O9 0.851589 0.137118 0.793865
O O10 0.079119 0.759766 0.091000
O O11 0.865781 0.383253 0.085898
O O12 0.817285 0.884554 0.056923
O O13 0.000000 0.000000 0.000000
#
# Coordination Sequence:
#
# PCOD8124058 Si02
#       6
#     4   4   4   4   4   4
#     4   9  18  33  54  76 106 149 188 218 271 344
#     4  10  19  34  55  81 110 146 187 228 273 330
#     4  10  20  35  57  82 111 148 188 230 277 331
#     4   9  18  35  56  77 108 149 187 220 274 350
#     4  11  21  37  58  84 112 148 192 237 281 336
#     4  11  22  38  60  84 111 148 192 237 284 339
#
# _framework density 22.814108000000001
#
# number of rings (size 3 to 8) (size 9 to 14) (size 15 to 20)
#    0.000    2.000    0.000    7.000    0.000    0.000 
#    0.000    5.000    0.000    0.000    0.000    0.000 
#    0.000    0.000    0.000    0.000    0.000    0.000 
#
# Total GULP energy -297342.830435 kJ/mol
# GULP energy per Si atom -12389.284601 kJ/mol
# Density = 2.276218 g / cm^3
# Si number density = 22.814108 Si / 1000 Ang^3
#
#
#
# Elastic Constant Matrix: (Units=GPa)
#
#
# Indices 1 2 3 4 5 6 
#
# 1 77.9120 30.1018 22.5088 0.0000 36.6705 0.0000
# 2 30.1018 136.2958 37.7908 0.0000 14.5981 0.0000
# 3 22.5088 37.7908 91.5190 0.0000 40.3390 0.0000
# 4 0.0000 0.0000 0.0000 32.5566 0.0000 16.5225
# 5 36.6705 14.5981 40.3390 0.0000 33.6894 0.0000
# 6 0.0000 0.0000 0.0000 16.5225 0.0000 41.7546
#
#
#
# Elastic Compliance Matrix: (Units=1/GPa)
#
#
# Indices 1 2 3 4 5 6 
#
# 1 0.044426 -0.008953 0.026206 0.000000 -0.075856 0.000000
# 2 -0.008953 0.010108 -0.009184 0.000000 0.016362 0.000000
# 3 0.026206 -0.009184 0.040431 0.000000 -0.072956 0.000000
# 4 0.000000 0.000000 0.000000 0.038434 0.000000 -0.015209
# 5 -0.075856 0.016362 -0.072956 0.000000 0.192518 0.000000
# 6 0.000000 0.000000 0.000000 -0.015209 0.000000 0.029968
#
#
# Mechanical properties :
#
#
# Convention : Reuss Voigt Hill
#
# Bulk Modulus (GPa) = 9.00067 54.05885 31.52976
# Shear Modulus (GPa) = 13.27026 35.95515 24.61271
#
# Velocity S-wave (km/s) = 2.41440 3.97420 3.28813
# Velocity P-wave (km/s) = 3.42436 6.69372 5.31658
#
# Compressibility (1/GPa) = 0.11110288
#
# Stress axis : x y z
#
# Youngs Moduli (GPa) = 22.50921 98.92837 24.73355
#
# Poissons Ratio (x) = 0.88573 -0.64817
# Poissons Ratio (y) = 0.20153 0.22715
# Poissons Ratio (z) = -0.58987 0.90855
#
# Static dielectric constant tensor:
#      x y z
#    x 3.803330 0.000000 0.364410 
#    y 0.000000 4.963020 0.000000 
#    z 0.364410 0.000000 3.858200 
# 
# 
# High freq. dielectric constant tensor:
#      x y z
#    x 1.868510 0.000000 0.037190 
#    y 0.000000 1.933240 0.000000 
#    z 0.037190 0.000000 1.870550 
# 
# From -- ./inp_files/45905.got.cif
#   From: 2010.03.12/outbox.cif.g09.slc.cpg/sg14_23_cif.got.tgz:45905.got - 2010.03.31 13:35:05.
