data_PCOD8124793
_publ_section_title
;
Structure prediction by ZEFSAII (Michael W. Deem and Ramdas Pophale) SiO2 
 PCOD8124793
Probable space group: P 21/C
;
_chemical_formula_sum "Si O2"
_cell_formula_units_Z 32
_cell_length_a 18.308933
_cell_length_b 9.503147
_cell_length_c 29.188044
_cell_angle_alpha 90.000000
_cell_angle_beta 20.111806
_cell_angle_gamma 90.000000
_cell_volume 1746.258503
_symmetry_space_group_name_H-M "P 21/C"
_symmetry_group_IT_number 14
_symmetry_cell_setting 'monoclinic'
loop_
_space_group_symop_operation_xyz
x,y,z
-x,1/2+y,1/2-z
-x,-y,-z
x,1/2-y,1/2+z
loop_
_atom_site_type_symbol
_atom_site_label
_atom_site_fract_x
_atom_site_fract_y
_atom_site_fract_z
Si Si1 0.146221 0.681023 0.766949
Si Si2 0.934460 0.147557 0.017745
Si Si3 0.221812 0.845006 0.991669
Si Si4 0.420888 0.356731 0.525004
Si Si5 0.300076 0.150149 0.276618
Si Si6 0.306394 0.671219 0.771073
Si Si7 0.141673 0.145334 0.269525
Si Si8 0.760280 0.870837 0.966763
O O1 0.368418 0.732075 0.612679
O O2 0.160462 0.705596 0.813074
O O3 0.102505 0.517914 0.781908
O O4 0.955359 0.767106 0.858189
O O5 0.748554 0.219489 0.156696
O O6 0.849050 0.117828 0.017682
O O7 0.135026 0.252102 0.900414
O O8 0.000000 0.000000 0.000000
O O9 0.086984 0.716444 0.091195
O O10 0.179395 0.978468 0.048513
O O11 0.466182 0.797641 0.847465
O O12 0.500000 0.500000 0.500000
O O13 0.273576 0.281542 0.650115
O O14 0.282147 0.389106 0.561914
O O15 0.280352 0.163805 0.233554
O O16 0.263975 0.988447 0.312935
O O17 0.554266 0.691300 0.613630
#
# Coordination Sequence:
#
# PCOD8124793 Si02
#       8
#     4   4   4   4   4   4   4   4
#     4   9  18  34  54  76 102 134 175 216 251 300
#     4  11  22  34  53  80 105 131 171 222 262 296
#     4  10  21  36  53  77 107 137 170 212 262 311
#     4   9  18  34  56  78 105 141 175 206 255 318
#     4   9  20  37  53  72 103 141 174 206 254 316
#     4   9  19  36  53  71 102 140 173 207 255 315
#     4   9  19  35  54  76 104 137 173 212 254 306
#     4  10  20  34  55  80 105 135 173 215 258 306
#
# _framework density 18.324892999999999
#
# number of rings (size 3 to 8) (size 9 to 14) (size 15 to 20)
#    0.000    2.500    0.000    3.375    0.000    7.000 
#    0.000    3.125    0.000    0.000    0.000    0.000 
#    0.000    0.000    0.000    0.000    0.000    0.000 
#
# Total GULP energy -396796.546176 kJ/mol
# GULP energy per Si atom -12399.892068 kJ/mol
# Density = 1.828318 g / cm^3
# Si number density = 18.324893 Si / 1000 Ang^3
#
#
#
# Elastic Constant Matrix: (Units=GPa)
#
#
# Indices 1 2 3 4 5 6 
#
# 1 84.9257 30.1547 39.4912 0.0000 -6.6347 0.0000
# 2 30.1547 53.7319 26.3497 0.0000 -5.3093 0.0000
# 3 39.4912 26.3497 72.3793 0.0000 -11.2071 0.0000
# 4 0.0000 0.0000 0.0000 30.0375 0.0000 -5.0975
# 5 -6.6347 -5.3093 -11.2071 0.0000 36.9502 0.0000
# 6 0.0000 0.0000 0.0000 -5.0975 0.0000 25.1060
#
#
#
# Elastic Compliance Matrix: (Units=1/GPa)
#
#
# Indices 1 2 3 4 5 6 
#
# 1 0.017319 -0.006190 -0.007190 0.000000 0.000040 0.000000
# 2 -0.006190 0.024890 -0.005564 0.000000 0.000778 0.000000
# 3 -0.007190 -0.005564 0.020399 0.000000 0.004097 0.000000
# 4 0.000000 0.000000 0.000000 0.034480 0.000000 0.007001
# 5 0.000040 0.000778 0.004097 0.000000 0.028425 0.000000
# 6 0.000000 0.000000 0.000000 0.007001 0.000000 0.041252
#
#
# Mechanical properties :
#
#
# Convention : Reuss Voigt Hill
#
# Bulk Modulus (GPa) = 40.45132 44.78090 42.61611
# Shear Modulus (GPa) = 23.48603 26.08817 24.78710
#
# Velocity S-wave (km/s) = 3.58389 3.77722 3.68182
# Velocity P-wave (km/s) = 6.26483 6.59647 6.43279
#
# Compressibility (1/GPa) = 0.02472107
#
# Stress axis : x y z
#
# Youngs Moduli (GPa) = 57.73869 40.17709 49.02233
#
# Poissons Ratio (x) = 0.24869 0.35248
# Poissons Ratio (y) = 0.35739 0.27274
# Poissons Ratio (z) = 0.41515 0.22353
#
# Static dielectric constant tensor:
#      x y z
#    x 3.537340 0.000000 0.177440 
#    y 0.000000 3.249640 0.000000 
#    z 0.177440 0.000000 3.665160 
# 
# 
# High freq. dielectric constant tensor:
#      x y z
#    x 1.718880 0.000000 0.002360 
#    y 0.000000 1.689660 0.000000 
#    z 0.002360 0.000000 1.719870 
# 
# From -- ./inp_files/50074.got.cif
#   From: 2010.03.12/outbox.cif.g09.slc.cpg/sg14_26_cif.got.tgz:50074.got - 2010.03.31 13:35:05.
