data_PCOD8124146
_publ_section_title
;
Structure prediction by ZEFSAII (Michael W. Deem and Ramdas Pophale) SiO2 
 PCOD8124146
Probable space group: P 21/C
;
_chemical_formula_sum "Si O2"
_cell_formula_units_Z 32
_cell_length_a 15.695363
_cell_length_b 14.190574
_cell_length_c 14.513321
_cell_angle_alpha 90.000000
_cell_angle_beta 31.314740
_cell_angle_gamma 90.000000
_cell_volume 1680.054471
_symmetry_space_group_name_H-M "P 21/C"
_symmetry_group_IT_number 14
_symmetry_cell_setting 'monoclinic'
loop_
_space_group_symop_operation_xyz
x,y,z
-x,1/2+y,1/2-z
-x,-y,-z
x,1/2-y,1/2+z
loop_
_atom_site_type_symbol
_atom_site_label
_atom_site_fract_x
_atom_site_fract_y
_atom_site_fract_z
Si Si1 0.299938 0.391651 0.994484
Si Si2 0.963283 0.865337 0.583674
Si Si3 0.342536 0.258836 0.110767
Si Si4 0.971441 0.943548 0.381899
Si Si5 0.663974 0.355275 0.274352
Si Si6 0.569081 0.743834 0.761603
Si Si7 0.316440 0.897547 0.041147
Si Si8 0.501789 0.047564 0.767057
O O1 0.301143 0.357724 0.098904
O O2 0.139304 0.444976 0.106945
O O3 0.311779 0.302322 0.914494
O O4 0.442357 0.469064 0.857346
O O5 0.897081 0.898058 0.544178
O O6 0.146766 0.816278 0.406184
O O7 0.820613 0.801551 0.758680
O O8 0.973520 0.951346 0.644733
O O9 0.357523 0.273280 0.205440
O O10 0.514117 0.220963 0.906388
O O11 0.124596 0.879980 0.208634
O O12 0.636360 0.410154 0.395155
O O13 0.645861 0.429539 0.207644
O O14 0.548553 0.641141 0.738601
O O15 0.401624 0.804266 0.920865
O O16 0.355755 0.997496 0.957392
#
# Coordination Sequence:
#
# PCOD8124146 Si02
#       8
#     4   4   4   4   4   4   4   4
#     4  11  22  37  59  87 120 156 203 243 297 362
#     4  10  20  34  60  89 120 146 188 258 302 346
#     4  11  22  39  62  86 119 164 196 240 306 356
#     4  10  19  35  55  90 118 142 194 254 305 344
#     4  10  19  35  61  90 114 150 196 252 302 337
#     4  10  22  39  58  86 117 156 204 245 293 362
#     4   9  21  34  59  88 114 152 198 250 298 356
#     4  11  20  37  58  84 122 154 198 247 297 352
#
# _framework density 19.047001999999999
#
# number of rings (size 3 to 8) (size 9 to 14) (size 15 to 20)
#    0.000    1.750    3.750    1.125    0.000    1.500 
#    0.000    0.000    0.000    0.750    0.000    0.000 
#    0.000    0.000    0.000    0.000    0.000    0.000 
#
# Total GULP energy -396459.920702 kJ/mol
# GULP energy per Si atom -12389.372522 kJ/mol
# Density = 1.900365 g / cm^3
# Si number density = 19.047002 Si / 1000 Ang^3
#
#
#
# Elastic Constant Matrix: (Units=GPa)
#
#
# Indices 1 2 3 4 5 6 
#
# 1 61.2727 37.0904 23.6035 0.0000 2.3900 0.0000
# 2 37.0904 100.3155 27.3679 0.0000 8.3017 0.0000
# 3 23.6035 27.3679 64.4116 0.0000 -9.1848 0.0000
# 4 0.0000 0.0000 0.0000 22.1019 0.0000 6.4698
# 5 2.3900 8.3017 -9.1848 0.0000 25.9410 0.0000
# 6 0.0000 0.0000 0.0000 6.4698 0.0000 29.5739
#
#
#
# Elastic Compliance Matrix: (Units=1/GPa)
#
#
# Indices 1 2 3 4 5 6 
#
# 1 0.022632 -0.006630 -0.005762 0.000000 -0.002003 0.000000
# 2 -0.006630 0.014043 -0.004308 0.000000 -0.005409 0.000000
# 3 -0.005762 -0.004308 0.020789 0.000000 0.009270 0.000000
# 4 0.000000 0.000000 0.000000 0.048341 0.000000 -0.010575
# 5 -0.002003 -0.005409 0.009270 0.000000 0.043747 0.000000
# 6 0.000000 0.000000 0.000000 -0.010575 0.000000 0.036127
#
#
# Mechanical properties :
#
#
# Convention : Reuss Voigt Hill
#
# Bulk Modulus (GPa) = 41.55774 44.68039 43.11906
# Shear Modulus (GPa) = 22.01673 24.71922 23.36797
#
# Velocity S-wave (km/s) = 3.40356 3.60641 3.50645
# Velocity P-wave (km/s) = 6.10832 6.39144 6.25148
#
# Compressibility (1/GPa) = 0.02406291
#
# Stress axis : x y z
#
# Youngs Moduli (GPa) = 44.18595 71.21019 48.10205
#
# Poissons Ratio (x) = 0.47212 0.27716
# Poissons Ratio (y) = 0.29295 0.20724
# Poissons Ratio (z) = 0.25460 0.30680
#
# Static dielectric constant tensor:
#      x y z
#    x 3.468790 0.000000 -0.089540 
#    y 0.000000 3.281090 0.000000 
#    z -0.089540 0.000000 3.577030 
# 
# 
# High freq. dielectric constant tensor:
#      x y z
#    x 1.733820 0.000000 -0.004740 
#    y 0.000000 1.716110 0.000000 
#    z -0.004740 0.000000 1.741730 
# 
# From -- ./inp_files/49009.got.cif
#   From: 2010.03.12/outbox.cif.g09.slc.cpg/sg14_25_cif.got.tgz:49009.got - 2010.03.31 13:35:05.
