data_PCOD8124026
_publ_section_title
;
Structure prediction by ZEFSAII (Michael W. Deem and Ramdas Pophale) SiO2 
 PCOD8124026
Probable space group: P 21/C
;
_chemical_formula_sum "Si O2"
_cell_formula_units_Z 28
_cell_length_a 8.180240
_cell_length_b 18.449759
_cell_length_c 9.546949
_cell_angle_alpha 90.000000
_cell_angle_beta 76.485024
_cell_angle_gamma 90.000000
_cell_volume 1400.959540
_symmetry_space_group_name_H-M "P 21/C"
_symmetry_group_IT_number 14
_symmetry_cell_setting 'monoclinic'
loop_
_space_group_symop_operation_xyz
x,y,z
-x,1/2+y,1/2-z
-x,-y,-z
x,1/2-y,1/2+z
loop_
_atom_site_type_symbol
_atom_site_label
_atom_site_fract_x
_atom_site_fract_y
_atom_site_fract_z
Si Si1 0.240161 0.407450 0.832756
Si Si2 0.496013 0.321817 0.595065
Si Si3 0.988240 0.506973 0.290827
Si Si4 0.479235 0.964019 0.282499
Si Si5 0.533915 0.688226 0.717362
Si Si6 0.731269 0.045744 0.050933
Si Si7 0.761938 0.605411 0.861310
O O1 0.336227 0.360120 0.698861
O O2 0.055897 0.431373 0.815271
O O3 0.333086 0.482376 0.854405
O O4 0.224725 0.363763 0.982606
O O5 0.550027 0.254670 0.682833
O O6 0.441460 0.293647 0.451884
O O7 0.658762 0.373199 0.553986
O O8 0.805615 0.484331 0.390568
O O9 0.112674 0.546082 0.373259
O O10 0.063668 0.433222 0.212786
O O11 0.413227 0.883012 0.254840
O O12 0.613436 0.955681 0.383102
O O13 0.582190 0.991960 0.125441
O O14 0.714009 0.668958 0.758584
#
# Coordination Sequence:
#
# PCOD8124026 Si02
#       7
#     4   4   4   4   4   4   4
#     4  11  19  33  62  89 114 151 191 243 284 341
#     4  11  22  37  61  83 112 151 201 237 293 337
#     4  10  19  33  59  86 121 144 187 236 291 344
#     4   8  18  34  57  87 112 142 197 238 284 325
#     4  10  21  37  57  81 114 149 191 239 285 344
#     4   9  19  36  58  88 111 152 190 246 282 344
#     4   9  20  35  54  87 118 149 185 235 286 342
#
# _framework density 19.986301000000001
#
# number of rings (size 3 to 8) (size 9 to 14) (size 15 to 20)
#    0.857    1.429    0.000    3.429    2.000    2.286 
#    0.000    0.000    6.286    0.000    0.000    0.000 
#    0.000    0.000    0.000    0.000    0.000    0.000 
#
# Total GULP energy -346918.530734 kJ/mol
# GULP energy per Si atom -12389.947526 kJ/mol
# Density = 1.994081 g / cm^3
# Si number density = 19.986301 Si / 1000 Ang^3
#
#
#
# Elastic Constant Matrix: (Units=GPa)
#
#
# Indices 1 2 3 4 5 6 
#
# 1 46.4143 19.9079 20.2291 0.0000 -0.3743 0.0000
# 2 19.9079 100.3870 35.5783 0.0000 7.2389 0.0000
# 3 20.2291 35.5783 145.7743 0.0000 16.8952 0.0000
# 4 0.0000 0.0000 0.0000 26.4740 0.0000 1.5718
# 5 -0.3743 7.2389 16.8952 0.0000 12.7399 0.0000
# 6 0.0000 0.0000 0.0000 1.5718 0.0000 28.1872
#
#
#
# Elastic Compliance Matrix: (Units=1/GPa)
#
#
# Indices 1 2 3 4 5 6 
#
# 1 0.024883 -0.004318 -0.003271 0.000000 0.007523 0.000000
# 2 -0.004318 0.011762 -0.001751 0.000000 -0.004488 0.000000
# 3 -0.003271 -0.001751 0.009024 0.000000 -0.011068 0.000000
# 4 0.000000 0.000000 0.000000 0.037898 0.000000 -0.002113
# 5 0.007523 -0.004488 -0.011068 0.000000 0.095943 0.000000
# 6 0.000000 0.000000 0.000000 -0.002113 0.000000 0.035595
#
#
# Mechanical properties :
#
#
# Convention : Reuss Voigt Hill
#
# Bulk Modulus (GPa) = 37.05224 49.33403 43.19313
# Shear Modulus (GPa) = 20.59452 27.93757 24.26605
#
# Velocity S-wave (km/s) = 3.21352 3.74282 3.48822
# Velocity P-wave (km/s) = 5.68753 6.58907 6.15483
#
# Compressibility (1/GPa) = 0.02698892
#
# Stress axis : x y z
#
# Youngs Moduli (GPa) = 40.18745 85.01934 110.81393
#
# Poissons Ratio (x) = 0.36710 0.36248
# Poissons Ratio (y) = 0.17352 0.19408
# Poissons Ratio (z) = 0.13146 0.14890
#
# Static dielectric constant tensor:
#      x y z
#    x 3.330880 0.000000 0.165540 
#    y 0.000000 3.461610 0.000000 
#    z 0.165540 0.000000 3.738390 
# 
# 
# High freq. dielectric constant tensor:
#      x y z
#    x 1.751300 0.000000 0.018960 
#    y 0.000000 1.756070 0.000000 
#    z 0.018960 0.000000 1.794390 
# 
# From -- ./inp_files/9464.got.cif
#   From: 2010.03.12/outbox.cif.g09.slc.cpg/sg14_5_cif.got.tgz:9464.got - 2010.03.31 13:35:05.
