data_PCOD8124437
_publ_section_title
;
Structure prediction by ZEFSAII (Michael W. Deem and Ramdas Pophale) SiO2 
 PCOD8124437
Probable space group: P 21/C
;
_chemical_formula_sum "Si O2"
_cell_formula_units_Z 32
_cell_length_a 23.460662
_cell_length_b 14.549129
_cell_length_c 9.493318
_cell_angle_alpha 90.000000
_cell_angle_beta 151.976608
_cell_angle_gamma 90.000000
_cell_volume 1522.431921
_symmetry_space_group_name_H-M "P 21/C"
_symmetry_group_IT_number 14
_symmetry_cell_setting 'monoclinic'
loop_
_space_group_symop_operation_xyz
x,y,z
-x,1/2+y,1/2-z
-x,-y,-z
x,1/2-y,1/2+z
loop_
_atom_site_type_symbol
_atom_site_label
_atom_site_fract_x
_atom_site_fract_y
_atom_site_fract_z
Si Si1 0.428854 0.629391 0.663911
Si Si2 0.601175 0.274938 0.685257
Si Si3 0.638921 0.655259 0.750687
Si Si4 0.764197 0.506372 0.863779
Si Si5 0.828125 0.701300 0.599274
Si Si6 0.685661 0.561209 0.134138
Si Si7 0.201850 0.902360 0.282662
Si Si8 0.937991 0.847864 0.628560
O O1 0.422032 0.671579 0.807350
O O2 0.419607 0.713229 0.528573
O O3 0.308428 0.567673 0.386645
O O4 0.551421 0.569148 0.911380
O O5 0.505085 0.341255 0.552376
O O6 0.731269 0.310332 0.019437
O O7 0.664564 0.582346 0.685352
O O8 0.696176 0.754106 0.840300
O O9 0.697010 0.626097 0.024178
O O10 0.823474 0.464016 0.134246
O O11 0.869194 0.555581 0.004183
O O12 0.794477 0.599890 0.469339
O O13 0.903904 0.768197 0.663639
O O14 0.910638 0.690463 0.915364
O O15 0.717476 0.457026 0.157711
O O16 0.079358 0.869672 0.943397
#
# Coordination Sequence:
#
# PCOD8124437 Si02
#       8
#     4   4   4   4   4   4   4   4
#     4  10  20  37  61  91 117 157 194 251 303 358
#     4  10  20  35  60  87 121 148 199 248 303 350
#     4   9  17  35  62  87 112 150 197 244 296 356
#     4   9  20  38  61  85 117 156 201 237 298 361
#     4  11  21  38  62  89 113 158 198 250 292 349
#     4  10  19  37  62  85 117 151 199 245 301 350
#     4  10  22  40  59  88 118 164 195 246 295 356
#     4  11  24  40  62  88 121 157 208 240 289 360
#
# _framework density 21.019000999999999
#
# number of rings (size 3 to 8) (size 9 to 14) (size 15 to 20)
#    0.000    2.000    2.500    1.125    0.000    5.500 
#    4.500    0.625    0.000    0.000    0.000    0.000 
#    0.000    0.000    0.000    0.000    0.000    0.000 
#
# Total GULP energy -396670.975961 kJ/mol
# GULP energy per Si atom -12395.967999 kJ/mol
# Density = 2.097116 g / cm^3
# Si number density = 21.019001 Si / 1000 Ang^3
#
#
#
# Elastic Constant Matrix: (Units=GPa)
#
#
# Indices 1 2 3 4 5 6 
#
# 1 44.5442 10.7162 39.9551 0.0000 0.3954 0.0000
# 2 10.7162 41.9765 27.3291 0.0000 -1.0532 0.0000
# 3 39.9551 27.3291 104.3770 0.0000 3.0456 0.0000
# 4 0.0000 0.0000 0.0000 27.4231 0.0000 -1.6663
# 5 0.3954 -1.0532 3.0456 0.0000 26.6833 0.0000
# 6 0.0000 0.0000 0.0000 -1.6663 0.0000 27.0114
#
#
#
# Elastic Compliance Matrix: (Units=1/GPa)
#
#
# Indices 1 2 3 4 5 6 
#
# 1 0.034216 -0.000198 -0.013074 0.000000 0.000977 0.000000
# 2 -0.000198 0.028826 -0.007530 0.000000 0.002000 0.000000
# 3 -0.013074 -0.007530 0.016615 0.000000 -0.002000 0.000000
# 4 0.000000 0.000000 0.000000 0.036603 0.000000 0.002258
# 5 0.000977 0.002000 -0.002000 0.000000 0.037769 0.000000
# 6 0.000000 0.000000 0.000000 0.002258 0.000000 0.037161
#
#
# Mechanical properties :
#
#
# Convention : Reuss Voigt Hill
#
# Bulk Modulus (GPa) = 26.27972 38.54429 32.41200
# Shear Modulus (GPa) = 20.36827 23.75005 22.05916
#
# Velocity S-wave (km/s) = 3.11632 3.36509 3.24309
# Velocity P-wave (km/s) = 5.04763 5.78585 5.42930
#
# Compressibility (1/GPa) = 0.03805216
#
# Stress axis : x y z
#
# Youngs Moduli (GPa) = 29.22602 34.69076 60.18509
#
# Poissons Ratio (x) = 0.00688 0.78688
# Poissons Ratio (y) = 0.00580 0.45319
# Poissons Ratio (z) = 0.38211 0.26122
#
# Static dielectric constant tensor:
#      x y z
#    x 3.709400 0.000000 -0.046810 
#    y 0.000000 3.711060 0.000000 
#    z -0.046810 0.000000 3.634950 
# 
# 
# High freq. dielectric constant tensor:
#      x y z
#    x 1.808060 0.000000 -0.001500 
#    y 0.000000 1.812780 0.000000 
#    z -0.001500 0.000000 1.822540 
# 
# From -- ./inp_files/19548.got.cif
#   From: 2010.03.12/outbox.cif.g09.slc.cpg/sg14_10_cif.got.tgz:19548.got - 2010.03.31 13:35:05.
