data_PCOD8124706
_publ_section_title
;
Structure prediction by ZEFSAII (Michael W. Deem and Ramdas Pophale) SiO2 
 PCOD8124706
Probable space group: P 21/C
;
_chemical_formula_sum "Si O2"
_cell_formula_units_Z 28
_cell_length_a 10.411440
_cell_length_b 14.421142
_cell_length_c 9.031677
_cell_angle_alpha 90.000000
_cell_angle_beta 61.839559
_cell_angle_gamma 90.000000
_cell_volume 1195.542361
_symmetry_space_group_name_H-M "P 21/C"
_symmetry_group_IT_number 14
_symmetry_cell_setting 'monoclinic'
loop_
_space_group_symop_operation_xyz
x,y,z
-x,1/2+y,1/2-z
-x,-y,-z
x,1/2-y,1/2+z
loop_
_atom_site_type_symbol
_atom_site_label
_atom_site_fract_x
_atom_site_fract_y
_atom_site_fract_z
Si Si1 0.875521 0.164566 0.568702
Si Si2 0.228472 0.500300 0.051491
Si Si3 0.173935 0.124349 0.298858
Si Si4 0.509295 0.623007 0.028843
Si Si5 0.459462 0.279433 0.697186
Si Si6 0.736173 0.141914 0.135996
Si Si7 0.070692 0.538362 0.679971
O O1 0.798867 0.259889 0.650772
O O2 0.896673 0.113210 0.712009
O O3 0.030350 0.187161 0.404393
O O4 0.776332 0.105422 0.508005
O O5 0.187332 0.438277 0.934712
O O6 0.391240 0.469793 0.015409
O O7 0.103114 0.479797 0.242198
O O8 0.149220 0.059015 0.170596
O O9 0.317297 0.184395 0.188143
O O10 0.517296 0.671546 0.862733
O O11 0.563885 0.705241 0.112547
O O12 0.340784 0.597051 0.172860
O O13 0.606848 0.340429 0.583439
O O14 0.862709 0.074969 0.010101
#
# Coordination Sequence:
#
# PCOD8124706 Si02
#       7
#     4   4   4   4   4   4   4
#     4   9  17  32  52  75 104 138 171 218 259 308
#     4   8  16  33  53  73 102 136 177 210 259 310
#     4   8  16  32  53  77  98 133 183 217 253 301
#     4   9  19  34  50  76 107 136 172 214 255 318
#     4   9  19  33  51  76 107 134 170 215 262 315
#     4  10  20  29  48  81 107 129 166 219 261 300
#     4   9  17  31  53  77  99 135 178 219 253 302
#
# _framework density 23.420335000000001
#
# number of rings (size 3 to 8) (size 9 to 14) (size 15 to 20)
#    0.857    2.286    0.000    2.571    2.000    0.571 
#    2.571    0.714    0.000    1.714    0.000    6.000 
#    0.000    0.000    0.000    0.000    0.000    0.000 
#
# Total GULP energy -346898.647641 kJ/mol
# GULP energy per Si atom -12389.237416 kJ/mol
# Density = 2.336703 g / cm^3
# Si number density = 23.420335 Si / 1000 Ang^3
#
#
#
# Elastic Constant Matrix: (Units=GPa)
#
#
# Indices 1 2 3 4 5 6 
#
# 1 80.2714 14.6055 36.4371 0.0000 -26.4497 0.0000
# 2 14.6055 51.6225 46.6384 0.0000 -12.6750 0.0000
# 3 36.4371 46.6384 98.2876 0.0000 -19.0146 0.0000
# 4 0.0000 0.0000 0.0000 14.5645 0.0000 14.6095
# 5 -26.4497 -12.6750 -19.0146 0.0000 37.7571 0.0000
# 6 0.0000 0.0000 0.0000 14.6095 0.0000 20.7052
#
#
#
# Elastic Compliance Matrix: (Units=1/GPa)
#
#
# Indices 1 2 3 4 5 6 
#
# 1 0.018202 0.002980 -0.006095 0.000000 0.010682 0.000000
# 2 0.002980 0.034851 -0.016591 0.000000 0.005431 0.000000
# 3 -0.006095 -0.016591 0.020389 0.000000 0.000429 0.000000
# 4 0.000000 0.000000 0.000000 0.234958 0.000000 -0.165785
# 5 0.010682 0.005431 0.000429 0.000000 0.036007 0.000000
# 6 0.000000 0.000000 0.000000 -0.165785 0.000000 0.165274
#
#
# Mechanical properties :
#
#
# Convention : Reuss Voigt Hill
#
# Bulk Modulus (GPa) = 29.38657 47.28260 38.33459
# Shear Modulus (GPa) = 8.92160 23.43874 16.18017
#
# Velocity S-wave (km/s) = 1.95387 3.16695 2.63127
# Velocity P-wave (km/s) = 4.20296 5.79701 5.06311
#
# Compressibility (1/GPa) = 0.03402914
#
# Stress axis : x y z
#
# Youngs Moduli (GPa) = 54.93912 28.69343 49.04515
#
# Poissons Ratio (x) = -0.08549 0.29894
# Poissons Ratio (y) = -0.16369 0.81371
# Poissons Ratio (z) = 0.33486 0.47605
#
# Static dielectric constant tensor:
#      x y z
#    x 4.524850 0.000000 -0.405230 
#    y 0.000000 3.982400 0.000000 
#    z -0.405230 0.000000 4.177880 
# 
# 
# High freq. dielectric constant tensor:
#      x y z
#    x 1.937700 0.000000 -0.018330 
#    y 0.000000 1.917730 0.000000 
#    z -0.018330 0.000000 1.914410 
# 
# From -- ./inp_files/29767.got.cif
#   From: 2010.03.12/outbox.cif.g09.slc.cpg/sg14_15_cif.got.tgz:29767.got - 2010.03.31 13:35:05.
