data_PCOD8124979
_publ_section_title
;
Structure prediction by ZEFSAII (Michael W. Deem and Ramdas Pophale) SiO2 
 PCOD8124979
Probable space group: P 21/C
;
_chemical_formula_sum "Si O2"
_cell_formula_units_Z 28
_cell_length_a 16.880902
_cell_length_b 7.092298
_cell_length_c 21.838044
_cell_angle_alpha 90.000000
_cell_angle_beta 147.211617
_cell_angle_gamma 90.000000
_cell_volume 1415.875650
_symmetry_space_group_name_H-M "P 21/C"
_symmetry_group_IT_number 14
_symmetry_cell_setting 'monoclinic'
loop_
_space_group_symop_operation_xyz
x,y,z
-x,1/2+y,1/2-z
-x,-y,-z
x,1/2-y,1/2+z
loop_
_atom_site_type_symbol
_atom_site_label
_atom_site_fract_x
_atom_site_fract_y
_atom_site_fract_z
Si Si1 0.679512 0.747647 0.387847
Si Si2 0.080968 0.859773 0.943077
Si Si3 0.871147 0.677179 0.616658
Si Si4 0.347010 0.665040 0.167325
Si Si5 0.079273 0.018272 0.724347
Si Si6 0.916447 0.790344 0.951783
Si Si7 0.811687 0.066272 0.324015
O O1 0.714403 0.717154 0.482426
O O2 0.517442 0.687691 0.264254
O O3 0.802371 0.623449 0.429012
O O4 0.707106 0.964719 0.391911
O O5 0.013756 0.661446 0.877808
O O6 0.994553 0.928143 0.950571
O O7 0.051849 0.007324 0.870384
O O8 0.253525 0.820977 0.069623
O O9 0.841157 0.618767 0.667052
O O10 0.974471 0.858224 0.683229
O O11 0.314882 0.675945 0.220047
O O12 0.205042 0.929883 0.761120
O O13 0.812124 0.651283 0.845164
O O14 0.034357 0.665847 0.063279
#
# Coordination Sequence:
#
# PCOD8124979 Si02
#       7
#     4   4   4   4   4   4   4
#     4  11  20  35  54  86 115 148 184 224 285 333
#     4  10  20  36  58  86 111 142 181 234 286 330
#     4  12  22  34  58  84 112 148 188 232 275 325
#     4  10  20  36  57  83 120 146 177 232 285 337
#     4  11  20  37  55  82 113 146 191 231 271 326
#     4   8  15  31  56  79 110 138 179 234 281 327
#     4   8  15  33  55  76 110 149 176 227 284 322
#
# _framework density 19.775746999999999
#
# number of rings (size 3 to 8) (size 9 to 14) (size 15 to 20)
#    0.000    2.000    4.286    2.571    0.000    0.571 
#    2.571    0.714    0.000    0.000    0.000    6.000 
#    0.000    0.000    0.000    0.000    0.000    0.000 
#
# Total GULP energy -347021.734558 kJ/mol
# GULP energy per Si atom -12393.633377 kJ/mol
# Density = 1.973074 g / cm^3
# Si number density = 19.775747 Si / 1000 Ang^3
#
#
#
# Elastic Constant Matrix: (Units=GPa)
#
#
# Indices 1 2 3 4 5 6 
#
# 1 123.1532 21.0754 54.4612 0.0000 -12.1790 0.0000
# 2 21.0754 54.0184 17.3718 0.0000 -2.7335 0.0000
# 3 54.4612 17.3718 81.7804 0.0000 -5.1016 0.0000
# 4 0.0000 0.0000 0.0000 21.0410 0.0000 -0.2670
# 5 -12.1790 -2.7335 -5.1016 0.0000 42.2589 0.0000
# 6 0.0000 0.0000 0.0000 -0.2670 0.0000 32.0340
#
#
#
# Elastic Compliance Matrix: (Units=1/GPa)
#
#
# Indices 1 2 3 4 5 6 
#
# 1 0.011994 -0.002186 -0.007372 0.000000 0.002425 0.000000
# 2 -0.002186 0.020294 -0.002834 0.000000 0.000341 0.000000
# 3 -0.007372 -0.002834 0.017728 0.000000 -0.000168 0.000000
# 4 0.000000 0.000000 0.000000 0.047531 0.000000 0.000396
# 5 0.002425 0.000341 -0.000168 0.000000 0.024364 0.000000
# 6 0.000000 0.000000 0.000000 0.000396 0.000000 0.031220
#
#
# Mechanical properties :
#
#
# Convention : Reuss Voigt Hill
#
# Bulk Modulus (GPa) = 39.63040 49.41876 44.52458
# Shear Modulus (GPa) = 26.83478 30.13635 28.48556
#
# Velocity S-wave (km/s) = 3.68768 3.90796 3.79942
# Velocity P-wave (km/s) = 6.18186 6.73845 6.46615
#
# Compressibility (1/GPa) = 0.02523316
#
# Stress axis : x y z
#
# Youngs Moduli (GPa) = 83.37656 49.27647 56.40668
#
# Poissons Ratio (x) = 0.10772 0.41580
# Poissons Ratio (y) = 0.18227 0.15984
# Poissons Ratio (z) = 0.61461 0.13964
#
# Static dielectric constant tensor:
#      x y z
#    x 3.895380 0.000000 -0.229270 
#    y 0.000000 3.839010 0.000000 
#    z -0.229270 0.000000 3.261890 
# 
# 
# High freq. dielectric constant tensor:
#      x y z
#    x 1.773400 0.000000 -0.017500 
#    y 0.000000 1.801000 0.000000 
#    z -0.017500 0.000000 1.725070 
# 
# From -- ./inp_files/69103.got.cif
#   From: 2010.03.12/outbox.cif.g09.slc.cpg/sg14_35_cif.got.tgz:69103.got - 2010.03.31 13:35:05.
