data_PCOD8124944
_publ_section_title
;
Structure prediction by ZEFSAII (Michael W. Deem and Ramdas Pophale) SiO2 
 PCOD8124944
Probable space group: P 21/C
;
_chemical_formula_sum "Si O2"
_cell_formula_units_Z 24
_cell_length_a 8.975350
_cell_length_b 6.855780
_cell_length_c 21.820955
_cell_angle_alpha 90.000000
_cell_angle_beta 66.063449
_cell_angle_gamma 90.000000
_cell_volume 1227.230074
_symmetry_space_group_name_H-M "P 21/C"
_symmetry_group_IT_number 14
_symmetry_cell_setting 'monoclinic'
loop_
_space_group_symop_operation_xyz
x,y,z
-x,1/2+y,1/2-z
-x,-y,-z
x,1/2-y,1/2+z
loop_
_atom_site_type_symbol
_atom_site_label
_atom_site_fract_x
_atom_site_fract_y
_atom_site_fract_z
Si Si1 0.410461 0.935422 0.700733
Si Si2 0.270737 0.516516 0.095736
Si Si3 0.943372 0.966113 0.578801
Si Si4 0.458194 0.220827 0.997654
Si Si5 0.331548 0.768338 0.839118
Si Si6 0.679442 0.672579 0.607504
O O1 0.282835 0.933892 0.665679
O O2 0.309314 0.886414 0.778903
O O3 0.539590 0.760450 0.674062
O O4 0.501608 0.144443 0.687795
O O5 0.371908 0.665026 0.036298
O O6 0.086059 0.530414 0.104725
O O7 0.349743 0.302162 0.071919
O O8 0.855835 0.755037 0.598444
O O9 0.820760 0.133823 0.620712
O O10 0.000000 0.000000 0.500000
O O11 0.349644 0.253682 0.955603
O O12 0.500000 0.000000 0.000000
O O13 0.332559 0.938085 0.890325
#
# Coordination Sequence:
#
# PCOD8124944 Si02
#       6
#     4   4   4   4   4   4
#     4  10  21  41  64  86 117 155 212 254 293 362
#     4  10  22  40  56  89 127 151 196 255 294 360
#     4  11  24  41  59  90 132 161 195 254 312 366
#     4  10  20  35  63  90 114 157 202 245 298 352
#     4  11  22  40  65  88 117 163 206 253 305 365
#     4  10  21  38  64  89 115 163 202 247 304 360
#
# _framework density 19.556236999999999
#
# number of rings (size 3 to 8) (size 9 to 14) (size 15 to 20)
#    0.000    1.667    3.333    1.000    4.667    2.000 
#    3.000    0.000    0.000    0.000    0.000    0.000 
#    0.000    0.000    0.000    0.000    0.000    0.000 
#
# Total GULP energy -297595.036760 kJ/mol
# GULP energy per Si atom -12399.793198 kJ/mol
# Density = 1.951173 g / cm^3
# Si number density = 19.556237 Si / 1000 Ang^3
#
#
#
# Elastic Constant Matrix: (Units=GPa)
#
#
# Indices 1 2 3 4 5 6 
#
# 1 111.7540 39.2737 36.6431 0.0000 1.2666 0.0000
# 2 39.2737 124.8228 14.6621 0.0000 -12.8312 0.0000
# 3 36.6431 14.6621 83.0515 0.0000 -1.8281 0.0000
# 4 0.0000 0.0000 0.0000 32.5393 0.0000 1.3191
# 5 1.2666 -12.8312 -1.8281 0.0000 19.5089 0.0000
# 6 0.0000 0.0000 0.0000 1.3191 0.0000 20.3531
#
#
#
# Elastic Compliance Matrix: (Units=1/GPa)
#
#
# Indices 1 2 3 4 5 6 
#
# 1 0.011742 -0.003510 -0.004638 0.000000 -0.003506 0.000000
# 2 -0.003510 0.009806 -0.000036 0.000000 0.006674 0.000000
# 3 -0.004638 -0.000036 0.014129 0.000000 0.001602 0.000000
# 4 0.000000 0.000000 0.000000 0.030813 0.000000 -0.001997
# 5 -0.003506 0.006674 0.001602 0.000000 0.056026 0.000000
# 6 0.000000 0.000000 0.000000 -0.001997 0.000000 0.049262
#
#
# Mechanical properties :
#
#
# Convention : Reuss Voigt Hill
#
# Bulk Modulus (GPa) = 51.78906 55.64289 53.71597
# Shear Modulus (GPa) = 25.69604 29.75022 27.72313
#
# Velocity S-wave (km/s) = 3.62879 3.90457 3.76920
# Velocity P-wave (km/s) = 6.64056 6.98871 6.81686
#
# Compressibility (1/GPa) = 0.01930910
#
# Stress axis : x y z
#
# Youngs Moduli (GPa) = 85.16163 101.97840 70.77772
#
# Poissons Ratio (x) = 0.35795 0.32829
# Poissons Ratio (y) = 0.29893 0.00252
# Poissons Ratio (z) = 0.39501 0.00363
#
# Static dielectric constant tensor:
#      x y z
#    x 3.504020 0.000000 0.201960 
#    y 0.000000 3.608520 0.000000 
#    z 0.201960 0.000000 3.732190 
# 
# 
# High freq. dielectric constant tensor:
#      x y z
#    x 1.749700 0.000000 0.011240 
#    y 0.000000 1.770460 0.000000 
#    z 0.011240 0.000000 1.759740 
# 
# From -- ./inp_files/71611.got.cif
#   From: 2010.03.12/outbox.cif.g09.slc.cpg/sg14_36_cif.got.tgz:71611.got - 2010.03.31 13:35:05.
