data_PCOD8124896
_publ_section_title
;
Structure prediction by ZEFSAII (Michael W. Deem and Ramdas Pophale) SiO2 
 PCOD8124896
Probable space group: P 21/C
;
_chemical_formula_sum "Si O2"
_cell_formula_units_Z 32
_cell_length_a 11.776359
_cell_length_b 8.741706
_cell_length_c 30.623214
_cell_angle_alpha 90.000000
_cell_angle_beta 151.293476
_cell_angle_gamma 90.000000
_cell_volume 1514.229562
_symmetry_space_group_name_H-M "P 21/C"
_symmetry_group_IT_number 14
_symmetry_cell_setting 'monoclinic'
loop_
_space_group_symop_operation_xyz
x,y,z
-x,1/2+y,1/2-z
-x,-y,-z
x,1/2-y,1/2+z
loop_
_atom_site_type_symbol
_atom_site_label
_atom_site_fract_x
_atom_site_fract_y
_atom_site_fract_z
Si Si1 0.726343 0.325564 0.460022
Si Si2 0.809769 0.928539 0.838087
Si Si3 0.473829 0.645981 0.700110
Si Si4 0.945240 0.629392 0.644450
Si Si5 0.477472 0.730855 0.958725
Si Si6 0.722768 0.506080 0.654459
Si Si7 0.132869 0.947440 0.704950
Si Si8 0.328616 0.579144 0.993061
O O1 0.694397 0.310335 0.397252
O O2 0.536675 0.435393 0.419383
O O3 0.691830 0.153714 0.466473
O O4 0.993207 0.378558 0.560292
O O5 0.628396 0.790890 0.767436
O O6 0.682211 0.081558 0.812809
O O7 0.937458 0.975675 0.835709
O O8 0.630274 0.502265 0.738247
O O9 0.726176 0.680363 0.540356
O O10 0.852129 0.608126 0.662114
O O11 0.138807 0.764037 0.709024
O O12 0.407114 0.711784 0.985804
O O13 0.293334 0.833356 0.869867
O O14 0.485030 0.560212 0.940756
O O15 0.888400 0.510796 0.752888
O O16 0.918512 0.011142 0.605023
#
# Coordination Sequence:
#
# PCOD8124896 Si02
#       8
#     4   4   4   4   4   4   4   4
#     4  11  22  43  68  96 124 166 209 255 320 378
#     4  12  24  46  68  88 129 161 213 267 315 371
#     4  11  26  44  69  93 121 166 215 265 315 373
#     4  11  22  38  63  90 126 173 203 257 317 369
#     4  10  20  35  58  90 130 169 204 248 312 377
#     4  11  22  36  61  97 128 163 214 246 310 389
#     4  10  24  39  59  93 130 167 208 262 309 365
#     4  10  20  38  61  91 132 170 199 259 313 368
#
# _framework density 21.132857999999999
#
# number of rings (size 3 to 8) (size 9 to 14) (size 15 to 20)
#    0.000    1.250    3.750    2.250    1.750    2.000 
#    0.000    0.625    0.000    0.000    0.000    0.000 
#    0.000    0.000    0.000    0.000    0.000    0.000 
#
# Total GULP energy -396776.633834 kJ/mol
# GULP energy per Si atom -12399.269807 kJ/mol
# Density = 2.108476 g / cm^3
# Si number density = 21.132858 Si / 1000 Ang^3
#
#
#
# Elastic Constant Matrix: (Units=GPa)
#
#
# Indices 1 2 3 4 5 6 
#
# 1 80.3073 19.7948 19.3511 0.0000 -5.3254 0.0000
# 2 19.7948 76.6719 24.3856 0.0000 -6.3649 0.0000
# 3 19.3511 24.3856 77.0604 0.0000 -8.2273 0.0000
# 4 0.0000 0.0000 0.0000 30.2969 0.0000 8.8302
# 5 -5.3254 -6.3649 -8.2273 0.0000 23.8563 0.0000
# 6 0.0000 0.0000 0.0000 8.8302 0.0000 39.9626
#
#
#
# Elastic Compliance Matrix: (Units=1/GPa)
#
#
# Indices 1 2 3 4 5 6 
#
# 1 0.013801 -0.002653 -0.002463 0.000000 0.001523 0.000000
# 2 -0.002653 0.015143 -0.003901 0.000000 0.002102 0.000000
# 3 -0.002463 -0.003901 0.015221 0.000000 0.003658 0.000000
# 4 0.000000 0.000000 0.000000 0.035279 0.000000 -0.007795
# 5 0.001523 0.002102 0.003658 0.000000 0.044080 0.000000
# 6 0.000000 0.000000 0.000000 -0.007795 0.000000 0.026746
#
#
# Mechanical properties :
#
#
# Convention : Reuss Voigt Hill
#
# Bulk Modulus (GPa) = 38.27196 40.12248 39.19722
# Shear Modulus (GPa) = 28.24637 30.19037 29.21837
#
# Velocity S-wave (km/s) = 3.65993 3.78378 3.72237
# Velocity P-wave (km/s) = 6.00080 6.17385 6.08794
#
# Compressibility (1/GPa) = 0.02612879
#
# Stress axis : x y z
#
# Youngs Moduli (GPa) = 72.45999 66.03769 65.70065
#
# Poissons Ratio (x) = 0.17520 0.16185
# Poissons Ratio (y) = 0.19224 0.25631
# Poissons Ratio (z) = 0.17850 0.25763
#
# Static dielectric constant tensor:
#      x y z
#    x 3.690770 0.000000 0.023290 
#    y 0.000000 3.943410 0.000000 
#    z 0.023290 0.000000 3.784330 
# 
# 
# High freq. dielectric constant tensor:
#      x y z
#    x 1.816710 0.000000 0.003420 
#    y 0.000000 1.836220 0.000000 
#    z 0.003420 0.000000 1.824150 
# 
# From -- ./inp_files/79946.got.cif
#   From: 2010.03.12/outbox.cif.g09.slc.cpg/sg14_40_cif.got.tgz:79946.got - 2010.03.31 13:35:05.
