data_PCOD8124523
_publ_section_title
;
Structure prediction by ZEFSAII (Michael W. Deem and Ramdas Pophale) SiO2 
 PCOD8124523
Probable space group: P 21/C
;
_chemical_formula_sum "Si O2"
_cell_formula_units_Z 32
_cell_length_a 18.352920
_cell_length_b 13.239445
_cell_length_c 8.685897
_cell_angle_alpha 90.000000
_cell_angle_beta 140.067224
_cell_angle_gamma 90.000000
_cell_volume 1354.718751
_symmetry_space_group_name_H-M "P 21/C"
_symmetry_group_IT_number 14
_symmetry_cell_setting 'monoclinic'
loop_
_space_group_symop_operation_xyz
x,y,z
-x,1/2+y,1/2-z
-x,-y,-z
x,1/2-y,1/2+z
loop_
_atom_site_type_symbol
_atom_site_label
_atom_site_fract_x
_atom_site_fract_y
_atom_site_fract_z
Si Si1 0.328114 0.124458 0.832432
Si Si2 0.422953 0.621218 0.791826
Si Si3 0.200217 0.509075 0.348171
Si Si4 0.750084 0.704311 0.093647
Si Si5 0.889576 0.653735 0.596586
Si Si6 0.283302 0.820117 0.508467
Si Si7 0.861387 0.193930 0.432357
Si Si8 0.540963 0.455449 0.827820
O O1 0.223179 0.062962 0.738077
O O2 0.317673 0.128468 0.629222
O O3 0.332162 0.234062 0.923713
O O4 0.446504 0.069492 0.048923
O O5 0.319821 0.540080 0.618765
O O6 0.380323 0.731418 0.668621
O O7 0.525097 0.573761 0.851074
O O8 0.469896 0.620068 0.041763
O O9 0.117608 0.457493 0.340121
O O10 0.132541 0.608021 0.187471
O O11 0.844544 0.646652 0.348597
O O12 0.810332 0.776556 0.069636
O O13 0.014506 0.703704 0.793467
O O14 0.183996 0.795425 0.224030
O O15 0.230819 0.835886 0.590189
O O16 0.338004 0.927984 0.552621
#
# Coordination Sequence:
#
# PCOD8124523 Si02
#       8
#     4   4   4   4   4   4   4   4
#     4   9  19  35  57  87 119 155 202 257 306 375
#     4   9  20  40  62  91 128 171 209 254 317 383
#     4   9  20  39  59  84 124 159 208 263 314 374
#     4   9  19  35  58  90 117 153 208 259 311 368
#     4  10  19  38  62  86 122 167 205 262 320 374
#     4  11  22  39  61  97 128 166 212 264 307 385
#     4  11  22  38  61  89 124 164 211 256 320 375
#     4  10  20  38  65  89 129 172 210 252 321 376
#
# _framework density 23.621138999999999
#
# number of rings (size 3 to 8) (size 9 to 14) (size 15 to 20)
#    0.000    2.250    1.250    1.125    1.750    0.000 
#    4.500    6.250    0.000    0.000    0.000    0.000 
#    0.000    0.000    0.000    0.000    0.000    0.000 
#
# Total GULP energy -396688.599514 kJ/mol
# GULP energy per Si atom -12396.518735 kJ/mol
# Density = 2.356738 g / cm^3
# Si number density = 23.621139 Si / 1000 Ang^3
#
#
#
# Elastic Constant Matrix: (Units=GPa)
#
#
# Indices 1 2 3 4 5 6 
#
# 1 66.2223 15.5959 22.7787 0.0000 -15.3021 0.0000
# 2 15.5959 43.8573 7.9109 0.0000 0.9014 0.0000
# 3 22.7787 7.9109 119.2348 0.0000 -27.8351 0.0000
# 4 0.0000 0.0000 0.0000 21.3261 0.0000 -1.5690
# 5 -15.3021 0.9014 -27.8351 0.0000 26.6839 0.0000
# 6 0.0000 0.0000 0.0000 -1.5690 0.0000 26.2414
#
#
#
# Elastic Compliance Matrix: (Units=1/GPa)
#
#
# Indices 1 2 3 4 5 6 
#
# 1 0.019463 -0.006997 -0.000784 0.000000 0.010579 0.000000
# 2 -0.006997 0.025794 -0.002002 0.000000 -0.006973 0.000000
# 3 -0.000784 -0.002002 0.011342 0.000000 0.011450 0.000000
# 4 0.000000 0.000000 0.000000 0.047098 0.000000 0.002816
# 5 0.010579 -0.006973 0.011450 0.000000 0.055722 0.000000
# 6 0.000000 0.000000 0.000000 0.002816 0.000000 0.038276
#
#
# Mechanical properties :
#
#
# Convention : Reuss Voigt Hill
#
# Bulk Modulus (GPa) = 27.00381 35.76505 31.38443
# Shear Modulus (GPa) = 21.77641 27.05222 24.41432
#
# Velocity S-wave (km/s) = 3.03958 3.38783 3.21842
# Velocity P-wave (km/s) = 4.87602 5.52062 5.20830
#
# Compressibility (1/GPa) = 0.03703182
#
# Stress axis : x y z
#
# Youngs Moduli (GPa) = 51.37989 38.76888 88.16500
#
# Poissons Ratio (x) = 0.27127 0.06914
# Poissons Ratio (y) = 0.35951 0.17654
# Poissons Ratio (z) = 0.04029 0.07763
#
# Static dielectric constant tensor:
#      x y z
#    x 4.090710 0.000000 -0.184880 
#    y 0.000000 4.176890 0.000000 
#    z -0.184880 0.000000 4.365080 
# 
# 
# High freq. dielectric constant tensor:
#      x y z
#    x 1.921960 0.000000 -0.014890 
#    y 0.000000 1.919090 0.000000 
#    z -0.014890 0.000000 1.939700 
# 
# From -- ./inp_files/19039.got.cif
#   From: 2010.03.12/outbox.cif.g09.slc.cpg/sg14_10_cif.got.tgz:19039.got - 2010.03.31 13:35:05.
