data_PCOD8124053
_publ_section_title
;
Structure prediction by ZEFSAII (Michael W. Deem and Ramdas Pophale) SiO2 
 PCOD8124053
Probable space group: P 21/C
;
_chemical_formula_sum "Si O2"
_cell_formula_units_Z 32
_cell_length_a 19.653420
_cell_length_b 8.912930
_cell_length_c 10.773727
_cell_angle_alpha 90.000000
_cell_angle_beta 56.482371
_cell_angle_gamma 90.000000
_cell_volume 1573.412924
_symmetry_space_group_name_H-M "P 21/C"
_symmetry_group_IT_number 14
_symmetry_cell_setting 'monoclinic'
loop_
_space_group_symop_operation_xyz
x,y,z
-x,1/2+y,1/2-z
-x,-y,-z
x,1/2-y,1/2+z
loop_
_atom_site_type_symbol
_atom_site_label
_atom_site_fract_x
_atom_site_fract_y
_atom_site_fract_z
Si Si1 0.615815 0.976202 0.481969
Si Si2 0.331286 0.274306 0.419202
Si Si3 0.686436 0.227075 0.563541
Si Si4 0.437867 0.975340 0.740131
Si Si5 0.954041 0.635355 0.187610
Si Si6 0.740024 0.540316 0.166330
Si Si7 0.212886 0.996506 0.108343
Si Si8 0.077736 0.123587 0.563356
O O1 0.666391 0.124999 0.464671
O O2 0.593484 0.981599 0.363335
O O3 0.670484 0.829006 0.454906
O O4 0.534885 0.959742 0.649698
O O5 0.410874 0.380658 0.348063
O O6 0.329547 0.158329 0.305485
O O7 0.250988 0.377858 0.479715
O O8 0.605342 0.323357 0.672418
O O9 0.765261 0.329698 0.456648
O O10 0.712944 0.125228 0.651703
O O11 0.883647 0.513108 0.286367
O O12 0.950751 0.768428 0.293672
O O13 0.036529 0.540355 0.119462
O O14 0.944183 0.692305 0.052954
O O15 0.741045 0.534519 0.311423
O O16 0.826372 0.591572 0.020387
#
# Coordination Sequence:
#
# PCOD8124053 Si02
#       8
#     4   4   4   4   4   4   4   4
#     4  10  20  34  52  76 106 139 178 224 274 328
#     4  10  19  34  55  76 102 142 178 224 269 332
#     4  10  21  34  53  80 106 142 182 228 273 332
#     4  10  20  34  52  76 106 139 178 224 274 328
#     4  10  22  40  61  86 118 151 188 230 279 333
#     4  10  20  36  55  79 109 143 182 228 274 326
#     4  10  20  36  55  79 109 143 182 228 274 326
#     4  10  22  40  61  86 118 151 188 230 279 333
#
# _framework density 20.337955000000001
#
# number of rings (size 3 to 8) (size 9 to 14) (size 15 to 20)
#    0.000    2.000    1.250    2.250    1.750    0.500 
#    0.000    1.250    0.000   12.000    0.000    0.000 
#    0.000    0.000    0.000    0.000    0.000    0.000 
#
# Total GULP energy -396613.993757 kJ/mol
# GULP energy per Si atom -12394.187305 kJ/mol
# Density = 2.029166 g / cm^3
# Si number density = 20.337955 Si / 1000 Ang^3
#
#
#
# Elastic Constant Matrix: (Units=GPa)
#
#
# Indices 1 2 3 4 5 6 
#
# 1 50.0245 23.3239 -4.5708 0.0000 5.3620 0.0000
# 2 23.3239 123.7762 23.4258 0.0000 5.5835 0.0000
# 3 -4.5708 23.4258 51.4643 0.0000 4.2429 0.0000
# 4 0.0000 0.0000 0.0000 34.9264 0.0000 -6.7668
# 5 5.3620 5.5835 4.2429 0.0000 29.7034 0.0000
# 6 0.0000 0.0000 0.0000 -6.7668 0.0000 29.9748
#
#
#
# Elastic Compliance Matrix: (Units=1/GPa)
#
#
# Indices 1 2 3 4 5 6 
#
# 1 0.023210 -0.005087 0.004699 0.000000 -0.003905 0.000000
# 2 -0.005087 0.009991 -0.004979 0.000000 -0.000249 0.000000
# 3 0.004699 -0.004979 0.022371 0.000000 -0.003108 0.000000
# 4 0.000000 0.000000 0.000000 0.029941 0.000000 0.006759
# 5 -0.003905 -0.000249 -0.003108 0.000000 0.034862 0.000000
# 6 0.000000 0.000000 0.000000 0.006759 0.000000 0.034887
#
#
# Mechanical properties :
#
#
# Convention : Reuss Voigt Hill
#
# Bulk Modulus (GPa) = 22.30273 34.40253 28.35263
# Shear Modulus (GPa) = 27.63316 31.12666 29.37991
#
# Velocity S-wave (km/s) = 3.69005 3.91637 3.80489
# Velocity P-wave (km/s) = 5.39863 6.11578 5.76836
#
# Compressibility (1/GPa) = 0.04483756
#
# Stress axis : x y z
#
# Youngs Moduli (GPa) = 43.08539 100.08845 44.70097
#
# Poissons Ratio (x) = 0.50912 -0.21004
# Poissons Ratio (y) = 0.21916 0.22257
# Poissons Ratio (z) = -0.20244 0.49835
#
# Static dielectric constant tensor:
#      x y z
#    x 3.592680 0.000000 -0.038610 
#    y 0.000000 3.651510 0.000000 
#    z -0.038610 0.000000 3.687990 
# 
# 
# High freq. dielectric constant tensor:
#      x y z
#    x 1.790760 0.000000 -0.000660 
#    y 0.000000 1.802840 0.000000 
#    z -0.000660 0.000000 1.786010 
# 
# From -- ./inp_files/34974.got.cif
#   From: 2010.03.12/outbox.cif.g09.slc.cpg/sg14_18_cif.got.tgz:34974.got - 2010.03.31 13:35:05.
