data_PCOD8124662
_publ_section_title
;
Structure prediction by ZEFSAII (Michael W. Deem and Ramdas Pophale) SiO2 
 PCOD8124662
Probable space group: P 21/C
;
_chemical_formula_sum "Si O2"
_cell_formula_units_Z 32
_cell_length_a 19.327755
_cell_length_b 14.235713
_cell_length_c 12.832880
_cell_angle_alpha 90.000000
_cell_angle_beta 153.921265
_cell_angle_gamma 90.000000
_cell_volume 1552.201947
_symmetry_space_group_name_H-M "P 21/C"
_symmetry_group_IT_number 14
_symmetry_cell_setting 'monoclinic'
loop_
_space_group_symop_operation_xyz
x,y,z
-x,1/2+y,1/2-z
-x,-y,-z
x,1/2-y,1/2+z
loop_
_atom_site_type_symbol
_atom_site_label
_atom_site_fract_x
_atom_site_fract_y
_atom_site_fract_z
Si Si1 0.647300 0.397942 0.429519
Si Si2 0.728094 0.364406 0.002964
Si Si3 0.497358 0.235435 0.577424
Si Si4 0.783280 0.684230 0.904392
Si Si5 0.422945 0.467460 0.288032
Si Si6 0.276802 0.735313 0.808514
Si Si7 0.978213 0.477521 0.850189
Si Si8 0.025888 0.818169 0.322152
O O1 0.529474 0.363790 0.178438
O O2 0.557959 0.470916 0.382973
O O3 0.701384 0.311687 0.572499
O O4 0.800580 0.445065 0.585355
O O5 0.567936 0.318519 0.742627
O O6 0.721178 0.469698 0.948949
O O7 0.739167 0.360679 0.144496
O O8 0.878334 0.312190 0.156477
O O9 0.311502 0.258778 0.314143
O O10 0.577165 0.230388 0.571479
O O11 0.649920 0.635528 0.795374
O O12 0.900389 0.604892 0.017602
O O13 0.864680 0.762857 0.085855
O O14 0.500000 0.500000 0.500000
O O15 0.116550 0.759656 0.532951
O O16 0.005063 0.573195 0.823316
O O17 0.000000 0.500000 0.000000
#
# Coordination Sequence:
#
# PCOD8124662 Si02
#       8
#     4   4   4   4   4   4   4   4
#     4  11  23  41  66 101 130 170 220 277 337 387
#     4  10  21  40  67  92 128 178 216 270 342 392
#     4  10  22  40  67  93 135 169 219 274 332 402
#     4  12  24  42  68  98 133 174 220 281 332 398
#     4  12  21  42  69  97 128 171 232 273 323 410
#     4  10  19  41  63  93 130 174 215 271 337 395
#     4  12  24  41  68 101 133 171 226 280 327 391
#     4  11  24  41  65 100 136 169 223 280 338 400
#
# _framework density 20.615874000000002
#
# number of rings (size 3 to 8) (size 9 to 14) (size 15 to 20)
#    0.000    1.000    5.000    3.750    0.000    2.000 
#    0.000    4.375    0.000    0.000    0.000    0.000 
#    0.000    0.000    0.000    0.000    0.000    0.000 
#
# Total GULP energy -396695.603233 kJ/mol
# GULP energy per Si atom -12396.737601 kJ/mol
# Density = 2.056895 g / cm^3
# Si number density = 20.615874 Si / 1000 Ang^3
#
#
#
# Elastic Constant Matrix: (Units=GPa)
#
#
# Indices 1 2 3 4 5 6 
#
# 1 98.4915 39.0339 59.0412 0.0000 -1.9381 0.0000
# 2 39.0339 92.0429 66.8454 0.0000 -6.1389 0.0000
# 3 59.0412 66.8454 137.3857 0.0000 0.9141 0.0000
# 4 0.0000 0.0000 0.0000 41.4797 0.0000 2.4251
# 5 -1.9381 -6.1389 0.9141 0.0000 24.4295 0.0000
# 6 0.0000 0.0000 0.0000 2.4251 0.0000 33.4551
#
#
#
# Elastic Compliance Matrix: (Units=1/GPa)
#
#
# Indices 1 2 3 4 5 6 
#
# 1 0.014030 -0.002352 -0.004890 0.000000 0.000705 0.000000
# 2 -0.002352 0.017712 -0.007637 0.000000 0.004550 0.000000
# 3 -0.004890 -0.007637 0.013115 0.000000 -0.002798 0.000000
# 4 0.000000 0.000000 0.000000 0.024211 0.000000 -0.001755
# 5 0.000705 0.004550 -0.002798 0.000000 0.042238 0.000000
# 6 0.000000 0.000000 0.000000 -0.001755 0.000000 0.030018
#
#
# Mechanical properties :
#
#
# Convention : Reuss Voigt Hill
#
# Bulk Modulus (GPa) = 66.22990 73.08457 69.65724
# Shear Modulus (GPa) = 28.39052 30.73951 29.56501
#
# Velocity S-wave (km/s) = 3.71498 3.86561 3.79105
# Velocity P-wave (km/s) = 7.11315 7.44658 7.28177
#
# Compressibility (1/GPa) = 0.01509892
#
# Stress axis : x y z
#
# Youngs Moduli (GPa) = 71.27385 56.45927 76.24946
#
# Poissons Ratio (x) = 0.13278 0.37286
# Poissons Ratio (y) = 0.16762 0.58235
# Poissons Ratio (z) = 0.34853 0.43120
#
# Static dielectric constant tensor:
#      x y z
#    x 4.382100 0.000000 -0.026400 
#    y 0.000000 3.929850 0.000000 
#    z -0.026400 0.000000 3.806110 
# 
# 
# High freq. dielectric constant tensor:
#      x y z
#    x 1.807110 0.000000 0.003120 
#    y 0.000000 1.799500 0.000000 
#    z 0.003120 0.000000 1.801660 
# 
# From -- ./inp_files/34183.got.cif
#   From: 2010.03.12/outbox.cif.g09.slc.cpg/sg14_18_cif.got.tgz:34183.got - 2010.03.31 13:35:05.
