data_PCOD8124579
_publ_section_title
;
Structure prediction by ZEFSAII (Michael W. Deem and Ramdas Pophale) SiO2 
 PCOD8124579
Probable space group: P 21/C
;
_chemical_formula_sum "Si O2"
_cell_formula_units_Z 28
_cell_length_a 20.392222
_cell_length_b 11.390321
_cell_length_c 17.151538
_cell_angle_alpha 90.000000
_cell_angle_beta 158.275313
_cell_angle_gamma 90.000000
_cell_volume 1474.612413
_symmetry_space_group_name_H-M "P 21/C"
_symmetry_group_IT_number 14
_symmetry_cell_setting 'monoclinic'
loop_
_space_group_symop_operation_xyz
x,y,z
-x,1/2+y,1/2-z
-x,-y,-z
x,1/2-y,1/2+z
loop_
_atom_site_type_symbol
_atom_site_label
_atom_site_fract_x
_atom_site_fract_y
_atom_site_fract_z
Si Si1 0.190895 0.309403 0.806147
Si Si2 0.325280 0.128486 0.844763
Si Si3 0.205167 0.797941 0.130149
Si Si4 0.293517 0.950047 0.686634
Si Si5 0.518301 0.281656 0.938357
Si Si6 0.514837 0.043951 0.648546
Si Si7 0.607424 0.881230 0.331204
O O1 0.202225 0.182232 0.776633
O O2 0.989280 0.354288 0.577623
O O3 0.324092 0.402115 0.910519
O O4 0.253225 0.300744 0.965696
O O5 0.375045 0.233446 0.840864
O O6 0.225449 0.026729 0.685633
O O7 0.497641 0.073848 0.074974
O O8 0.187197 0.672046 0.066081
O O9 0.287454 0.778346 0.307265
O O10 0.327202 0.882160 0.214028
O O11 0.274527 0.023964 0.585995
O O12 0.464234 0.412459 0.856888
O O13 0.516328 0.199336 0.859959
O O14 0.523651 0.051932 0.752758
#
# Coordination Sequence:
#
# PCOD8124579 Si02
#       7
#     4   4   4   4   4   4   4
#     4  10  22  37  55  90 117 146 188 244 286 339
#     4   9  18  35  61  83 111 149 193 236 280 338
#     4  11  22  39  61  87 114 151 201 232 286 344
#     4   9  17  36  63  80 111 152 192 235 281 345
#     4  10  19  39  62  84 110 161 194 231 286 349
#     4  10  22  37  61  80 124 152 188 238 293 339
#     4   9  21  37  58  87 116 152 192 236 296 330
#
# _framework density 18.988040999999999
#
# number of rings (size 3 to 8) (size 9 to 14) (size 15 to 20)
#    0.857    1.429    2.857    1.286    4.000    1.143 
#    2.571    2.857    0.000    0.000    0.000    0.000 
#    0.000    0.000    0.000    0.000    0.000    0.000 
#
# Total GULP energy -346964.035919 kJ/mol
# GULP energy per Si atom -12391.572711 kJ/mol
# Density = 1.894482 g / cm^3
# Si number density = 18.988041 Si / 1000 Ang^3
#
#
#
# Elastic Constant Matrix: (Units=GPa)
#
#
# Indices 1 2 3 4 5 6 
#
# 1 89.9214 48.0676 42.7293 0.0000 -11.7958 0.0000
# 2 48.0676 115.2088 21.5939 0.0000 -2.0231 0.0000
# 3 42.7293 21.5939 72.8946 0.0000 4.7220 0.0000
# 4 0.0000 0.0000 0.0000 11.0166 0.0000 -6.6477
# 5 -11.7958 -2.0231 4.7220 0.0000 30.4386 0.0000
# 6 0.0000 0.0000 0.0000 -6.6477 0.0000 18.5436
#
#
#
# Elastic Compliance Matrix: (Units=1/GPa)
#
#
# Indices 1 2 3 4 5 6 
#
# 1 0.021130 -0.006578 -0.011050 0.000000 0.009465 0.000000
# 2 -0.006578 0.011271 0.000640 0.000000 -0.001899 0.000000
# 3 -0.011050 0.000640 0.020487 0.000000 -0.007418 0.000000
# 4 0.000000 0.000000 0.000000 0.115828 0.000000 0.041523
# 5 0.009465 -0.001899 -0.007418 0.000000 0.037546 0.000000
# 6 0.000000 0.000000 0.000000 0.041523 0.000000 0.068813
#
#
# Mechanical properties :
#
#
# Convention : Reuss Voigt Hill
#
# Bulk Modulus (GPa) = 52.87956 55.86737 54.37347
# Shear Modulus (GPa) = 15.85515 23.04202 19.44859
#
# Velocity S-wave (km/s) = 2.89278 3.48731 3.20387
# Velocity P-wave (km/s) = 6.25035 6.76028 6.51031
#
# Compressibility (1/GPa) = 0.01891090
#
# Stress axis : x y z
#
# Youngs Moduli (GPa) = 47.32615 88.72167 48.81206
#
# Poissons Ratio (x) = 0.58365 0.53939
# Poissons Ratio (y) = 0.31133 -0.03125
# Poissons Ratio (z) = 0.52297 -0.05681
#
# Static dielectric constant tensor:
#      x y z
#    x 3.538100 0.000000 -0.220080 
#    y 0.000000 3.547300 0.000000 
#    z -0.220080 0.000000 3.089240 
# 
# 
# High freq. dielectric constant tensor:
#      x y z
#    x 1.737170 0.000000 -0.014080 
#    y 0.000000 1.744970 0.000000 
#    z -0.014080 0.000000 1.695910 
# 
# From -- ./inp_files/61311.got.cif
#   From: 2010.03.12/outbox.cif.g09.slc.cpg/sg14_31_cif.got.tgz:61311.got - 2010.03.31 13:35:05.
