data_PCOD8124116
_publ_section_title
;
Structure prediction by ZEFSAII (Michael W. Deem and Ramdas Pophale) SiO2 
 PCOD8124116
Probable space group: P 21/C
;
_chemical_formula_sum "Si O2"
_cell_formula_units_Z 32
_cell_length_a 5.932324
_cell_length_b 8.713561
_cell_length_c 29.849938
_cell_angle_alpha 90.000000
_cell_angle_beta 91.151454
_cell_angle_gamma 90.000000
_cell_volume 1542.681478
_symmetry_space_group_name_H-M "P 21/C"
_symmetry_group_IT_number 14
_symmetry_cell_setting 'monoclinic'
loop_
_space_group_symop_operation_xyz
x,y,z
-x,1/2+y,1/2-z
-x,-y,-z
x,1/2-y,1/2+z
loop_
_atom_site_type_symbol
_atom_site_label
_atom_site_fract_x
_atom_site_fract_y
_atom_site_fract_z
Si Si1 0.375863 0.144225 0.947603
Si Si2 0.007053 0.468857 0.597344
Si Si3 0.008713 0.468516 0.845449
Si Si4 0.324001 0.722948 0.629597
Si Si5 0.675734 0.278786 0.122976
Si Si6 0.626255 0.859721 0.297681
Si Si7 0.624743 0.826265 0.954298
Si Si8 0.379435 0.328344 0.791085
O O1 0.494368 0.245433 0.909561
O O2 0.123731 0.095983 0.932505
O O3 0.529839 0.997006 0.955029
O O4 0.361095 0.237186 0.994644
O O5 0.832011 0.373474 0.627288
O O6 0.191263 0.560576 0.627680
O O7 0.125734 0.341782 0.566023
O O8 0.842015 0.368982 0.875777
O O9 0.872556 0.592525 0.815784
O O10 0.184476 0.562839 0.876603
O O11 0.138216 0.348962 0.813952
O O12 0.454099 0.727315 0.677361
O O13 0.506109 0.268450 0.164062
O O14 0.533888 0.282456 0.076263
O O15 0.664051 0.751195 0.255953
O O16 0.485292 0.006494 0.281840
#
# Coordination Sequence:
#
# PCOD8124116 Si02
#       8
#     4   4   4   4   4   4   4   4
#     4   9  18  33  55  85 118 151 191 237 282 333
#     4  10  19  34  61  87 114 151 192 238 286 334
#     4  10  22  40  60  81 116 155 185 230 289 342
#     4  10  21  38  58  86 119 151 189 234 283 339
#     4  10  21  38  58  86 119 151 189 234 283 339
#     4  10  23  41  60  84 115 150 191 237 284 340
#     4   9  18  33  55  85 118 151 191 237 282 333
#     4  10  23  41  60  84 115 150 191 237 284 340
#
# _framework density 20.743103999999999
#
# number of rings (size 3 to 8) (size 9 to 14) (size 15 to 20)
#    0.000    2.250    0.000    1.875    0.000   10.000 
#    0.000    3.125    0.000   14.250    0.000    0.000 
#    0.000    0.000    0.000    0.000    0.000    0.000 
#
# Total GULP energy -396812.743636 kJ/mol
# GULP energy per Si atom -12400.398239 kJ/mol
# Density = 2.069589 g / cm^3
# Si number density = 20.743104 Si / 1000 Ang^3
#
#
#
# Elastic Constant Matrix: (Units=GPa)
#
#
# Indices 1 2 3 4 5 6 
#
# 1 99.5651 17.2229 21.5883 0.0000 -13.3763 0.0000
# 2 17.2229 45.5683 29.9387 0.0000 -10.1256 0.0000
# 3 21.5883 29.9387 82.5485 0.0000 -17.5992 0.0000
# 4 0.0000 0.0000 0.0000 27.4414 0.0000 -1.5902
# 5 -13.3763 -10.1256 -17.5992 0.0000 14.9439 0.0000
# 6 0.0000 0.0000 0.0000 -1.5902 0.0000 43.0299
#
#
#
# Elastic Compliance Matrix: (Units=1/GPa)
#
#
# Indices 1 2 3 4 5 6 
#
# 1 0.011656 -0.002250 -0.000445 0.000000 0.008385 0.000000
# 2 -0.002250 0.030322 -0.008623 0.000000 0.008376 0.000000
# 3 -0.000445 -0.008623 0.018730 0.000000 0.015817 0.000000
# 4 0.000000 0.000000 0.000000 0.036520 0.000000 0.001350
# 5 0.008385 0.008376 0.015817 0.000000 0.098726 0.000000
# 6 0.000000 0.000000 0.000000 0.001350 0.000000 0.023290
#
#
# Mechanical properties :
#
#
# Convention : Reuss Voigt Hill
#
# Bulk Modulus (GPa) = 26.26550 40.57574 33.42062
# Shear Modulus (GPa) = 19.64101 27.67850 23.65976
#
# Velocity S-wave (km/s) = 3.08046 3.65683 3.38095
# Velocity P-wave (km/s) = 5.03409 6.11829 5.60248
#
# Compressibility (1/GPa) = 0.03807276
#
# Stress axis : x y z
#
# Youngs Moduli (GPa) = 85.79417 32.97912 53.39040
#
# Poissons Ratio (x) = 0.07421 0.02373
# Poissons Ratio (y) = 0.19305 0.46038
# Poissons Ratio (z) = 0.03814 0.28438
#
# Static dielectric constant tensor:
#      x y z
#    x 4.025660 0.000000 -0.107180 
#    y 0.000000 3.503350 0.000000 
#    z -0.107180 0.000000 3.807260 
# 
# 
# High freq. dielectric constant tensor:
#      x y z
#    x 1.830980 0.000000 -0.002340 
#    y 0.000000 1.788480 0.000000 
#    z -0.002340 0.000000 1.799820 
# 
# From -- ./inp_files/78819.got.cif
#   From: 2010.03.12/outbox.cif.g09.slc.cpg/sg14_40_cif.got.tgz:78819.got - 2010.03.31 13:35:05.
