data_PCOD8124439
_publ_section_title
;
Structure prediction by ZEFSAII (Michael W. Deem and Ramdas Pophale) SiO2 
 PCOD8124439
Probable space group: P 21/C
;
_chemical_formula_sum "Si O2"
_cell_formula_units_Z 20
_cell_length_a 5.023281
_cell_length_b 7.582557
_cell_length_c 18.435950
_cell_angle_alpha 90.000000
_cell_angle_beta 106.665807
_cell_angle_gamma 90.000000
_cell_volume 672.715422
_symmetry_space_group_name_H-M "P 21/C"
_symmetry_group_IT_number 14
_symmetry_cell_setting 'monoclinic'
loop_
_space_group_symop_operation_xyz
x,y,z
-x,1/2+y,1/2-z
-x,-y,-z
x,1/2-y,1/2+z
loop_
_atom_site_type_symbol
_atom_site_label
_atom_site_fract_x
_atom_site_fract_y
_atom_site_fract_z
Si Si1 0.188455 0.171116 0.752533
Si Si2 0.919993 0.627210 0.928766
Si Si3 0.626334 0.948917 0.620013
Si Si4 0.323236 0.639723 0.529772
Si Si5 0.265300 0.001250 0.184040
O O1 0.338011 0.336464 0.804550
O O2 0.409728 0.012648 0.766929
O O3 0.156042 0.289607 0.674046
O O4 0.911068 0.113627 0.771822
O O5 0.589377 0.611761 0.888492
O O6 0.073019 0.538785 0.870011
O O7 0.000000 0.500000 0.000000
O O8 0.040268 0.819109 0.962702
O O9 0.518993 0.814929 0.548721
O O10 0.500000 0.500000 0.500000
O O11 0.229195 0.577876 0.601738
#
# Coordination Sequence:
#
# PCOD8124439 Si02
#       5
#     4   4   4   4   4
#     4  11  23  45  69  99 134 178 235 291 338 406
#     4  10  19  37  62  89 125 175 216 260 333 412
#     4  10  21  40  63  89 127 176 221 268 332 412
#     4  10  22  41  65 100 139 171 221 291 346 399
#     4  11  25  45  69  99 136 180 229 286 345 407
#
# _framework density 29.730253000000001
#
# number of rings (size 3 to 8) (size 9 to 14) (size 15 to 20)
#    0.000    1.600    0.000    7.200    0.000    3.200 
#    0.000   33.000    0.000    0.000    0.000    0.000 
#    0.000    0.000    0.000    0.000    0.000    0.000 
#
# Total GULP energy -248017.325774 kJ/mol
# GULP energy per Si atom -12400.866289 kJ/mol
# Density = 2.966259 g / cm^3
# Si number density = 29.730253 Si / 1000 Ang^3
#
#
#
# Elastic Constant Matrix: (Units=GPa)
#
#
# Indices 1 2 3 4 5 6 
#
# 1 179.2633 57.0958 14.9212 0.0000 -9.3161 0.0000
# 2 57.0958 151.8943 18.8602 0.0000 -9.1924 0.0000
# 3 14.9212 18.8602 95.0778 0.0000 -28.2043 0.0000
# 4 0.0000 0.0000 0.0000 53.4500 0.0000 0.8879
# 5 -9.3161 -9.1924 -28.2043 0.0000 60.8546 0.0000
# 6 0.0000 0.0000 0.0000 0.8879 0.0000 77.8016
#
#
#
# Elastic Compliance Matrix: (Units=1/GPa)
#
#
# Indices 1 2 3 4 5 6 
#
# 1 0.006374 -0.002318 -0.000411 0.000000 0.000435 0.000000
# 2 -0.002318 0.007604 -0.001054 0.000000 0.000305 0.000000
# 3 -0.000411 -0.001054 0.012435 0.000000 0.005541 0.000000
# 4 0.000000 0.000000 0.000000 0.018713 0.000000 -0.000214
# 5 0.000435 0.000305 0.005541 0.000000 0.019113 0.000000
# 6 0.000000 0.000000 0.000000 -0.000214 0.000000 0.012856
#
#
# Mechanical properties :
#
#
# Convention : Reuss Voigt Hill
#
# Bulk Modulus (GPa) = 53.06327 67.55441 60.30884
# Shear Modulus (GPa) = 54.97875 60.77845 57.87860
#
# Velocity S-wave (km/s) = 4.30496 4.52633 4.41703
# Velocity P-wave (km/s) = 6.52665 7.07734 6.80757
#
# Compressibility (1/GPa) = 0.01884543
#
# Stress axis : x y z
#
# Youngs Moduli (GPa) = 156.89611 131.50372 80.41759
#
# Poissons Ratio (x) = 0.30488 0.03308
# Poissons Ratio (y) = 0.36375 0.08476
# Poissons Ratio (z) = 0.06454 0.13861
#
# Static dielectric constant tensor:
#      x y z
#    x 5.578770 0.000000 0.569320 
#    y 0.000000 6.384150 0.000000 
#    z 0.569320 0.000000 8.724510 
# 
# 
# High freq. dielectric constant tensor:
#      x y z
#    x 2.212920 0.000000 -0.000860 
#    y 0.000000 2.242520 0.000000 
#    z -0.000860 0.000000 2.270410 
# 
# From -- ./inp_files/63129.got.cif
#   From: 2010.03.12/outbox.cif.g09.slc.cpg/sg14_32_cif.got.tgz:63129.got - 2010.03.31 13:35:05.
