data_PCOD8124933
_publ_section_title
;
Structure prediction by ZEFSAII (Michael W. Deem and Ramdas Pophale) SiO2 
 PCOD8124933
Probable space group: P 21/C
;
_chemical_formula_sum "Si O2"
_cell_formula_units_Z 24
_cell_length_a 13.792058
_cell_length_b 8.951618
_cell_length_c 16.828212
_cell_angle_alpha 90.000000
_cell_angle_beta 147.685844
_cell_angle_gamma 90.000000
_cell_volume 1110.621304
_symmetry_space_group_name_H-M "P 21/C"
_symmetry_group_IT_number 14
_symmetry_cell_setting 'monoclinic'
loop_
_space_group_symop_operation_xyz
x,y,z
-x,1/2+y,1/2-z
-x,-y,-z
x,1/2-y,1/2+z
loop_
_atom_site_type_symbol
_atom_site_label
_atom_site_fract_x
_atom_site_fract_y
_atom_site_fract_z
Si Si1 0.423096 0.161201 0.451117
Si Si2 0.636412 0.677344 0.907298
Si Si3 0.682665 0.007104 0.895052
Si Si4 0.352088 0.586414 0.446519
Si Si5 0.035627 0.987103 0.334172
Si Si6 0.969335 0.849369 0.830474
O O1 0.381742 0.220162 0.511988
O O2 0.587847 0.243433 0.521421
O O3 0.230520 0.174838 0.269224
O O4 0.500000 0.000000 0.500000
O O5 0.457513 0.588166 0.759359
O O6 0.666231 0.827670 0.876271
O O7 0.806658 0.568899 0.006575
O O8 0.645220 0.048876 0.959637
O O9 0.882446 0.072271 0.009077
O O10 0.500000 0.500000 0.500000
O O11 0.158941 0.550291 0.272110
O O12 0.062581 0.029887 0.261272
O O13 0.048737 0.808179 0.353193
#
# Coordination Sequence:
#
# PCOD8124933 Si02
#       6
#     4   4   4   4   4   4
#     4  11  24  37  64  91 122 150 205 248 294 344
#     4  11  24  42  60  91 117 163 198 244 298 362
#     4  11  24  40  64  84 125 157 203 240 304 356
#     4  11  20  41  62  89 116 158 196 246 292 354
#     4  10  20  35  62  84 120 156 204 234 297 358
#     4  10  20  37  58  89 116 160 198 241 289 364
#
# _framework density 21.609525000000001
#
# number of rings (size 3 to 8) (size 9 to 14) (size 15 to 20)
#    0.000    1.333    3.333    4.000   14.000    0.000 
#    0.000    3.333    0.000    0.000    0.000    0.000 
#    0.000    0.000    0.000    0.000    0.000    0.000 
#
# Total GULP energy -297449.208454 kJ/mol
# GULP energy per Si atom -12393.717019 kJ/mol
# Density = 2.156034 g / cm^3
# Si number density = 21.609525 Si / 1000 Ang^3
#
#
#
# Elastic Constant Matrix: (Units=GPa)
#
#
# Indices 1 2 3 4 5 6 
#
# 1 31.8886 -14.0492 5.8131 0.0000 12.6115 0.0000
# 2 -14.0492 104.3219 18.7233 0.0000 8.7350 0.0000
# 3 5.8131 18.7233 149.8838 0.0000 28.3284 0.0000
# 4 0.0000 0.0000 0.0000 41.2360 0.0000 8.9858
# 5 12.6115 8.7350 28.3284 0.0000 24.2580 0.0000
# 6 0.0000 0.0000 0.0000 8.9858 0.0000 34.3193
#
#
#
# Elastic Compliance Matrix: (Units=1/GPa)
#
#
# Indices 1 2 3 4 5 6 
#
# 1 0.046618 0.008317 0.002951 0.000000 -0.030677 0.000000
# 2 0.008317 0.011429 -0.000199 0.000000 -0.008207 0.000000
# 3 0.002951 -0.000199 0.008801 0.000000 -0.011741 0.000000
# 4 0.000000 0.000000 0.000000 0.025718 0.000000 -0.006734
# 5 -0.030677 -0.008207 -0.011741 0.000000 0.073838 0.000000
# 6 0.000000 0.000000 0.000000 -0.006734 0.000000 0.030901
#
#
# Mechanical properties :
#
#
# Convention : Reuss Voigt Hill
#
# Bulk Modulus (GPa) = 11.23769 34.11874 22.67821
# Shear Modulus (GPa) = 24.41056 38.33646 31.37351
#
# Velocity S-wave (km/s) = 3.36463 4.21652 3.81443
# Velocity P-wave (km/s) = 4.50621 6.28716 5.46966
#
# Compressibility (1/GPa) = 0.08898629
#
# Stress axis : x y z
#
# Youngs Moduli (GPa) = 21.45091 87.49898 113.62006
#
# Poissons Ratio (x) = -0.72774 -0.33530
# Poissons Ratio (y) = -0.17841 0.02263
# Poissons Ratio (z) = -0.06330 0.01742
#
# Static dielectric constant tensor:
#      x y z
#    x 2.747810 0.000000 0.052180 
#    y 0.000000 3.944850 0.000000 
#    z 0.052180 0.000000 4.269810 
# 
# 
# High freq. dielectric constant tensor:
#      x y z
#    x 1.810440 0.000000 0.037370 
#    y 0.000000 1.873040 0.000000 
#    z 0.037370 0.000000 1.855000 
# 
# From -- ./inp_files/38919.got.cif
#   From: 2010.03.12/outbox.cif.g09.slc.cpg/sg14_20_cif.got.tgz:38919.got - 2010.03.31 13:35:05.
