data_PCOD8124715
_publ_section_title
;
Structure prediction by ZEFSAII (Michael W. Deem and Ramdas Pophale) SiO2 
 PCOD8124715
Probable space group: P 21/C
;
_chemical_formula_sum "Si O2"
_cell_formula_units_Z 32
_cell_length_a 21.877979
_cell_length_b 15.994136
_cell_length_c 13.502502
_cell_angle_alpha 90.000000
_cell_angle_beta 157.783806
_cell_angle_gamma 90.000000
_cell_volume 1786.453586
_symmetry_space_group_name_H-M "P 21/C"
_symmetry_group_IT_number 14
_symmetry_cell_setting 'monoclinic'
loop_
_space_group_symop_operation_xyz
x,y,z
-x,1/2+y,1/2-z
-x,-y,-z
x,1/2-y,1/2+z
loop_
_atom_site_type_symbol
_atom_site_label
_atom_site_fract_x
_atom_site_fract_y
_atom_site_fract_z
Si Si1 0.123970 0.823120 0.072697
Si Si2 0.649048 0.023457 0.587176
Si Si3 0.610721 0.614960 0.645799
Si Si4 0.610721 0.885043 0.686364
Si Si5 0.123968 0.823122 0.299209
Si Si6 0.633295 0.250002 0.199944
Si Si7 0.141447 0.250000 0.462171
Si Si8 0.350952 0.523457 0.140032
O O1 0.195724 0.916237 0.165076
O O2 0.086445 0.804039 0.129667
O O3 0.259687 0.759675 0.237824
O O4 0.960327 0.805122 0.767605
O O5 0.474324 0.065782 0.350205
O O6 0.640987 0.993103 0.461480
O O7 0.681434 0.946408 0.708954
O O8 0.469766 0.669307 0.484479
O O9 0.525665 0.565790 0.427218
O O10 0.681431 0.553591 0.835343
O O11 0.749201 0.680016 0.816833
O O12 0.469749 0.830704 0.424797
O O13 0.749191 0.819980 0.930752
O O14 0.259686 0.759676 0.541231
O O15 0.195715 0.916239 0.422082
O O16 0.960326 0.805123 0.113375
#
# Coordination Sequence:
#
# PCOD8124715 Si02
#       8
#     4   4   4   4   4   4   4   4
#     4   9  18  32  49  70  98 130 160 193 237 285
#     4   9  18  33  52  72  95 125 160 198 239 281
#     4   9  18  32  50  72  96 124 161 201 237 277
#     4   9  18  32  50  72  96 124 161 201 237 277
#     4   9  18  32  49  70  98 130 160 193 237 285
#     4   8  16  32  50  68  94 128 164 200 236 276
#     4  10  20  32  48  72 100 128 158 194 236 284
#     4   9  18  33  52  72  95 125 160 198 239 281
#
# _framework density 17.912583999999999
#
# number of rings (size 3 to 8) (size 9 to 14) (size 15 to 20)
#    0.000    3.000    0.000    0.000    0.000    4.000 
#    0.000    7.500    0.000    0.000    0.000   14.000 
#    0.000    0.000    0.000    0.000    0.000    0.000 
#
# Total GULP energy -396452.048784 kJ/mol
# GULP energy per Si atom -12389.126525 kJ/mol
# Density = 1.787181 g / cm^3
# Si number density = 17.912584 Si / 1000 Ang^3
#
#
#
# Elastic Constant Matrix: (Units=GPa)
#
#
# Indices 1 2 3 4 5 6 
#
# 1 73.1719 27.7579 32.6771 0.0000 -3.5791 0.0000
# 2 27.7579 69.0382 31.0420 0.0000 1.3943 0.0000
# 3 32.6771 31.0420 81.9261 0.0000 7.2964 0.0000
# 4 0.0000 0.0000 0.0000 23.1555 0.0000 -0.1630
# 5 -3.5791 1.3943 7.2964 0.0000 20.6546 0.0000
# 6 0.0000 0.0000 0.0000 -0.1630 0.0000 23.5409
#
#
#
# Elastic Compliance Matrix: (Units=1/GPa)
#
#
# Indices 1 2 3 4 5 6 
#
# 1 0.018473 -0.004824 -0.006045 0.000000 0.005662 0.000000
# 2 -0.004824 0.018747 -0.005154 0.000000 -0.000281 0.000000
# 3 -0.006045 -0.005154 0.017173 0.000000 -0.006766 0.000000
# 4 0.000000 0.000000 0.000000 0.043188 0.000000 0.000299
# 5 0.005662 -0.000281 -0.006766 0.000000 0.051806 0.000000
# 6 0.000000 0.000000 0.000000 0.000299 0.000000 0.042481
#
#
# Mechanical properties :
#
#
# Convention : Reuss Voigt Hill
#
# Bulk Modulus (GPa) = 44.74815 45.23225 44.99020
# Shear Modulus (GPa) = 21.61107 22.31413 21.96260
#
# Velocity S-wave (km/s) = 3.47720 3.53331 3.50537
# Velocity P-wave (km/s) = 6.41536 6.47705 6.44628
#
# Compressibility (1/GPa) = 0.02234729
#
# Stress axis : x y z
#
# Youngs Moduli (GPa) = 54.13408 53.34048 58.23197
#
# Poissons Ratio (x) = 0.25730 0.35199
# Poissons Ratio (y) = 0.26113 0.30016
# Poissons Ratio (z) = 0.32722 0.27494
#
# Static dielectric constant tensor:
#      x y z
#    x 3.135210 0.000000 0.109170 
#    y 0.000000 3.429650 0.000000 
#    z 0.109170 0.000000 3.392040 
# 
# 
# High freq. dielectric constant tensor:
#      x y z
#    x 1.671520 0.000000 0.009770 
#    y 0.000000 1.698550 0.000000 
#    z 0.009770 0.000000 1.694510 
# 
# From -- ./inp_files/51602.got.cif
#   From: 2010.03.12/outbox.cif.g09.slc.cpg/sg14_26_cif.got.tgz:51602.got - 2010.03.31 13:35:05.
