data_PCOD8124100
_publ_section_title
;
Structure prediction by ZEFSAII (Michael W. Deem and Ramdas Pophale) SiO2 
 PCOD8124100
Probable space group: P 21/C
;
_chemical_formula_sum "Si O2"
_cell_formula_units_Z 20
_cell_length_a 10.176909
_cell_length_b 6.155218
_cell_length_c 21.611344
_cell_angle_alpha 90.000000
_cell_angle_beta 126.445156
_cell_angle_gamma 90.000000
_cell_volume 1088.998122
_symmetry_space_group_name_H-M "P 21/C"
_symmetry_group_IT_number 14
_symmetry_cell_setting 'monoclinic'
loop_
_space_group_symop_operation_xyz
x,y,z
-x,1/2+y,1/2-z
-x,-y,-z
x,1/2-y,1/2+z
loop_
_atom_site_type_symbol
_atom_site_label
_atom_site_fract_x
_atom_site_fract_y
_atom_site_fract_z
Si Si1 0.007081 0.372993 0.825652
Si Si2 0.203232 0.507021 0.436801
Si Si3 0.242397 0.806821 0.332780
Si Si4 0.574690 0.870282 0.463325
Si Si5 0.093672 0.598923 0.968384
O O1 0.834316 0.340633 0.742847
O O2 0.135531 0.474495 0.812303
O O3 0.987631 0.533705 0.878160
O O4 0.067453 0.143038 0.867534
O O5 0.258417 0.684507 0.402661
O O6 0.362051 0.370961 0.501451
O O7 0.120396 0.638845 0.471882
O O8 0.432260 0.859961 0.370772
O O9 0.500000 0.000000 0.500000
O O10 0.727353 0.996338 0.478493
O O11 0.000000 0.500000 0.000000
#
# Coordination Sequence:
#
# PCOD8124100 Si02
#       5
#     4   4   4   4   4
#     4  10  20  32  57  84 114 149 186 236 298 352
#     4  10  19  34  59  83 113 147 186 244 289 337
#     4  11  19  32  54  88 116 140 188 242 295 348
#     4  11  20  33  57  90 111 145 201 243 290 354
#     4  10  23  40  57  79 117 155 201 234 293 368
#
# _framework density 18.365506
#
# number of rings (size 3 to 8) (size 9 to 14) (size 15 to 20)
#    0.000    1.600    8.000    0.600    0.000    3.200 
#    0.000    0.000    8.800    0.000    0.000    0.000 
#    0.000    0.000    0.000    0.000    0.000    0.000 
#
# Total GULP energy -247819.082330 kJ/mol
# GULP energy per Si atom -12390.954117 kJ/mol
# Density = 1.832370 g / cm^3
# Si number density = 18.365506 Si / 1000 Ang^3
#
#
#
# Elastic Constant Matrix: (Units=GPa)
#
#
# Indices 1 2 3 4 5 6 
#
# 1 96.8377 39.4171 46.6021 0.0000 8.1351 0.0000
# 2 39.4171 114.0127 40.0383 0.0000 6.9394 0.0000
# 3 46.6021 40.0383 151.4947 0.0000 28.3892 0.0000
# 4 0.0000 0.0000 0.0000 31.2605 0.0000 5.1609
# 5 8.1351 6.9394 28.3892 0.0000 24.7421 0.0000
# 6 0.0000 0.0000 0.0000 5.1609 0.0000 26.6882
#
#
#
# Elastic Compliance Matrix: (Units=1/GPa)
#
#
# Indices 1 2 3 4 5 6 
#
# 1 0.013264 -0.003474 -0.003220 0.000000 0.000307 0.000000
# 2 -0.003474 0.010580 -0.001765 0.000000 0.000200 0.000000
# 3 -0.003220 -0.001765 0.009894 0.000000 -0.009799 0.000000
# 4 0.000000 0.000000 0.000000 0.033044 0.000000 -0.006390
# 5 0.000307 0.000200 -0.009799 0.000000 0.051503 0.000000
# 6 0.000000 0.000000 0.000000 -0.006390 0.000000 0.038705
#
#
# Mechanical properties :
#
#
# Convention : Reuss Voigt Hill
#
# Bulk Modulus (GPa) = 59.45047 68.27334 63.86190
# Shear Modulus (GPa) = 27.85294 32.29067 30.07180
#
# Velocity S-wave (km/s) = 3.89857 4.19767 4.05088
# Velocity P-wave (km/s) = 7.25990 7.79419 7.53178
#
# Compressibility (1/GPa) = 0.01682073
#
# Stress axis : x y z
#
# Youngs Moduli (GPa) = 75.39096 94.52189 101.07081
#
# Poissons Ratio (x) = 0.32835 0.32543
# Poissons Ratio (y) = 0.26189 0.17839
# Poissons Ratio (z) = 0.24274 0.16683
#
# Static dielectric constant tensor:
#      x y z
#    x 3.299440 0.000000 0.276050 
#    y 0.000000 3.728980 0.000000 
#    z 0.276050 0.000000 3.539390 
# 
# 
# High freq. dielectric constant tensor:
#      x y z
#    x 1.664010 0.000000 0.021240 
#    y 0.000000 1.730820 0.000000 
#    z 0.021240 0.000000 1.711480 
# 
# From -- ./inp_files/64044.got.cif
#   From: 2010.03.12/outbox.cif.g09.slc.cpg/sg14_33_cif.got.tgz:64044.got - 2010.03.31 13:35:05.
