data_PCOD8124962
_publ_section_title
;
Structure prediction by ZEFSAII (Michael W. Deem and Ramdas Pophale) SiO2 
 PCOD8124962
Probable space group: P 21/C
;
_chemical_formula_sum "Si O2"
_cell_formula_units_Z 28
_cell_length_a 8.349299
_cell_length_b 10.915957
_cell_length_c 16.328860
_cell_angle_alpha 90.000000
_cell_angle_beta 75.050459
_cell_angle_gamma 90.000000
_cell_volume 1437.850645
_symmetry_space_group_name_H-M "P 21/C"
_symmetry_group_IT_number 14
_symmetry_cell_setting 'monoclinic'
loop_
_space_group_symop_operation_xyz
x,y,z
-x,1/2+y,1/2-z
-x,-y,-z
x,1/2-y,1/2+z
loop_
_atom_site_type_symbol
_atom_site_label
_atom_site_fract_x
_atom_site_fract_y
_atom_site_fract_z
Si Si1 0.232845 0.492376 0.154176
Si Si2 0.513529 0.794453 0.343101
Si Si3 0.328390 0.358483 0.542755
Si Si4 0.239507 0.858845 0.496805
Si Si5 0.017596 0.183659 0.594100
Si Si6 0.667940 0.131035 0.916871
Si Si7 0.259778 0.733664 0.251392
O O1 0.347024 0.397104 0.188280
O O2 0.292434 0.539257 0.056611
O O3 0.064266 0.421676 0.153431
O O4 0.210564 0.606778 0.215747
O O5 0.582470 0.681036 0.385367
O O6 0.372735 0.871387 0.407862
O O7 0.442254 0.735801 0.269005
O O8 0.172959 0.269102 0.546337
O O9 0.269528 0.497392 0.563872
O O10 0.466634 0.352729 0.451780
O O11 0.239555 0.723924 0.535323
O O12 0.057443 0.874950 0.479511
O O13 0.876595 0.258518 0.659806
O O14 0.731003 0.157488 0.816442
#
# Coordination Sequence:
#
# PCOD8124962 Si02
#       7
#     4   4   4   4   4   4   4
#     4  10  20  36  55  79 109 149 184 229 277 333
#     4   9  19  35  56  81 109 146 184 230 277 328
#     4   9  19  36  58  79 111 150 187 230 270 332
#     4   9  18  36  56  81 109 143 185 227 278 335
#     4  10  21  36  56  83 115 147 182 232 286 324
#     4   9  19  36  57  79 113 147 192 228 269 331
#     4  10  22  35  54  84 114 144 187 229 281 331
#
# _framework density 19.473511999999999
#
# number of rings (size 3 to 8) (size 9 to 14) (size 15 to 20)
#    0.000    2.571    0.000    0.857    4.000    1.714 
#    0.000    5.714    0.000    0.000    0.000    0.000 
#    0.000    0.000    0.000    0.000    0.000    0.000 
#
# Total GULP energy -346923.590275 kJ/mol
# GULP energy per Si atom -12390.128224 kJ/mol
# Density = 1.942919 g / cm^3
# Si number density = 19.473512 Si / 1000 Ang^3
#
#
#
# Elastic Constant Matrix: (Units=GPa)
#
#
# Indices 1 2 3 4 5 6 
#
# 1 93.1718 25.5962 14.4193 0.0000 17.6270 0.0000
# 2 25.5962 78.9644 5.5253 0.0000 7.1360 0.0000
# 3 14.4193 5.5253 49.4852 0.0000 1.3209 0.0000
# 4 0.0000 0.0000 0.0000 18.7140 0.0000 -2.1559
# 5 17.6270 7.1360 1.3209 0.0000 27.8425 0.0000
# 6 0.0000 0.0000 0.0000 -2.1559 0.0000 15.6577
#
#
#
# Elastic Compliance Matrix: (Units=1/GPa)
#
#
# Indices 1 2 3 4 5 6 
#
# 1 0.013654 -0.003504 -0.003385 0.000000 -0.007586 0.000000
# 2 -0.003504 0.013955 -0.000502 0.000000 -0.001335 0.000000
# 3 -0.003385 -0.000502 0.021217 0.000000 0.001265 0.000000
# 4 0.000000 0.000000 0.000000 0.054297 0.000000 0.007476
# 5 -0.007586 -0.001335 0.001265 0.000000 0.041001 0.000000
# 6 0.000000 0.000000 0.000000 0.007476 0.000000 0.064896
#
#
# Mechanical properties :
#
#
# Convention : Reuss Voigt Hill
#
# Bulk Modulus (GPa) = 29.37221 34.74479 32.05850
# Shear Modulus (GPa) = 21.26305 24.18155 22.72230
#
# Velocity S-wave (km/s) = 3.30797 3.52769 3.41960
# Velocity P-wave (km/s) = 5.45033 5.87143 5.66479
#
# Compressibility (1/GPa) = 0.03404579
#
# Stress axis : x y z
#
# Youngs Moduli (GPa) = 73.23627 71.65702 47.13278
#
# Poissons Ratio (x) = 0.25106 0.15955
# Poissons Ratio (y) = 0.25660 0.02364
# Poissons Ratio (z) = 0.24791 0.03595
#
# Static dielectric constant tensor:
#      x y z
#    x 3.689880 0.000000 0.160360 
#    y 0.000000 3.532030 0.000000 
#    z 0.160360 0.000000 3.458910 
# 
# 
# High freq. dielectric constant tensor:
#      x y z
#    x 1.754820 0.000000 0.010330 
#    y 0.000000 1.761120 0.000000 
#    z 0.010330 0.000000 1.743370 
# 
# From -- ./inp_files/39719.got.cif
#   From: 2010.03.12/outbox.cif.g09.slc.cpg/sg14_20_cif.got.tgz:39719.got - 2010.03.31 13:35:05.
