data_PCOD8124060
_publ_section_title
;
Structure prediction by ZEFSAII (Michael W. Deem and Ramdas Pophale) SiO2 
 PCOD8124060
Probable space group: P 21/C
;
_chemical_formula_sum "Si O2"
_cell_formula_units_Z 32
_cell_length_a 6.189023
_cell_length_b 18.925798
_cell_length_c 16.662494
_cell_angle_alpha 90.000000
_cell_angle_beta 128.835733
_cell_angle_gamma 90.000000
_cell_volume 1520.282257
_symmetry_space_group_name_H-M "P 21/C"
_symmetry_group_IT_number 14
_symmetry_cell_setting 'monoclinic'
loop_
_space_group_symop_operation_xyz
x,y,z
-x,1/2+y,1/2-z
-x,-y,-z
x,1/2-y,1/2+z
loop_
_atom_site_type_symbol
_atom_site_label
_atom_site_fract_x
_atom_site_fract_y
_atom_site_fract_z
Si Si1 0.887663 0.972504 0.352499
Si Si2 0.025266 0.289777 0.299988
Si Si3 0.689964 0.414100 0.295971
Si Si4 0.060683 0.313218 0.665825
Si Si5 0.329971 0.707651 0.174216
Si Si6 0.301414 0.920268 0.563443
Si Si7 0.627841 0.168359 0.927583
Si Si8 0.894685 0.540704 0.248189
O O1 0.634211 0.918421 0.301814
O O2 0.164866 0.930437 0.444057
O O3 0.859801 0.038503 0.404659
O O4 0.897876 0.001182 0.264027
O O5 0.811687 0.353642 0.264856
O O6 0.019020 0.258435 0.208228
O O7 0.934972 0.219212 0.329405
O O8 0.322799 0.323260 0.396823
O O9 0.709409 0.403864 0.398353
O O10 0.835799 0.489183 0.309975
O O11 0.868022 0.308027 0.543353
O O12 0.386944 0.320374 0.716198
O O13 0.972382 0.385874 0.690325
O O14 0.263790 0.660531 0.081313
O O15 0.394666 0.784023 0.155949
O O16 0.619912 0.943108 0.632444
#
# Coordination Sequence:
#
# PCOD8124060 Si02
#       8
#     4   4   4   4   4   4   4   4
#     4  10  19  34  55  82 115 149 186 231 288 345
#     4  10  21  39  59  83 116 150 189 238 289 342
#     4  10  22  37  55  82 118 151 191 241 284 339
#     4  10  22  39  61  85 113 151 193 237 285 343
#     4   9  20  37  56  82 113 143 186 237 284 341
#     4   9  19  33  55  85 113 145 185 233 288 346
#     4  10  22  38  56  82 112 149 194 234 285 344
#     4  10  20  37  58  83 116 153 192 237 285 338
#
# _framework density 21.048722000000001
#
# number of rings (size 3 to 8) (size 9 to 14) (size 15 to 20)
#    0.000    2.250    0.000    1.875    0.000    7.500 
#    0.000    5.000    0.000    0.000    0.000    0.000 
#    0.000    0.000    0.000    0.000    0.000    0.000 
#
# Total GULP energy -396432.836394 kJ/mol
# GULP energy per Si atom -12388.526137 kJ/mol
# Density = 2.100081 g / cm^3
# Si number density = 21.048722 Si / 1000 Ang^3
#
#
#
# Elastic Constant Matrix: (Units=GPa)
#
#
# Indices 1 2 3 4 5 6 
#
# 1 86.5258 26.0715 30.5532 0.0000 0.2312 0.0000
# 2 26.0715 69.8388 25.0220 0.0000 4.5861 0.0000
# 3 30.5532 25.0220 89.8428 0.0000 8.5115 0.0000
# 4 0.0000 0.0000 0.0000 26.5275 0.0000 -5.4138
# 5 0.2312 4.5861 8.5115 0.0000 21.2874 0.0000
# 6 0.0000 0.0000 0.0000 -5.4138 0.0000 34.2521
#
#
#
# Elastic Compliance Matrix: (Units=1/GPa)
#
#
# Indices 1 2 3 4 5 6 
#
# 1 0.014144 -0.004031 -0.003903 0.000000 0.002275 0.000000
# 2 -0.004031 0.017116 -0.003171 0.000000 -0.002376 0.000000
# 3 -0.003903 -0.003171 0.013795 0.000000 -0.004790 0.000000
# 4 0.000000 0.000000 0.000000 0.038953 0.000000 0.006157
# 5 0.002275 -0.002376 -0.004790 0.000000 0.049379 0.000000
# 6 0.000000 0.000000 0.000000 0.006157 0.000000 0.030168
#
#
# Mechanical properties :
#
#
# Convention : Reuss Voigt Hill
#
# Bulk Modulus (GPa) = 43.77415 45.50010 44.63712
# Shear Modulus (GPa) = 25.85592 27.38410 26.62001
#
# Velocity S-wave (km/s) = 3.50863 3.61083 3.56010
# Velocity P-wave (km/s) = 6.10375 6.24881 6.17671
#
# Compressibility (1/GPa) = 0.02284453
#
# Stress axis : x y z
#
# Youngs Moduli (GPa) = 70.70161 58.42608 72.49137
#
# Poissons Ratio (x) = 0.23553 0.28292
# Poissons Ratio (y) = 0.28501 0.22986
# Poissons Ratio (z) = 0.27594 0.18526
#
# Static dielectric constant tensor:
#      x y z
#    x 4.160760 0.000000 -0.013150 
#    y 0.000000 4.051150 0.000000 
#    z -0.013150 0.000000 3.471200 
# 
# 
# High freq. dielectric constant tensor:
#      x y z
#    x 1.828900 0.000000 0.002340 
#    y 0.000000 1.832360 0.000000 
#    z 0.002340 0.000000 1.791950 
# 
# From -- ./inp_files/38084.got.cif
#   From: 2010.03.12/outbox.cif.g09.slc.cpg/sg14_20_cif.got.tgz:38084.got - 2010.03.31 13:35:05.
