data_PCOD8124588
_publ_section_title
;
Structure prediction by ZEFSAII (Michael W. Deem and Ramdas Pophale) SiO2 
 PCOD8124588
Probable space group: P 21/C
;
_chemical_formula_sum "Si O2"
_cell_formula_units_Z 20
_cell_length_a 15.814926
_cell_length_b 8.490802
_cell_length_c 8.833828
_cell_angle_alpha 90.000000
_cell_angle_beta 42.312597
_cell_angle_gamma 90.000000
_cell_volume 798.532999
_symmetry_space_group_name_H-M "P 21/C"
_symmetry_group_IT_number 14
_symmetry_cell_setting 'monoclinic'
loop_
_space_group_symop_operation_xyz
x,y,z
-x,1/2+y,1/2-z
-x,-y,-z
x,1/2-y,1/2+z
loop_
_atom_site_type_symbol
_atom_site_label
_atom_site_fract_x
_atom_site_fract_y
_atom_site_fract_z
Si Si1 0.612441 0.360814 0.332647
Si Si2 0.098901 0.368566 0.692542
Si Si3 0.851444 0.948081 0.534336
Si Si4 0.308326 0.971479 0.738753
Si Si5 0.502226 0.884171 0.707808
O O1 0.715410 0.492209 0.159706
O O2 0.508187 0.415810 0.597326
O O3 0.538157 0.297133 0.281671
O O4 0.690080 0.214248 0.306107
O O5 0.157373 0.390469 0.781177
O O6 0.108837 0.188272 0.632374
O O7 0.171225 0.475704 0.473386
O O8 0.952847 0.413228 0.884200
O O9 0.355777 0.078109 0.534337
O O10 0.406396 0.002422 0.747723
#
# Coordination Sequence:
#
# PCOD8124588 Si02
#       5
#     4   4   4   4   4
#     4  10  19  39  63  87 120 157 200 244 298 351
#     4  11  24  41  62  89 123 157 202 250 302 356
#     4  11  24  41  62  89 121 159 200 252 299 357
#     4   9  20  39  61  86 124 156 197 246 299 350
#     4   9  20  36  64  86 121 160 195 246 296 354
#
# _framework density 25.045931
#
# number of rings (size 3 to 8) (size 9 to 14) (size 15 to 20)
#    1.200    0.800    2.000    1.200    0.000    5.600 
#    0.000    2.000    0.000    0.000    0.000    0.000 
#    0.000    0.000    0.000    0.000    0.000    0.000 
#
# Total GULP energy -247994.832657 kJ/mol
# GULP energy per Si atom -12399.741633 kJ/mol
# Density = 2.498892 g / cm^3
# Si number density = 25.045931 Si / 1000 Ang^3
#
#
#
# Elastic Constant Matrix: (Units=GPa)
#
#
# Indices 1 2 3 4 5 6 
#
# 1 62.4826 27.5405 54.5199 0.0000 0.4624 0.0000
# 2 27.5405 110.5405 50.5767 0.0000 -1.2229 0.0000
# 3 54.5199 50.5767 174.1770 0.0000 5.9274 0.0000
# 4 0.0000 0.0000 0.0000 48.6747 0.0000 -3.5071
# 5 0.4624 -1.2229 5.9274 0.0000 36.7539 0.0000
# 6 0.0000 0.0000 0.0000 -3.5071 0.0000 26.5296
#
#
#
# Elastic Compliance Matrix: (Units=1/GPa)
#
#
# Indices 1 2 3 4 5 6 
#
# 1 0.022749 -0.002759 -0.006342 0.000000 0.000645 0.000000
# 2 -0.002759 0.010793 -0.002296 0.000000 0.000764 0.000000
# 3 -0.006342 -0.002296 0.008439 0.000000 -0.001358 0.000000
# 4 0.000000 0.000000 0.000000 0.020742 0.000000 0.002742
# 5 0.000645 0.000764 -0.001358 0.000000 0.027444 0.000000
# 6 0.000000 0.000000 0.000000 0.002742 0.000000 0.038056
#
#
# Mechanical properties :
#
#
# Convention : Reuss Voigt Hill
#
# Bulk Modulus (GPa) = 52.11776 68.05271 60.08524
# Shear Modulus (GPa) = 31.76334 36.69585 34.22959
#
# Velocity S-wave (km/s) = 3.56505 3.83187 3.70086
# Velocity P-wave (km/s) = 6.14818 6.84162 6.50415
#
# Compressibility (1/GPa) = 0.01918732
#
# Stress axis : x y z
#
# Youngs Moduli (GPa) = 43.95747 92.65246 118.49317
#
# Poissons Ratio (x) = 0.25564 0.75143
# Poissons Ratio (y) = 0.12129 0.27210
# Poissons Ratio (z) = 0.27876 0.21276
#
# Static dielectric constant tensor:
#      x y z
#    x 4.055250 0.000000 0.047490 
#    y 0.000000 4.439930 0.000000 
#    z 0.047490 0.000000 4.453480 
# 
# 
# High freq. dielectric constant tensor:
#      x y z
#    x 1.974150 0.000000 0.002680 
#    y 0.000000 2.008320 0.000000 
#    z 0.002680 0.000000 2.011990 
# 
# From -- ./inp_files/18552.got.cif
#   From: 2010.03.12/outbox.cif.g09.slc.cpg/sg14_10_cif.got.tgz:18552.got - 2010.03.31 13:35:05.
