data_PCOD8124846
_publ_section_title
;
Structure prediction by ZEFSAII (Michael W. Deem and Ramdas Pophale) SiO2 
 PCOD8124846
Probable space group: P 21/C
;
_chemical_formula_sum "Si O2"
_cell_formula_units_Z 32
_cell_length_a 25.599111
_cell_length_b 10.508838
_cell_length_c 9.879382
_cell_angle_alpha 90.000000
_cell_angle_beta 145.133827
_cell_angle_gamma 90.000000
_cell_volume 1519.316837
_symmetry_space_group_name_H-M "P 21/C"
_symmetry_group_IT_number 14
_symmetry_cell_setting 'monoclinic'
loop_
_space_group_symop_operation_xyz
x,y,z
-x,1/2+y,1/2-z
-x,-y,-z
x,1/2-y,1/2+z
loop_
_atom_site_type_symbol
_atom_site_label
_atom_site_fract_x
_atom_site_fract_y
_atom_site_fract_z
Si Si1 0.118020 0.214949 0.835633
Si Si2 0.387442 0.143357 0.755338
Si Si3 0.317252 0.144190 0.311581
Si Si4 0.668154 0.139284 0.644657
Si Si5 0.931582 0.861264 0.539193
Si Si6 0.599880 0.146900 0.203578
Si Si7 0.078708 0.633429 0.027441
Si Si8 0.130322 0.699036 0.419572
O O1 0.121742 0.344778 0.932252
O O2 0.097539 0.245829 0.634180
O O3 0.031045 0.143575 0.718696
O O4 0.209862 0.135745 0.051814
O O5 0.331954 0.176257 0.501034
O O6 0.361332 0.243908 0.815672
O O7 0.366200 0.997536 0.758050
O O8 0.493424 0.158280 0.945138
O O9 0.361394 0.004359 0.372141
O O10 0.616796 0.177832 0.397512
O O11 0.650413 0.247130 0.719710
O O12 0.776270 0.128343 0.845385
O O13 0.041188 0.872526 0.792419
O O14 0.896254 0.987962 0.389514
O O15 0.119003 0.718753 0.234751
O O16 0.129163 0.665884 0.994121
#
# Coordination Sequence:
#
# PCOD8124846 Si02
#       8
#     4   4   4   4   4   4   4   4
#     4  10  20  35  55  81 109 144 185 224 269 320
#     4  10  23  41  59  83 114 145 181 230 283 334
#     4  11  22  37  60  86 112 145 187 230 275 331
#     4  11  22  37  60  86 112 145 187 230 275 331
#     4  10  20  36  54  75 112 149 180 223 270 317
#     4  10  23  41  59  83 114 145 181 230 283 334
#     4  10  20  36  54  75 112 149 180 223 270 317
#     4  10  20  35  55  81 109 144 185 224 269 320
#
# _framework density 21.062099
#
# number of rings (size 3 to 8) (size 9 to 14) (size 15 to 20)
#    0.000    1.750    0.000    5.250    0.000    2.500 
#    0.000   12.500    0.000    0.000    0.000    0.000 
#    0.000    0.000    0.000    0.000    0.000    0.000 
#
# Total GULP energy -396480.465641 kJ/mol
# GULP energy per Si atom -12390.014551 kJ/mol
# Density = 2.101416 g / cm^3
# Si number density = 21.062099 Si / 1000 Ang^3
#
#
#
# Elastic Constant Matrix: (Units=GPa)
#
#
# Indices 1 2 3 4 5 6 
#
# 1 61.2220 49.2971 8.0553 0.0000 -11.8567 0.0000
# 2 49.2971 105.4039 8.5717 0.0000 -12.9723 0.0000
# 3 8.0553 8.5717 87.5058 0.0000 0.3942 0.0000
# 4 0.0000 0.0000 0.0000 22.5436 0.0000 -9.1274
# 5 -11.8567 -12.9723 0.3942 0.0000 28.8228 0.0000
# 6 0.0000 0.0000 0.0000 -9.1274 0.0000 23.8177
#
#
#
# Elastic Compliance Matrix: (Units=1/GPa)
#
#
# Indices 1 2 3 4 5 6 
#
# 1 0.027236 -0.011905 -0.001367 0.000000 0.005864 0.000000
# 2 -0.011905 0.015337 -0.000415 0.000000 0.002011 0.000000
# 3 -0.001367 -0.000415 0.011598 0.000000 -0.000908 0.000000
# 4 0.000000 0.000000 0.000000 0.052505 0.000000 0.020121
# 5 0.005864 0.002011 -0.000908 0.000000 0.038025 0.000000
# 6 0.000000 0.000000 0.000000 0.020121 0.000000 0.049696
#
#
# Mechanical properties :
#
#
# Convention : Reuss Voigt Hill
#
# Bulk Modulus (GPa) = 37.32057 42.88667 40.10362
# Shear Modulus (GPa) = 21.67269 27.58397 24.62833
#
# Velocity S-wave (km/s) = 3.21127 3.62283 3.42324
# Velocity P-wave (km/s) = 5.61315 6.15679 5.89125
#
# Compressibility (1/GPa) = 0.02679488
#
# Stress axis : x y z
#
# Youngs Moduli (GPa) = 36.71610 65.20336 86.21822
#
# Poissons Ratio (x) = 0.77626 0.11790
# Poissons Ratio (y) = 0.43711 0.03582
# Poissons Ratio (z) = 0.05021 0.02709
#
# Static dielectric constant tensor:
#      x y z
#    x 3.624620 0.000000 -0.058140 
#    y 0.000000 3.872790 0.000000 
#    z -0.058140 0.000000 3.937110 
# 
# 
# High freq. dielectric constant tensor:
#      x y z
#    x 1.806530 0.000000 -0.007440 
#    y 0.000000 1.813180 0.000000 
#    z -0.007440 0.000000 1.844690 
# 
# From -- ./inp_files/19494.got.cif
#   From: 2010.03.12/outbox.cif.g09.slc.cpg/sg14_10_cif.got.tgz:19494.got - 2010.03.31 13:35:05.
