data_PCOD8124544
_publ_section_title
;
Structure prediction by ZEFSAII (Michael W. Deem and Ramdas Pophale) SiO2 
 PCOD8124544
Probable space group: P 21/C
;
_chemical_formula_sum "Si O2"
_cell_formula_units_Z 20
_cell_length_a 19.490509
_cell_length_b 5.534651
_cell_length_c 14.515245
_cell_angle_alpha 90.000000
_cell_angle_beta 30.870379
_cell_angle_gamma 90.000000
_cell_volume 803.410968
_symmetry_space_group_name_H-M "P 21/C"
_symmetry_group_IT_number 14
_symmetry_cell_setting 'monoclinic'
loop_
_space_group_symop_operation_xyz
x,y,z
-x,1/2+y,1/2-z
-x,-y,-z
x,1/2-y,1/2+z
loop_
_atom_site_type_symbol
_atom_site_label
_atom_site_fract_x
_atom_site_fract_y
_atom_site_fract_z
Si Si1 0.899476 0.485560 0.030174
Si Si2 0.363987 0.199850 0.118100
Si Si3 0.475688 0.342728 0.672468
Si Si4 0.997530 0.517783 0.393143
Si Si5 0.296916 0.985512 0.533690
O O1 0.932700 0.239605 0.933509
O O2 0.743714 0.482476 0.239880
O O3 0.917026 0.740589 0.953527
O O4 0.000000 0.500000 0.000000
O O5 0.419024 0.313937 0.151091
O O6 0.290387 0.401350 0.143266
O O7 0.489153 0.101319 0.913816
O O8 0.610060 0.249574 0.566543
O O9 0.360189 0.346427 0.881898
O O10 0.144871 0.563442 0.180788
O O11 0.000000 0.500000 0.500000
#
# Coordination Sequence:
#
# PCOD8124544 Si02
#       5
#     4   4   4   4   4
#     4  10  19  38  64  93 121 177 211 268 332 388
#     4  11  23  42  65  91 134 166 223 268 329 397
#     4  11  25  40  63  99 125 176 216 270 333 392
#     4  10  20  35  67  90 123 174 217 259 337 383
#     4  12  22  41  66  92 132 171 217 274 326 400
#
# _framework density 24.893858000000002
#
# number of rings (size 3 to 8) (size 9 to 14) (size 15 to 20)
#    0.000    1.200    6.000    3.000    0.000    0.000 
#    0.000    2.000    0.000    0.000    0.000    0.000 
#    0.000    0.000    0.000    0.000    0.000    0.000 
#
# Total GULP energy -247792.808108 kJ/mol
# GULP energy per Si atom -12389.640405 kJ/mol
# Density = 2.483720 g / cm^3
# Si number density = 24.893858 Si / 1000 Ang^3
#
#
#
# Elastic Constant Matrix: (Units=GPa)
#
#
# Indices 1 2 3 4 5 6 
#
# 1 49.8684 5.7334 14.8416 0.0000 10.2262 0.0000
# 2 5.7334 142.8072 31.8237 0.0000 3.7639 0.0000
# 3 14.8416 31.8237 148.2440 0.0000 -9.4233 0.0000
# 4 0.0000 0.0000 0.0000 33.6940 0.0000 -5.3007
# 5 10.2262 3.7639 -9.4233 0.0000 29.3732 0.0000
# 6 0.0000 0.0000 0.0000 -5.3007 0.0000 18.9779
#
#
#
# Elastic Compliance Matrix: (Units=1/GPa)
#
#
# Indices 1 2 3 4 5 6 
#
# 1 0.022704 -0.000051 -0.002822 0.000000 -0.008803 0.000000
# 2 -0.000051 0.007418 -0.001681 0.000000 -0.001472 0.000000
# 3 -0.002822 -0.001681 0.007621 0.000000 0.003643 0.000000
# 4 0.000000 0.000000 0.000000 0.031043 0.000000 0.008671
# 5 -0.008803 -0.001472 0.003643 0.000000 0.038467 0.000000
# 6 0.000000 0.000000 0.000000 0.008671 0.000000 0.055115
#
#
# Mechanical properties :
#
#
# Convention : Reuss Voigt Hill
#
# Bulk Modulus (GPa) = 34.92183 49.52411 42.22297
# Shear Modulus (GPa) = 27.62159 35.64374 31.63266
#
# Velocity S-wave (km/s) = 3.33464 3.78806 3.56856
# Velocity P-wave (km/s) = 5.37449 6.25058 5.82902
#
# Compressibility (1/GPa) = 0.02863538
#
# Stress axis : x y z
#
# Youngs Moduli (GPa) = 44.04597 134.80977 131.22481
#
# Poissons Ratio (x) = 0.00683 0.37027
# Poissons Ratio (y) = 0.00223 0.22058
# Poissons Ratio (z) = 0.12428 0.22660
#
# Static dielectric constant tensor:
#      x y z
#    x 4.297260 0.000000 -0.147410 
#    y 0.000000 6.067420 0.000000 
#    z -0.147410 0.000000 4.639100 
# 
# 
# High freq. dielectric constant tensor:
#      x y z
#    x 1.960680 0.000000 -0.014030 
#    y 0.000000 1.974220 0.000000 
#    z -0.014030 0.000000 2.003710 
# 
# From -- ./inp_files/49581.got.cif
#   From: 2010.03.12/outbox.cif.g09.slc.cpg/sg14_25_cif.got.tgz:49581.got - 2010.03.31 13:35:05.
