data_PCOD8124461
_publ_section_title
;
Structure prediction by ZEFSAII (Michael W. Deem and Ramdas Pophale) SiO2 
 PCOD8124461
Probable space group: P 21/C
;
_chemical_formula_sum "Si O2"
_cell_formula_units_Z 28
_cell_length_a 8.900980
_cell_length_b 10.953113
_cell_length_c 22.169954
_cell_angle_alpha 90.000000
_cell_angle_beta 140.103622
_cell_angle_gamma 90.000000
_cell_volume 1386.340492
_symmetry_space_group_name_H-M "P 21/C"
_symmetry_group_IT_number 14
_symmetry_cell_setting 'monoclinic'
loop_
_space_group_symop_operation_xyz
x,y,z
-x,1/2+y,1/2-z
-x,-y,-z
x,1/2-y,1/2+z
loop_
_atom_site_type_symbol
_atom_site_label
_atom_site_fract_x
_atom_site_fract_y
_atom_site_fract_z
Si Si1 0.851891 0.236940 0.502934
Si Si2 0.210945 0.449565 0.885886
Si Si3 0.396598 0.152359 0.803759
Si Si4 0.387846 0.498258 0.063571
Si Si5 0.717773 0.120493 0.206068
Si Si6 0.101000 0.766034 0.346850
Si Si7 0.629478 0.700161 0.844033
O O1 0.652642 0.301963 0.402178
O O2 0.822937 0.090701 0.487597
O O3 0.843415 0.284386 0.569142
O O4 0.116249 0.256579 0.560095
O O5 0.386320 0.417162 0.884579
O O6 0.166724 0.593039 0.864261
O O7 0.978098 0.370543 0.812777
O O8 0.328783 0.417147 0.986258
O O9 0.385052 0.147080 0.727673
O O10 0.178268 0.240013 0.755895
O O11 0.367514 0.018840 0.824598
O O12 0.441905 0.413065 0.136266
O O13 0.734163 0.184852 0.145732
O O14 0.553321 0.191512 0.201944
#
# Coordination Sequence:
#
# PCOD8124461 Si02
#       7
#     4   4   4   4   4   4   4
#     4  10  22  39  61  86 125 160 205 255 301 367
#     4   9  19  35  63  93 114 151 211 263 294 353
#     4  10  24  40  61  92 123 167 199 247 318 367
#     4  10  19  37  65  89 115 157 215 262 300 337
#     4  11  22  40  62  89 130 158 203 255 309 371
#     4   9  19  41  60  89 118 155 211 257 294 360
#     4  11  24  38  62  93 126 161 207 253 308 366
#
# _framework density 20.197057000000001
#
# number of rings (size 3 to 8) (size 9 to 14) (size 15 to 20)
#    0.000    2.000    1.429    2.143    4.000    1.143 
#    0.000    0.000    0.000    0.000    0.000    0.000 
#    0.000    0.000    0.000    0.000    0.000    0.000 
#
# Total GULP energy -347021.246360 kJ/mol
# GULP energy per Si atom -12393.615941 kJ/mol
# Density = 2.015109 g / cm^3
# Si number density = 20.197057 Si / 1000 Ang^3
#
#
#
# Elastic Constant Matrix: (Units=GPa)
#
#
# Indices 1 2 3 4 5 6 
#
# 1 99.3217 25.4363 40.9806 0.0000 8.3069 0.0000
# 2 25.4363 51.1696 31.3222 0.0000 -4.7621 0.0000
# 3 40.9806 31.3222 105.9856 0.0000 15.1711 0.0000
# 4 0.0000 0.0000 0.0000 26.0206 0.0000 8.0155
# 5 8.3069 -4.7621 15.1711 0.0000 35.6512 0.0000
# 6 0.0000 0.0000 0.0000 8.0155 0.0000 30.7482
#
#
#
# Elastic Compliance Matrix: (Units=1/GPa)
#
#
# Indices 1 2 3 4 5 6 
#
# 1 0.012768 -0.004541 -0.003282 0.000000 -0.002185 0.000000
# 2 -0.004541 0.027022 -0.007346 0.000000 0.007793 0.000000
# 3 -0.003282 -0.007346 0.013743 0.000000 -0.006065 0.000000
# 4 0.000000 0.000000 0.000000 0.041787 0.000000 -0.010893
# 5 -0.002185 0.007793 -0.006065 0.000000 0.032181 0.000000
# 6 0.000000 0.000000 0.000000 -0.010893 0.000000 0.035362
#
#
# Mechanical properties :
#
#
# Convention : Reuss Voigt Hill
#
# Bulk Modulus (GPa) = 43.11157 50.21723 46.66440
# Shear Modulus (GPa) = 24.88397 29.06651 26.97524
#
# Velocity S-wave (km/s) = 3.51388 3.79772 3.65855
# Velocity P-wave (km/s) = 6.15264 6.64439 6.40323
#
# Compressibility (1/GPa) = 0.02319563
#
# Stress axis : x y z
#
# Youngs Moduli (GPa) = 78.31893 37.00684 72.76282
#
# Poissons Ratio (x) = 0.16806 0.23882
# Poissons Ratio (y) = 0.35568 0.53448
# Poissons Ratio (z) = 0.25705 0.27183
#
# Static dielectric constant tensor:
#      x y z
#    x 3.911800 0.000000 0.241170 
#    y 0.000000 3.339190 0.000000 
#    z 0.241170 0.000000 3.729110 
# 
# 
# High freq. dielectric constant tensor:
#      x y z
#    x 1.803640 0.000000 0.013380 
#    y 0.000000 1.760970 0.000000 
#    z 0.013380 0.000000 1.790310 
# 
# From -- ./inp_files/48772.got.cif
#   From: 2010.03.12/outbox.cif.g09.slc.cpg/sg14_25_cif.got.tgz:48772.got - 2010.03.31 13:35:05.
