data_PCOD8124863
_publ_section_title
;
Structure prediction by ZEFSAII (Michael W. Deem and Ramdas Pophale) SiO2 
 PCOD8124863
Probable space group: P 21/C
;
_chemical_formula_sum "Si O2"
_cell_formula_units_Z 28
_cell_length_a 14.812747
_cell_length_b 13.232871
_cell_length_c 19.789808
_cell_angle_alpha 90.000000
_cell_angle_beta 157.417976
_cell_angle_gamma 90.000000
_cell_volume 1489.597330
_symmetry_space_group_name_H-M "P 21/C"
_symmetry_group_IT_number 14
_symmetry_cell_setting 'monoclinic'
loop_
_space_group_symop_operation_xyz
x,y,z
-x,1/2+y,1/2-z
-x,-y,-z
x,1/2-y,1/2+z
loop_
_atom_site_type_symbol
_atom_site_label
_atom_site_fract_x
_atom_site_fract_y
_atom_site_fract_z
Si Si1 0.445520 0.181865 0.498326
Si Si2 0.969952 0.352240 0.391985
Si Si3 0.895705 0.243712 0.984973
Si Si4 0.608945 0.708063 0.407120
Si Si5 0.714615 0.623941 0.689795
Si Si6 0.030873 0.437156 0.667014
Si Si7 0.686047 0.991617 0.037581
O O1 0.363368 0.202749 0.518677
O O2 0.398749 0.276425 0.418807
O O3 0.305460 0.084299 0.373202
O O4 0.722449 0.165058 0.684632
O O5 0.166988 0.290803 0.487015
O O6 0.977899 0.311692 0.473339
O O7 0.009429 0.473301 0.415451
O O8 0.054073 0.343590 0.108074
O O9 0.916107 0.164931 0.059925
O O10 0.626290 0.277227 0.798616
O O11 0.577561 0.602806 0.423511
O O12 0.520846 0.574207 0.604408
O O13 0.776974 0.542287 0.674592
O O14 0.909818 0.463789 0.654083
#
# Coordination Sequence:
#
# PCOD8124863 Si02
#       7
#     4   4   4   4   4   4   4
#     4   9  19  35  56  81 108 140 188 221 266 323
#     4  10  20  36  55  77 115 145 173 230 270 323
#     4  10  21  36  55  81 112 141 183 215 275 336
#     4   9  20  36  52  80 109 144 180 220 271 326
#     4   9  19  36  56  82 104 142 182 228 262 318
#     4  10  20  35  56  82 110 143 180 227 269 326
#     4   9  19  36  56  77 111 138 182 227 269 309
#
# _framework density 18.797027
#
# number of rings (size 3 to 8) (size 9 to 14) (size 15 to 20)
#    0.000    2.571    0.000    0.857    4.000    0.571 
#    0.000    7.143    0.000    0.000    0.000    0.000 
#    0.000    0.000    0.000    0.000    0.000    0.000 
#
# Total GULP energy -347173.978399 kJ/mol
# GULP energy per Si atom -12399.070657 kJ/mol
# Density = 1.875424 g / cm^3
# Si number density = 18.797027 Si / 1000 Ang^3
#
#
#
# Elastic Constant Matrix: (Units=GPa)
#
#
# Indices 1 2 3 4 5 6 
#
# 1 82.3883 33.3096 47.9131 0.0000 14.7416 0.0000
# 2 33.3096 63.8450 44.2112 0.0000 7.9485 0.0000
# 3 47.9131 44.2112 131.1227 0.0000 6.1765 0.0000
# 4 0.0000 0.0000 0.0000 32.4016 0.0000 3.7211
# 5 14.7416 7.9485 6.1765 0.0000 29.6824 0.0000
# 6 0.0000 0.0000 0.0000 3.7211 0.0000 19.3284
#
#
#
# Elastic Compliance Matrix: (Units=1/GPa)
#
#
# Indices 1 2 3 4 5 6 
#
# 1 0.018157 -0.005573 -0.004444 0.000000 -0.006600 0.000000
# 2 -0.005573 0.022646 -0.005498 0.000000 -0.002152 0.000000
# 3 -0.004444 -0.005498 0.011039 0.000000 0.001382 0.000000
# 4 0.000000 0.000000 0.000000 0.031560 0.000000 -0.006076
# 5 -0.006600 -0.002152 0.001382 0.000000 0.037257 0.000000
# 6 0.000000 0.000000 0.000000 -0.006076 0.000000 0.052907
#
#
# Mechanical properties :
#
#
# Convention : Reuss Voigt Hill
#
# Bulk Modulus (GPa) = 48.05302 58.69154 53.37228
# Shear Modulus (GPa) = 23.63696 26.41060 25.02378
#
# Velocity S-wave (km/s) = 3.54995 3.75245 3.65261
# Velocity P-wave (km/s) = 6.51326 7.07575 6.80032
#
# Compressibility (1/GPa) = 0.02081035
#
# Stress axis : x y z
#
# Youngs Moduli (GPa) = 55.07648 44.15866 90.58797
#
# Poissons Ratio (x) = 0.24611 0.40261
# Poissons Ratio (y) = 0.30696 0.49802
# Poissons Ratio (z) = 0.24478 0.24277
#
# Static dielectric constant tensor:
#      x y z
#    x 3.401590 0.000000 -0.023910 
#    y 0.000000 3.537810 0.000000 
#    z -0.023910 0.000000 3.450190 
# 
# 
# High freq. dielectric constant tensor:
#      x y z
#    x 1.726700 0.000000 0.002200 
#    y 0.000000 1.733220 0.000000 
#    z 0.002200 0.000000 1.728700 
# 
# From -- ./inp_files/48806.got.cif
#   From: 2010.03.12/outbox.cif.g09.slc.cpg/sg14_25_cif.got.tgz:48806.got - 2010.03.31 13:35:05.
