data_PCOD8124286
_publ_section_title
;
Structure prediction by ZEFSAII (Michael W. Deem and Ramdas Pophale) SiO2 
 PCOD8124286
Probable space group: P 21/C
;
_chemical_formula_sum "Si O2"
_cell_formula_units_Z 24
_cell_length_a 8.370584
_cell_length_b 21.997977
_cell_length_c 11.691688
_cell_angle_alpha 90.000000
_cell_angle_beta 145.132802
_cell_angle_gamma 90.000000
_cell_volume 1230.738716
_symmetry_space_group_name_H-M "P 21/C"
_symmetry_group_IT_number 14
_symmetry_cell_setting 'monoclinic'
loop_
_space_group_symop_operation_xyz
x,y,z
-x,1/2+y,1/2-z
-x,-y,-z
x,1/2-y,1/2+z
loop_
_atom_site_type_symbol
_atom_site_label
_atom_site_fract_x
_atom_site_fract_y
_atom_site_fract_z
Si Si1 0.315081 0.261087 0.929624
Si Si2 0.947485 0.068845 0.082811
Si Si3 0.507293 0.161880 0.186136
Si Si4 0.543456 0.375105 0.959769
Si Si5 0.256032 0.821611 0.900200
Si Si6 0.030041 0.434152 0.374397
O O1 0.490062 0.323803 0.024883
O O2 0.992734 0.274932 0.713781
O O3 0.353772 0.227917 0.076065
O O4 0.447605 0.214210 0.912514
O O5 0.274820 0.081739 0.294303
O O6 0.750442 0.119480 0.023938
O O7 0.875879 0.003456 0.095218
O O8 0.876605 0.069102 0.906939
O O9 0.605201 0.156514 0.373670
O O10 0.767351 0.158311 0.248562
O O11 0.298562 0.108156 0.027877
O O12 0.811601 0.414372 0.149246
#
# Coordination Sequence:
#
# PCOD8124286 Si02
#       6
#     4   4   4   4   4   4
#     4   9  19  36  54  79 112 145 185 227 283 332
#     4   9  20  36  58  82 116 146 197 231 273 347
#     4   9  21  36  53  83 114 140 190 233 279 341
#     4  10  19  36  58  82 110 149 189 230 280 341
#     4   9  19  38  55  84 112 148 187 236 280 339
#     4  10  19  36  58  84 111 156 184 233 288 329
#
# _framework density 19.500482000000002
#
# number of rings (size 3 to 8) (size 9 to 14) (size 15 to 20)
#    1.000    1.667    0.000    1.500    0.000    2.000 
#    9.000    2.500    0.000    0.000    0.000    0.000 
#    0.000    0.000    0.000    0.000    0.000    0.000 
#
# Total GULP energy -297337.608081 kJ/mol
# GULP energy per Si atom -12389.067003 kJ/mol
# Density = 1.945610 g / cm^3
# Si number density = 19.500482 Si / 1000 Ang^3
#
#
#
# Elastic Constant Matrix: (Units=GPa)
#
#
# Indices 1 2 3 4 5 6 
#
# 1 86.0830 51.1143 26.4753 0.0000 7.0666 0.0000
# 2 51.1143 127.6302 46.0592 0.0000 -6.5840 0.0000
# 3 26.4753 46.0592 71.3647 0.0000 -7.6381 0.0000
# 4 0.0000 0.0000 0.0000 20.4651 0.0000 -7.7391
# 5 7.0666 -6.5840 -7.6381 0.0000 22.3571 0.0000
# 6 0.0000 0.0000 0.0000 -7.7391 0.0000 34.4878
#
#
#
# Elastic Compliance Matrix: (Units=1/GPa)
#
#
# Indices 1 2 3 4 5 6 
#
# 1 0.016854 -0.005996 -0.003261 0.000000 -0.008207 0.000000
# 2 -0.005996 0.012361 -0.005357 0.000000 0.003705 0.000000
# 3 -0.003261 -0.005357 0.019328 0.000000 0.006056 0.000000
# 4 0.000000 0.000000 0.000000 0.053395 0.000000 0.011982
# 5 -0.008207 0.003705 0.006056 0.000000 0.050483 0.000000
# 6 0.000000 0.000000 0.000000 0.011982 0.000000 0.031684
#
#
# Mechanical properties :
#
#
# Convention : Reuss Voigt Hill
#
# Bulk Modulus (GPa) = 51.77405 59.15283 55.46344
# Shear Modulus (GPa) = 22.75105 26.22396 24.48750
#
# Velocity S-wave (km/s) = 3.41939 3.67111 3.54748
# Velocity P-wave (km/s) = 6.49596 6.95480 6.72929
#
# Compressibility (1/GPa) = 0.01931469
#
# Stress axis : x y z
#
# Youngs Moduli (GPa) = 59.33378 80.90071 51.73938
#
# Poissons Ratio (x) = 0.48511 0.16871
# Poissons Ratio (y) = 0.35578 0.27715
# Poissons Ratio (z) = 0.19348 0.43335
#
# Static dielectric constant tensor:
#      x y z
#    x 3.531190 0.000000 -0.066510 
#    y 0.000000 3.697750 0.000000 
#    z -0.066510 0.000000 3.142930 
# 
# 
# High freq. dielectric constant tensor:
#      x y z
#    x 1.750370 0.000000 -0.000610 
#    y 0.000000 1.772790 0.000000 
#    z -0.000610 0.000000 1.723880 
# 
# From -- ./inp_files/26701.got.cif
#   From: 2010.03.12/outbox.cif.g09.slc.cpg/sg14_14_cif.got.tgz:26701.got - 2010.03.31 13:35:05.
