data_PCOD8124023
_publ_section_title
;
Structure prediction by ZEFSAII (Michael W. Deem and Ramdas Pophale) SiO2 
 PCOD8124023
Probable space group: P 21/C
;
_chemical_formula_sum "Si O2"
_cell_formula_units_Z 20
_cell_length_a 9.983812
_cell_length_b 5.223649
_cell_length_c 18.579527
_cell_angle_alpha 90.000000
_cell_angle_beta 114.198512
_cell_angle_gamma 90.000000
_cell_volume 883.816566
_symmetry_space_group_name_H-M "P 21/C"
_symmetry_group_IT_number 14
_symmetry_cell_setting 'monoclinic'
loop_
_space_group_symop_operation_xyz
x,y,z
-x,1/2+y,1/2-z
-x,-y,-z
x,1/2-y,1/2+z
loop_
_atom_site_type_symbol
_atom_site_label
_atom_site_fract_x
_atom_site_fract_y
_atom_site_fract_z
Si Si1 0.569326 0.785897 0.736137
Si Si2 0.064466 0.159749 0.853423
Si Si3 0.434811 0.552486 0.064724
Si Si4 0.101397 0.337003 0.191703
Si Si5 0.345410 0.447476 0.505744
O O1 0.460750 0.547020 0.726324
O O2 0.558521 0.867352 0.649583
O O3 0.728224 0.675690 0.790980
O O4 0.084637 0.161681 0.773165
O O5 0.973573 0.409937 0.858432
O O6 0.224158 0.150024 0.923736
O O7 0.976231 0.910239 0.859527
O O8 0.362381 0.278247 0.069970
O O9 0.310462 0.778043 0.034927
O O10 0.500000 0.500000 0.000000
O O11 0.500000 0.500000 0.500000
#
# Coordination Sequence:
#
# PCOD8124023 Si02
#       5
#     4   4   4   4   4
#     4  12  25  42  65  93 130 168 207 259 318 381
#     4  10  20  35  61  92 123 159 207 270 311 361
#     4  10  21  37  62  91 120 157 210 262 302 357
#     4  10  21  37  58  89 126 164 207 254 321 375
#     4  10  19  33  58  91 122 150 199 259 312 356
#
# _framework density 22.62913
#
# number of rings (size 3 to 8) (size 9 to 14) (size 15 to 20)
#    0.000    1.600    0.000    6.000    0.000    9.600 
#    0.000    0.000    0.000   24.000    0.000    0.000 
#    0.000    0.000    0.000    0.000    0.000    0.000 
#
# Total GULP energy -247812.530712 kJ/mol
# GULP energy per Si atom -12390.626536 kJ/mol
# Density = 2.257763 g / cm^3
# Si number density = 22.629130 Si / 1000 Ang^3
#
#
#
# Elastic Constant Matrix: (Units=GPa)
#
#
# Indices 1 2 3 4 5 6 
#
# 1 72.8873 47.4092 44.2523 0.0000 23.9152 0.0000
# 2 47.4092 253.8648 59.9526 0.0000 24.6863 0.0000
# 3 44.2523 59.9526 98.8630 0.0000 34.0289 0.0000
# 4 0.0000 0.0000 0.0000 38.0517 0.0000 11.6001
# 5 23.9152 24.6863 34.0289 0.0000 37.8848 0.0000
# 6 0.0000 0.0000 0.0000 11.6001 0.0000 28.0237
#
#
#
# Elastic Compliance Matrix: (Units=1/GPa)
#
#
# Indices 1 2 3 4 5 6 
#
# 1 0.020621 -0.001828 -0.005864 0.000000 -0.006559 0.000000
# 2 -0.001828 0.004773 -0.002031 0.000000 -0.000132 0.000000
# 3 -0.005864 -0.002031 0.017720 0.000000 -0.010892 0.000000
# 4 0.000000 0.000000 0.000000 0.030075 0.000000 -0.012449
# 5 -0.006559 -0.000132 -0.010892 0.000000 0.040405 0.000000
# 6 0.000000 0.000000 0.000000 -0.012449 0.000000 0.040837
#
#
# Mechanical properties :
#
#
# Convention : Reuss Voigt Hill
#
# Bulk Modulus (GPa) = 42.25021 80.98258 61.61640
# Shear Modulus (GPa) = 27.50765 39.05879 33.28322
#
# Velocity S-wave (km/s) = 3.49031 4.15907 3.83928
# Velocity P-wave (km/s) = 5.91221 7.67648 6.85137
#
# Compressibility (1/GPa) = 0.02366852
#
# Stress axis : x y z
#
# Youngs Moduli (GPa) = 48.49340 209.51494 56.43302
#
# Poissons Ratio (x) = 0.38308 0.33092
# Poissons Ratio (y) = 0.08867 0.11459
# Poissons Ratio (z) = 0.28437 0.42543
#
# Static dielectric constant tensor:
#      x y z
#    x 3.447360 0.000000 0.252570 
#    y 0.000000 1.778330 0.000000 
#    z 0.252570 0.000000 3.865150 
# 
# 
# High freq. dielectric constant tensor:
#      x y z
#    x 1.845780 0.000000 0.013940 
#    y 0.000000 1.937860 0.000000 
#    z 0.013940 0.000000 1.884390 
# 
# From -- ./inp_files/64225.got.cif
#   From: 2010.03.12/outbox.cif.g09.slc.cpg/sg14_33_cif.got.tgz:64225.got - 2010.03.31 13:35:05.
