data_PCOD8124235
_publ_section_title
;
Structure prediction by ZEFSAII (Michael W. Deem and Ramdas Pophale) SiO2 
 PCOD8124235
Probable space group: P 21/C
;
_chemical_formula_sum "Si O2"
_cell_formula_units_Z 28
_cell_length_a 8.891450
_cell_length_b 28.954707
_cell_length_c 5.343841
_cell_angle_alpha 90.000000
_cell_angle_beta 55.061945
_cell_angle_gamma 90.000000
_cell_volume 1127.815882
_symmetry_space_group_name_H-M "P 21/C"
_symmetry_group_IT_number 14
_symmetry_cell_setting 'monoclinic'
loop_
_space_group_symop_operation_xyz
x,y,z
-x,1/2+y,1/2-z
-x,-y,-z
x,1/2-y,1/2+z
loop_
_atom_site_type_symbol
_atom_site_label
_atom_site_fract_x
_atom_site_fract_y
_atom_site_fract_z
Si Si1 0.952623 0.729128 0.686742
Si Si2 0.452755 0.266751 0.356576
Si Si3 0.326148 0.366252 0.521821
Si Si4 0.845012 0.561972 0.660421
Si Si5 0.356619 0.913551 0.039343
Si Si6 0.998104 0.135396 0.655625
Si Si7 0.238739 0.538314 0.141721
O O1 0.046240 0.750598 0.349886
O O2 0.736597 0.739896 0.896273
O O3 0.987341 0.674013 0.641569
O O4 0.558542 0.257317 0.520833
O O5 0.430030 0.321117 0.319831
O O6 0.299537 0.404151 0.332824
O O7 0.443136 0.390084 0.634223
O O8 0.127613 0.348172 0.804522
O O9 0.733853 0.516230 0.841727
O O10 0.021656 0.549821 0.318706
O O11 0.925017 0.585871 0.830992
O O12 0.335981 0.950021 0.286682
O O13 0.210801 0.872262 0.228939
O O14 0.330518 0.935258 0.789604
#
# Coordination Sequence:
#
# PCOD8124235 Si02
#       7
#     4   4   4   4   4   4   4
#     4  10  19  35  62  89 121 161 205 258 308 372
#     4  10  20  36  60  90 122 159 207 258 304 376
#     4  12  24  40  69  94 126 174 213 257 329 376
#     4  10  23  40  73  90 126 180 210 263 324 380
#     4  11  27  43  63  97 133 164 211 274 309 385
#     4  11  23  42  66  94 128 167 216 259 321 378
#     4  10  24  46  63  96 134 163 220 265 318 377
#
# _framework density 24.826744999999999
#
# number of rings (size 3 to 8) (size 9 to 14) (size 15 to 20)
#    0.000    1.429    4.286    1.714    4.000    2.857 
#    0.000    1.429    0.000    0.000    0.000    0.000 
#    0.000    0.000    0.000    0.000    0.000    0.000 
#
# Total GULP energy -347148.531510 kJ/mol
# GULP energy per Si atom -12398.161840 kJ/mol
# Density = 2.477024 g / cm^3
# Si number density = 24.826745 Si / 1000 Ang^3
#
#
#
# Elastic Constant Matrix: (Units=GPa)
#
#
# Indices 1 2 3 4 5 6 
#
# 1 73.9687 22.7074 21.0534 0.0000 16.4108 0.0000
# 2 22.7074 121.3331 3.2286 0.0000 10.2334 0.0000
# 3 21.0534 3.2286 68.0275 0.0000 31.0901 0.0000
# 4 0.0000 0.0000 0.0000 24.3226 0.0000 14.7911
# 5 16.4108 10.2334 31.0901 0.0000 40.1662 0.0000
# 6 0.0000 0.0000 0.0000 14.7911 0.0000 23.7818
#
#
#
# Elastic Compliance Matrix: (Units=1/GPa)
#
#
# Indices 1 2 3 4 5 6 
#
# 1 0.016003 -0.002628 -0.003320 0.000000 -0.003299 0.000000
# 2 -0.002628 0.008890 0.001448 0.000000 -0.002312 0.000000
# 3 -0.003320 0.001448 0.023532 0.000000 -0.017227 0.000000
# 4 0.000000 0.000000 0.000000 0.066123 0.000000 -0.041125
# 5 -0.003299 -0.002312 -0.017227 0.000000 0.040168 0.000000
# 6 0.000000 0.000000 0.000000 -0.041125 0.000000 0.067627
#
#
# Mechanical properties :
#
#
# Convention : Reuss Voigt Hill
#
# Bulk Modulus (GPa) = 25.36532 39.70088 32.53310
# Shear Modulus (GPa) = 20.45120 32.07678 26.26399
#
# Velocity S-wave (km/s) = 2.87323 3.59837 3.25605
# Velocity P-wave (km/s) = 4.60938 5.76977 5.22191
#
# Compressibility (1/GPa) = 0.03942391
#
# Stress axis : x y z
#
# Youngs Moduli (GPa) = 62.48814 112.48407 42.49557
#
# Poissons Ratio (x) = 0.29565 0.14110
# Poissons Ratio (y) = 0.16424 -0.06154
# Poissons Ratio (z) = 0.20748 -0.16290
#
# Static dielectric constant tensor:
#      x y z
#    x 4.650520 0.000000 0.377540 
#    y 0.000000 4.467730 0.000000 
#    z 0.377540 0.000000 4.443290 
# 
# 
# High freq. dielectric constant tensor:
#      x y z
#    x 1.981290 0.000000 0.017150 
#    y 0.000000 1.994330 0.000000 
#    z 0.017150 0.000000 1.968460 
# 
# From -- ./inp_files/2019.got.cif
#   From: 2010.03.12/outbox.cif.g09.slc.cpg/sg14_2_cif.got.tgz:2019.got - 2010.03.31 13:35:05.
