data_PCOD8124690
_publ_section_title
;
Structure prediction by ZEFSAII (Michael W. Deem and Ramdas Pophale) SiO2 
 PCOD8124690
Probable space group: P 21/C
;
_chemical_formula_sum "Si O2"
_cell_formula_units_Z 28
_cell_length_a 16.146574
_cell_length_b 8.002716
_cell_length_c 17.304531
_cell_angle_alpha 90.000000
_cell_angle_beta 150.850085
_cell_angle_gamma 90.000000
_cell_volume 1089.162183
_symmetry_space_group_name_H-M "P 21/C"
_symmetry_group_IT_number 14
_symmetry_cell_setting 'monoclinic'
loop_
_space_group_symop_operation_xyz
x,y,z
-x,1/2+y,1/2-z
-x,-y,-z
x,1/2-y,1/2+z
loop_
_atom_site_type_symbol
_atom_site_label
_atom_site_fract_x
_atom_site_fract_y
_atom_site_fract_z
Si Si1 0.962491 0.241922 0.938230
Si Si2 0.734076 0.972598 0.303251
Si Si3 0.565686 0.228573 0.007100
Si Si4 0.895513 0.282377 0.687259
Si Si5 0.216890 0.047394 0.488493
Si Si6 0.959119 0.926846 0.844389
Si Si7 0.589114 0.893057 0.489305
O O1 0.824566 0.391214 0.822670
O O2 0.926686 0.126138 0.833157
O O3 0.152799 0.307719 0.095863
O O4 0.939170 0.138854 0.998252
O O5 0.562113 0.916377 0.122990
O O6 0.714896 0.034916 0.376836
O O7 0.548577 0.259154 0.087740
O O8 0.740133 0.157410 0.114378
O O9 0.519525 0.416468 0.940618
O O10 0.065817 0.317476 0.878019
O O11 0.914494 0.388486 0.623789
O O12 0.864335 0.088968 0.637762
O O13 0.377127 0.134057 0.574888
O O14 0.770507 0.850970 0.679235
#
# Coordination Sequence:
#
# PCOD8124690 Si02
#       7
#     4   4   4   4   4   4   4
#     4  10  22  36  68  94 132 177 229 279 347 426
#     4  11  22  41  64 102 137 173 226 308 348 405
#     4  10  21  41  68 100 139 175 228 303 349 409
#     4  10  22  42  69  99 134 176 247 282 351 425
#     4  10  22  39  68  94 135 187 234 293 343 434
#     4  10  19  42  66  96 125 191 232 276 338 446
#     4   9  20  41  69  92 138 189 234 279 360 428
#
# _framework density 25.707833000000001
#
# number of rings (size 3 to 8) (size 9 to 14) (size 15 to 20)
#    0.000    2.000    2.857    0.000    6.000    0.000 
#    5.143    0.714   15.714    0.000    0.000    0.000 
#    0.000    0.000    0.000    0.000    0.000    0.000 
#
# Total GULP energy -346966.716947 kJ/mol
# GULP energy per Si atom -12391.668462 kJ/mol
# Density = 2.564932 g / cm^3
# Si number density = 25.707833 Si / 1000 Ang^3
#
#
#
# Elastic Constant Matrix: (Units=GPa)
#
#
# Indices 1 2 3 4 5 6 
#
# 1 168.2612 32.3968 29.9012 0.0000 17.6099 0.0000
# 2 32.3968 59.4401 14.5158 0.0000 2.2158 0.0000
# 3 29.9012 14.5158 44.4197 0.0000 1.0721 0.0000
# 4 0.0000 0.0000 0.0000 40.1761 0.0000 -0.6868
# 5 17.6099 2.2158 1.0721 0.0000 45.7057 0.0000
# 6 0.0000 0.0000 0.0000 -0.6868 0.0000 49.9355
#
#
#
# Elastic Compliance Matrix: (Units=1/GPa)
#
#
# Indices 1 2 3 4 5 6 
#
# 1 0.007514 -0.003018 -0.004008 0.000000 -0.002655 0.000000
# 2 -0.003018 0.019520 -0.004355 0.000000 0.000319 0.000000
# 3 -0.004008 -0.004355 0.026606 0.000000 0.001131 0.000000
# 4 0.000000 0.000000 0.000000 0.024896 0.000000 0.000342
# 5 -0.002655 0.000319 0.001131 0.000000 0.022860 0.000000
# 6 0.000000 0.000000 0.000000 0.000342 0.000000 0.020031
#
#
# Mechanical properties :
#
#
# Convention : Reuss Voigt Hill
#
# Bulk Modulus (GPa) = 32.38457 47.30542 39.84499
# Shear Modulus (GPa) = 32.36607 40.18394 36.27500
#
# Velocity S-wave (km/s) = 3.55208 3.95790 3.76047
# Velocity P-wave (km/s) = 5.42656 6.27118 5.86410
#
# Compressibility (1/GPa) = 0.03087891
#
# Stress axis : x y z
#
# Youngs Moduli (GPa) = 133.07987 51.22904 37.58482
#
# Poissons Ratio (x) = 0.15460 0.15064
# Poissons Ratio (y) = 0.40161 0.16369
# Poissons Ratio (z) = 0.53339 0.22311
#
# Static dielectric constant tensor:
#      x y z
#    x 5.292200 0.000000 -0.031010 
#    y 0.000000 4.549380 0.000000 
#    z -0.031010 0.000000 4.373600 
# 
# 
# High freq. dielectric constant tensor:
#      x y z
#    x 2.066730 0.000000 -0.008020 
#    y 0.000000 2.023510 0.000000 
#    z -0.008020 0.000000 2.002160 
# 
# From -- ./inp_files/69092.got.cif
#   From: 2010.03.12/outbox.cif.g09.slc.cpg/sg14_35_cif.got.tgz:69092.got - 2010.03.31 13:35:05.
