data_PCOD8124019
_publ_section_title
;
Structure prediction by ZEFSAII (Michael W. Deem and Ramdas Pophale) SiO2 
 PCOD8124019
Probable space group: P 21/C
;
_chemical_formula_sum "Si O2"
_cell_formula_units_Z 20
_cell_length_a 10.593006
_cell_length_b 4.969721
_cell_length_c 21.097979
_cell_angle_alpha 90.000000
_cell_angle_beta 114.370713
_cell_angle_gamma 90.000000
_cell_volume 1011.719820
_symmetry_space_group_name_H-M "P 21/C"
_symmetry_group_IT_number 14
_symmetry_cell_setting 'monoclinic'
loop_
_space_group_symop_operation_xyz
x,y,z
-x,1/2+y,1/2-z
-x,-y,-z
x,1/2-y,1/2+z
loop_
_atom_site_type_symbol
_atom_site_label
_atom_site_fract_x
_atom_site_fract_y
_atom_site_fract_z
Si Si1 0.178578 0.656077 0.270357
Si Si2 0.883897 0.839631 0.662210
Si Si3 0.569448 0.241510 0.935466
Si Si4 0.464345 0.448490 0.280024
Si Si5 0.678625 0.743814 0.018988
O O1 0.156065 0.457196 0.323890
O O2 0.316628 0.587807 0.261178
O O3 0.049925 0.626338 0.194865
O O4 0.187356 0.951089 0.303656
O O5 0.824967 0.857253 0.578377
O O6 0.426295 0.240677 0.943812
O O7 0.540836 0.161124 0.857833
O O8 0.632616 0.539312 0.954057
O O9 0.682750 0.036950 0.988268
O O10 0.443262 0.188300 0.230782
#
# Coordination Sequence:
#
# PCOD8124019 Si02
#       5
#     4   4   4   4   4
#     4  10  21  35  55  85 111 147 188 222 288 327
#     4  10  19  35  59  83 115 137 178 249 283 327
#     4  10  21  33  54  84 111 142 186 221 291 326
#     4  12  24  38  57  78 119 156 187 224 260 347
#     4  10  19  33  58  83 112 136 173 252 283 323
#
# _framework density 19.768319999999999
#
# number of rings (size 3 to 8) (size 9 to 14) (size 15 to 20)
#    0.000    1.600    2.000    3.600    5.600    0.000 
#    0.000    0.000    0.000    7.200    0.000    0.000 
#    0.000    0.000    0.000    0.000    0.000    0.000 
#
# Total GULP energy -247975.584085 kJ/mol
# GULP energy per Si atom -12398.779204 kJ/mol
# Density = 1.972333 g / cm^3
# Si number density = 19.768320 Si / 1000 Ang^3
#
#
#
# Elastic Constant Matrix: (Units=GPa)
#
#
# Indices 1 2 3 4 5 6 
#
# 1 47.0144 9.9489 46.9853 0.0000 9.7575 0.0000
# 2 9.9489 89.5872 33.8802 0.0000 0.3331 0.0000
# 3 46.9853 33.8802 119.1937 0.0000 16.5221 0.0000
# 4 0.0000 0.0000 0.0000 27.5993 0.0000 1.6933
# 5 9.7575 0.3331 16.5221 0.0000 25.1566 0.0000
# 6 0.0000 0.0000 0.0000 1.6933 0.0000 23.4620
#
#
#
# Elastic Compliance Matrix: (Units=1/GPa)
#
#
# Indices 1 2 3 4 5 6 
#
# 1 0.035798 0.001261 -0.013799 0.000000 -0.004839 0.000000
# 2 0.001261 0.012683 -0.004413 0.000000 0.002241 0.000000
# 3 -0.013799 -0.004413 0.015769 0.000000 -0.004946 0.000000
# 4 0.000000 0.000000 0.000000 0.036394 0.000000 -0.002627
# 5 -0.004839 0.002241 -0.004946 0.000000 0.044847 0.000000
# 6 0.000000 0.000000 0.000000 -0.002627 0.000000 0.042812
#
#
# Mechanical properties :
#
#
# Convention : Reuss Voigt Hill
#
# Bulk Modulus (GPa) = 32.95068 48.60267 40.77667
# Shear Modulus (GPa) = 21.52209 26.24231 23.88220
#
# Velocity S-wave (km/s) = 3.30315 3.64743 3.47955
# Velocity P-wave (km/s) = 5.59038 6.50983 6.06754
#
# Compressibility (1/GPa) = 0.03034839
#
# Stress axis : x y z
#
# Youngs Moduli (GPa) = 27.93456 78.84727 63.41542
#
# Poissons Ratio (x) = -0.09943 0.87507
# Poissons Ratio (y) = -0.03523 0.27984
# Poissons Ratio (z) = 0.38547 0.34793
#
# Static dielectric constant tensor:
#      x y z
#    x 3.352680 0.000000 0.264570 
#    y 0.000000 3.912660 0.000000 
#    z 0.264570 0.000000 3.579880 
# 
# 
# High freq. dielectric constant tensor:
#      x y z
#    x 1.722340 0.000000 0.023290 
#    y 0.000000 1.798370 0.000000 
#    z 0.023290 0.000000 1.769880 
# 
# From -- ./inp_files/56469.got.cif
#   From: 2010.03.12/outbox.cif.g09.slc.cpg/sg14_29_cif.got.tgz:56469.got - 2010.03.31 13:35:05.
