data_PCOD8124463
_publ_section_title
;
Structure prediction by ZEFSAII (Michael W. Deem and Ramdas Pophale) SiO2 
 PCOD8124463
Probable space group: P 21/C
;
_chemical_formula_sum "Si O2"
_cell_formula_units_Z 28
_cell_length_a 13.346028
_cell_length_b 8.417439
_cell_length_c 19.502344
_cell_angle_alpha 90.000000
_cell_angle_beta 38.632841
_cell_angle_gamma 90.000000
_cell_volume 1367.827250
_symmetry_space_group_name_H-M "P 21/C"
_symmetry_group_IT_number 14
_symmetry_cell_setting 'monoclinic'
loop_
_space_group_symop_operation_xyz
x,y,z
-x,1/2+y,1/2-z
-x,-y,-z
x,1/2-y,1/2+z
loop_
_atom_site_type_symbol
_atom_site_label
_atom_site_fract_x
_atom_site_fract_y
_atom_site_fract_z
Si Si1 0.890002 0.794869 0.582636
Si Si2 0.042452 0.577688 0.865947
Si Si3 0.196452 0.607022 0.239199
Si Si4 0.106485 0.597245 0.558537
Si Si5 0.367539 0.380644 0.351586
Si Si6 0.502791 0.563961 0.163542
Si Si7 0.780349 0.096527 0.429442
O O1 0.728331 0.695782 0.661210
O O2 0.926232 0.859532 0.487676
O O3 0.040707 0.687391 0.526028
O O4 0.855006 0.932828 0.656694
O O5 0.161205 0.708953 0.773424
O O6 0.932495 0.516270 0.862667
O O7 0.331068 0.547600 0.219215
O O8 0.263672 0.588913 0.126719
O O9 0.036521 0.502856 0.331528
O O10 0.250233 0.481378 0.462200
O O11 0.175868 0.722713 0.575380
O O12 0.496768 0.493054 0.244294
O O13 0.451075 0.249519 0.355030
O O14 0.629529 0.462955 0.053154
#
# Coordination Sequence:
#
# PCOD8124463 Si02
#       7
#     4   4   4   4   4   4   4
#     4  10  19  37  65  93 119 147 206 268 306 355
#     4  10  21  38  66  91 118 158 210 259 307 353
#     4  12  23  41  64  90 126 167 210 247 299 371
#     4  11  22  41  67  93 118 163 212 257 305 361
#     4  12  23  41  64  92 125 156 203 261 320 361
#     4  12  26  40  62  93 130 162 199 258 321 363
#     4  11  24  43  60  89 129 170 205 246 300 376
#
# _framework density 20.470421999999999
#
# number of rings (size 3 to 8) (size 9 to 14) (size 15 to 20)
#    0.000    0.857    4.286    3.429    2.000    0.000 
#    0.000    0.714    0.000    0.000    0.000    0.000 
#    0.000    0.000    0.000    0.000    0.000    0.000 
#
# Total GULP energy -347295.851812 kJ/mol
# GULP energy per Si atom -12403.423279 kJ/mol
# Density = 2.042383 g / cm^3
# Si number density = 20.470422 Si / 1000 Ang^3
#
#
#
# Elastic Constant Matrix: (Units=GPa)
#
#
# Indices 1 2 3 4 5 6 
#
# 1 70.5068 26.5190 28.7234 0.0000 12.5057 0.0000
# 2 26.5190 103.7833 41.3377 0.0000 1.7686 0.0000
# 3 28.7234 41.3377 100.7486 0.0000 4.4657 0.0000
# 4 0.0000 0.0000 0.0000 17.1358 0.0000 -2.8896
# 5 12.5057 1.7686 4.4657 0.0000 20.1603 0.0000
# 6 0.0000 0.0000 0.0000 -2.8896 0.0000 26.3662
#
#
#
# Elastic Compliance Matrix: (Units=1/GPa)
#
#
# Indices 1 2 3 4 5 6 
#
# 1 0.018697 -0.003181 -0.003559 0.000000 -0.010531 0.000000
# 2 -0.003181 0.012059 -0.004122 0.000000 0.001828 0.000000
# 3 -0.003559 -0.004122 0.012642 0.000000 -0.000231 0.000000
# 4 0.000000 0.000000 0.000000 0.059456 0.000000 0.006516
# 5 -0.010531 0.001828 -0.000231 0.000000 0.056026 0.000000
# 6 0.000000 0.000000 0.000000 0.006516 0.000000 0.038641
#
#
# Mechanical properties :
#
#
# Convention : Reuss Voigt Hill
#
# Bulk Modulus (GPa) = 46.13631 52.02211 49.07921
# Shear Modulus (GPa) = 22.07810 24.62968 23.35389
#
# Velocity S-wave (km/s) = 3.28767 3.47246 3.38133
# Velocity P-wave (km/s) = 6.08265 6.44560 6.26675
#
# Compressibility (1/GPa) = 0.02167490
#
# Stress axis : x y z
#
# Youngs Moduli (GPa) = 53.48485 82.92650 79.10241
#
# Poissons Ratio (x) = 0.26375 0.28150
# Poissons Ratio (y) = 0.17011 0.32607
# Poissons Ratio (z) = 0.19034 0.34183
#
# Static dielectric constant tensor:
#      x y z
#    x 3.669220 0.000000 -0.054620 
#    y 0.000000 4.031920 0.000000 
#    z -0.054620 0.000000 3.421590 
# 
# 
# High freq. dielectric constant tensor:
#      x y z
#    x 1.796140 0.000000 -0.003240 
#    y 0.000000 1.820510 0.000000 
#    z -0.003240 0.000000 1.785990 
# 
# From -- ./inp_files/68175.got.cif
#   From: 2010.03.12/outbox.cif.g09.slc.cpg/sg14_35_cif.got.tgz:68175.got - 2010.03.31 13:35:05.
