data_PCOD8124398
_publ_section_title
;
Structure prediction by ZEFSAII (Michael W. Deem and Ramdas Pophale) SiO2 
 PCOD8124398
Probable space group: P 21/C
;
_chemical_formula_sum "Si O2"
_cell_formula_units_Z 28
_cell_length_a 9.394151
_cell_length_b 12.467766
_cell_length_c 15.105743
_cell_angle_alpha 90.000000
_cell_angle_beta 55.913142
_cell_angle_gamma 90.000000
_cell_volume 1465.270075
_symmetry_space_group_name_H-M "P 21/C"
_symmetry_group_IT_number 14
_symmetry_cell_setting 'monoclinic'
loop_
_space_group_symop_operation_xyz
x,y,z
-x,1/2+y,1/2-z
-x,-y,-z
x,1/2-y,1/2+z
loop_
_atom_site_type_symbol
_atom_site_label
_atom_site_fract_x
_atom_site_fract_y
_atom_site_fract_z
Si Si1 0.708977 0.472808 0.330210
Si Si2 0.903457 0.439024 0.611651
Si Si3 0.762582 0.223714 0.040613
Si Si4 0.881572 0.748766 0.882720
Si Si5 0.979945 0.634098 0.678222
Si Si6 0.106769 0.583297 0.906260
Si Si7 0.461613 0.334468 0.518467
O O1 0.860527 0.431090 0.338430
O O2 0.766622 0.473742 0.208019
O O3 0.545237 0.395529 0.405890
O O4 0.653719 0.591116 0.377489
O O5 0.747498 0.367650 0.624195
O O6 0.000000 0.500000 0.500000
O O7 0.027206 0.360741 0.625128
O O8 0.844825 0.539278 0.695361
O O9 0.769392 0.342906 0.077470
O O10 0.604132 0.222916 0.028788
O O11 0.946638 0.202360 0.929795
O O12 0.676745 0.751759 0.974242
O O13 0.899900 0.720136 0.772455
O O14 0.961898 0.653325 0.909878
O O15 0.000000 0.500000 0.000000
#
# Coordination Sequence:
#
# PCOD8124398 Si02
#       7
#     4   4   4   4   4   4   4
#     4   9  19  35  59  79 110 152 181 234 282 336
#     4   9  17  33  52  78 110 142 195 233 271 334
#     4   9  20  35  54  81 113 147 180 238 283 337
#     4  10  20  34  60  84 107 155 195 227 279 346
#     4   9  17  32  57  81 105 148 196 228 266 338
#     4  10  22  40  56  83 117 150 185 231 295 332
#     4  10  19  37  58  82 110 146 196 229 279 338
#
# _framework density 19.109105
#
# number of rings (size 3 to 8) (size 9 to 14) (size 15 to 20)
#    0.000    2.571    1.429    0.000    4.000    0.000 
#    5.143    0.714    0.000    0.000    0.000    0.000 
#    0.000    0.000    0.000    0.000    0.000    0.000 
#
# Total GULP energy -346917.421493 kJ/mol
# GULP energy per Si atom -12389.907910 kJ/mol
# Density = 1.906561 g / cm^3
# Si number density = 19.109105 Si / 1000 Ang^3
#
#
#
# Elastic Constant Matrix: (Units=GPa)
#
#
# Indices 1 2 3 4 5 6 
#
# 1 56.9227 9.5923 15.2873 0.0000 -6.1949 0.0000
# 2 9.5923 77.1028 46.4999 0.0000 3.1217 0.0000
# 3 15.2873 46.4999 110.7814 0.0000 3.7216 0.0000
# 4 0.0000 0.0000 0.0000 34.3715 0.0000 4.2063
# 5 -6.1949 3.1217 3.7216 0.0000 24.0824 0.0000
# 6 0.0000 0.0000 0.0000 4.2063 0.0000 25.5896
#
#
#
# Elastic Compliance Matrix: (Units=1/GPa)
#
#
# Indices 1 2 3 4 5 6 
#
# 1 0.018973 -0.001192 -0.002299 0.000000 0.005390 0.000000
# 2 -0.001192 0.017471 -0.007120 0.000000 -0.001471 0.000000
# 3 -0.002299 -0.007120 0.012386 0.000000 -0.001582 0.000000
# 4 0.000000 0.000000 0.000000 0.029691 0.000000 -0.004880
# 5 0.005390 -0.001471 -0.001582 0.000000 0.043346 0.000000
# 6 0.000000 0.000000 0.000000 -0.004880 0.000000 0.039881
#
#
# Mechanical properties :
#
#
# Convention : Reuss Voigt Hill
#
# Bulk Modulus (GPa) = 36.22093 43.06286 39.64190
# Shear Modulus (GPa) = 26.01850 28.37053 27.19451
#
# Velocity S-wave (km/s) = 3.69396 3.85731 3.77652
# Velocity P-wave (km/s) = 6.09834 6.51327 6.30921
#
# Compressibility (1/GPa) = 0.02760835
#
# Stress axis : x y z
#
# Youngs Moduli (GPa) = 52.70770 57.23673 80.73923
#
# Poissons Ratio (x) = 0.06824 0.18560
# Poissons Ratio (y) = 0.06284 0.57483
# Poissons Ratio (z) = 0.12116 0.40750
#
# Static dielectric constant tensor:
#      x y z
#    x 3.509930 0.000000 0.190700 
#    y 0.000000 3.619040 0.000000 
#    z 0.190700 0.000000 3.550200 
# 
# 
# High freq. dielectric constant tensor:
#      x y z
#    x 1.732180 0.000000 0.019720 
#    y 0.000000 1.744200 0.000000 
#    z 0.019720 0.000000 1.722940 
# 
# From -- ./inp_files/39942.got.cif
#   From: 2010.03.12/outbox.cif.g09.slc.cpg/sg14_20_cif.got.tgz:39942.got - 2010.03.31 13:35:05.
