data_PCOD8124323
_publ_section_title
;
Structure prediction by ZEFSAII (Michael W. Deem and Ramdas Pophale) SiO2 
 PCOD8124323
Probable space group: P 21/C
;
_chemical_formula_sum "Si O2"
_cell_formula_units_Z 32
_cell_length_a 18.268289
_cell_length_b 11.424538
_cell_length_c 18.600637
_cell_angle_alpha 90.000000
_cell_angle_beta 23.623009
_cell_angle_gamma 90.000000
_cell_volume 1555.614921
_symmetry_space_group_name_H-M "P 21/C"
_symmetry_group_IT_number 14
_symmetry_cell_setting 'monoclinic'
loop_
_space_group_symop_operation_xyz
x,y,z
-x,1/2+y,1/2-z
-x,-y,-z
x,1/2-y,1/2+z
loop_
_atom_site_type_symbol
_atom_site_label
_atom_site_fract_x
_atom_site_fract_y
_atom_site_fract_z
Si Si1 0.176146 0.683107 0.195681
Si Si2 0.508914 0.824702 0.941375
Si Si3 0.801541 0.235599 0.988031
Si Si4 0.956474 0.031047 0.390271
Si Si5 0.370359 0.432773 0.523511
Si Si6 0.111469 0.435273 0.202782
Si Si7 0.606330 0.761565 0.610903
Si Si8 0.179783 0.204500 0.438457
O O1 0.163576 0.739817 0.127671
O O2 0.170085 0.542470 0.200577
O O3 0.010585 0.727431 0.394270
O O4 0.360646 0.722356 0.068600
O O5 0.523931 0.859821 0.010754
O O6 0.699371 0.771860 0.740794
O O7 0.452259 0.936668 0.943285
O O8 0.834048 0.353030 0.004554
O O9 0.946490 0.139673 0.885694
O O10 0.596920 0.192763 0.188443
O O11 0.159050 0.057092 0.236341
O O12 0.970651 0.984081 0.296866
O O13 0.857655 0.934577 0.527668
O O14 0.394290 0.365372 0.426571
O O15 0.291980 0.356147 0.030477
O O16 0.713667 0.746711 0.588295
#
# Coordination Sequence:
#
# PCOD8124323 Si02
#       8
#     4   4   4   4   4   4   4   4
#     4  11  21  39  56  87 125 154 201 250 298 358
#     4  11  24  40  62  91 126 163 196 248 306 366
#     4  11  19  36  60  87 119 152 200 257 299 350
#     4  10  19  36  60  87 120 152 195 254 299 351
#     4  11  22  42  63  90 129 160 198 248 305 369
#     4  10  21  36  59  89 118 154 197 257 301 343
#     4  11  21  37  63  91 116 158 207 248 302 360
#     4  11  21  38  62  90 119 158 198 253 305 349
#
# _framework density 20.570644000000001
#
# number of rings (size 3 to 8) (size 9 to 14) (size 15 to 20)
#    0.000    1.250    6.250    1.500    0.000    1.500 
#    4.500    0.625    0.000    1.500    0.000    0.000 
#    0.000    0.000    0.000    0.000    0.000    0.000 
#
# Total GULP energy -396900.839697 kJ/mol
# GULP energy per Si atom -12403.151241 kJ/mol
# Density = 2.052382 g / cm^3
# Si number density = 20.570644 Si / 1000 Ang^3
#
#
#
# Elastic Constant Matrix: (Units=GPa)
#
#
# Indices 1 2 3 4 5 6 
#
# 1 21.7716 10.4726 3.7524 0.0000 -7.7422 0.0000
# 2 10.4726 86.8878 25.2700 0.0000 -8.8545 0.0000
# 3 3.7524 25.2700 144.5086 0.0000 -16.8374 0.0000
# 4 0.0000 0.0000 0.0000 23.7165 0.0000 -10.8741
# 5 -7.7422 -8.8545 -16.8374 0.0000 23.5960 0.0000
# 6 0.0000 0.0000 0.0000 -10.8741 0.0000 24.4670
#
#
#
# Elastic Compliance Matrix: (Units=1/GPa)
#
#
# Indices 1 2 3 4 5 6 
#
# 1 0.054197 -0.005242 0.001475 0.000000 0.016868 0.000000
# 2 -0.005242 0.012875 -0.001912 0.000000 0.001747 0.000000
# 3 0.001475 -0.001912 0.007841 0.000000 0.005361 0.000000
# 4 0.000000 0.000000 0.000000 0.052956 0.000000 0.023536
# 5 0.016868 0.001747 0.005361 0.000000 0.052396 0.000000
# 6 0.000000 0.000000 0.000000 0.023536 0.000000 0.051332
#
#
# Mechanical properties :
#
#
# Convention : Reuss Voigt Hill
#
# Bulk Modulus (GPa) = 15.73452 36.90645 26.32048
# Shear Modulus (GPa) = 18.92933 28.60075 23.76504
#
# Velocity S-wave (km/s) = 3.03679 3.73281 3.40264
# Velocity P-wave (km/s) = 4.46786 6.04638 5.31604
#
# Compressibility (1/GPa) = 0.06355455
#
# Stress axis : x y z
#
# Youngs Moduli (GPa) = 18.45106 77.66986 127.53973
#
# Poissons Ratio (x) = 0.40717 -0.18809
# Poissons Ratio (y) = 0.09673 0.24382
# Poissons Ratio (z) = -0.02721 0.14848
#
# Static dielectric constant tensor:
#      x y z
#    x 3.342120 0.000000 -0.246670 
#    y 0.000000 3.884540 0.000000 
#    z -0.246670 0.000000 3.764700 
# 
# 
# High freq. dielectric constant tensor:
#      x y z
#    x 1.765950 0.000000 -0.021270 
#    y 0.000000 1.802930 0.000000 
#    z -0.021270 0.000000 1.814750 
# 
# From -- ./inp_files/69912.got.cif
#   From: 2010.03.12/outbox.cif.g09.slc.cpg/sg14_35_cif.got.tgz:69912.got - 2010.03.31 13:35:05.
