data_PCOD8124675
_publ_section_title
;
Structure prediction by ZEFSAII (Michael W. Deem and Ramdas Pophale) SiO2 
 PCOD8124675
Probable space group: P 21/C
;
_chemical_formula_sum "Si O2"
_cell_formula_units_Z 32
_cell_length_a 21.746398
_cell_length_b 9.396001
_cell_length_c 14.177894
_cell_angle_alpha 90.000000
_cell_angle_beta 29.806671
_cell_angle_gamma 90.000000
_cell_volume 1440.005086
_symmetry_space_group_name_H-M "P 21/C"
_symmetry_group_IT_number 14
_symmetry_cell_setting 'monoclinic'
loop_
_space_group_symop_operation_xyz
x,y,z
-x,1/2+y,1/2-z
-x,-y,-z
x,1/2-y,1/2+z
loop_
_atom_site_type_symbol
_atom_site_label
_atom_site_fract_x
_atom_site_fract_y
_atom_site_fract_z
Si Si1 0.249234 0.374991 0.791461
Si Si2 0.248186 0.649103 0.269807
Si Si3 0.997570 0.202861 0.426576
Si Si4 0.764390 0.867342 0.328372
Si Si5 0.646638 0.099905 0.973060
Si Si6 0.275080 0.698663 0.435934
Si Si7 0.371936 0.479023 0.813155
Si Si8 0.971839 0.101472 0.665739
O O1 0.295436 0.243918 0.665648
O O2 0.248264 0.511306 0.722788
O O3 0.334728 0.394825 0.768296
O O4 0.109281 0.351171 0.014133
O O5 0.212816 0.507956 0.261971
O O6 0.315147 0.629446 0.282393
O O7 0.118503 0.723824 0.468956
O O8 0.342852 0.738898 0.078704
O O9 0.107534 0.314691 0.296969
O O10 0.944189 0.146186 0.596023
O O11 0.045190 0.069542 0.300520
O O12 0.670431 0.892338 0.538817
O O13 0.665437 0.102204 0.060703
O O14 0.519725 0.020169 0.117391
O O15 0.126130 0.687666 0.641187
O O16 0.317167 0.862492 0.385304
#
# Coordination Sequence:
#
# PCOD8124675 Si02
#       8
#     4   4   4   4   4   4   4   4
#     4  11  25  47  74 105 145 193 235 291 364 421
#     4  12  24  45  69 106 143 188 232 300 347 420
#     4  10  19  41  69  99 149 184 220 287 362 415
#     4  11  26  41  68 110 147 179 240 300 351 411
#     4  12  25  48  73  96 144 193 244 282 352 429
#     4  12  25  44  74 104 138 187 241 290 360 411
#     4  12  27  46  74 102 142 197 237 287 357 433
#     4  10  19  41  72 105 138 181 234 290 347 430
#
# _framework density 22.222144
#
# number of rings (size 3 to 8) (size 9 to 14) (size 15 to 20)
#    0.000    0.750    5.000    2.250    3.500    3.000 
#    2.250    1.250    0.000    0.000    0.000    0.000 
#    0.000    0.000    0.000    0.000    0.000    0.000 
#
# Total GULP energy -396816.754328 kJ/mol
# GULP energy per Si atom -12400.523573 kJ/mol
# Density = 2.217157 g / cm^3
# Si number density = 22.222144 Si / 1000 Ang^3
#
#
#
# Elastic Constant Matrix: (Units=GPa)
#
#
# Indices 1 2 3 4 5 6 
#
# 1 111.1647 23.4429 39.1151 0.0000 3.0487 0.0000
# 2 23.4429 99.1004 31.4013 0.0000 -5.0034 0.0000
# 3 39.1151 31.4013 73.8081 0.0000 -4.0794 0.0000
# 4 0.0000 0.0000 0.0000 33.9318 0.0000 2.3908
# 5 3.0487 -5.0034 -4.0794 0.0000 25.2684 0.0000
# 6 0.0000 0.0000 0.0000 2.3908 0.0000 29.6299
#
#
#
# Elastic Compliance Matrix: (Units=1/GPa)
#
#
# Indices 1 2 3 4 5 6 
#
# 1 0.011275 -0.000989 -0.005691 0.000000 -0.002475 0.000000
# 2 -0.000989 0.011808 -0.004403 0.000000 0.001747 0.000000
# 3 -0.005691 -0.004403 0.018594 0.000000 0.002817 0.000000
# 4 0.000000 0.000000 0.000000 0.029639 0.000000 -0.002392
# 5 -0.002475 0.001747 0.002817 0.000000 0.040674 0.000000
# 6 0.000000 0.000000 0.000000 -0.002392 0.000000 0.033943
#
#
# Mechanical properties :
#
#
# Convention : Reuss Voigt Hill
#
# Bulk Modulus (GPa) = 51.25521 52.44352 51.84937
# Shear Modulus (GPa) = 28.63652 30.44028 29.53840
#
# Velocity S-wave (km/s) = 3.59367 3.70512 3.64982
# Velocity P-wave (km/s) = 6.35093 6.47725 6.41440
#
# Compressibility (1/GPa) = 0.01951021
#
# Stress axis : x y z
#
# Youngs Moduli (GPa) = 88.69517 84.68803 53.78161
#
# Poissons Ratio (x) = 0.08373 0.30608
# Poissons Ratio (y) = 0.08769 0.23681
# Poissons Ratio (z) = 0.50478 0.37290
#
# Static dielectric constant tensor:
#      x y z
#    x 4.013130 0.000000 0.088990 
#    y 0.000000 4.045580 0.000000 
#    z 0.088990 0.000000 3.870910 
# 
# 
# High freq. dielectric constant tensor:
#      x y z
#    x 1.884610 0.000000 0.004400 
#    y 0.000000 1.870520 0.000000 
#    z 0.004400 0.000000 1.866960 
# 
# From -- ./inp_files/51337.got.cif
#   From: 2010.03.12/outbox.cif.g09.slc.cpg/sg14_26_cif.got.tgz:51337.got - 2010.03.31 13:35:05.
