data_PCOD8124745
_publ_section_title
;
Structure prediction by ZEFSAII (Michael W. Deem and Ramdas Pophale) SiO2 
 PCOD8124745
Probable space group: P 21/C
;
_chemical_formula_sum "Si O2"
_cell_formula_units_Z 24
_cell_length_a 8.757101
_cell_length_b 18.228715
_cell_length_c 7.896022
_cell_angle_alpha 90.000000
_cell_angle_beta 111.350032
_cell_angle_gamma 90.000000
_cell_volume 1173.947623
_symmetry_space_group_name_H-M "P 21/C"
_symmetry_group_IT_number 14
_symmetry_cell_setting 'monoclinic'
loop_
_space_group_symop_operation_xyz
x,y,z
-x,1/2+y,1/2-z
-x,-y,-z
x,1/2-y,1/2+z
loop_
_atom_site_type_symbol
_atom_site_label
_atom_site_fract_x
_atom_site_fract_y
_atom_site_fract_z
Si Si1 0.275121 0.935222 0.390481
Si Si2 0.610820 0.893996 0.124237
Si Si3 0.459799 0.035851 0.242627
Si Si4 0.316567 0.816535 0.122674
Si Si5 0.887222 0.285641 0.762612
Si Si6 0.026616 0.354635 0.131756
O O1 0.395630 0.923205 0.598453
O O2 0.307881 0.872574 0.270143
O O3 0.088071 0.925724 0.376951
O O4 0.314067 0.013235 0.315547
O O5 0.498979 0.821878 0.116579
O O6 0.789912 0.879876 0.265874
O O7 0.533149 0.963674 0.185244
O O8 0.616326 0.908760 0.925076
O O9 0.268937 0.737287 0.180986
O O10 0.183215 0.834116 0.920438
O O11 0.983439 0.213818 0.735427
O O12 0.009633 0.333402 0.926724
#
# Coordination Sequence:
#
# PCOD8124745 Si02
#       6
#     4   4   4   4   4   4
#     4   9  18  35  54  73 101 137 169 204 252 300
#     4  10  20  33  53  79 103 132 171 213 254 300
#     4   9  19  36  53  74 105 137 172 205 249 313
#     4   9  18  34  54  72  98 137 168 201 254 308
#     4   9  19  36  53  72 102 134 169 209 253 307
#     4  10  20  34  53  78 103 130 169 215 256 292
#
# _framework density 20.443840999999999
#
# number of rings (size 3 to 8) (size 9 to 14) (size 15 to 20)
#    0.000    2.667    0.000    1.000    0.000    2.667 
#    0.000   15.000    0.000    0.000    0.000    0.000 
#    0.000    0.000    0.000    0.000    0.000    0.000 
#
# Total GULP energy -297416.469805 kJ/mol
# GULP energy per Si atom -12392.352909 kJ/mol
# Density = 2.039731 g / cm^3
# Si number density = 20.443841 Si / 1000 Ang^3
#
#
#
# Elastic Constant Matrix: (Units=GPa)
#
#
# Indices 1 2 3 4 5 6 
#
# 1 37.4600 0.8487 18.7121 0.0000 12.7472 0.0000
# 2 0.8487 18.3997 14.9599 0.0000 3.3975 0.0000
# 3 18.7121 14.9599 141.2105 0.0000 -2.2844 0.0000
# 4 0.0000 0.0000 0.0000 36.8999 0.0000 2.5016
# 5 12.7472 3.3975 -2.2844 0.0000 35.9864 0.0000
# 6 0.0000 0.0000 0.0000 2.5016 0.0000 18.7239
#
#
#
# Elastic Compliance Matrix: (Units=1/GPa)
#
#
# Indices 1 2 3 4 5 6 
#
# 1 0.033471 0.004996 -0.005169 0.000000 -0.012656 0.000000
# 2 0.004996 0.061549 -0.007313 0.000000 -0.008045 0.000000
# 3 -0.005169 -0.007313 0.008591 0.000000 0.003067 0.000000
# 4 0.000000 0.000000 0.000000 0.027348 0.000000 -0.003654
# 5 -0.012656 -0.008045 0.003067 0.000000 0.033225 0.000000
# 6 0.000000 0.000000 0.000000 -0.003654 0.000000 0.053896
#
#
# Mechanical properties :
#
#
# Convention : Reuss Voigt Hill
#
# Bulk Modulus (GPa) = 11.28171 29.56795 20.42483
# Shear Modulus (GPa) = 19.04046 29.15869 24.09958
#
# Velocity S-wave (km/s) = 3.05512 3.78071 3.43712
# Velocity P-wave (km/s) = 4.23974 5.79248 5.07583
#
# Compressibility (1/GPa) = 0.08863902
#
# Stress axis : x y z
#
# Youngs Moduli (GPa) = 29.87681 16.24714 116.40158
#
# Poissons Ratio (x) = -0.08117 0.60171
# Poissons Ratio (y) = -0.14927 0.85122
# Poissons Ratio (z) = 0.15444 0.11881
#
# Static dielectric constant tensor:
#      x y z
#    x 3.932520 0.000000 -0.261390 
#    y 0.000000 3.698480 0.000000 
#    z -0.261390 0.000000 3.928440 
# 
# 
# High freq. dielectric constant tensor:
#      x y z
#    x 1.788870 0.000000 -0.017990 
#    y 0.000000 1.767790 0.000000 
#    z -0.017990 0.000000 1.819240 
# 
# From -- ./inp_files/9043.got.cif
#   From: 2010.03.12/outbox.cif.g09.slc.cpg/sg14_5_cif.got.tgz:9043.got - 2010.03.31 13:35:05.
