data_PCOD8124832
_publ_section_title
;
Structure prediction by ZEFSAII (Michael W. Deem and Ramdas Pophale) SiO2 
 PCOD8124832
Probable space group: P 21/C
;
_chemical_formula_sum "Si O2"
_cell_formula_units_Z 24
_cell_length_a 20.643132
_cell_length_b 4.910986
_cell_length_c 15.008847
_cell_angle_alpha 90.000000
_cell_angle_beta 135.584708
_cell_angle_gamma 90.000000
_cell_volume 1064.876072
_symmetry_space_group_name_H-M "P 21/C"
_symmetry_group_IT_number 14
_symmetry_cell_setting 'monoclinic'
loop_
_space_group_symop_operation_xyz
x,y,z
-x,1/2+y,1/2-z
-x,-y,-z
x,1/2-y,1/2+z
loop_
_atom_site_type_symbol
_atom_site_label
_atom_site_fract_x
_atom_site_fract_y
_atom_site_fract_z
Si Si1 0.685203 0.760710 0.538228
Si Si2 0.498940 0.547736 0.310127
Si Si3 0.306467 0.357009 0.157577
Si Si4 0.061011 0.650783 0.316883
Si Si5 0.196036 0.872955 0.103530
Si Si6 0.204291 0.760939 0.805946
O O1 0.579112 0.668930 0.453207
O O2 0.699550 0.732166 0.446806
O O3 0.756861 0.566310 0.659328
O O4 0.706859 0.066861 0.589825
O O5 0.536439 0.288058 0.290749
O O6 0.411661 0.447834 0.283649
O O7 0.240432 0.612770 0.100799
O O8 0.271193 0.116299 0.187432
O O9 0.111649 0.544030 0.456139
O O10 0.128556 0.774185 0.308167
O O11 0.008683 0.391460 0.224245
O O12 0.158686 0.803695 0.165430
#
# Coordination Sequence:
#
# PCOD8124832 Si02
#       6
#     4   4   4   4   4   4
#     4  11  20  41  66  95 136 181 221 266 320 388
#     4  10  20  34  63 102 131 180 234 268 311 378
#     4  11  20  41  66  95 136 181 221 266 320 388
#     4  12  26  46  72  96 128 170 218 276 342 404
#     4  12  25  43  68 100 133 172 217 273 333 397
#     4  12  25  43  68 100 133 172 217 273 333 397
#
# _framework density 22.537835999999999
#
# number of rings (size 3 to 8) (size 9 to 14) (size 15 to 20)
#    0.000    0.667    3.333    7.000    0.000    1.333 
#    0.000    5.000    0.000    0.000    0.000    0.000 
#    0.000    0.000    0.000    0.000    0.000    0.000 
#
# Total GULP energy -297653.622463 kJ/mol
# GULP energy per Si atom -12402.234269 kJ/mol
# Density = 2.248654 g / cm^3
# Si number density = 22.537836 Si / 1000 Ang^3
#
#
#
# Elastic Constant Matrix: (Units=GPa)
#
#
# Indices 1 2 3 4 5 6 
#
# 1 59.3340 17.8590 57.0652 0.0000 3.6568 0.0000
# 2 17.8590 112.4763 14.4914 0.0000 11.5251 0.0000
# 3 57.0652 14.4914 92.9113 0.0000 7.6455 0.0000
# 4 0.0000 0.0000 0.0000 36.2954 0.0000 10.0343
# 5 3.6568 11.5251 7.6455 0.0000 15.7707 0.0000
# 6 0.0000 0.0000 0.0000 10.0343 0.0000 35.2647
#
#
#
# Elastic Compliance Matrix: (Units=1/GPa)
#
#
# Indices 1 2 3 4 5 6 
#
# 1 0.042904 -0.004021 -0.026192 0.000000 0.005688 0.000000
# 2 -0.004021 0.010070 0.001487 0.000000 -0.007148 0.000000
# 3 -0.026192 0.001487 0.027297 0.000000 -0.008247 0.000000
# 4 0.000000 0.000000 0.000000 0.029904 0.000000 -0.008509
# 5 0.005688 -0.007148 -0.008247 0.000000 0.071311 0.000000
# 6 0.000000 0.000000 0.000000 -0.008509 0.000000 0.030778
#
#
# Mechanical properties :
#
#
# Convention : Reuss Voigt Hill
#
# Bulk Modulus (GPa) = 43.82307 49.28364 46.55336
# Shear Modulus (GPa) = 18.02961 29.15323 23.59142
#
# Velocity S-wave (km/s) = 2.83144 3.60046 3.23886
# Velocity P-wave (km/s) = 5.49326 6.26091 5.88960
#
# Compressibility (1/GPa) = 0.02281903
#
# Stress axis : x y z
#
# Youngs Moduli (GPa) = 23.30790 99.30509 36.63466
#
# Poissons Ratio (x) = 0.39926 0.95954
# Poissons Ratio (y) = 0.09371 -0.05447
# Poissons Ratio (z) = 0.61048 -0.14766
#
# Static dielectric constant tensor:
#      x y z
#    x 3.913750 0.000000 0.157660 
#    y 0.000000 4.216300 0.000000 
#    z 0.157660 0.000000 3.939050 
# 
# 
# High freq. dielectric constant tensor:
#      x y z
#    x 1.866510 0.000000 0.009700 
#    y 0.000000 1.911710 0.000000 
#    z 0.009700 0.000000 1.874130 
# 
# From -- ./inp_files/49744.got.cif
#   From: 2010.03.12/outbox.cif.g09.slc.cpg/sg14_25_cif.got.tgz:49744.got - 2010.03.31 13:35:05.
