data_PCOD8124029
_publ_section_title
;
Structure prediction by ZEFSAII (Michael W. Deem and Ramdas Pophale) SiO2 
 PCOD8124029
Probable space group: P 21/C
;
_chemical_formula_sum "Si O2"
_cell_formula_units_Z 32
_cell_length_a 8.212563
_cell_length_b 20.140804
_cell_length_c 10.195958
_cell_angle_alpha 90.000000
_cell_angle_beta 95.136189
_cell_angle_gamma 90.000000
_cell_volume 1679.717437
_symmetry_space_group_name_H-M "P 21/C"
_symmetry_group_IT_number 14
_symmetry_cell_setting 'monoclinic'
loop_
_space_group_symop_operation_xyz
x,y,z
-x,1/2+y,1/2-z
-x,-y,-z
x,1/2-y,1/2+z
loop_
_atom_site_type_symbol
_atom_site_label
_atom_site_fract_x
_atom_site_fract_y
_atom_site_fract_z
Si Si1 0.695798 0.384482 0.209112
Si Si2 0.097593 0.993430 0.374858
Si Si3 0.147359 0.221965 0.109531
Si Si4 0.302352 0.393884 0.773120
Si Si5 0.511726 0.490499 0.349391
Si Si6 0.197645 0.076469 0.738824
Si Si7 0.987250 0.692585 0.672648
Si Si8 0.372668 0.340235 0.050073
O O1 0.760075 0.437400 0.104403
O O2 0.628894 0.428384 0.325268
O O3 0.551228 0.342493 0.130817
O O4 0.834965 0.336245 0.276688
O O5 0.157040 0.063764 0.326939
O O6 0.000000 0.000000 0.500000
O O7 0.969842 0.963737 0.262955
O O8 0.226804 0.151815 0.154151
O O9 0.046907 0.247937 0.227942
O O10 0.295822 0.268948 0.075168
O O11 0.019005 0.216439 0.978879
O O12 0.435513 0.442104 0.718618
O O13 0.387441 0.350593 0.894462
O O14 0.500000 0.500000 0.500000
O O15 0.328870 0.474927 0.296718
O O16 0.164469 0.141040 0.825825
O O17 0.254374 0.101708 0.598499
#
# Coordination Sequence:
#
# PCOD8124029 Si02
#       8
#     4   4   4   4   4   4   4   4
#     4   9  22  38  60  84 119 156 186 251 302 349
#     4  10  19  33  59  93 121 144 192 241 299 357
#     4  11  22  40  61  83 118 162 205 245 287 354
#     4  11  22  36  62  91 117 158 199 242 296 363
#     4  10  21  37  58  88 120 150 193 243 305 359
#     4   9  19  35  60  84 119 154 179 247 299 350
#     4  10  21  41  61  84 117 159 201 244 298 349
#     4  10  20  39  58  86 118 155 203 238 295 348
#
# _framework density 19.050823000000001
#
# number of rings (size 3 to 8) (size 9 to 14) (size 15 to 20)
#    0.000    2.000    2.500    0.750    1.750    2.500 
#    2.250    5.000    0.000    0.000    0.000    0.000 
#    0.000    0.000    0.000    0.000    0.000    0.000 
#
# Total GULP energy -396649.322435 kJ/mol
# GULP energy per Si atom -12395.291326 kJ/mol
# Density = 1.900746 g / cm^3
# Si number density = 19.050823 Si / 1000 Ang^3
#
#
#
# Elastic Constant Matrix: (Units=GPa)
#
#
# Indices 1 2 3 4 5 6 
#
# 1 94.7234 38.6121 27.1564 0.0000 7.6452 0.0000
# 2 38.6121 84.1222 33.9815 0.0000 12.8478 0.0000
# 3 27.1564 33.9815 117.3168 0.0000 5.5068 0.0000
# 4 0.0000 0.0000 0.0000 23.1343 0.0000 4.5878
# 5 7.6452 12.8478 5.5068 0.0000 24.6620 0.0000
# 6 0.0000 0.0000 0.0000 4.5878 0.0000 30.4063
#
#
#
# Elastic Compliance Matrix: (Units=1/GPa)
#
#
# Indices 1 2 3 4 5 6 
#
# 1 0.013231 -0.005325 -0.001473 0.000000 -0.000998 0.000000
# 2 -0.005325 0.016617 -0.003286 0.000000 -0.006272 0.000000
# 3 -0.001473 -0.003286 0.009818 0.000000 -0.000024 0.000000
# 4 0.000000 0.000000 0.000000 0.044559 0.000000 -0.006723
# 5 -0.000998 -0.006272 -0.000024 0.000000 0.044130 0.000000
# 6 0.000000 0.000000 0.000000 -0.006723 0.000000 0.033902
#
#
# Mechanical properties :
#
#
# Convention : Reuss Voigt Hill
#
# Bulk Modulus (GPa) = 51.29161 55.07361 53.18261
# Shear Modulus (GPa) = 26.46535 28.73467 27.60001
#
# Velocity S-wave (km/s) = 3.73124 3.88792 3.81038
# Velocity P-wave (km/s) = 6.74869 7.00900 6.88008
#
# Compressibility (1/GPa) = 0.01949637
#
# Stress axis : x y z
#
# Youngs Moduli (GPa) = 75.58141 60.17859 101.85460
#
# Poissons Ratio (x) = 0.32047 0.15006
# Poissons Ratio (y) = 0.40250 0.33471
# Poissons Ratio (z) = 0.11135 0.19776
#
# Static dielectric constant tensor:
#      x y z
#    x 3.675900 0.000000 -0.098540 
#    y 0.000000 3.693830 0.000000 
#    z -0.098540 0.000000 3.488840 
# 
# 
# High freq. dielectric constant tensor:
#      x y z
#    x 1.739140 0.000000 -0.004890 
#    y 0.000000 1.742350 0.000000 
#    z -0.004890 0.000000 1.737340 
# 
# From -- ./inp_files/10228.got.cif
#   From: 2010.03.12/outbox.cif.g09.slc.cpg/sg14_6_cif.got.tgz:10228.got - 2010.03.31 13:35:05.
