data_PCOD8124542
_publ_section_title
;
Structure prediction by ZEFSAII (Michael W. Deem and Ramdas Pophale) SiO2 
 PCOD8124542
Probable space group: P 21/C
;
_chemical_formula_sum "Si O2"
_cell_formula_units_Z 32
_cell_length_a 15.655706
_cell_length_b 11.279945
_cell_length_c 18.741275
_cell_angle_alpha 90.000000
_cell_angle_beta 151.603720
_cell_angle_gamma 90.000000
_cell_volume 1573.948692
_symmetry_space_group_name_H-M "P 21/C"
_symmetry_group_IT_number 14
_symmetry_cell_setting 'monoclinic'
loop_
_space_group_symop_operation_xyz
x,y,z
-x,1/2+y,1/2-z
-x,-y,-z
x,1/2-y,1/2+z
loop_
_atom_site_type_symbol
_atom_site_label
_atom_site_fract_x
_atom_site_fract_y
_atom_site_fract_z
Si Si1 0.384572 0.883468 0.416510
Si Si2 0.629427 0.760430 0.488928
Si Si3 0.014046 0.664763 0.320934
Si Si4 0.309264 0.185510 0.166119
Si Si5 0.296472 0.473150 0.530293
Si Si6 0.701910 0.139966 0.482671
Si Si7 0.379153 0.406822 0.150397
Si Si8 0.864939 0.954924 0.844450
O O1 0.501643 0.780213 0.464186
O O2 0.322379 0.852177 0.449872
O O3 0.500000 0.000000 0.500000
O O4 0.211632 0.923002 0.244287
O O5 0.642388 0.618691 0.486500
O O6 0.540540 0.825105 0.355041
O O7 0.829250 0.817498 0.642286
O O8 0.143137 0.559858 0.384615
O O9 0.121280 0.786874 0.405332
O O10 0.965810 0.629814 0.364971
O O11 0.216454 0.100643 0.038760
O O12 0.525122 0.190188 0.314205
O O13 0.250447 0.321961 0.105574
O O14 0.277446 0.133761 0.221629
O O15 0.463506 0.548025 0.682499
O O16 0.733621 0.009856 0.471939
O O17 0.000000 0.000000 0.000000
#
# Coordination Sequence:
#
# PCOD8124542 Si02
#       8
#     4   4   4   4   4   4   4   4
#     4  12  21  41  64  90 119 169 214 263 306 383
#     4  11  24  38  66  94 130 162 220 264 321 376
#     4  12  24  39  62  98 130 167 208 274 321 375
#     4  10  19  38  64  91 123 161 211 265 313 374
#     4  10  22  38  61  96 124 163 212 263 318 379
#     4  11  22  37  64  92 126 166 212 258 322 377
#     4  10  20  39  64  91 123 167 207 261 318 384
#     4  12  24  38  67  95 126 158 223 268 312 374
#
# _framework density 20.331032
#
# number of rings (size 3 to 8) (size 9 to 14) (size 15 to 20)
#    0.000    1.000    6.250    0.750    3.500    0.000 
#    0.000    1.250    0.000    0.000    0.000    0.000 
#    0.000    0.000    0.000    0.000    0.000    0.000 
#
# Total GULP energy -396490.781756 kJ/mol
# GULP energy per Si atom -12390.336930 kJ/mol
# Density = 2.028476 g / cm^3
# Si number density = 20.331032 Si / 1000 Ang^3
#
#
#
# Elastic Constant Matrix: (Units=GPa)
#
#
# Indices 1 2 3 4 5 6 
#
# 1 55.0695 36.0275 13.7781 0.0000 0.1542 0.0000
# 2 36.0275 128.4245 30.7062 0.0000 0.5085 0.0000
# 3 13.7781 30.7062 97.5282 0.0000 -4.7974 0.0000
# 4 0.0000 0.0000 0.0000 34.5755 0.0000 -3.9727
# 5 0.1542 0.5085 -4.7974 0.0000 24.5474 0.0000
# 6 0.0000 0.0000 0.0000 -3.9727 0.0000 37.7252
#
#
#
# Elastic Compliance Matrix: (Units=1/GPa)
#
#
# Indices 1 2 3 4 5 6 
#
# 1 0.022390 -0.005970 -0.001297 0.000000 -0.000270 0.000000
# 2 -0.005970 0.010024 -0.002344 0.000000 -0.000628 0.000000
# 3 -0.001297 -0.002344 0.011286 0.000000 0.002262 0.000000
# 4 0.000000 0.000000 0.000000 0.029276 0.000000 0.003083
# 5 -0.000270 -0.000628 0.002262 0.000000 0.041194 0.000000
# 6 0.000000 0.000000 0.000000 0.003083 0.000000 0.026832
#
#
# Mechanical properties :
#
#
# Convention : Reuss Voigt Hill
#
# Bulk Modulus (GPa) = 40.85103 49.11620 44.98361
# Shear Modulus (GPa) = 29.69416 32.73696 31.21556
#
# Velocity S-wave (km/s) = 3.82584 4.01708 3.92262
# Velocity P-wave (km/s) = 6.29703 6.76214 6.53373
#
# Compressibility (1/GPa) = 0.02447919
#
# Stress axis : x y z
#
# Youngs Moduli (GPa) = 44.66331 99.75764 88.60692
#
# Poissons Ratio (x) = 0.59555 0.11490
# Poissons Ratio (y) = 0.26664 0.20766
# Poissons Ratio (z) = 0.05792 0.23379
#
# Static dielectric constant tensor:
#      x y z
#    x 4.046090 0.000000 0.369050 
#    y 0.000000 3.671110 0.000000 
#    z 0.369050 0.000000 3.635100 
# 
# 
# High freq. dielectric constant tensor:
#      x y z
#    x 1.769360 0.000000 -0.016220 
#    y 0.000000 1.796610 0.000000 
#    z -0.016220 0.000000 1.801790 
# 
# From -- ./inp_files/59486.got.cif
#   From: 2010.03.12/outbox.cif.g09.slc.cpg/sg14_30_cif.got.tgz:59486.got - 2010.03.31 13:35:05.
