data_PCOD8124906
_publ_section_title
;
Structure prediction by ZEFSAII (Michael W. Deem and Ramdas Pophale) SiO2 
 PCOD8124906
Probable space group: P 21/C
;
_chemical_formula_sum "Si O2"
_cell_formula_units_Z 32
_cell_length_a 25.391388
_cell_length_b 5.109340
_cell_length_c 17.161841
_cell_angle_alpha 90.000000
_cell_angle_beta 43.283024
_cell_angle_gamma 90.000000
_cell_volume 1526.467754
_symmetry_space_group_name_H-M "P 21/C"
_symmetry_group_IT_number 14
_symmetry_cell_setting 'monoclinic'
loop_
_space_group_symop_operation_xyz
x,y,z
-x,1/2+y,1/2-z
-x,-y,-z
x,1/2-y,1/2+z
loop_
_atom_site_type_symbol
_atom_site_label
_atom_site_fract_x
_atom_site_fract_y
_atom_site_fract_z
Si Si1 0.725759 0.039790 0.357666
Si Si2 0.179996 0.037095 0.597495
Si Si3 0.410183 0.985203 0.802983
Si Si4 0.238308 0.456412 0.776073
Si Si5 0.735440 0.642403 0.614358
Si Si6 0.419550 0.485624 0.896229
Si Si7 0.012824 0.388056 0.285440
Si Si8 0.138554 0.754906 0.985992
O O1 0.722551 0.296682 0.307933
O O2 0.637459 0.957056 0.469235
O O3 0.770591 0.108053 0.389410
O O4 0.768531 0.790303 0.273985
O O5 0.232002 0.266753 0.504538
O O6 0.100445 0.143277 0.721567
O O7 0.156741 0.842172 0.553660
O O8 0.339823 0.962726 0.817833
O O9 0.402388 0.268519 0.850265
O O10 0.492046 0.961697 0.670251
O O11 0.403108 0.766275 0.876075
O O12 0.287006 0.378529 0.801827
O O13 0.154250 0.544014 0.900405
O O14 0.802116 0.492573 0.590693
O O15 0.997515 0.682968 0.273586
O O16 0.951231 0.334349 0.420961
#
# Coordination Sequence:
#
# PCOD8124906 Si02
#       8
#     4   4   4   4   4   4   4   4
#     4  12  23  41  60  89 123 160 201 246 298 353
#     4  10  22  35  67  93 113 153 210 254 292 354
#     4  10  21  36  64  93 119 149 200 251 305 347
#     4  11  26  39  60  83 129 167 195 240 302 362
#     4  11  20  41  64  90 115 164 204 242 296 365
#     4  10  21  38  59  94 124 149 190 263 302 338
#     4  10  20  35  59  94 119 144 197 264 302 336
#     4  10  21  41  63  88 122 159 199 249 302 354
#
# _framework density 20.963431
#
# number of rings (size 3 to 8) (size 9 to 14) (size 15 to 20)
#    0.000    1.500    3.750    1.500    3.500    0.000 
#    0.000    2.500    0.000    0.000    0.000    0.000 
#    0.000    0.000    0.000    0.000    0.000    0.000 
#
# Total GULP energy -396605.161549 kJ/mol
# GULP energy per Si atom -12393.911298 kJ/mol
# Density = 2.091572 g / cm^3
# Si number density = 20.963431 Si / 1000 Ang^3
#
#
#
# Elastic Constant Matrix: (Units=GPa)
#
#
# Indices 1 2 3 4 5 6 
#
# 1 56.0094 20.1516 55.0804 0.0000 -14.5204 0.0000
# 2 20.1516 81.7979 34.8121 0.0000 -2.1863 0.0000
# 3 55.0804 34.8121 131.8444 0.0000 -11.9371 0.0000
# 4 0.0000 0.0000 0.0000 32.3418 0.0000 0.9027
# 5 -14.5204 -2.1863 -11.9371 0.0000 29.5145 0.0000
# 6 0.0000 0.0000 0.0000 0.9027 0.0000 23.1754
#
#
#
# Elastic Compliance Matrix: (Units=1/GPa)
#
#
# Indices 1 2 3 4 5 6 
#
# 1 0.034110 -0.002788 -0.012470 0.000000 0.011531 0.000000
# 2 -0.002788 0.014007 -0.002661 0.000000 -0.001410 0.000000
# 3 -0.012470 -0.002661 0.013415 0.000000 -0.000906 0.000000
# 4 0.000000 0.000000 0.000000 0.030953 0.000000 -0.001206
# 5 0.011531 -0.001410 -0.000906 0.000000 0.039084 0.000000
# 6 0.000000 0.000000 0.000000 -0.001206 0.000000 0.043196
#
#
# Mechanical properties :
#
#
# Convention : Reuss Voigt Hill
#
# Bulk Modulus (GPa) = 38.92077 54.41553 46.66815
# Shear Modulus (GPa) = 22.81362 27.64684 25.23023
#
# Velocity S-wave (km/s) = 3.30245 3.63549 3.47296
# Velocity P-wave (km/s) = 5.75742 6.60576 6.19613
#
# Compressibility (1/GPa) = 0.02569323
#
# Stress axis : x y z
#
# Youngs Moduli (GPa) = 29.31724 71.39259 74.54443
#
# Poissons Ratio (x) = 0.19904 0.92955
# Poissons Ratio (y) = 0.08174 0.19839
# Poissons Ratio (z) = 0.36558 0.19000
#
# Static dielectric constant tensor:
#      x y z
#    x 3.493840 0.000000 -0.284480 
#    y 0.000000 3.857870 0.000000 
#    z -0.284480 0.000000 4.224900 
# 
# 
# High freq. dielectric constant tensor:
#      x y z
#    x 1.775490 0.000000 -0.016510 
#    y 0.000000 1.833370 0.000000 
#    z -0.016510 0.000000 1.831070 
# 
# From -- ./inp_files/62092.got.cif
#   From: 2010.03.12/outbox.cif.g09.slc.cpg/sg14_32_cif.got.tgz:62092.got - 2010.03.31 13:35:05.
