data_PCOD8124798
_publ_section_title
;
Structure prediction by ZEFSAII (Michael W. Deem and Ramdas Pophale) SiO2 
 PCOD8124798
Probable space group: P 21/C
;
_chemical_formula_sum "Si O2"
_cell_formula_units_Z 32
_cell_length_a 7.467812
_cell_length_b 14.801741
_cell_length_c 14.002207
_cell_angle_alpha 90.000000
_cell_angle_beta 90.865403
_cell_angle_gamma 90.000000
_cell_volume 1547.580076
_symmetry_space_group_name_H-M "P 21/C"
_symmetry_group_IT_number 14
_symmetry_cell_setting 'monoclinic'
loop_
_space_group_symop_operation_xyz
x,y,z
-x,1/2+y,1/2-z
-x,-y,-z
x,1/2-y,1/2+z
loop_
_atom_site_type_symbol
_atom_site_label
_atom_site_fract_x
_atom_site_fract_y
_atom_site_fract_z
Si Si1 0.970750 0.891105 0.587346
Si Si2 0.945482 0.451602 0.315354
Si Si3 0.461221 0.510326 0.655396
Si Si4 0.126459 0.577717 0.884971
Si Si5 0.436727 0.362005 0.497248
Si Si6 0.948512 0.801020 0.037223
Si Si7 0.727729 0.241342 0.096073
Si Si8 0.774221 0.414408 0.738794
O O1 0.006966 0.903733 0.475937
O O2 0.150192 0.903256 0.653347
O O3 0.902722 0.788316 0.600989
O O4 0.825046 0.969132 0.614843
O O5 0.740363 0.485595 0.308740
O O6 0.988980 0.405871 0.212945
O O7 0.967903 0.380600 0.399463
O O8 0.078814 0.536869 0.329660
O O9 0.487575 0.439825 0.570756
O O10 0.525436 0.606587 0.611638
O O11 0.596104 0.477818 0.740582
O O12 0.288471 0.650566 0.881790
O O13 0.232746 0.334854 0.511947
O O14 0.564139 0.277897 0.523492
O O15 0.085258 0.777480 0.954905
O O16 0.725741 0.183444 0.193707
#
# Coordination Sequence:
#
# PCOD8124798 Si02
#       8
#     4   4   4   4   4   4   4   4
#     4   9  20  39  59  79 109 155 200 237 275 324
#     4  11  20  34  59  86 113 151 187 226 289 345
#     4  10  20  34  55  88 119 143 179 228 290 348
#     4   9  20  39  58  77 109 154 199 234 270 327
#     4  10  20  34  55  88 119 143 178 231 289 350
#     4  11  20  34  59  86 115 149 186 230 286 342
#     4  10  20  36  58  84 116 147 183 232 292 338
#     4  10  20  36  58  84 117 145 181 237 288 339
#
# _framework density 20.677443
#
# number of rings (size 3 to 8) (size 9 to 14) (size 15 to 20)
#    0.000    2.000    2.500    1.500    0.000    1.000 
#    0.000   12.500    5.500    0.000    0.000    0.000 
#    0.000    0.000    0.000    0.000    0.000    0.000 
#
# Total GULP energy -396462.366112 kJ/mol
# GULP energy per Si atom -12389.448941 kJ/mol
# Density = 2.063038 g / cm^3
# Si number density = 20.677443 Si / 1000 Ang^3
#
#
#
# Elastic Constant Matrix: (Units=GPa)
#
#
# Indices 1 2 3 4 5 6 
#
# 1 98.4911 7.6079 5.9373 0.0000 11.1251 0.0000
# 2 7.6079 70.4801 7.7969 0.0000 8.0615 0.0000
# 3 5.9373 7.7969 62.6384 0.0000 10.3272 0.0000
# 4 0.0000 0.0000 0.0000 17.2869 0.0000 4.2056
# 5 11.1251 8.0615 10.3272 0.0000 21.5973 0.0000
# 6 0.0000 0.0000 0.0000 4.2056 0.0000 29.7044
#
#
#
# Elastic Compliance Matrix: (Units=1/GPa)
#
#
# Indices 1 2 3 4 5 6 
#
# 1 0.010801 -0.000549 -0.000078 0.000000 -0.005322 0.000000
# 2 -0.000549 0.014908 -0.001013 0.000000 -0.004798 0.000000
# 3 -0.000078 -0.001013 0.017401 0.000000 -0.007902 0.000000
# 4 0.000000 0.000000 0.000000 0.059911 0.000000 -0.008482
# 5 -0.005322 -0.004798 -0.007902 0.000000 0.054613 0.000000
# 6 0.000000 0.000000 0.000000 -0.008482 0.000000 0.034866
#
#
# Mechanical properties :
#
#
# Convention : Reuss Voigt Hill
#
# Bulk Modulus (GPa) = 25.10542 30.47707 27.79125
# Shear Modulus (GPa) = 23.91693 27.73555 25.82624
#
# Velocity S-wave (km/s) = 3.40467 3.66641 3.53796
# Velocity P-wave (km/s) = 5.25581 5.71793 5.49173
#
# Compressibility (1/GPa) = 0.03983204
#
# Stress axis : x y z
#
# Youngs Moduli (GPa) = 92.58044 67.07612 57.46796
#
# Poissons Ratio (x) = 0.03680 0.00449
# Poissons Ratio (y) = 0.05079 0.05820
# Poissons Ratio (z) = 0.00723 0.06793
#
# Static dielectric constant tensor:
#      x y z
#    x 3.433650 0.000000 0.172530 
#    y 0.000000 4.382110 0.000000 
#    z 0.172530 0.000000 3.718360 
# 
# 
# High freq. dielectric constant tensor:
#      x y z
#    x 1.775550 0.000000 0.012200 
#    y 0.000000 1.821070 0.000000 
#    z 0.012200 0.000000 1.806610 
# 
# From -- ./inp_files/40973.got.cif
#   From: 2010.03.12/outbox.cif.g09.slc.cpg/sg14_21_cif.got.tgz:40973.got - 2010.03.31 13:35:05.
