data_PCOD8124283
_publ_section_title
;
Structure prediction by ZEFSAII (Michael W. Deem and Ramdas Pophale) SiO2 
 PCOD8124283
Probable space group: P 21/C
;
_chemical_formula_sum "Si O2"
_cell_formula_units_Z 28
_cell_length_a 18.524148
_cell_length_b 15.503850
_cell_length_c 4.999116
_cell_angle_alpha 90.000000
_cell_angle_beta 105.656526
_cell_angle_gamma 90.000000
_cell_volume 1382.454205
_symmetry_space_group_name_H-M "P 21/C"
_symmetry_group_IT_number 14
_symmetry_cell_setting 'monoclinic'
loop_
_space_group_symop_operation_xyz
x,y,z
-x,1/2+y,1/2-z
-x,-y,-z
x,1/2-y,1/2+z
loop_
_atom_site_type_symbol
_atom_site_label
_atom_site_fract_x
_atom_site_fract_y
_atom_site_fract_z
Si Si1 0.914342 0.693205 0.698959
Si Si2 0.660479 0.690873 0.379776
Si Si3 0.789709 0.442378 0.038414
Si Si4 0.210291 0.057622 0.959000
Si Si5 0.085658 0.806795 0.370274
Si Si6 0.339521 0.690873 0.058819
Si Si7 0.500000 0.804839 0.612206
O O1 0.896802 0.730500 0.389322
O O2 0.862107 0.611804 0.703002
O O3 1.000000 0.661856 0.813797
O O4 0.670418 0.729749 0.684772
O O5 0.721555 0.618466 0.385822
O O6 0.577872 0.646125 0.260537
O O7 0.812748 0.500001 0.312744
O O8 0.862108 0.388196 0.021211
O O9 0.721555 0.381534 0.057286
O O10 0.763727 0.499999 0.763723
O O11 0.103197 0.730499 0.595714
O O12 0.329582 0.770252 0.843937
O O13 0.422127 0.646125 0.104793
O O14 0.500000 0.781424 0.298507
#
# Coordination Sequence:
#
# PCOD8124283 Si02
#       7
#     4   4   4   4   4   4   4
#     4  10  21  39  61  81 103 139 184 222 260 312
#     4  10  19  36  58  78 104 141 184 222 260 312
#     4  12  24  36  53  82 115 143 173 215 271 321
#     4  12  24  36  53  82 115 143 173 215 271 321
#     4  10  21  39  61  81 103 139 184 222 260 312
#     4  10  19  36  58  78 104 141 184 222 260 312
#     4   8  16  30  54  80  98 130 182 228 258 298
#
# _framework density 20.253836
#
# number of rings (size 3 to 8) (size 9 to 14) (size 15 to 20)
#    0.000    1.714    0.000    5.143    0.000    1.143 
#    0.000    1.429    0.000    0.000    0.000    0.000 
#    0.000    0.000    0.000    0.000    0.000    0.000 
#
# Total GULP energy -347231.772843 kJ/mol
# GULP energy per Si atom -12401.134744 kJ/mol
# Density = 2.020774 g / cm^3
# Si number density = 20.253836 Si / 1000 Ang^3
#
#
#
# Elastic Constant Matrix: (Units=GPa)
#
#
# Indices 1 2 3 4 5 6 
#
# 1 115.9126 45.2753 17.7524 0.0000 18.1625 0.0000
# 2 45.2753 61.8368 10.8152 0.0000 14.2197 0.0000
# 3 17.7524 10.8152 76.8505 0.0000 -2.0438 0.0000
# 4 0.0000 0.0000 0.0000 14.7144 0.0000 -5.9740
# 5 18.1625 14.2197 -2.0438 0.0000 35.4111 0.0000
# 6 0.0000 0.0000 0.0000 -5.9740 0.0000 0.2370
#
#
#
# Elastic Compliance Matrix: (Units=1/GPa)
#
#
# Indices 1 2 3 4 5 6 
#
# 1 0.012612 -0.008151 -0.001854 0.000000 -0.003303 0.000000
# 2 -0.008151 0.023662 -0.001591 0.000000 -0.005413 0.000000
# 3 -0.001854 -0.001591 0.013728 0.000000 0.002382 0.000000
# 4 0.000000 0.000000 0.000000 -0.007361 0.000000 -0.185525
# 5 -0.003303 -0.005413 0.002382 0.000000 0.032245 0.000000
# 6 0.000000 0.000000 0.000000 -0.185525 0.000000 -0.456965
#
#
# Mechanical properties :
#
#
# Convention : Reuss Voigt Hill
#
# Bulk Modulus (GPa) = 37.29877 44.69841 40.99859
# Shear Modulus (GPa) = -14.28778 22.12297 3.91759
#
# Velocity S-wave (km/s) = -2.65889 3.30856 1.39228
# Velocity P-wave (km/s) = 3.00490 6.05908 4.78236
#
# Compressibility (1/GPa) = 0.02681054
#
# Stress axis : x y z
#
# Youngs Moduli (GPa) = 79.28744 42.26126 72.84435
#
# Poissons Ratio (x) = 0.34445 0.13507
# Poissons Ratio (y) = 0.64624 0.11591
# Poissons Ratio (z) = 0.14702 0.06725
#
# Static dielectric constant tensor:
#      x y z
#    x 3.965050 0.000000 0.057250 
#    y 0.000000 3.224200 0.000000 
#    z 0.057250 0.000000 3.826320 
# 
# 
# High freq. dielectric constant tensor:
#      x y z
#    x 1.812910 0.000000 0.000300 
#    y 0.000000 1.745130 0.000000 
#    z 0.000300 0.000000 1.812170 
# 
# From -- ./inp_files/4140.got.cif
#   From: 2010.03.12/outbox.cif.g09.slc.cpg/sg14_3_cif.got.tgz:4140.got - 2010.03.31 13:35:05.
