data_PCOD8124827
_publ_section_title
;
Structure prediction by ZEFSAII (Michael W. Deem and Ramdas Pophale) SiO2 
 PCOD8124827
Probable space group: P 21/C
;
_chemical_formula_sum "Si O2"
_cell_formula_units_Z 24
_cell_length_a 10.580873
_cell_length_b 19.065192
_cell_length_c 5.326301
_cell_angle_alpha 90.000000
_cell_angle_beta 112.238014
_cell_angle_gamma 90.000000
_cell_volume 994.537075
_symmetry_space_group_name_H-M "P 21/C"
_symmetry_group_IT_number 14
_symmetry_cell_setting 'monoclinic'
loop_
_space_group_symop_operation_xyz
x,y,z
-x,1/2+y,1/2-z
-x,-y,-z
x,1/2-y,1/2+z
loop_
_atom_site_type_symbol
_atom_site_label
_atom_site_fract_x
_atom_site_fract_y
_atom_site_fract_z
Si Si1 0.721456 0.987951 0.619055
Si Si2 0.938554 0.091104 0.928746
Si Si3 0.227739 0.781639 0.281266
Si Si4 0.927530 0.573207 0.965246
Si Si5 0.527302 0.776692 0.977151
Si Si6 0.495399 0.435422 0.686020
O O1 0.642421 0.938587 0.754063
O O2 0.766524 0.940165 0.410338
O O3 0.867519 0.012802 0.856882
O O4 0.627956 0.053566 0.463431
O O5 0.803218 0.137386 0.789855
O O6 0.046874 0.110040 0.785039
O O7 0.004042 0.112167 0.244076
O O8 0.161340 0.760923 0.498646
O O9 0.389548 0.768653 0.416617
O O10 0.000000 0.500000 0.000000
O O11 0.607619 0.744472 0.795343
O O12 0.497098 0.859939 0.942407
O O13 0.500000 0.500000 0.500000
#
# Coordination Sequence:
#
# PCOD8124827 Si02
#       6
#     4   4   4   4   4   4
#     4  10  23  39  60  98 136 169 213 273 330 394
#     4  11  22  38  65  94 126 168 212 276 328 396
#     4  10  20  34  60  87 121 157 212 267 329 377
#     4  10  22  38  62  93 127 167 207 259 338 391
#     4  10  23  41  62  90 129 172 219 269 334 392
#     4  11  26  38  68  99 139 175 228 278 333 393
#
# _framework density 24.131830999999998
#
# number of rings (size 3 to 8) (size 9 to 14) (size 15 to 20)
#    0.000    1.667    0.000    5.000   16.333    0.000 
#    0.000    0.000    0.000    6.000    0.000    0.000 
#    0.000    0.000    0.000    0.000    0.000    0.000 
#
# Total GULP energy -297320.227404 kJ/mol
# GULP energy per Si atom -12388.342808 kJ/mol
# Density = 2.407691 g / cm^3
# Si number density = 24.131831 Si / 1000 Ang^3
#
#
#
# Elastic Constant Matrix: (Units=GPa)
#
#
# Indices 1 2 3 4 5 6 
#
# 1 122.5357 7.8756 31.6690 0.0000 -18.3428 0.0000
# 2 7.8756 43.1057 11.8551 0.0000 -10.5099 0.0000
# 3 31.6690 11.8551 136.8895 0.0000 -42.0725 0.0000
# 4 0.0000 0.0000 0.0000 36.1296 0.0000 -2.2193
# 5 -18.3428 -10.5099 -42.0725 0.0000 31.4872 0.0000
# 6 0.0000 0.0000 0.0000 -2.2193 0.0000 24.3296
#
#
#
# Elastic Compliance Matrix: (Units=1/GPa)
#
#
# Indices 1 2 3 4 5 6 
#
# 1 0.008999 -0.000443 -0.000811 0.000000 0.004011 0.000000
# 2 -0.000443 0.025314 0.000726 0.000000 0.009161 0.000000
# 3 -0.000811 0.000726 0.012487 0.000000 0.016455 0.000000
# 4 0.000000 0.000000 0.000000 0.027834 0.000000 0.002539
# 5 0.004011 0.009161 0.016455 0.000000 0.059141 0.000000
# 6 0.000000 0.000000 0.000000 0.002539 0.000000 0.041334
#
#
# Mechanical properties :
#
#
# Convention : Reuss Voigt Hill
#
# Bulk Modulus (GPa) = 21.86062 45.03671 33.44866
# Shear Modulus (GPa) = 26.12149 35.13137 30.62643
#
# Velocity S-wave (km/s) = 3.29363 3.81965 3.56635
# Velocity P-wave (km/s) = 4.85206 6.17707 5.55422
#
# Compressibility (1/GPa) = 0.04574435
#
# Stress axis : x y z
#
# Youngs Moduli (GPa) = 111.11885 39.50425 80.08110
#
# Poissons Ratio (x) = 0.01751 0.06492
# Poissons Ratio (y) = 0.04925 -0.05813
# Poissons Ratio (z) = 0.09009 -0.02868
#
# Static dielectric constant tensor:
#      x y z
#    x 10.052110 0.000000 -0.151260 
#    y 0.000000 3.664190 0.000000 
#    z -0.151260 0.000000 5.465650 
# 
# 
# High freq. dielectric constant tensor:
#      x y z
#    x 1.936760 0.000000 -0.025590 
#    y 0.000000 1.924630 0.000000 
#    z -0.025590 0.000000 1.977090 
# 
# From -- ./inp_files/2713.got.cif
#   From: 2010.03.12/outbox.cif.g09.slc.cpg/sg14_2_cif.got.tgz:2713.got - 2010.03.31 13:35:05.
