data_PCOD8124497
_publ_section_title
;
Structure prediction by ZEFSAII (Michael W. Deem and Ramdas Pophale) SiO2 
 PCOD8124497
Probable space group: P 21/C
;
_chemical_formula_sum "Si O2"
_cell_formula_units_Z 32
_cell_length_a 11.167944
_cell_length_b 13.850196
_cell_length_c 9.695482
_cell_angle_alpha 90.000000
_cell_angle_beta 84.107447
_cell_angle_gamma 90.000000
_cell_volume 1491.755778
_symmetry_space_group_name_H-M "P 21/C"
_symmetry_group_IT_number 14
_symmetry_cell_setting 'monoclinic'
loop_
_space_group_symop_operation_xyz
x,y,z
-x,1/2+y,1/2-z
-x,-y,-z
x,1/2-y,1/2+z
loop_
_atom_site_type_symbol
_atom_site_label
_atom_site_fract_x
_atom_site_fract_y
_atom_site_fract_z
Si Si1 0.221060 0.029859 0.423779
Si Si2 0.264502 0.766280 0.632734
Si Si3 0.258998 0.162157 0.826708
Si Si4 0.496984 0.844599 0.062809
Si Si5 0.570228 0.958205 0.803089
Si Si6 0.676311 0.470746 0.808418
Si Si7 0.862583 0.719149 0.934321
Si Si8 0.129354 0.827318 0.383868
O O1 0.300633 0.055346 0.281872
O O2 0.146538 0.124543 0.469412
O O3 0.312785 0.002890 0.534836
O O4 0.126811 0.942871 0.408217
O O5 0.400345 0.741387 0.568876
O O6 0.262114 0.866751 0.717659
O O7 0.183156 0.771595 0.507523
O O8 0.212461 0.685943 0.740317
O O9 0.396619 0.190447 0.847355
O O10 0.221994 0.216887 0.690586
O O11 0.255623 0.046135 0.801974
O O12 0.172083 0.189293 0.965439
O O13 0.427435 0.941130 0.115687
O O14 0.552303 0.866427 0.905812
O O15 0.464612 0.963255 0.703892
O O16 0.000246 0.720612 0.868187
#
# Coordination Sequence:
#
# PCOD8124497 Si02
#       8
#     4   4   4   4   4   4   4   4
#     4  10  21  38  63  90 124 170 208 258 318 372
#     4  11  22  40  65  93 127 167 206 259 320 376
#     4  10  24  43  62  93 126 161 213 264 318 372
#     4  10  22  37  63  94 129 158 203 266 319 381
#     4  10  19  38  59  92 129 162 203 255 320 377
#     4   9  21  38  61  91 133 164 206 257 319 385
#     4  11  24  42  64  87 125 169 215 262 308 374
#     4  11  23  42  63  91 124 167 217 256 309 378
#
# _framework density 21.451233999999999
#
# number of rings (size 3 to 8) (size 9 to 14) (size 15 to 20)
#    0.000    1.750    1.250    2.250    3.500    1.000 
#    0.000    0.625    0.000    0.000    0.000    0.000 
#    0.000    0.000    0.000    0.000    0.000    0.000 
#
# Total GULP energy -396832.614201 kJ/mol
# GULP energy per Si atom -12401.019194 kJ/mol
# Density = 2.140241 g / cm^3
# Si number density = 21.451234 Si / 1000 Ang^3
#
#
#
# Elastic Constant Matrix: (Units=GPa)
#
#
# Indices 1 2 3 4 5 6 
#
# 1 87.1230 38.2556 24.9172 0.0000 -2.3771 0.0000
# 2 38.2556 76.3483 40.0335 0.0000 2.1623 0.0000
# 3 24.9172 40.0335 80.1318 0.0000 -6.6449 0.0000
# 4 0.0000 0.0000 0.0000 34.2430 0.0000 -6.2809
# 5 -2.3771 2.1623 -6.6449 0.0000 31.7034 0.0000
# 6 0.0000 0.0000 0.0000 -6.2809 0.0000 27.3978
#
#
#
# Elastic Compliance Matrix: (Units=1/GPa)
#
#
# Indices 1 2 3 4 5 6 
#
# 1 0.014860 -0.006939 -0.001040 0.000000 0.001369 0.000000
# 2 -0.006939 0.021296 -0.008798 0.000000 -0.003817 0.000000
# 3 -0.001040 -0.008798 0.017547 0.000000 0.004200 0.000000
# 4 0.000000 0.000000 0.000000 0.030485 0.000000 0.006989
# 5 0.001369 -0.003817 0.004200 0.000000 0.032786 0.000000
# 6 0.000000 0.000000 0.000000 0.006989 0.000000 0.038101
#
#
# Mechanical properties :
#
#
# Convention : Reuss Voigt Hill
#
# Bulk Modulus (GPa) = 49.63418 50.00173 49.81796
# Shear Modulus (GPa) = 25.59555 28.02862 26.81208
#
# Velocity S-wave (km/s) = 3.45802 3.61864 3.53924
# Velocity P-wave (km/s) = 6.25557 6.38902 6.32265
#
# Compressibility (1/GPa) = 0.02014741
#
# Stress axis : x y z
#
# Youngs Moduli (GPa) = 67.29542 46.95649 56.99023
#
# Poissons Ratio (x) = 0.32583 0.05930
# Poissons Ratio (y) = 0.46696 0.50142
# Poissons Ratio (z) = 0.07002 0.41314
#
# Static dielectric constant tensor:
#      x y z
#    x 3.604880 0.000000 0.110150 
#    y 0.000000 3.898400 0.000000 
#    z 0.110150 0.000000 3.877030 
# 
# 
# High freq. dielectric constant tensor:
#      x y z
#    x 1.828460 0.000000 0.008410 
#    y 0.000000 1.839690 0.000000 
#    z 0.008410 0.000000 1.845030 
# 
# From -- ./inp_files/13339.got.cif
#   From: 2010.03.12/outbox.cif.g09.slc.cpg/sg14_7_cif.got.tgz:13339.got - 2010.03.31 13:35:05.
