data_PCOD8124685
_publ_section_title
;
Structure prediction by ZEFSAII (Michael W. Deem and Ramdas Pophale) SiO2 
 PCOD8124685
Probable space group: P 21/C
;
_chemical_formula_sum "Si O2"
_cell_formula_units_Z 20
_cell_length_a 11.364155
_cell_length_b 11.855574
_cell_length_c 14.803712
_cell_angle_alpha 90.000000
_cell_angle_beta 29.619429
_cell_angle_gamma 90.000000
_cell_volume 985.746716
_symmetry_space_group_name_H-M "P 21/C"
_symmetry_group_IT_number 14
_symmetry_cell_setting 'monoclinic'
loop_
_space_group_symop_operation_xyz
x,y,z
-x,1/2+y,1/2-z
-x,-y,-z
x,1/2-y,1/2+z
loop_
_atom_site_type_symbol
_atom_site_label
_atom_site_fract_x
_atom_site_fract_y
_atom_site_fract_z
Si Si1 0.978157 0.282337 0.640867
Si Si2 0.128297 0.884231 0.435521
Si Si3 0.080983 0.724077 0.620579
Si Si4 0.849117 0.519375 0.688631
Si Si5 0.462007 0.158777 0.719396
O O1 0.033063 0.249492 0.706612
O O2 0.227383 0.294064 0.422788
O O3 0.835354 0.186029 0.681523
O O4 0.816115 0.395812 0.753975
O O5 0.387619 0.911310 0.305679
O O6 0.980980 0.808240 0.608142
O O7 0.000000 0.000000 0.500000
O O8 0.004326 0.596676 0.651590
O O9 0.370401 0.738453 0.429079
O O10 0.600264 0.577207 0.824450
O O11 0.000000 0.500000 0.500000
#
# Coordination Sequence:
#
# PCOD8124685 Si02
#       5
#     4   4   4   4   4
#     4  11  23  40  64  90 120 162 204 244 302 364
#     4  10  23  41  58  93 126 150 203 259 291 357
#     4  10  23  39  61  92 117 157 204 244 303 355
#     4  10  19  42  63  86 121 159 207 246 291 372
#     4   9  20  41  62  86 120 162 192 253 301 344
#
# _framework density 20.289187999999999
#
# number of rings (size 3 to 8) (size 9 to 14) (size 15 to 20)
#    1.200    0.800    4.000    0.000    2.800    7.200 
#    0.000    1.000    0.000    0.000    0.000    0.000 
#    0.000    0.000    0.000    0.000    0.000    0.000 
#
# Total GULP energy -247773.943475 kJ/mol
# GULP energy per Si atom -12388.697174 kJ/mol
# Density = 2.024301 g / cm^3
# Si number density = 20.289188 Si / 1000 Ang^3
#
#
#
# Elastic Constant Matrix: (Units=GPa)
#
#
# Indices 1 2 3 4 5 6 
#
# 1 124.3511 71.8584 29.8662 0.0000 5.8720 0.0000
# 2 71.8584 147.6509 25.2601 0.0000 3.5208 0.0000
# 3 29.8662 25.2601 52.3413 0.0000 -2.2641 0.0000
# 4 0.0000 0.0000 0.0000 12.0470 0.0000 8.8725
# 5 5.8720 3.5208 -2.2641 0.0000 43.9153 0.0000
# 6 0.0000 0.0000 0.0000 8.8725 0.0000 36.5530
#
#
#
# Elastic Compliance Matrix: (Units=1/GPa)
#
#
# Indices 1 2 3 4 5 6 
#
# 1 0.012147 -0.005102 -0.004531 0.000000 -0.001449 0.000000
# 2 -0.005102 0.009552 -0.001706 0.000000 -0.000172 0.000000
# 3 -0.004531 -0.001706 0.022597 0.000000 0.001908 0.000000
# 4 0.000000 0.000000 0.000000 0.101078 0.000000 -0.024535
# 5 -0.001449 -0.000172 0.001908 0.000000 0.023077 0.000000
# 6 0.000000 0.000000 0.000000 -0.024535 0.000000 0.033313
#
#
# Mechanical properties :
#
#
# Convention : Reuss Voigt Hill
#
# Bulk Modulus (GPa) = 46.26046 64.25696 55.25871
# Shear Modulus (GPa) = 21.58459 31.66029 26.62244
#
# Velocity S-wave (km/s) = 3.26521 3.95454 3.62629
# Velocity P-wave (km/s) = 6.08814 7.25193 6.69537
#
# Compressibility (1/GPa) = 0.02161673
#
# Stress axis : x y z
#
# Youngs Moduli (GPa) = 82.32748 104.69486 44.25386
#
# Poissons Ratio (x) = 0.53412 0.20054
# Poissons Ratio (y) = 0.42001 0.07550
# Poissons Ratio (z) = 0.37307 0.17861
#
# Static dielectric constant tensor:
#      x y z
#    x 4.533800 0.000000 -0.154920 
#    y 0.000000 4.090200 0.000000 
#    z -0.154920 0.000000 3.303670 
# 
# 
# High freq. dielectric constant tensor:
#      x y z
#    x 1.806930 0.000000 0.005550 
#    y 0.000000 1.785010 0.000000 
#    z 0.005550 0.000000 1.761070 
# 
# From -- ./inp_files/44557.got.cif
#   From: 2010.03.12/outbox.cif.g09.slc.cpg/sg14_23_cif.got.tgz:44557.got - 2010.03.31 13:35:05.
