data_PCOD8124451
_publ_section_title
;
Structure prediction by ZEFSAII (Michael W. Deem and Ramdas Pophale) SiO2 
 PCOD8124451
Probable space group: P 21/C
;
_chemical_formula_sum "Si O2"
_cell_formula_units_Z 28
_cell_length_a 9.295968
_cell_length_b 9.907349
_cell_length_c 13.222523
_cell_angle_alpha 90.000000
_cell_angle_beta 106.173006
_cell_angle_gamma 90.000000
_cell_volume 1169.579854
_symmetry_space_group_name_H-M "P 21/C"
_symmetry_group_IT_number 14
_symmetry_cell_setting 'monoclinic'
loop_
_space_group_symop_operation_xyz
x,y,z
-x,1/2+y,1/2-z
-x,-y,-z
x,1/2-y,1/2+z
loop_
_atom_site_type_symbol
_atom_site_label
_atom_site_fract_x
_atom_site_fract_y
_atom_site_fract_z
Si Si1 0.730573 0.375398 0.048208
Si Si2 0.814237 0.529801 0.872651
Si Si3 0.921135 0.395735 0.582384
Si Si4 0.917706 0.903123 0.683843
Si Si5 0.334139 0.038746 0.858583
Si Si6 0.520410 0.799854 0.950456
Si Si7 0.852527 0.722664 0.502194
O O1 0.812807 0.231966 0.054160
O O2 0.807764 0.469488 0.148066
O O3 0.719418 0.450767 0.938672
O O4 0.560331 0.344832 0.051643
O O5 0.709737 0.587519 0.761776
O O6 0.909891 0.648246 0.946090
O O7 0.926058 0.425587 0.842427
O O8 0.810789 0.524664 0.588740
O O9 0.048480 0.377359 0.692788
O O10 0.027466 0.397927 0.500505
O O11 0.849323 0.765950 0.620674
O O12 0.453811 0.139271 0.931454
O O13 0.412194 0.893336 0.861891
O O14 0.681821 0.791352 0.928164
#
# Coordination Sequence:
#
# PCOD8124451 Si02
#       7
#     4   4   4   4   4   4   4
#     4  10  19  40  61  85 123 160 197 252 306 360
#     4  10  19  37  64  86 115 157 210 249 302 357
#     4  10  20  37  65  86 119 159 201 250 304 349
#     4  10  20  35  62  93 116 155 209 253 296 361
#     4   9  22  42  57  83 122 162 198 251 303 370
#     4  10  23  39  57  86 124 158 200 247 313 360
#     4  11  21  36  60  90 116 157 203 248 301 361
#
# _framework density 23.94022
#
# number of rings (size 3 to 8) (size 9 to 14) (size 15 to 20)
#    0.000    2.000    2.857    0.857    2.000    4.000 
#    2.571    0.000    0.000    0.000    0.000    0.000 
#    0.000    0.000    0.000    0.000    0.000    0.000 
#
# Total GULP energy -347118.101001 kJ/mol
# GULP energy per Si atom -12397.075036 kJ/mol
# Density = 2.388573 g / cm^3
# Si number density = 23.940220 Si / 1000 Ang^3
#
#
#
# Elastic Constant Matrix: (Units=GPa)
#
#
# Indices 1 2 3 4 5 6 
#
# 1 98.4408 23.2070 -0.2756 0.0000 7.3510 0.0000
# 2 23.2070 59.2964 -4.6743 0.0000 7.3294 0.0000
# 3 -0.2756 -4.6743 102.1887 0.0000 15.8615 0.0000
# 4 0.0000 0.0000 0.0000 26.3944 0.0000 10.4998
# 5 7.3510 7.3294 15.8615 0.0000 24.6433 0.0000
# 6 0.0000 0.0000 0.0000 10.4998 0.0000 38.1165
#
#
#
# Elastic Compliance Matrix: (Units=1/GPa)
#
#
# Indices 1 2 3 4 5 6 
#
# 1 0.011301 -0.004127 0.000194 0.000000 -0.002268 0.000000
# 2 -0.004127 0.019314 0.001747 0.000000 -0.005638 0.000000
# 3 0.000194 0.001747 0.011061 0.000000 -0.007697 0.000000
# 4 0.000000 0.000000 0.000000 0.042549 0.000000 -0.011721
# 5 -0.002268 -0.005638 -0.007697 0.000000 0.047887 0.000000
# 6 0.000000 0.000000 0.000000 -0.011721 0.000000 0.029464
#
#
# Mechanical properties :
#
#
# Convention : Reuss Voigt Hill
#
# Bulk Modulus (GPa) = 26.80649 32.93778 29.87214
# Shear Modulus (GPa) = 28.02945 33.94210 30.98578
#
# Velocity S-wave (km/s) = 3.42542 3.76943 3.60154
# Velocity P-wave (km/s) = 5.18327 5.72128 5.45891
#
# Compressibility (1/GPa) = 0.03730440
#
# Stress axis : x y z
#
# Youngs Moduli (GPa) = 88.48519 51.77482 90.40808
#
# Poissons Ratio (x) = 0.21369 -0.01752
# Poissons Ratio (y) = 0.36521 -0.15798
# Poissons Ratio (z) = -0.01715 -0.09047
#
# Static dielectric constant tensor:
#      x y z
#    x 4.325780 0.000000 0.102440 
#    y 0.000000 4.590260 0.000000 
#    z 0.102440 0.000000 4.321440 
# 
# 
# High freq. dielectric constant tensor:
#      x y z
#    x 1.948150 0.000000 0.007750 
#    y 0.000000 1.970400 0.000000 
#    z 0.007750 0.000000 1.936230 
# 
# From -- ./inp_files/40093.got.cif
#   From: 2010.03.12/outbox.cif.g09.slc.cpg/sg14_21_cif.got.tgz:40093.got - 2010.03.31 13:35:05.
