data_PCOD8124333
_publ_section_title
;
Structure prediction by ZEFSAII (Michael W. Deem and Ramdas Pophale) SiO2 
 PCOD8124333
Probable space group: P 21/C
;
_chemical_formula_sum "Si O2"
_cell_formula_units_Z 32
_cell_length_a 8.561428
_cell_length_b 22.663273
_cell_length_c 9.877071
_cell_angle_alpha 90.000000
_cell_angle_beta 57.888085
_cell_angle_gamma 90.000000
_cell_volume 1623.253201
_symmetry_space_group_name_H-M "P 21/C"
_symmetry_group_IT_number 14
_symmetry_cell_setting 'monoclinic'
loop_
_space_group_symop_operation_xyz
x,y,z
-x,1/2+y,1/2-z
-x,-y,-z
x,1/2-y,1/2+z
loop_
_atom_site_type_symbol
_atom_site_label
_atom_site_fract_x
_atom_site_fract_y
_atom_site_fract_z
Si Si1 0.007352 0.474608 0.846676
Si Si2 0.547764 0.621724 0.719587
Si Si3 0.276519 0.248378 0.900610
Si Si4 0.655983 0.907477 0.885503
Si Si5 0.764232 0.134363 0.425832
Si Si6 0.676853 0.543966 0.897162
Si Si7 0.910484 0.706126 0.267777
Si Si8 0.530349 0.629690 0.163644
O O1 0.926225 0.409782 0.886069
O O2 0.875002 0.511892 0.807422
O O3 0.219564 0.467115 0.695209
O O4 0.000000 0.500000 0.000000
O O5 0.624204 0.686432 0.660440
O O6 0.533950 0.588425 0.579801
O O7 0.668224 0.578501 0.758917
O O8 0.356127 0.633903 0.883045
O O9 0.156113 0.256535 0.825900
O O10 0.422640 0.300931 0.858527
O O11 0.126397 0.247933 0.088258
O O12 0.794601 0.853386 0.838090
O O13 0.517266 0.895685 0.822764
O O14 0.654831 0.118753 0.338301
O O15 0.869832 0.195875 0.350214
O O16 0.500000 0.500000 0.000000
O O17 0.686199 0.591406 0.015251
#
# Coordination Sequence:
#
# PCOD8124333 Si02
#       8
#     4   4   4   4   4   4   4   4
#     4  11  20  36  62  86 116 156 198 245 299 358
#     4  10  21  38  60  87 120 157 200 248 300 354
#     4  10  20  38  59  84 118 155 198 244 303 357
#     4   9  20  35  57  85 116 146 194 240 291 349
#     4  10  21  37  59  85 115 156 200 238 298 360
#     4  11  20  37  63  88 118 158 201 244 299 362
#     4   9  19  35  55  81 114 149 191 243 286 352
#     4  10  19  36  61  85 112 160 194 244 304 354
#
# _framework density 19.713498999999999
#
# number of rings (size 3 to 8) (size 9 to 14) (size 15 to 20)
#    0.000    2.000    3.750    1.500    0.000    1.500 
#    0.000    3.750    5.500    0.000    0.000    0.000 
#    0.000    0.000    0.000    0.000    0.000    0.000 
#
# Total GULP energy -396418.657129 kJ/mol
# GULP energy per Si atom -12388.083035 kJ/mol
# Density = 1.966863 g / cm^3
# Si number density = 19.713499 Si / 1000 Ang^3
#
#
#
# Elastic Constant Matrix: (Units=GPa)
#
#
# Indices 1 2 3 4 5 6 
#
# 1 94.2172 18.8230 39.6262 0.0000 18.4407 0.0000
# 2 18.8230 73.8800 23.2284 0.0000 11.3646 0.0000
# 3 39.6262 23.2284 133.3015 0.0000 26.7039 0.0000
# 4 0.0000 0.0000 0.0000 25.2835 0.0000 13.6045
# 5 18.4407 11.3646 26.7039 0.0000 34.0901 0.0000
# 6 0.0000 0.0000 0.0000 13.6045 0.0000 10.8722
#
#
#
# Elastic Compliance Matrix: (Units=1/GPa)
#
#
# Indices 1 2 3 4 5 6 
#
# 1 0.012939 -0.001794 -0.002670 0.000000 -0.004309 0.000000
# 2 -0.001794 0.014898 -0.001497 0.000000 -0.002823 0.000000
# 3 -0.002670 -0.001497 0.009687 0.000000 -0.005645 0.000000
# 4 0.000000 0.000000 0.000000 0.121064 0.000000 -0.151489
# 5 -0.004309 -0.002823 -0.005645 0.000000 0.037028 0.000000
# 6 0.000000 0.000000 0.000000 -0.151489 0.000000 0.281536
#
#
# Mechanical properties :
#
#
# Convention : Reuss Voigt Hill
#
# Bulk Modulus (GPa) = 39.06177 51.63932 45.35054
# Shear Modulus (GPa) = 10.04806 28.69724 19.37265
#
# Velocity S-wave (km/s) = 2.26011 3.81952 3.13822
# Velocity P-wave (km/s) = 5.16416 6.76043 6.01548
#
# Compressibility (1/GPa) = 0.02560048
#
# Stress axis : x y z
#
# Youngs Moduli (GPa) = 77.28722 67.12523 103.22807
#
# Poissons Ratio (x) = 0.12043 0.27566
# Poissons Ratio (y) = 0.13866 0.15454
# Poissons Ratio (z) = 0.20639 0.10049
#
# Static dielectric constant tensor:
#      x y z
#    x 3.495270 0.000000 0.082780 
#    y 0.000000 3.807710 0.000000 
#    z 0.082780 0.000000 3.958250 
# 
# 
# High freq. dielectric constant tensor:
#      x y z
#    x 1.757530 0.000000 0.017300 
#    y 0.000000 1.771560 0.000000 
#    z 0.017300 0.000000 1.765070 
# 
# From -- ./inp_files/10801.got.cif
#   From: 2010.03.12/outbox.cif.g09.slc.cpg/sg14_6_cif.got.tgz:10801.got - 2010.03.31 13:35:05.
