data_PCOD8124142
_publ_section_title
;
Structure prediction by ZEFSAII (Michael W. Deem and Ramdas Pophale) SiO2 
 PCOD8124142
Probable space group: P 21/C
;
_chemical_formula_sum "Si O2"
_cell_formula_units_Z 28
_cell_length_a 17.882648
_cell_length_b 14.696370
_cell_length_c 5.312163
_cell_angle_alpha 90.000000
_cell_angle_beta 63.264306
_cell_angle_gamma 90.000000
_cell_volume 1246.835492
_symmetry_space_group_name_H-M "P 21/C"
_symmetry_group_IT_number 14
_symmetry_cell_setting 'monoclinic'
loop_
_space_group_symop_operation_xyz
x,y,z
-x,1/2+y,1/2-z
-x,-y,-z
x,1/2-y,1/2+z
loop_
_atom_site_type_symbol
_atom_site_label
_atom_site_fract_x
_atom_site_fract_y
_atom_site_fract_z
Si Si1 0.455296 0.739540 0.819763
Si Si2 0.469180 0.953993 0.296806
Si Si3 0.892634 0.696138 0.169421
Si Si4 0.091220 0.696471 0.868926
Si Si5 0.711193 0.997655 0.450003
Si Si6 0.816962 0.493829 0.291035
Si Si7 0.366749 0.199423 0.447988
O O1 0.398365 0.750443 0.656142
O O2 0.508129 0.646365 0.738881
O O3 0.531463 0.812591 0.705602
O O4 0.500000 0.000000 0.500000
O O5 0.369104 0.936255 0.446811
O O6 0.500000 0.000000 0.000000
O O7 0.860356 0.749592 0.468926
O O8 0.862333 0.591590 0.212226
O O9 0.991867 0.693180 0.019228
O O10 0.123437 0.749869 0.569985
O O11 0.120434 0.591428 0.828511
O O12 0.673285 0.898444 0.482133
O O13 0.753014 0.012553 0.656636
O O14 0.772888 0.018004 0.127139
O O15 0.334068 0.248382 0.245123
#
# Coordination Sequence:
#
# PCOD8124142 Si02
#       7
#     4   4   4   4   4   4   4
#     4  10  20  36  58  82 104 140 196 253 306 361
#     4  12  23  42  64  85 116 159 214 268 312 381
#     4  10  22  41  69 104 138 177 222 262 313 388
#     4  10  22  44  72  97 129 180 231 270 311 377
#     4  12  26  39  61  94 129 168 209 265 341 398
#     4  12  25  43  64  99 141 175 212 269 337 397
#     4  10  19  35  55  81 113 153 198 245 312 388
#
# _framework density 22.456851
#
# number of rings (size 3 to 8) (size 9 to 14) (size 15 to 20)
#    0.000    1.143    0.000    8.143    0.000    3.429 
#    0.000   10.000    0.000    0.000    0.000    0.000 
#    0.000    0.000    0.000    0.000    0.000    0.000 
#
# Total GULP energy -346913.397714 kJ/mol
# GULP energy per Si atom -12389.764204 kJ/mol
# Density = 2.240574 g / cm^3
# Si number density = 22.456851 Si / 1000 Ang^3
#
#
#
# Elastic Constant Matrix: (Units=GPa)
#
#
# Indices 1 2 3 4 5 6 
#
# 1 68.5107 27.0264 43.1831 0.0000 26.5301 0.0000
# 2 27.0264 99.9209 43.8972 0.0000 16.2978 0.0000
# 3 43.1831 43.8972 146.4086 0.0000 58.5577 0.0000
# 4 0.0000 0.0000 0.0000 38.3407 0.0000 2.5641
# 5 26.5301 16.2978 58.5577 0.0000 53.5855 0.0000
# 6 0.0000 0.0000 0.0000 2.5641 0.0000 32.2254
#
#
#
# Elastic Compliance Matrix: (Units=1/GPa)
#
#
# Indices 1 2 3 4 5 6 
#
# 1 0.019795 -0.003302 -0.002363 0.000000 -0.006213 0.000000
# 2 -0.003302 0.012084 -0.003256 0.000000 0.001518 0.000000
# 3 -0.002363 -0.003256 0.013571 0.000000 -0.012670 0.000000
# 4 0.000000 0.000000 0.000000 0.026221 0.000000 -0.002086
# 5 -0.006213 0.001518 -0.012670 0.000000 0.035122 0.000000
# 6 0.000000 0.000000 0.000000 -0.002086 0.000000 0.031197
#
#
# Mechanical properties :
#
#
# Convention : Reuss Voigt Hill
#
# Bulk Modulus (GPa) = 36.22391 60.33928 48.28159
# Shear Modulus (GPa) = 30.29647 38.21257 34.25452
#
# Velocity S-wave (km/s) = 3.67699 4.12952 3.90981
# Velocity P-wave (km/s) = 5.84743 7.04731 6.47522
#
# Compressibility (1/GPa) = 0.02760608
#
# Stress axis : x y z
#
# Youngs Moduli (GPa) = 50.51886 82.75360 73.68686
#
# Poissons Ratio (x) = 0.27328 0.17413
# Poissons Ratio (y) = 0.16683 0.23994
# Poissons Ratio (z) = 0.11938 0.26947
#
# Static dielectric constant tensor:
#      x y z
#    x 4.154460 0.000000 0.369430 
#    y 0.000000 4.456060 0.000000 
#    z 0.369430 0.000000 4.593230 
# 
# 
# High freq. dielectric constant tensor:
#      x y z
#    x 1.870950 0.000000 0.032260 
#    y 0.000000 1.903220 0.000000 
#    z 0.032260 0.000000 1.905940 
# 
# From -- ./inp_files/4127.got.cif
#   From: 2010.03.12/outbox.cif.g09.slc.cpg/sg14_3_cif.got.tgz:4127.got - 2010.03.31 13:35:05.
