data_PCOD8124065
_publ_section_title
;
Structure prediction by ZEFSAII (Michael W. Deem and Ramdas Pophale) SiO2 
 PCOD8124065
Probable space group: P 21/C
;
_chemical_formula_sum "Si O2"
_cell_formula_units_Z 32
_cell_length_a 10.659395
_cell_length_b 8.533422
_cell_length_c 28.798965
_cell_angle_alpha 90.000000
_cell_angle_beta 38.368261
_cell_angle_gamma 90.000000
_cell_volume 1626.012540
_symmetry_space_group_name_H-M "P 21/C"
_symmetry_group_IT_number 14
_symmetry_cell_setting 'monoclinic'
loop_
_space_group_symop_operation_xyz
x,y,z
-x,1/2+y,1/2-z
-x,-y,-z
x,1/2-y,1/2+z
loop_
_atom_site_type_symbol
_atom_site_label
_atom_site_fract_x
_atom_site_fract_y
_atom_site_fract_z
Si Si1 0.914194 0.479891 0.869268
Si Si2 0.082468 0.662776 0.741381
Si Si3 0.999441 0.035962 0.887088
Si Si4 0.223817 0.003460 0.730307
Si Si5 0.692503 0.533042 0.075149
Si Si6 0.022077 0.335663 0.932703
Si Si7 0.750135 0.751625 0.972949
Si Si8 0.685292 0.322086 0.411649
O O1 0.032667 0.406800 0.878081
O O2 0.781999 0.626294 0.923443
O O3 0.759958 0.359488 0.889686
O O4 0.081516 0.541435 0.784407
O O5 0.260536 0.609621 0.654893
O O6 0.873211 0.643142 0.772528
O O7 0.114119 0.839797 0.749757
O O8 0.042504 0.148085 0.919074
O O9 0.794126 0.089064 0.921504
O O10 0.184176 0.035775 0.796695
O O11 0.947005 0.862690 0.921272
O O12 0.461691 0.008831 0.651877
O O13 0.788279 0.593874 0.095195
O O14 0.813700 0.381927 0.019831
O O15 0.708620 0.674414 0.034481
O O16 0.552444 0.843252 0.012946
#
# Coordination Sequence:
#
# PCOD8124065 Si02
#       8
#     4   4   4   4   4   4   4   4
#     4  10  19  34  56  77 112 154 189 234 288 346
#     4  11  19  35  56  83 118 148 188 236 291 354
#     4  10  22  37  55  89 122 143 187 254 289 332
#     4  11  22  39  59  87 122 154 190 237 300 354
#     4  10  21  43  63  78 111 161 203 232 290 358
#     4   9  22  43  60  80 113 153 204 244 280 347
#     4  11  19  33  57  83 111 149 191 239 290 337
#     4  10  20  34  51  82 117 151 186 227 290 358
#
# _framework density 19.680045
#
# number of rings (size 3 to 8) (size 9 to 14) (size 15 to 20)
#    0.000    1.750    3.750    0.750    0.000    2.500 
#    6.750    0.000    0.000    0.000    0.000    0.000 
#    0.000    0.000    0.000    0.000    0.000    0.000 
#
# Total GULP energy -396684.596721 kJ/mol
# GULP energy per Si atom -12396.393648 kJ/mol
# Density = 1.963525 g / cm^3
# Si number density = 19.680045 Si / 1000 Ang^3
#
#
#
# Elastic Constant Matrix: (Units=GPa)
#
#
# Indices 1 2 3 4 5 6 
#
# 1 60.7725 12.6155 36.0626 0.0000 2.4687 0.0000
# 2 12.6155 66.7673 41.3316 0.0000 -4.0721 0.0000
# 3 36.0626 41.3316 93.5476 0.0000 -5.7580 0.0000
# 4 0.0000 0.0000 0.0000 30.0789 0.0000 5.8876
# 5 2.4687 -4.0721 -5.7580 0.0000 28.1676 0.0000
# 6 0.0000 0.0000 0.0000 5.8876 0.0000 22.5540
#
#
#
# Elastic Compliance Matrix: (Units=1/GPa)
#
#
# Indices 1 2 3 4 5 6 
#
# 1 0.021793 0.001377 -0.009231 0.000000 -0.003598 0.000000
# 2 0.001377 0.020739 -0.009638 0.000000 0.000907 0.000000
# 3 -0.009231 -0.009638 0.018706 0.000000 0.003240 0.000000
# 4 0.000000 0.000000 0.000000 0.035036 0.000000 -0.009146
# 5 -0.003598 0.000907 0.003240 0.000000 0.036611 0.000000
# 6 0.000000 0.000000 0.000000 -0.009146 0.000000 0.046726
#
#
# Mechanical properties :
#
#
# Convention : Reuss Voigt Hill
#
# Bulk Modulus (GPa) = 38.08938 44.56741 41.32840
# Shear Modulus (GPa) = 22.38689 24.89859 23.64274
#
# Velocity S-wave (km/s) = 3.37641 3.56078 3.46982
# Velocity P-wave (km/s) = 5.88188 6.29291 6.09086
#
# Compressibility (1/GPa) = 0.02625403
#
# Stress axis : x y z
#
# Youngs Moduli (GPa) = 45.88660 48.21880 53.45863
#
# Poissons Ratio (x) = -0.06641 0.49348
# Poissons Ratio (y) = -0.06320 0.51523
# Poissons Ratio (z) = 0.42359 0.46473
#
# Static dielectric constant tensor:
#      x y z
#    x 3.411570 0.000000 0.207370 
#    y 0.000000 3.766870 0.000000 
#    z 0.207370 0.000000 3.652660 
# 
# 
# High freq. dielectric constant tensor:
#      x y z
#    x 1.744130 0.000000 0.020280 
#    y 0.000000 1.767360 0.000000 
#    z 0.020280 0.000000 1.770310 
# 
# From -- ./inp_files/61151.got.cif
#   From: 2010.03.12/outbox.cif.g09.slc.cpg/sg14_31_cif.got.tgz:61151.got - 2010.03.31 13:35:05.
