data_PCOD8124460
_publ_section_title
;
Structure prediction by ZEFSAII (Michael W. Deem and Ramdas Pophale) SiO2 
 PCOD8124460
Probable space group: P 21/C
;
_chemical_formula_sum "Si O2"
_cell_formula_units_Z 24
_cell_length_a 12.928055
_cell_length_b 13.138282
_cell_length_c 13.258845
_cell_angle_alpha 90.000000
_cell_angle_beta 24.129781
_cell_angle_gamma 90.000000
_cell_volume 920.647822
_symmetry_space_group_name_H-M "P 21/C"
_symmetry_group_IT_number 14
_symmetry_cell_setting 'monoclinic'
loop_
_space_group_symop_operation_xyz
x,y,z
-x,1/2+y,1/2-z
-x,-y,-z
x,1/2-y,1/2+z
loop_
_atom_site_type_symbol
_atom_site_label
_atom_site_fract_x
_atom_site_fract_y
_atom_site_fract_z
Si Si1 0.881659 0.043775 0.938217
Si Si2 0.931584 0.165778 0.524507
Si Si3 0.063459 0.188875 0.072461
Si Si4 0.760493 0.001216 0.824172
Si Si5 0.573995 0.962980 0.543852
Si Si6 0.377176 0.673824 0.888707
O O1 0.943840 0.932863 0.929518
O O2 0.158488 0.099794 0.692281
O O3 0.747819 0.036814 0.949845
O O4 0.668750 0.100804 0.196822
O O5 0.004613 0.271940 0.511572
O O6 0.929346 0.083970 0.616789
O O7 0.682004 0.179578 0.678198
O O8 0.136072 0.115302 0.266392
O O9 0.846147 0.228238 0.345525
O O10 0.348523 0.227700 0.844260
O O11 0.500000 0.000000 0.000000
O O12 0.606618 0.056807 0.591989
O O13 0.500000 0.000000 0.500000
#
# Coordination Sequence:
#
# PCOD8124460 Si02
#       6
#     4   4   4   4   4   4
#     4  10  21  41  62  91 131 166 211 274 322 377
#     4  11  24  41  69  95 129 180 222 268 338 392
#     4  10  22  40  66  91 124 169 218 261 327 381
#     4  11  23  40  70  96 132 175 220 278 328 393
#     4  10  19  37  65  88 123 174 210 256 331 387
#     4  10  22  43  64  91 131 169 212 277 318 384
#
# _framework density 26.068601000000001
#
# number of rings (size 3 to 8) (size 9 to 14) (size 15 to 20)
#    0.000    1.667    3.333    2.500    4.667    0.000 
#    0.000   10.000    0.000    0.000    0.000    0.000 
#    0.000    0.000    0.000    0.000    0.000    0.000 
#
# Total GULP energy -297361.528129 kJ/mol
# GULP energy per Si atom -12390.063672 kJ/mol
# Density = 2.600927 g / cm^3
# Si number density = 26.068601 Si / 1000 Ang^3
#
#
#
# Elastic Constant Matrix: (Units=GPa)
#
#
# Indices 1 2 3 4 5 6 
#
# 1 145.3379 10.7375 50.6311 0.0000 -18.7583 0.0000
# 2 10.7375 41.8172 -7.1708 0.0000 -3.7695 0.0000
# 3 50.6311 -7.1708 228.4026 0.0000 -29.0320 0.0000
# 4 0.0000 0.0000 0.0000 11.7338 0.0000 -1.8545
# 5 -18.7583 -3.7695 -29.0320 0.0000 50.4607 0.0000
# 6 0.0000 0.0000 0.0000 -1.8545 0.0000 36.2079
#
#
#
# Elastic Compliance Matrix: (Units=1/GPa)
#
#
# Indices 1 2 3 4 5 6 
#
# 1 0.007820 -0.002110 -0.001565 0.000000 0.001849 0.000000
# 2 -0.002110 0.024886 0.001495 0.000000 0.001935 0.000000
# 3 -0.001565 0.001495 0.005084 0.000000 0.002455 0.000000
# 4 0.000000 0.000000 0.000000 0.085920 0.000000 0.004401
# 5 0.001849 0.001935 0.002455 0.000000 0.022062 0.000000
# 6 0.000000 0.000000 0.000000 0.004401 0.000000 0.027844
#
#
# Mechanical properties :
#
#
# Convention : Reuss Voigt Hill
#
# Bulk Modulus (GPa) = 29.91194 58.21703 44.06449
# Shear Modulus (GPa) = 26.43851 43.77114 35.10482
#
# Velocity S-wave (km/s) = 3.18809 4.10210 3.67363
# Velocity P-wave (km/s) = 5.00511 6.69455 5.91050
#
# Compressibility (1/GPa) = 0.03343146
#
# Stress axis : x y z
#
# Youngs Moduli (GPa) = 127.87483 40.18311 196.69216
#
# Poissons Ratio (x) = 0.08477 0.30777
# Poissons Ratio (y) = 0.26977 -0.29404
# Poissons Ratio (z) = 0.20009 -0.06007
#
# Static dielectric constant tensor:
#      x y z
#    x 5.587140 0.000000 -1.295540 
#    y 0.000000 4.526480 0.000000 
#    z -1.295540 0.000000 8.328420 
# 
# 
# High freq. dielectric constant tensor:
#      x y z
#    x 2.061030 0.000000 -0.004830 
#    y 0.000000 1.995760 0.000000 
#    z -0.004830 0.000000 2.060590 
# 
# From -- ./inp_files/30356.got.cif
#   From: 2010.03.12/outbox.cif.g09.slc.cpg/sg14_16_cif.got.tgz:30356.got - 2010.03.31 13:35:05.
