data_PCOD8124241
_publ_section_title
;
Structure prediction by ZEFSAII (Michael W. Deem and Ramdas Pophale) SiO2 
 PCOD8124241
Probable space group: P 21/C
;
_chemical_formula_sum "Si O2"
_cell_formula_units_Z 32
_cell_length_a 11.411390
_cell_length_b 8.976882
_cell_length_c 15.543126
_cell_angle_alpha 90.000000
_cell_angle_beta 72.731416
_cell_angle_gamma 90.000000
_cell_volume 1520.446381
_symmetry_space_group_name_H-M "P 21/C"
_symmetry_group_IT_number 14
_symmetry_cell_setting 'monoclinic'
loop_
_space_group_symop_operation_xyz
x,y,z
-x,1/2+y,1/2-z
-x,-y,-z
x,1/2-y,1/2+z
loop_
_atom_site_type_symbol
_atom_site_label
_atom_site_fract_x
_atom_site_fract_y
_atom_site_fract_z
Si Si1 0.132262 0.598208 0.310611
Si Si2 0.524950 0.031310 0.350394
Si Si3 0.778526 0.422586 0.230420
Si Si4 0.737732 0.915336 0.067380
Si Si5 0.853012 0.892684 0.867906
Si Si6 0.248392 0.069065 0.438498
Si Si7 0.772479 0.934067 0.369195
Si Si8 0.511227 0.369515 0.307445
O O1 0.205636 0.747358 0.275916
O O2 0.196760 0.512730 0.374417
O O3 0.138396 0.504295 0.221094
O O4 0.993034 0.637997 0.365271
O O5 0.390307 0.021252 0.420804
O O6 0.540354 0.195322 0.307441
O O7 0.632594 0.993424 0.393850
O O8 0.544775 0.905133 0.273721
O O9 0.861546 0.495363 0.285731
O O10 0.812405 0.484896 0.128598
O O11 0.638172 0.460877 0.287917
O O12 0.770716 0.743198 0.076210
O O13 0.589067 0.928934 0.101854
O O14 0.783837 0.969164 0.963824
O O15 0.780729 0.744116 0.856453
O O16 0.182606 0.025757 0.543162
#
# Coordination Sequence:
#
# PCOD8124241 Si02
#       8
#     4   4   4   4   4   4   4   4
#     4  12  23  43  63  89 126 167 211 260 309 366
#     4  10  19  35  62  92 127 158 197 248 317 374
#     4  11  23  40  61  94 127 156 209 264 309 371
#     4  10  21  42  65  89 123 164 206 255 319 372
#     4  11  26  41  62  90 123 171 216 252 305 376
#     4   9  22  38  64  93 122 156 205 255 314 381
#     4  11  21  41  63  89 123 168 205 250 315 366
#     4  10  19  36  62  95 124 156 199 256 317 375
#
# _framework density 21.046451999999999
#
# number of rings (size 3 to 8) (size 9 to 14) (size 15 to 20)
#    0.000    1.500    2.500    2.250    3.500    1.500 
#    0.000    6.875    0.000    0.000    0.000    0.000 
#    0.000    0.000    0.000    0.000    0.000    0.000 
#
# Total GULP energy -396715.202124 kJ/mol
# GULP energy per Si atom -12397.350066 kJ/mol
# Density = 2.099855 g / cm^3
# Si number density = 21.046452 Si / 1000 Ang^3
#
#
#
# Elastic Constant Matrix: (Units=GPa)
#
#
# Indices 1 2 3 4 5 6 
#
# 1 86.3127 29.7976 35.5917 0.0000 2.5127 0.0000
# 2 29.7976 85.7801 52.0761 0.0000 17.2305 0.0000
# 3 35.5917 52.0761 146.2620 0.0000 12.2553 0.0000
# 4 0.0000 0.0000 0.0000 22.9394 0.0000 1.5366
# 5 2.5127 17.2305 12.2553 0.0000 25.3732 0.0000
# 6 0.0000 0.0000 0.0000 1.5366 0.0000 23.7348
#
#
#
# Elastic Compliance Matrix: (Units=1/GPa)
#
#
# Indices 1 2 3 4 5 6 
#
# 1 0.013765 -0.003957 -0.002138 0.000000 0.002357 0.000000
# 2 -0.003957 0.017683 -0.004544 0.000000 -0.009422 0.000000
# 3 -0.002138 -0.004544 0.009066 0.000000 -0.001081 0.000000
# 4 0.000000 0.000000 0.000000 0.043783 0.000000 -0.002835
# 5 0.002357 -0.009422 -0.001081 0.000000 0.046099 0.000000
# 6 0.000000 0.000000 0.000000 -0.002835 0.000000 0.042316
#
#
# Mechanical properties :
#
#
# Convention : Reuss Voigt Hill
#
# Bulk Modulus (GPa) = 51.98501 61.47618 56.73060
# Shear Modulus (GPa) = 24.94998 27.80212 26.37605
#
# Velocity S-wave (km/s) = 3.44680 3.63848 3.54394
# Velocity P-wave (km/s) = 6.37137 6.85015 6.61509
#
# Compressibility (1/GPa) = 0.01923631
#
# Stress axis : x y z
#
# Youngs Moduli (GPa) = 72.64862 56.55090 110.30515
#
# Poissons Ratio (x) = 0.22376 0.23586
# Poissons Ratio (y) = 0.28746 0.50120
# Poissons Ratio (z) = 0.15534 0.25695
#
# Static dielectric constant tensor:
#      x y z
#    x 3.693570 0.000000 -0.138670 
#    y 0.000000 3.630740 0.000000 
#    z -0.138670 0.000000 3.943870 
# 
# 
# High freq. dielectric constant tensor:
#      x y z
#    x 1.818560 0.000000 -0.007970 
#    y 0.000000 1.816680 0.000000 
#    z -0.007970 0.000000 1.832560 
# 
# From -- ./inp_files/43681.got.cif
#   From: 2010.03.12/outbox.cif.g09.slc.cpg/sg14_22_cif.got.tgz:43681.got - 2010.03.31 13:35:05.
