data_PCOD8124192
_publ_section_title
;
Structure prediction by ZEFSAII (Michael W. Deem and Ramdas Pophale) SiO2 
 PCOD8124192
Probable space group: P 21/C
;
_chemical_formula_sum "Si O2"
_cell_formula_units_Z 28
_cell_length_a 9.352389
_cell_length_b 10.910614
_cell_length_c 14.463433
_cell_angle_alpha 90.000000
_cell_angle_beta 97.482366
_cell_angle_gamma 90.000000
_cell_volume 1463.286225
_symmetry_space_group_name_H-M "P 21/C"
_symmetry_group_IT_number 14
_symmetry_cell_setting 'monoclinic'
loop_
_space_group_symop_operation_xyz
x,y,z
-x,1/2+y,1/2-z
-x,-y,-z
x,1/2-y,1/2+z
loop_
_atom_site_type_symbol
_atom_site_label
_atom_site_fract_x
_atom_site_fract_y
_atom_site_fract_z
Si Si1 0.124663 0.349497 0.507196
Si Si2 0.128699 0.780863 0.405088
Si Si3 0.903927 0.049659 0.862391
Si Si4 0.074364 0.042726 0.329186
Si Si5 0.191669 0.797201 0.710425
Si Si6 0.673496 0.863530 0.530285
Si Si7 0.640620 0.116367 0.434791
O O1 0.174773 0.474362 0.562380
O O2 0.258418 0.257112 0.511096
O O3 0.992945 0.297466 0.556186
O O4 0.059283 0.391287 0.403198
O O5 0.194105 0.704832 0.322605
O O6 0.254410 0.807609 0.488876
O O7 0.050176 0.905846 0.365803
O O8 0.798766 0.157217 0.821740
O O9 0.927526 0.955484 0.781138
O O10 0.224957 0.094373 0.377852
O O11 0.945919 0.133675 0.347685
O O12 0.327426 0.862373 0.671888
O O13 0.518896 0.832720 0.559946
O O14 0.655699 0.970874 0.453240
#
# Coordination Sequence:
#
# PCOD8124192 Si02
#       7
#     4   4   4   4   4   4   4
#     4  11  19  36  58  86 115 150 186 244 293 336
#     4  10  20  34  60  84 112 149 191 237 288 338
#     4  10  21  32  58  84 118 141 190 245 292 340
#     4  10  19  35  58  87 107 144 199 238 284 336
#     4  11  19  36  59  84 114 151 189 246 285 338
#     4  10  21  38  62  82 114 154 191 242 285 346
#     4  10  21  39  58  83 118 153 196 229 289 351
#
# _framework density 19.135012
#
# number of rings (size 3 to 8) (size 9 to 14) (size 15 to 20)
#    0.000    1.714    4.286    0.857    0.000    2.286 
#    2.571    0.714    9.429    0.000    0.000    0.000 
#    0.000    0.000    0.000    0.000    0.000    0.000 
#
# Total GULP energy -347085.773111 kJ/mol
# GULP energy per Si atom -12395.920468 kJ/mol
# Density = 1.909146 g / cm^3
# Si number density = 19.135012 Si / 1000 Ang^3
#
#
#
# Elastic Constant Matrix: (Units=GPa)
#
#
# Indices 1 2 3 4 5 6 
#
# 1 107.9614 38.9795 30.3756 0.0000 -18.5952 0.0000
# 2 38.9795 75.1157 23.4632 0.0000 -11.2753 0.0000
# 3 30.3756 23.4632 76.0274 0.0000 -13.6825 0.0000
# 4 0.0000 0.0000 0.0000 28.1433 0.0000 -5.7258
# 5 -18.5952 -11.2753 -13.6825 0.0000 19.4847 0.0000
# 6 0.0000 0.0000 0.0000 -5.7258 0.0000 27.4832
#
#
#
# Elastic Compliance Matrix: (Units=1/GPa)
#
#
# Indices 1 2 3 4 5 6 
#
# 1 0.013036 -0.004850 -0.002264 0.000000 0.008045 0.000000
# 2 -0.004850 0.017200 -0.002761 0.000000 0.003386 0.000000
# 3 -0.002264 -0.002761 0.016292 0.000000 0.007683 0.000000
# 4 0.000000 0.000000 0.000000 0.037105 0.000000 0.007730
# 5 0.008045 0.003386 0.007683 0.000000 0.066354 0.000000
# 6 0.000000 0.000000 0.000000 0.007730 0.000000 0.037996
#
#
# Mechanical properties :
#
#
# Convention : Reuss Voigt Hill
#
# Bulk Modulus (GPa) = 37.34304 49.41567 43.37935
# Shear Modulus (GPa) = 23.07750 26.10798 24.59274
#
# Velocity S-wave (km/s) = 3.47657 3.69780 3.58889
# Velocity P-wave (km/s) = 5.97271 6.64172 6.31608
#
# Compressibility (1/GPa) = 0.02677876
#
# Stress axis : x y z
#
# Youngs Moduli (GPa) = 76.70877 58.13822 61.37841
#
# Poissons Ratio (x) = 0.28198 0.13895
# Poissons Ratio (y) = 0.37205 0.16948
# Poissons Ratio (z) = 0.17365 0.16053
#
# Static dielectric constant tensor:
#      x y z
#    x 3.274360 0.000000 -0.100160 
#    y 0.000000 3.717140 0.000000 
#    z -0.100160 0.000000 3.625410 
# 
# 
# High freq. dielectric constant tensor:
#      x y z
#    x 1.706450 0.000000 -0.007440 
#    y 0.000000 1.757500 0.000000 
#    z -0.007440 0.000000 1.748180 
# 
# From -- ./inp_files/39659.got.cif
#   From: 2010.03.12/outbox.cif.g09.slc.cpg/sg14_20_cif.got.tgz:39659.got - 2010.03.31 13:35:05.
