data_PCOD8124129
_publ_section_title
;
Structure prediction by ZEFSAII (Michael W. Deem and Ramdas Pophale) SiO2 
 PCOD8124129
Probable space group: P 21/C
;
_chemical_formula_sum "Si O2"
_cell_formula_units_Z 28
_cell_length_a 7.578852
_cell_length_b 10.311773
_cell_length_c 17.484835
_cell_angle_alpha 90.000000
_cell_angle_beta 109.743147
_cell_angle_gamma 90.000000
_cell_volume 1286.138700
_symmetry_space_group_name_H-M "P 21/C"
_symmetry_group_IT_number 14
_symmetry_cell_setting 'monoclinic'
loop_
_space_group_symop_operation_xyz
x,y,z
-x,1/2+y,1/2-z
-x,-y,-z
x,1/2-y,1/2+z
loop_
_atom_site_type_symbol
_atom_site_label
_atom_site_fract_x
_atom_site_fract_y
_atom_site_fract_z
Si Si1 0.884610 0.196766 0.532767
Si Si2 0.352109 0.666610 0.614986
Si Si3 0.124738 0.725331 0.794213
Si Si4 0.752883 0.416400 0.804608
Si Si5 0.875113 0.918855 0.556101
Si Si6 0.258916 0.263074 0.828027
Si Si7 0.356114 0.508704 0.752907
O O1 0.757043 0.314726 0.480832
O O2 0.927815 0.240978 0.624937
O O3 0.069906 0.174652 0.507113
O O4 0.779385 0.054452 0.514778
O O5 0.307289 0.794354 0.655165
O O6 0.576949 0.658077 0.637942
O O7 0.284216 0.544079 0.656143
O O8 0.205953 0.862817 0.775301
O O9 0.274232 0.609675 0.803124
O O10 0.935322 0.689711 0.718692
O O11 0.943436 0.472630 0.869069
O O12 0.584455 0.520871 0.783800
O O13 0.740886 0.838597 0.591354
O O14 0.292679 0.364085 0.763524
#
# Coordination Sequence:
#
# PCOD8124129 Si02
#       7
#     4   4   4   4   4   4   4
#     4  10  19  35  52  85 117 138 177 237 285 319
#     4   9  20  34  53  79 114 140 178 227 282 325
#     4  10  20  35  59  84 109 144 193 224 272 333
#     4   8  18  35  54  80 107 146 189 220 263 339
#     4   9  18  34  55  82 115 141 180 233 282 311
#     4  10  20  36  57  85 104 151 194 218 265 342
#     4  10  19  37  57  78 113 147 183 234 273 319
#
# _framework density 21.770591
#
# number of rings (size 3 to 8) (size 9 to 14) (size 15 to 20)
#    0.000    2.571    1.429    0.857    2.000    0.571 
#    5.143    1.429    0.000    0.000    0.000    0.000 
#    0.000    0.000    0.000    0.000    0.000    0.000 
#
# Total GULP energy -346916.649299 kJ/mol
# GULP energy per Si atom -12389.880332 kJ/mol
# Density = 2.172104 g / cm^3
# Si number density = 21.770591 Si / 1000 Ang^3
#
#
#
# Elastic Constant Matrix: (Units=GPa)
#
#
# Indices 1 2 3 4 5 6 
#
# 1 73.5517 9.7082 15.6101 0.0000 -7.6710 0.0000
# 2 9.7082 26.5484 7.8035 0.0000 -5.3842 0.0000
# 3 15.6101 7.8035 70.1063 0.0000 -24.7158 0.0000
# 4 0.0000 0.0000 0.0000 31.6786 0.0000 -4.2363
# 5 -7.6710 -5.3842 -24.7158 0.0000 25.4630 0.0000
# 6 0.0000 0.0000 0.0000 -4.2363 0.0000 31.5636
#
#
#
# Elastic Compliance Matrix: (Units=1/GPa)
#
#
# Indices 1 2 3 4 5 6 
#
# 1 0.014817 -0.004474 -0.002373 0.000000 0.001214 0.000000
# 2 -0.004474 0.040930 -0.001495 0.000000 0.005855 0.000000
# 3 -0.002373 -0.001495 0.022188 0.000000 0.020506 0.000000
# 4 0.000000 0.000000 0.000000 0.032144 0.000000 0.004314
# 5 0.001214 0.005855 0.020506 0.000000 0.060781 0.000000
# 6 0.000000 0.000000 0.000000 0.004314 0.000000 0.032261
#
#
# Mechanical properties :
#
#
# Convention : Reuss Voigt Hill
#
# Bulk Modulus (GPa) = 16.32661 26.27220 21.29941
# Shear Modulus (GPa) = 20.81395 26.88002 23.84698
#
# Velocity S-wave (km/s) = 3.09537 3.51763 3.31324
# Velocity P-wave (km/s) = 4.50453 5.34717 4.94384
#
# Compressibility (1/GPa) = 0.06124971
#
# Stress axis : x y z
#
# Youngs Moduli (GPa) = 67.49124 24.43174 45.06890
#
# Poissons Ratio (x) = 0.10932 0.10695
# Poissons Ratio (y) = 0.30198 0.06739
# Poissons Ratio (z) = 0.16016 0.03653
#
# Static dielectric constant tensor:
#      x y z
#    x 4.273150 0.000000 -0.134010 
#    y 0.000000 3.681630 0.000000 
#    z -0.134010 0.000000 4.055650 
# 
# 
# High freq. dielectric constant tensor:
#      x y z
#    x 1.855770 0.000000 -0.024990 
#    y 0.000000 1.820540 0.000000 
#    z -0.024990 0.000000 1.840340 
# 
# From -- ./inp_files/55171.got.cif
#   From: 2010.03.12/outbox.cif.g09.slc.cpg/sg14_28_cif.got.tgz:55171.got - 2010.03.31 13:35:05.
