data_PCOD8124346
_publ_section_title
;
Structure prediction by ZEFSAII (Michael W. Deem and Ramdas Pophale) SiO2 
 PCOD8124346
Probable space group: P 21/C
;
_chemical_formula_sum "Si O2"
_cell_formula_units_Z 32
_cell_length_a 9.068825
_cell_length_b 18.474883
_cell_length_c 13.436827
_cell_angle_alpha 90.000000
_cell_angle_beta 132.448128
_cell_angle_gamma 90.000000
_cell_volume 1661.193743
_symmetry_space_group_name_H-M "P 21/C"
_symmetry_group_IT_number 14
_symmetry_cell_setting 'monoclinic'
loop_
_space_group_symop_operation_xyz
x,y,z
-x,1/2+y,1/2-z
-x,-y,-z
x,1/2-y,1/2+z
loop_
_atom_site_type_symbol
_atom_site_label
_atom_site_fract_x
_atom_site_fract_y
_atom_site_fract_z
Si Si1 0.064258 0.934785 0.396549
Si Si2 0.458972 0.683017 0.285501
Si Si3 0.818437 0.475792 0.643457
Si Si4 0.316581 0.201883 0.489253
Si Si5 0.338074 0.798116 0.510747
Si Si6 0.112031 0.816983 0.785501
Si Si7 0.531524 0.975792 0.856544
Si Si8 0.271161 0.434786 0.103451
O O1 0.215454 0.871420 0.440719
O O2 0.890508 0.905534 0.390508
O O3 0.178669 0.999999 0.500002
O O4 0.972742 0.963566 0.251428
O O5 0.627629 0.731407 0.414301
O O6 0.256716 0.681457 0.256716
O O7 0.550211 0.602648 0.313446
O O8 0.403503 0.715908 0.153499
O O9 0.923319 0.397353 0.686555
O O10 0.634313 0.469450 0.634313
O O11 0.742175 0.500000 0.500001
O O12 0.463973 0.196431 0.463973
O O13 0.334016 0.128579 0.559280
O O14 0.096505 0.215908 0.346501
O O15 0.200974 0.731406 0.414302
O O16 0.469889 0.036434 0.748574
#
# Coordination Sequence:
#
# PCOD8124346 Si02
#       8
#     4   4   4   4   4   4   4   4
#     4  10  19  36  62  84 109 153 198 237 283 342
#     4  10  22  41  59  83 118 154 195 236 287 354
#     4   9  18  34  59  85 108 145 198 243 277 333
#     4  11  24  38  59  88 120 154 191 244 296 344
#     4  11  24  38  59  88 120 154 191 244 296 344
#     4  10  22  41  59  83 118 154 195 236 287 354
#     4   9  18  34  59  85 108 145 198 243 277 333
#     4  10  19  36  62  84 109 153 198 237 283 342
#
# _framework density 19.263255999999998
#
# number of rings (size 3 to 8) (size 9 to 14) (size 15 to 20)
#    0.000    2.000    2.500    0.750    3.500    2.500 
#    0.000    0.000    0.000    1.500    0.000    0.000 
#    0.000    0.000    0.000    0.000    0.000    0.000 
#
# Total GULP energy -396874.766564 kJ/mol
# GULP energy per Si atom -12402.336455 kJ/mol
# Density = 1.921941 g / cm^3
# Si number density = 19.263256 Si / 1000 Ang^3
#
#
#
# Elastic Constant Matrix: (Units=GPa)
#
#
# Indices 1 2 3 4 5 6 
#
# 1 46.2262 36.2676 48.8841 0.0000 3.4647 0.0000
# 2 36.2676 77.6145 40.4389 0.0000 0.2830 0.0000
# 3 48.8841 40.4389 164.1816 0.0000 4.5451 0.0000
# 4 0.0000 0.0000 0.0000 29.2827 0.0000 3.3204
# 5 3.4647 0.2830 4.5451 0.0000 24.2531 0.0000
# 6 0.0000 0.0000 0.0000 3.3204 0.0000 -19.6517
#
#
#
# Elastic Compliance Matrix: (Units=1/GPa)
#
#
# Indices 1 2 3 4 5 6 
#
# 1 0.043948 -0.015792 -0.009074 0.000000 -0.004393 0.000000
# 2 -0.015792 0.020462 -0.000396 0.000000 0.002091 0.000000
# 3 -0.009074 -0.000396 0.008900 0.000000 -0.000367 0.000000
# 4 0.000000 0.000000 0.000000 0.033508 0.000000 0.005662
# 5 -0.004393 0.002091 -0.000367 0.000000 0.041904 0.000000
# 6 0.000000 0.000000 0.000000 0.005662 0.000000 -0.049930
#
#
# Mechanical properties :
#
#
# Convention : Reuss Voigt Hill
#
# Bulk Modulus (GPa) = 43.88591 59.91152 51.89872
# Shear Modulus (GPa) = 31.86525 17.60561 24.73543
#
# Velocity S-wave (km/s) = 4.07160 3.02644 3.58728
# Velocity P-wave (km/s) = 6.70340 6.58646 6.64518
#
# Compressibility (1/GPa) = 0.02278635
#
# Stress axis : x y z
#
# Youngs Moduli (GPa) = 22.75440 48.87086 112.35758
#
# Poissons Ratio (x) = 0.77177 1.01951
# Poissons Ratio (y) = 0.35934 0.04448
# Poissons Ratio (z) = 0.20647 0.01935
#
# Static dielectric constant tensor:
#      x y z
#    x 3.254560 0.000000 0.023400 
#    y 0.000000 3.709920 0.000000 
#    z 0.023400 0.000000 3.598890 
# 
# 
# High freq. dielectric constant tensor:
#      x y z
#    x 1.714830 0.000000 0.003740 
#    y 0.000000 1.755190 0.000000 
#    z 0.003740 0.000000 1.769850 
# 
# From -- ./inp_files/26816.got.cif
#   From: 2010.03.12/outbox.cif.g09.slc.cpg/sg14_14_cif.got.tgz:26816.got - 2010.03.31 13:35:05.
