data_PCOD8124641
_publ_section_title
;
Structure prediction by ZEFSAII (Michael W. Deem and Ramdas Pophale) SiO2 
 PCOD8124641
Probable space group: P 21/C
;
_chemical_formula_sum "Si O2"
_cell_formula_units_Z 32
_cell_length_a 9.087200
_cell_length_b 14.375863
_cell_length_c 12.137614
_cell_angle_alpha 90.000000
_cell_angle_beta 114.091187
_cell_angle_gamma 90.000000
_cell_volume 1447.501763
_symmetry_space_group_name_H-M "P 21/C"
_symmetry_group_IT_number 14
_symmetry_cell_setting 'monoclinic'
loop_
_space_group_symop_operation_xyz
x,y,z
-x,1/2+y,1/2-z
-x,-y,-z
x,1/2-y,1/2+z
loop_
_atom_site_type_symbol
_atom_site_label
_atom_site_fract_x
_atom_site_fract_y
_atom_site_fract_z
Si Si1 0.813178 0.059926 0.545252
Si Si2 0.105324 0.935745 0.183346
Si Si3 0.358609 0.198808 0.106974
Si Si4 0.110382 0.364745 0.009250
Si Si5 0.883201 0.278021 0.783985
Si Si6 0.398001 0.813307 0.643848
Si Si7 0.648892 0.174359 0.044272
Si Si8 0.227957 0.005454 0.998692
O O1 0.816134 0.038768 0.675820
O O2 0.645358 0.111828 0.464553
O O3 0.968190 0.123427 0.556982
O O4 0.803108 0.963579 0.475365
O O5 0.074040 0.826052 0.168364
O O6 0.942163 0.994524 0.116665
O O7 0.222808 0.963377 0.119832
O O8 0.423666 0.172745 0.249604
O O9 0.512594 0.222168 0.078589
O O10 0.237223 0.285374 0.084174
O O11 0.281342 0.111526 0.021983
O O12 0.038306 0.338174 0.866875
O O13 0.732059 0.324214 0.799911
O O14 0.827243 0.288617 0.639331
O O15 0.383070 0.710539 0.588436
O O16 0.653364 0.061232 0.037383
#
# Coordination Sequence:
#
# PCOD8124641 Si02
#       8
#     4   4   4   4   4   4   4   4
#     4  10  22  41  69  92 123 165 212 271 323 372
#     4  11  21  38  68  96 120 164 216 270 324 364
#     4  11  25  41  61  93 132 170 210 256 318 389
#     4  10  22  43  65  95 126 161 219 269 315 381
#     4  10  19  40  65  89 123 159 212 265 315 370
#     4  10  22  39  61  91 124 171 205 253 316 383
#     4  11  22  40  65  88 131 175 206 255 328 384
#     4  11  24  40  62  97 130 162 216 269 312 384
#
# _framework density 22.107054000000002
#
# number of rings (size 3 to 8) (size 9 to 14) (size 15 to 20)
#    0.000    1.500    3.750    1.125    0.000    4.000 
#    2.250    1.250    0.000    0.000    0.000    0.000 
#    0.000    0.000    0.000    0.000    0.000    0.000 
#
# Total GULP energy -396596.066603 kJ/mol
# GULP energy per Si atom -12393.627081 kJ/mol
# Density = 2.205674 g / cm^3
# Si number density = 22.107054 Si / 1000 Ang^3
#
#
#
# Elastic Constant Matrix: (Units=GPa)
#
#
# Indices 1 2 3 4 5 6 
#
# 1 52.4246 30.9007 30.4242 0.0000 13.4348 0.0000
# 2 30.9007 112.3346 18.7432 0.0000 10.7151 0.0000
# 3 30.4242 18.7432 124.5299 0.0000 17.8041 0.0000
# 4 0.0000 0.0000 0.0000 30.7928 0.0000 0.8572
# 5 13.4348 10.7151 17.8041 0.0000 25.3208 0.0000
# 6 0.0000 0.0000 0.0000 0.8572 0.0000 28.0234
#
#
#
# Elastic Compliance Matrix: (Units=1/GPa)
#
#
# Indices 1 2 3 4 5 6 
#
# 1 0.027504 -0.005960 -0.004555 0.000000 -0.008868 0.000000
# 2 -0.005960 0.010665 0.000049 0.000000 -0.001385 0.000000
# 3 -0.004555 0.000049 0.009776 0.000000 -0.004478 0.000000
# 4 0.000000 0.000000 0.000000 0.032503 0.000000 -0.000994
# 5 -0.008868 -0.001385 -0.004478 0.000000 0.047933 0.000000
# 6 0.000000 0.000000 0.000000 -0.000994 0.000000 0.035715
#
#
# Mechanical properties :
#
#
# Convention : Reuss Voigt Hill
#
# Bulk Modulus (GPa) = 37.01788 49.93615 43.47702
# Shear Modulus (GPa) = 25.76896 30.77547 28.27221
#
# Velocity S-wave (km/s) = 3.41786 3.73515 3.58002
# Velocity P-wave (km/s) = 5.68831 6.42177 6.06613
#
# Compressibility (1/GPa) = 0.02701397
#
# Stress axis : x y z
#
# Youngs Moduli (GPa) = 36.35855 93.76118 102.29357
#
# Poissons Ratio (x) = 0.55880 0.46590
# Poissons Ratio (y) = 0.21669 -0.00500
# Poissons Ratio (z) = 0.16560 -0.00458
#
# Static dielectric constant tensor:
#      x y z
#    x 3.696340 0.000000 0.138480 
#    y 0.000000 3.917180 0.000000 
#    z 0.138480 0.000000 4.220190 
# 
# 
# High freq. dielectric constant tensor:
#      x y z
#    x 1.836050 0.000000 0.007490 
#    y 0.000000 1.875120 0.000000 
#    z 0.007490 0.000000 1.878810 
# 
# From -- ./inp_files/25546.got.cif
#   From: 2010.03.12/outbox.cif.g09.slc.cpg/sg14_13_cif.got.tgz:25546.got - 2010.03.31 13:35:05.
