data_PCOD8124322
_publ_section_title
;
Structure prediction by ZEFSAII (Michael W. Deem and Ramdas Pophale) SiO2 
 PCOD8124322
Probable space group: P 21/C
;
_chemical_formula_sum "Si O2"
_cell_formula_units_Z 28
_cell_length_a 14.169392
_cell_length_b 16.289312
_cell_length_c 8.718821
_cell_angle_alpha 90.000000
_cell_angle_beta 135.483733
_cell_angle_gamma 90.000000
_cell_volume 1410.908845
_symmetry_space_group_name_H-M "P 21/C"
_symmetry_group_IT_number 14
_symmetry_cell_setting 'monoclinic'
loop_
_space_group_symop_operation_xyz
x,y,z
-x,1/2+y,1/2-z
-x,-y,-z
x,1/2-y,1/2+z
loop_
_atom_site_type_symbol
_atom_site_label
_atom_site_fract_x
_atom_site_fract_y
_atom_site_fract_z
Si Si1 0.277884 0.145679 0.671978
Si Si2 0.587841 0.357180 0.483114
Si Si3 0.149582 0.245957 0.771122
Si Si4 0.808636 0.016160 0.266709
Si Si5 0.718468 0.234673 0.868895
Si Si6 0.896450 0.322989 0.321258
Si Si7 0.017694 0.085933 0.723686
O O1 0.266571 0.213725 0.792459
O O2 0.208513 0.179120 0.437616
O O3 0.202020 0.062648 0.634506
O O4 0.431953 0.123915 0.820131
O O5 0.664659 0.444283 0.565702
O O6 0.640291 0.305258 0.687664
O O7 0.610175 0.311568 0.347924
O O8 0.100967 0.170693 0.819506
O O9 0.024485 0.274247 0.526914
O O10 0.904979 0.083115 0.458735
O O11 0.878264 0.989114 0.185107
O O12 0.785720 0.169465 0.827622
O O13 0.836544 0.271681 0.109190
O O14 0.942811 0.412049 0.304123
#
# Coordination Sequence:
#
# PCOD8124322 Si02
#       7
#     4   4   4   4   4   4   4
#     4  11  23  37  62  84 120 163 196 238 290 360
#     4  11  21  41  57  87 120 158 205 237 284 363
#     4  11  20  36  61  92 114 149 201 248 294 342
#     4  10  22  38  60  88 120 160 191 239 310 355
#     4  10  21  33  65  88 113 153 200 251 294 338
#     4  11  17  35  60  90 115 143 188 259 297 338
#     4  10  19  36  60  87 119 144 194 249 294 348
#
# _framework density 19.845362999999999
#
# number of rings (size 3 to 8) (size 9 to 14) (size 15 to 20)
#    0.000    1.429    4.286    2.143    0.000    2.286 
#    0.000    2.857    0.000    1.714    0.000    0.000 
#    0.000    0.000    0.000    0.000    0.000    0.000 
#
# Total GULP energy -347069.868472 kJ/mol
# GULP energy per Si atom -12395.352445 kJ/mol
# Density = 1.980019 g / cm^3
# Si number density = 19.845363 Si / 1000 Ang^3
#
#
#
# Elastic Constant Matrix: (Units=GPa)
#
#
# Indices 1 2 3 4 5 6 
#
# 1 96.8801 12.7248 23.6671 0.0000 0.3340 0.0000
# 2 12.7248 48.5088 13.5191 0.0000 -3.2820 0.0000
# 3 23.6671 13.5191 69.0109 0.0000 4.3878 0.0000
# 4 0.0000 0.0000 0.0000 29.1575 0.0000 -0.9977
# 5 0.3340 -3.2820 4.3878 0.0000 36.6767 0.0000
# 6 0.0000 0.0000 0.0000 -0.9977 0.0000 31.4790
#
#
#
# Elastic Compliance Matrix: (Units=1/GPa)
#
#
# Indices 1 2 3 4 5 6 
#
# 1 0.011451 -0.002007 -0.003543 0.000000 0.000140 0.000000
# 2 -0.002007 0.022383 -0.003854 0.000000 0.002482 0.000000
# 3 -0.003543 -0.003854 0.016607 0.000000 -0.002299 0.000000
# 4 0.000000 0.000000 0.000000 0.034334 0.000000 0.001088
# 5 0.000140 0.002482 -0.002299 0.000000 0.027761 0.000000
# 6 0.000000 0.000000 0.000000 0.001088 0.000000 0.031802
#
#
# Mechanical properties :
#
#
# Convention : Reuss Voigt Hill
#
# Bulk Modulus (GPa) = 31.61294 34.91353 33.26324
# Shear Modulus (GPa) = 28.78699 30.42858 29.60778
#
# Velocity S-wave (km/s) = 3.81276 3.91997 3.86673
# Velocity P-wave (km/s) = 5.94534 6.17407 6.06078
#
# Compressibility (1/GPa) = 0.03163262
#
# Stress axis : x y z
#
# Youngs Moduli (GPa) = 87.33163 44.67594 60.21666
#
# Poissons Ratio (x) = 0.08966 0.21333
# Poissons Ratio (y) = 0.17527 0.23210
# Poissons Ratio (z) = 0.30939 0.17220
#
# Static dielectric constant tensor:
#      x y z
#    x 3.990520 0.000000 -0.081610 
#    y 0.000000 3.503280 0.000000 
#    z -0.081610 0.000000 3.382210 
# 
# 
# High freq. dielectric constant tensor:
#      x y z
#    x 1.794050 0.000000 0.002250 
#    y 0.000000 1.753830 0.000000 
#    z 0.002250 0.000000 1.757320 
# 
# From -- ./inp_files/16193.got.cif
#   From: 2010.03.12/outbox.cif.g09.slc.cpg/sg14_9_cif.got.tgz:16193.got - 2010.03.31 13:35:05.
