data_PCOD8124180
_publ_section_title
;
Structure prediction by ZEFSAII (Michael W. Deem and Ramdas Pophale) SiO2 
 PCOD8124180
Probable space group: P 21/C
;
_chemical_formula_sum "Si O2"
_cell_formula_units_Z 20
_cell_length_a 11.838956
_cell_length_b 17.002800
_cell_length_c 5.183828
_cell_angle_alpha 90.000000
_cell_angle_beta 97.541421
_cell_angle_gamma 90.000000
_cell_volume 1034.454879
_symmetry_space_group_name_H-M "P 21/C"
_symmetry_group_IT_number 14
_symmetry_cell_setting 'monoclinic'
loop_
_space_group_symop_operation_xyz
x,y,z
-x,1/2+y,1/2-z
-x,-y,-z
x,1/2-y,1/2+z
loop_
_atom_site_type_symbol
_atom_site_label
_atom_site_fract_x
_atom_site_fract_y
_atom_site_fract_z
Si Si1 0.580524 0.299841 0.725250
Si Si2 0.319962 0.199787 0.115790
Si Si3 0.213069 0.907213 0.779185
Si Si4 0.154505 0.438705 0.489915
Si Si5 0.086222 0.913098 0.231919
O O1 0.606656 0.236113 0.512711
O O2 0.450487 0.328738 0.668525
O O3 0.659017 0.376000 0.711041
O O4 0.292559 0.238785 0.833190
O O5 0.242395 0.123586 0.129798
O O6 0.137229 0.881419 0.512828
O O7 0.218354 0.002416 0.807903
O O8 0.152171 0.870101 0.014616
O O9 0.104322 0.491704 0.711314
O O10 0.048670 0.394686 0.318899
#
# Coordination Sequence:
#
# PCOD8124180 Si02
#       5
#     4   4   4   4   4
#     4  10  21  39  55  77 114 145 179 227 273 319
#     4  10  23  38  56  79 110 148 179 223 276 317
#     4  10  19  35  58  81 105 145 181 218 274 316
#     4   9  21  36  60  78 115 138 186 221 268 324
#     4   9  20  34  59  80 109 138 175 227 273 307
#
# _framework density 19.333853000000001
#
# number of rings (size 3 to 8) (size 9 to 14) (size 15 to 20)
#    1.200    1.200    0.000    1.800    2.800    0.800 
#    0.000    7.000    0.000    0.000    0.000    0.000 
#    0.000    0.000    0.000    0.000    0.000    0.000 
#
# Total GULP energy -247910.425408 kJ/mol
# GULP energy per Si atom -12395.521270 kJ/mol
# Density = 1.928985 g / cm^3
# Si number density = 19.333853 Si / 1000 Ang^3
#
#
#
# Elastic Constant Matrix: (Units=GPa)
#
#
# Indices 1 2 3 4 5 6 
#
# 1 97.0577 43.0063 17.6265 0.0000 14.3931 0.0000
# 2 43.0063 33.9121 5.7333 0.0000 7.4315 0.0000
# 3 17.6265 5.7333 94.9112 0.0000 2.0932 0.0000
# 4 0.0000 0.0000 0.0000 11.2810 0.0000 -1.8391
# 5 14.3931 7.4315 2.0932 0.0000 26.1400 0.0000
# 6 0.0000 0.0000 0.0000 -1.8391 0.0000 34.1051
#
#
#
# Elastic Compliance Matrix: (Units=1/GPa)
#
#
# Indices 1 2 3 4 5 6 
#
# 1 0.024749 -0.029852 -0.002684 0.000000 -0.004925 0.000000
# 2 -0.029852 0.067734 0.001517 0.000000 -0.002941 0.000000
# 3 -0.002684 0.001517 0.010939 0.000000 0.000171 0.000000
# 4 0.000000 0.000000 0.000000 0.089431 0.000000 0.004822
# 5 -0.004925 -0.002941 0.000171 0.000000 0.041790 0.000000
# 6 0.000000 0.000000 0.000000 0.004822 0.000000 0.029581
#
#
# Mechanical properties :
#
#
# Convention : Reuss Voigt Hill
#
# Bulk Modulus (GPa) = 24.16451 39.84594 32.00522
# Shear Modulus (GPa) = 14.70344 24.93953 19.82148
#
# Velocity S-wave (km/s) = 2.76071 3.59547 3.20538
# Velocity P-wave (km/s) = 4.76316 6.15554 5.50356
#
# Compressibility (1/GPa) = 0.04138301
#
# Stress axis : x y z
#
# Youngs Moduli (GPa) = 40.40640 14.76369 91.41390
#
# Poissons Ratio (x) = 0.44073 0.24538
# Poissons Ratio (y) = 1.20622 -0.13870
# Poissons Ratio (z) = 0.10846 -0.02240
#
# Static dielectric constant tensor:
#      x y z
#    x 3.511790 0.000000 -0.010320 
#    y 0.000000 3.037660 0.000000 
#    z -0.010320 0.000000 3.523250 
# 
# 
# High freq. dielectric constant tensor:
#      x y z
#    x 1.756160 0.000000 0.002970 
#    y 0.000000 1.710340 0.000000 
#    z 0.002970 0.000000 1.761140 
# 
# From -- ./inp_files/1416.got.cif
#   From: 2010.03.12/outbox.cif.g09.slc.cpg/sg14_1_cif.got.tgz:1416.got - 2010.03.31 13:35:05.
