data_PCOD8124524
_publ_section_title
;
Structure prediction by ZEFSAII (Michael W. Deem and Ramdas Pophale) SiO2 
 PCOD8124524
Probable space group: P 21/C
;
_chemical_formula_sum "Si O2"
_cell_formula_units_Z 32
_cell_length_a 22.796858
_cell_length_b 11.704326
_cell_length_c 12.457706
_cell_angle_alpha 90.000000
_cell_angle_beta 27.357631
_cell_angle_gamma 90.000000
_cell_volume 1527.515997
_symmetry_space_group_name_H-M "P 21/C"
_symmetry_group_IT_number 14
_symmetry_cell_setting 'monoclinic'
loop_
_space_group_symop_operation_xyz
x,y,z
-x,1/2+y,1/2-z
-x,-y,-z
x,1/2-y,1/2+z
loop_
_atom_site_type_symbol
_atom_site_label
_atom_site_fract_x
_atom_site_fract_y
_atom_site_fract_z
Si Si1 0.599330 0.122582 0.928854
Si Si2 0.832429 0.520707 0.112682
Si Si3 0.200742 0.404450 0.596580
Si Si4 0.229953 0.079739 0.670607
Si Si5 0.897520 0.827593 0.328359
Si Si6 0.087340 0.989195 0.098436
Si Si7 0.419288 0.576197 0.769872
Si Si8 0.575827 0.719045 0.672497
O O1 0.717261 0.069266 0.801689
O O2 0.634215 0.144326 0.747157
O O3 0.553739 0.239599 0.058758
O O4 0.474672 0.043300 0.137424
O O5 0.856764 0.565639 0.193722
O O6 0.805889 0.630341 0.076668
O O7 0.958672 0.457245 0.862177
O O8 0.116884 0.305246 0.674467
O O9 0.190556 0.511734 0.529672
O O10 0.347047 0.363655 0.371324
O O11 0.140896 0.098838 0.713005
O O12 0.330020 0.182877 0.523745
O O13 0.303953 0.958297 0.537060
O O14 0.140055 0.071884 0.920376
O O15 0.045138 0.863803 0.120388
O O16 0.531692 0.647187 0.641976
#
# Coordination Sequence:
#
# PCOD8124524 Si02
#       8
#     4   4   4   4   4   4   4   4
#     4  10  20  37  63  92 119 162 210 257 314 362
#     4  10  21  42  64  90 129 163 205 259 314 371
#     4  11  22  39  65  94 123 166 212 252 308 380
#     4  10  20  39  61  94 123 158 213 253 312 368
#     4   9  22  37  63  93 115 168 201 254 299 372
#     4  10  23  38  64  92 128 162 204 259 317 366
#     4  10  19  38  62  86 125 159 208 262 302 374
#     4  10  23  34  65  93 119 166 210 257 304 378
#
# _framework density 20.949044000000001
#
# number of rings (size 3 to 8) (size 9 to 14) (size 15 to 20)
#    0.750    1.250    2.500    0.750    7.000    0.000 
#    2.250    1.875    5.500    0.000    0.000    0.000 
#    0.000    0.000    0.000    0.000    0.000    0.000 
#
# Total GULP energy -396424.666737 kJ/mol
# GULP energy per Si atom -12388.270836 kJ/mol
# Density = 2.090136 g / cm^3
# Si number density = 20.949044 Si / 1000 Ang^3
#
#
#
# Elastic Constant Matrix: (Units=GPa)
#
#
# Indices 1 2 3 4 5 6 
#
# 1 139.3522 56.5181 40.7428 0.0000 22.6651 0.0000
# 2 56.5181 57.3149 33.0697 0.0000 -2.2018 0.0000
# 3 40.7428 33.0697 96.9668 0.0000 8.5663 0.0000
# 4 0.0000 0.0000 0.0000 14.3420 0.0000 -9.6597
# 5 22.6651 -2.2018 8.5663 0.0000 30.5796 0.0000
# 6 0.0000 0.0000 0.0000 -9.6597 0.0000 40.1092
#
#
#
# Elastic Compliance Matrix: (Units=1/GPa)
#
#
# Indices 1 2 3 4 5 6 
#
# 1 0.015775 -0.016034 -0.000026 0.000000 -0.012839 0.000000
# 2 -0.016034 0.038443 -0.007862 0.000000 0.016855 0.000000
# 3 -0.000026 -0.007862 0.013385 0.000000 -0.004297 0.000000
# 4 0.000000 0.000000 0.000000 0.083225 0.000000 0.020044
# 5 -0.012839 0.016855 -0.004297 0.000000 0.044635 0.000000
# 6 0.000000 0.000000 0.000000 0.020044 0.000000 0.029759
#
#
# Mechanical properties :
#
#
# Convention : Reuss Voigt Hill
#
# Bulk Modulus (GPa) = 50.61288 61.58835 56.10062
# Shear Modulus (GPa) = 17.87939 27.89306 22.88622
#
# Velocity S-wave (km/s) = 2.92459 3.65289 3.30884
# Velocity P-wave (km/s) = 5.96798 6.87419 6.43705
#
# Compressibility (1/GPa) = 0.01975782
#
# Stress axis : x y z
#
# Youngs Moduli (GPa) = 63.39195 26.01278 74.71288
#
# Poissons Ratio (x) = 0.41709 0.00191
# Poissons Ratio (y) = 1.01643 0.58743
# Poissons Ratio (z) = 0.00162 0.20452
#
# Static dielectric constant tensor:
#      x y z
#    x 3.846050 0.000000 0.101000 
#    y 0.000000 3.538710 0.000000 
#    z 0.101000 0.000000 3.702870 
# 
# 
# High freq. dielectric constant tensor:
#      x y z
#    x 1.830660 0.000000 0.009060 
#    y 0.000000 1.785840 0.000000 
#    z 0.009060 0.000000 1.809310 
# 
# From -- ./inp_files/35911.got.cif
#   From: 2010.03.12/outbox.cif.g09.slc.cpg/sg14_18_cif.got.tgz:35911.got - 2010.03.31 13:35:05.
