data_PCOD8124476
_publ_section_title
;
Structure prediction by ZEFSAII (Michael W. Deem and Ramdas Pophale) SiO2 
 PCOD8124476
Probable space group: P 21/C
;
_chemical_formula_sum "Si O2"
_cell_formula_units_Z 28
_cell_length_a 13.182125
_cell_length_b 21.353021
_cell_length_c 5.455735
_cell_angle_alpha 90.000000
_cell_angle_beta 59.351207
_cell_angle_gamma 90.000000
_cell_volume 1321.149883
_symmetry_space_group_name_H-M "P 21/C"
_symmetry_group_IT_number 14
_symmetry_cell_setting 'monoclinic'
loop_
_space_group_symop_operation_xyz
x,y,z
-x,1/2+y,1/2-z
-x,-y,-z
x,1/2-y,1/2+z
loop_
_atom_site_type_symbol
_atom_site_label
_atom_site_fract_x
_atom_site_fract_y
_atom_site_fract_z
Si Si1 0.517060 0.426382 0.442752
Si Si2 0.037471 0.584835 0.266494
Si Si3 0.043683 0.779770 0.887028
Si Si4 0.184021 0.490833 0.409277
Si Si5 0.756782 0.098260 0.819169
Si Si6 0.426331 0.436674 0.054411
Si Si7 0.698030 0.231096 0.008562
O O1 0.500000 0.500000 0.500000
O O2 0.655442 0.409156 0.235787
O O3 0.446807 0.400199 0.289639
O O4 0.472588 0.397129 0.759956
O O5 0.119384 0.532143 0.286395
O O6 0.015023 0.646305 0.458939
O O7 0.912927 0.554289 0.343437
O O8 0.110495 0.608431 0.941342
O O9 0.989064 0.753764 0.696935
O O10 0.184428 0.771275 0.697282
O O11 0.248894 0.534540 0.523198
O O12 0.288255 0.448704 0.168639
O O13 0.728294 0.158563 0.020370
O O14 0.500000 0.500000 0.000000
O O15 0.628763 0.259457 0.331568
#
# Coordination Sequence:
#
# PCOD8124476 Si02
#       7
#     4   4   4   4   4   4   4
#     4  10  20  34  57  79 107 149 188 225 273 334
#     4  11  23  35  54  88 121 154 181 243 297 352
#     4  10  19  38  56  75 112 147 197 228 275 353
#     4  11  23  35  54  85 125 154 189 232 300 353
#     4  12  21  34  60  81 122 149 188 245 295 354
#     4  10  19  38  53  76 115 150 193 219 261 347
#     4  10  20  34  54  80 112 144 189 235 286 347
#
# _framework density 21.193657999999999
#
# number of rings (size 3 to 8) (size 9 to 14) (size 15 to 20)
#    0.000    1.429    5.714    3.857    0.000    0.000 
#    0.000    0.000    0.000    0.000    0.000    6.000 
#    0.000    0.000    0.000    0.000    0.000    0.000 
#
# Total GULP energy -346904.717293 kJ/mol
# GULP energy per Si atom -12389.454189 kJ/mol
# Density = 2.114542 g / cm^3
# Si number density = 21.193658 Si / 1000 Ang^3
#
#
#
# Elastic Constant Matrix: (Units=GPa)
#
#
# Indices 1 2 3 4 5 6 
#
# 1 85.4774 22.0432 51.8172 0.0000 4.5974 0.0000
# 2 22.0432 47.5265 10.9895 0.0000 -5.4646 0.0000
# 3 51.8172 10.9895 115.8654 0.0000 21.8790 0.0000
# 4 0.0000 0.0000 0.0000 1.1477 0.0000 15.7351
# 5 4.5974 -5.4646 21.8790 0.0000 47.8050 0.0000
# 6 0.0000 0.0000 0.0000 15.7351 0.0000 9.6985
#
#
#
# Elastic Compliance Matrix: (Units=1/GPa)
#
#
# Indices 1 2 3 4 5 6 
#
# 1 0.017903 -0.006432 -0.007588 0.000000 0.001016 0.000000
# 2 -0.006432 0.024443 -0.000094 0.000000 0.003456 0.000000
# 3 -0.007588 -0.000094 0.013023 0.000000 -0.005241 0.000000
# 4 0.000000 0.000000 0.000000 -0.041015 0.000000 0.066544
# 5 0.001016 0.003456 -0.005241 0.000000 0.023614 0.000000
# 6 0.000000 0.000000 0.000000 0.066544 0.000000 -0.004853
#
#
# Mechanical properties :
#
#
# Convention : Reuss Voigt Hill
#
# Bulk Modulus (GPa) = 36.84641 46.50767 41.67704
# Shear Modulus (GPa) = 71.03022 22.66484 46.84753
#
# Velocity S-wave (km/s) = 5.79548 3.27374 4.70664
# Velocity P-wave (km/s) = 7.88713 6.02342 7.01742
#
# Compressibility (1/GPa) = 0.02713969
#
# Stress axis : x y z
#
# Youngs Moduli (GPa) = 55.85550 40.91088 76.78661
#
# Poissons Ratio (x) = 0.26315 0.58270
# Poissons Ratio (y) = 0.35927 0.00724
# Poissons Ratio (z) = 0.42386 0.00386
#
# Static dielectric constant tensor:
#      x y z
#    x 3.817670 0.000000 0.245370 
#    y 0.000000 3.644360 0.000000 
#    z 0.245370 0.000000 3.824610 
# 
# 
# High freq. dielectric constant tensor:
#      x y z
#    x 1.804870 0.000000 0.028500 
#    y 0.000000 1.800120 0.000000 
#    z 0.028500 0.000000 1.823830 
# 
# From -- ./inp_files/2929.got.cif
#   From: 2010.03.12/outbox.cif.g09.slc.cpg/sg14_2_cif.got.tgz:2929.got - 2010.03.31 13:35:05.
