data_PCOD8124771
_publ_section_title
;
Structure prediction by ZEFSAII (Michael W. Deem and Ramdas Pophale) SiO2 
 PCOD8124771
Probable space group: P 21/C
;
_chemical_formula_sum "Si O2"
_cell_formula_units_Z 32
_cell_length_a 16.494733
_cell_length_b 13.992595
_cell_length_c 22.815264
_cell_angle_alpha 90.000000
_cell_angle_beta 19.430455
_cell_angle_gamma 90.000000
_cell_volume 1751.752833
_symmetry_space_group_name_H-M "P 21/C"
_symmetry_group_IT_number 14
_symmetry_cell_setting 'monoclinic'
loop_
_space_group_symop_operation_xyz
x,y,z
-x,1/2+y,1/2-z
-x,-y,-z
x,1/2-y,1/2+z
loop_
_atom_site_type_symbol
_atom_site_label
_atom_site_fract_x
_atom_site_fract_y
_atom_site_fract_z
Si Si1 0.139450 0.609829 0.140474
Si Si2 0.775720 0.739433 0.322885
Si Si3 0.775720 0.239433 0.822885
Si Si4 0.519857 0.390186 0.200322
Si Si5 0.519857 0.890186 0.700321
Si Si6 0.881431 0.239606 0.519970
Si Si7 0.118568 0.239606 0.480031
Si Si8 0.139450 0.390170 0.140474
O O1 0.213091 0.659939 0.150805
O O2 0.081604 0.500000 0.193287
O O3 0.896224 0.656422 0.279657
O O4 0.363316 0.622133 0.943307
O O5 0.500000 0.707822 0.500000
O O6 0.786908 0.840061 0.349195
O O7 0.908171 0.752572 0.170951
O O8 0.908168 0.252572 0.670953
O O9 0.896224 0.156422 0.779657
O O10 0.482952 0.500000 0.242628
O O11 0.692970 0.343508 0.131258
O O12 0.257494 0.340195 0.378755
O O13 0.257494 0.840194 0.878754
O O14 0.692971 0.843507 0.631257
O O15 0.636684 0.877867 0.556692
O O16 0.000003 0.208040 0.499998
#
# Coordination Sequence:
#
# PCOD8124771 Si02
#       8
#     4   4   4   4   4   4   4   4
#     4   9  19  36  55  75 101 133 170 211 252 296
#     4  10  20  34  53  77 104 134 168 207 252 301
#     4  10  20  34  53  77 104 134 168 207 252 301
#     4   9  19  36  55  75 101 133 170 211 252 296
#     4   9  19  36  55  75 101 133 170 211 252 296
#     4  10  20  34  53  77 104 134 168 207 252 301
#     4  10  20  34  53  77 104 134 168 207 252 301
#     4   9  19  36  55  75 101 133 170 211 252 296
#
# _framework density 18.267417999999999
#
# number of rings (size 3 to 8) (size 9 to 14) (size 15 to 20)
#    0.000    2.500    0.000    1.500    0.000    5.000 
#    0.000    0.000    0.000    0.000    0.000    0.000 
#    0.000    0.000    0.000    0.000    0.000    0.000 
#
# Total GULP energy -396949.468659 kJ/mol
# GULP energy per Si atom -12404.670896 kJ/mol
# Density = 1.822584 g / cm^3
# Si number density = 18.267418 Si / 1000 Ang^3
#
#
#
# Elastic Constant Matrix: (Units=GPa)
#
#
# Indices 1 2 3 4 5 6 
#
# 1 76.9892 -2.4673 5.8918 0.0000 9.1661 0.0000
# 2 -2.4673 85.3907 5.8186 0.0000 10.3838 0.0000
# 3 5.8918 5.8186 80.2797 0.0000 -4.8488 0.0000
# 4 0.0000 0.0000 0.0000 23.4735 0.0000 6.6229
# 5 9.1661 10.3838 -4.8488 0.0000 21.4780 0.0000
# 6 0.0000 0.0000 0.0000 6.6229 0.0000 18.2900
#
#
#
# Elastic Compliance Matrix: (Units=1/GPa)
#
#
# Indices 1 2 3 4 5 6 
#
# 1 0.013981 0.001357 -0.001545 0.000000 -0.006971 0.000000
# 2 0.001357 0.012706 -0.001446 0.000000 -0.007048 0.000000
# 3 -0.001545 -0.001446 0.012933 0.000000 0.004278 0.000000
# 4 0.000000 0.000000 0.000000 0.047449 0.000000 -0.017181
# 5 -0.006971 -0.007048 0.004278 0.000000 0.053908 0.000000
# 6 0.000000 0.000000 0.000000 -0.017181 0.000000 0.060896
#
#
# Mechanical properties :
#
#
# Convention : Reuss Voigt Hill
#
# Bulk Modulus (GPa) = 27.51019 29.01616 28.26318
# Shear Modulus (GPa) = 23.01407 28.20940 25.61173
#
# Velocity S-wave (km/s) = 3.55328 3.93395 3.74845
# Velocity P-wave (km/s) = 5.65038 6.04593 5.85150
#
# Compressibility (1/GPa) = 0.03635016
#
# Stress axis : x y z
#
# Youngs Moduli (GPa) = 71.52770 78.70456 77.32093
#
# Poissons Ratio (x) = -0.10680 0.11950
# Poissons Ratio (y) = -0.09706 0.11182
# Poissons Ratio (z) = 0.11054 0.11382
#
# Static dielectric constant tensor:
#      x y z
#    x 3.372190 0.000000 0.026570 
#    y 0.000000 3.349840 0.000000 
#    z 0.026570 0.000000 3.389800 
# 
# 
# High freq. dielectric constant tensor:
#      x y z
#    x 1.711940 0.000000 0.001970 
#    y 0.000000 1.704720 0.000000 
#    z 0.001970 0.000000 1.713240 
# 
# From -- ./inp_files/25508.got.cif
#   From: 2010.03.12/outbox.cif.g09.slc.cpg/sg14_13_cif.got.tgz:25508.got - 2010.03.31 13:35:05.
