data_PCOD8124609
_publ_section_title
;
Structure prediction by ZEFSAII (Michael W. Deem and Ramdas Pophale) SiO2 
 PCOD8124609
Probable space group: P 21/C
;
_chemical_formula_sum "Si O2"
_cell_formula_units_Z 28
_cell_length_a 8.662280
_cell_length_b 17.702804
_cell_length_c 12.965999
_cell_angle_alpha 90.000000
_cell_angle_beta 134.817976
_cell_angle_gamma 90.000000
_cell_volume 1410.394510
_symmetry_space_group_name_H-M "P 21/C"
_symmetry_group_IT_number 14
_symmetry_cell_setting 'monoclinic'
loop_
_space_group_symop_operation_xyz
x,y,z
-x,1/2+y,1/2-z
-x,-y,-z
x,1/2-y,1/2+z
loop_
_atom_site_type_symbol
_atom_site_label
_atom_site_fract_x
_atom_site_fract_y
_atom_site_fract_z
Si Si1 0.454665 0.545388 0.320166
Si Si2 0.212744 0.537288 0.910626
Si Si3 0.330563 0.440038 0.787145
Si Si4 0.909046 0.832317 0.331090
Si Si5 0.970350 0.328867 0.675967
Si Si6 0.501655 0.387882 0.446886
Si Si7 0.009526 0.394135 0.913305
O O1 0.636643 0.541946 0.317567
O O2 0.424726 0.463539 0.354282
O O3 0.525314 0.603776 0.442594
O O4 0.224128 0.571658 0.163747
O O5 0.218426 0.510391 0.793702
O O6 0.020050 0.596846 0.826975
O O7 0.170734 0.463288 0.961977
O O8 0.438758 0.576631 0.048932
O O9 0.177619 0.366981 0.719652
O O10 0.664106 0.823601 0.171124
O O11 0.041666 0.757598 0.364718
O O12 0.898131 0.845561 0.448651
O O13 0.748366 0.368086 0.532781
O O14 0.988761 0.336772 0.807954
#
# Coordination Sequence:
#
# PCOD8124609 Si02
#       7
#     4   4   4   4   4   4   4
#     4  10  19  39  66  89 121 159 200 256 303 354
#     4  10  20  37  66  95 111 154 218 258 283 352
#     4  10  21  38  62  90 122 153 202 261 296 340
#     4  12  22  39  68  86 122 164 207 242 304 371
#     4  10  26  41  56  90 132 156 195 252 312 363
#     4  10  23  39  61  91 120 161 205 243 306 372
#     4  10  20  42  66  88 117 167 208 244 297 367
#
# _framework density 19.852601
#
# number of rings (size 3 to 8) (size 9 to 14) (size 15 to 20)
#    0.000    1.714    2.857    1.286    4.000    1.714 
#    2.571    1.429    0.000    0.000    0.000    0.000 
#    0.000    0.000    0.000    0.000    0.000    0.000 
#
# Total GULP energy -347265.648428 kJ/mol
# GULP energy per Si atom -12402.344587 kJ/mol
# Density = 1.980742 g / cm^3
# Si number density = 19.852601 Si / 1000 Ang^3
#
#
#
# Elastic Constant Matrix: (Units=GPa)
#
#
# Indices 1 2 3 4 5 6 
#
# 1 130.2057 35.9013 36.7189 0.0000 -7.8407 0.0000
# 2 35.9013 80.7835 31.9035 0.0000 0.5374 0.0000
# 3 36.7189 31.9035 101.9914 0.0000 5.6922 0.0000
# 4 0.0000 0.0000 0.0000 20.8290 0.0000 1.4081
# 5 -7.8407 0.5374 5.6922 0.0000 24.6892 0.0000
# 6 0.0000 0.0000 0.0000 1.4081 0.0000 26.5122
#
#
#
# Elastic Compliance Matrix: (Units=1/GPa)
#
#
# Indices 1 2 3 4 5 6 
#
# 1 0.009534 -0.003222 -0.002631 0.000000 0.003704 0.000000
# 2 -0.003222 0.015225 -0.003573 0.000000 -0.000531 0.000000
# 3 -0.002631 -0.003573 0.012067 0.000000 -0.003540 0.000000
# 4 0.000000 0.000000 0.000000 0.048183 0.000000 -0.002559
# 5 0.003704 -0.000531 -0.003540 0.000000 0.042508 0.000000
# 6 0.000000 0.000000 0.000000 -0.002559 0.000000 0.037854
#
#
# Mechanical properties :
#
#
# Convention : Reuss Voigt Hill
#
# Bulk Modulus (GPa) = 55.63721 58.00310 56.82015
# Shear Modulus (GPa) = 26.28600 28.30320 27.29460
#
# Velocity S-wave (km/s) = 3.64271 3.77990 3.71194
# Velocity P-wave (km/s) = 6.76598 6.95201 6.85962
#
# Compressibility (1/GPa) = 0.01797358
#
# Stress axis : x y z
#
# Youngs Moduli (GPa) = 104.89065 65.67965 82.86973
#
# Poissons Ratio (x) = 0.21165 0.21804
# Poissons Ratio (y) = 0.33801 0.29608
# Poissons Ratio (z) = 0.27597 0.23466
#
# Static dielectric constant tensor:
#      x y z
#    x 3.722260 0.000000 0.013290 
#    y 0.000000 3.334840 0.000000 
#    z 0.013290 0.000000 3.581400 
# 
# 
# High freq. dielectric constant tensor:
#      x y z
#    x 1.783340 0.000000 0.002820 
#    y 0.000000 1.747690 0.000000 
#    z 0.002820 0.000000 1.778430 
# 
# From -- ./inp_files/41807.got.cif
#   From: 2010.03.12/outbox.cif.g09.slc.cpg/sg14_21_cif.got.tgz:41807.got - 2010.03.31 13:35:05.
