data_PCOD8124332
_publ_section_title
;
Structure prediction by ZEFSAII (Michael W. Deem and Ramdas Pophale) SiO2 
 PCOD8124332
Probable space group: P 21/C
;
_chemical_formula_sum "Si O2"
_cell_formula_units_Z 32
_cell_length_a 11.860387
_cell_length_b 16.820005
_cell_length_c 9.276327
_cell_angle_alpha 90.000000
_cell_angle_beta 62.822476
_cell_angle_gamma 90.000000
_cell_volume 1646.241949
_symmetry_space_group_name_H-M "P 21/C"
_symmetry_group_IT_number 14
_symmetry_cell_setting 'monoclinic'
loop_
_space_group_symop_operation_xyz
x,y,z
-x,1/2+y,1/2-z
-x,-y,-z
x,1/2-y,1/2+z
loop_
_atom_site_type_symbol
_atom_site_label
_atom_site_fract_x
_atom_site_fract_y
_atom_site_fract_z
Si Si1 0.597671 0.537283 0.049837
Si Si2 0.057003 0.169404 0.040834
Si Si3 0.426788 0.975372 0.898403
Si Si4 0.178651 0.897599 0.153600
Si Si5 0.272700 0.086199 0.786578
Si Si6 0.814967 0.424664 0.021567
Si Si7 0.920078 0.238105 0.373748
Si Si8 0.042104 0.995000 0.803168
O O1 0.525465 0.571080 0.233962
O O2 0.684764 0.464190 0.048910
O O3 0.500000 0.500000 0.000000
O O4 0.666995 0.604807 0.908986
O O5 0.009529 0.078600 0.074021
O O6 0.040971 0.208353 0.208203
O O7 0.202729 0.163750 0.897304
O O8 0.973520 0.224315 0.987379
O O9 0.373161 0.053278 0.845554
O O10 0.500000 0.000000 0.000000
O O11 0.312211 0.916655 0.001195
O O12 0.174919 0.933910 0.314390
O O13 0.162177 0.802710 0.165547
O O14 0.060669 0.934659 0.135995
O O15 0.170363 0.018462 0.809698
O O16 0.822876 0.332869 0.966698
O O17 0.931040 0.471320 0.878375
#
# Coordination Sequence:
#
# PCOD8124332 Si02
#       8
#     4   4   4   4   4   4   4   4
#     4   9  20  38  60  88 112 159 210 255 295 344
#     4  11  20  37  54  89 123 160 194 239 318 387
#     4  11  21  35  60  92 115 155 208 266 294 342
#     4  12  20  36  61  95 125 155 204 264 313 357
#     4  10  19  36  61  84 120 149 198 254 294 364
#     4  10  21  37  56  95 129 157 195 263 313 369
#     4  11  23  35  59  90 132 160 192 246 330 390
#     4  10  20  34  62  91 120 153 201 250 316 368
#
# _framework density 19.438213999999999
#
# number of rings (size 3 to 8) (size 9 to 14) (size 15 to 20)
#    0.000    1.500    5.000    1.500    0.000    1.000 
#    0.000    1.250    0.000    6.000    0.000    0.000 
#    0.000    0.000    0.000    0.000    0.000    0.000 
#
# Total GULP energy -396443.841932 kJ/mol
# GULP energy per Si atom -12388.870060 kJ/mol
# Density = 1.939397 g / cm^3
# Si number density = 19.438214 Si / 1000 Ang^3
#
#
#
# Elastic Constant Matrix: (Units=GPa)
#
#
# Indices 1 2 3 4 5 6 
#
# 1 85.3839 17.3098 35.7817 0.0000 -0.8481 0.0000
# 2 17.3098 56.3768 20.5755 0.0000 -9.3478 0.0000
# 3 35.7817 20.5755 163.6099 0.0000 -15.0626 0.0000
# 4 0.0000 0.0000 0.0000 26.6032 0.0000 -6.2085
# 5 -0.8481 -9.3478 -15.0626 0.0000 37.1176 0.0000
# 6 0.0000 0.0000 0.0000 -6.2085 0.0000 20.9602
#
#
#
# Elastic Compliance Matrix: (Units=1/GPa)
#
#
# Indices 1 2 3 4 5 6 
#
# 1 0.013515 -0.003446 -0.002674 0.000000 -0.001644 0.000000
# 2 -0.003446 0.020023 -0.001358 0.000000 0.004413 0.000000
# 3 -0.002674 -0.001358 0.007096 0.000000 0.002476 0.000000
# 4 0.000000 0.000000 0.000000 0.040381 0.000000 0.011961
# 5 -0.001644 0.004413 0.002476 0.000000 0.029020 0.000000
# 6 0.000000 0.000000 0.000000 0.011961 0.000000 0.051252
#
#
# Mechanical properties :
#
#
# Convention : Reuss Voigt Hill
#
# Bulk Modulus (GPa) = 38.94489 50.30054 44.62271
# Shear Modulus (GPa) = 27.05595 32.38310 29.71952
#
# Velocity S-wave (km/s) = 3.73486 4.08603 3.91439
# Velocity P-wave (km/s) = 6.21913 6.94220 6.59059
#
# Compressibility (1/GPa) = 0.02567731
#
# Stress axis : x y z
#
# Youngs Moduli (GPa) = 73.99420 49.94184 140.93231
#
# Poissons Ratio (x) = 0.17212 0.37680
# Poissons Ratio (y) = 0.25501 0.19141
# Poissons Ratio (z) = 0.19783 0.06783
#
# Static dielectric constant tensor:
#      x y z
#    x 3.248090 0.000000 -0.126590 
#    y 0.000000 3.351980 0.000000 
#    z -0.126590 0.000000 4.419850 
# 
# 
# High freq. dielectric constant tensor:
#      x y z
#    x 1.743850 0.000000 0.001410 
#    y 0.000000 1.715410 0.000000 
#    z 0.001410 0.000000 1.799250 
# 
# From -- ./inp_files/13711.got.cif
#   From: 2010.03.12/outbox.cif.g09.slc.cpg/sg14_7_cif.got.tgz:13711.got - 2010.03.31 13:35:05.
