data_PCOD8124364
_publ_section_title
;
Structure prediction by ZEFSAII (Michael W. Deem and Ramdas Pophale) SiO2 
 PCOD8124364
Probable space group: P 21/C
;
_chemical_formula_sum "Si O2"
_cell_formula_units_Z 28
_cell_length_a 19.363067
_cell_length_b 4.976216
_cell_length_c 17.505969
_cell_angle_alpha 90.000000
_cell_angle_beta 55.503312
_cell_angle_gamma 90.000000
_cell_volume 1390.178266
_symmetry_space_group_name_H-M "P 21/C"
_symmetry_group_IT_number 14
_symmetry_cell_setting 'monoclinic'
loop_
_space_group_symop_operation_xyz
x,y,z
-x,1/2+y,1/2-z
-x,-y,-z
x,1/2-y,1/2+z
loop_
_atom_site_type_symbol
_atom_site_label
_atom_site_fract_x
_atom_site_fract_y
_atom_site_fract_z
Si Si1 0.729382 0.743150 0.817411
Si Si2 0.098290 0.125644 0.232112
Si Si3 0.502593 0.226493 0.300403
Si Si4 0.320391 0.759870 0.242498
Si Si5 0.671827 0.825053 0.024456
Si Si6 0.750603 0.174027 0.550177
Si Si7 0.912116 0.373870 0.863672
O O1 0.827844 0.819374 0.754060
O O2 0.718761 0.442494 0.794054
O O3 0.679465 0.943519 0.793373
O O4 0.692944 0.750951 0.925023
O O5 0.105185 0.327209 0.156127
O O6 0.008473 0.161245 0.330554
O O7 0.107825 0.826140 0.193721
O O8 0.523731 0.451576 0.224370
O O9 0.584617 0.175085 0.299502
O O10 0.428106 0.319104 0.402404
O O11 0.264034 0.747337 0.353436
O O12 0.715560 0.622463 0.056096
O O13 0.703781 0.123122 0.022430
O O14 0.850607 0.182039 0.473028
#
# Coordination Sequence:
#
# PCOD8124364 Si02
#       7
#     4   4   4   4   4   4   4
#     4  12  24  41  59  97 129 161 193 257 324 360
#     4  10  20  36  62  91 125 155 202 258 300 352
#     4  12  23  43  65  91 119 160 215 256 296 359
#     4  12  26  39  63  90 132 161 195 259 322 360
#     4  12  23  40  69  87 122 163 212 251 296 371
#     4  12  21  41  64  95 115 168 212 247 296 373
#     4  10  19  36  64  93 114 160 215 250 284 361
#
# _framework density 20.141302
#
# number of rings (size 3 to 8) (size 9 to 14) (size 15 to 20)
#    0.000    0.571    5.714    3.429    0.000    1.143 
#    0.000    1.429    0.000    0.000    0.000    0.000 
#    0.000    0.000    0.000    0.000    0.000    0.000 
#
# Total GULP energy -347393.724096 kJ/mol
# GULP energy per Si atom -12406.918718 kJ/mol
# Density = 2.009546 g / cm^3
# Si number density = 20.141302 Si / 1000 Ang^3
#
#
#
# Elastic Constant Matrix: (Units=GPa)
#
#
# Indices 1 2 3 4 5 6 
#
# 1 84.7282 3.5805 29.3654 0.0000 -13.6509 0.0000
# 2 3.5805 69.2515 4.8825 0.0000 2.3168 0.0000
# 3 29.3654 4.8825 120.5149 0.0000 -12.7617 0.0000
# 4 0.0000 0.0000 0.0000 28.3003 0.0000 2.7956
# 5 -13.6509 2.3168 -12.7617 0.0000 36.5785 0.0000
# 6 0.0000 0.0000 0.0000 2.7956 0.0000 31.8621
#
#
#
# Elastic Compliance Matrix: (Units=1/GPa)
#
#
# Indices 1 2 3 4 5 6 
#
# 1 0.013465 -0.000634 -0.002823 0.000000 0.004080 0.000000
# 2 -0.000634 0.014559 -0.000580 0.000000 -0.001361 0.000000
# 3 -0.002823 -0.000580 0.009243 0.000000 0.002208 0.000000
# 4 0.000000 0.000000 0.000000 0.035644 0.000000 -0.003127
# 5 0.004080 -0.001361 0.002208 0.000000 0.029718 0.000000
# 6 0.000000 0.000000 0.000000 -0.003127 0.000000 0.031660
#
#
# Mechanical properties :
#
#
# Convention : Reuss Voigt Hill
#
# Bulk Modulus (GPa) = 34.25314 38.90573 36.57944
# Shear Modulus (GPa) = 32.87459 35.12593 34.00026
#
# Velocity S-wave (km/s) = 4.04443 4.18062 4.11309
# Velocity P-wave (km/s) = 6.23324 6.53160 6.38416
#
# Compressibility (1/GPa) = 0.02919440
#
# Stress axis : x y z
#
# Youngs Moduli (GPa) = 74.26608 68.68481 108.19082
#
# Poissons Ratio (x) = 0.04352 0.30545
# Poissons Ratio (y) = 0.04706 0.06270
# Poissons Ratio (z) = 0.20967 0.03981
#
# Static dielectric constant tensor:
#      x y z
#    x 3.674860 0.000000 -0.295020 
#    y 0.000000 3.841940 0.000000 
#    z -0.295020 0.000000 3.632030 
# 
# 
# High freq. dielectric constant tensor:
#      x y z
#    x 1.778910 0.000000 -0.025940 
#    y 0.000000 1.807470 0.000000 
#    z -0.025940 0.000000 1.778250 
# 
# From -- ./inp_files/47907.got.cif
#   From: 2010.03.12/outbox.cif.g09.slc.cpg/sg14_24_cif.got.tgz:47907.got - 2010.03.31 13:35:05.
