data_PCOD8124232
_publ_section_title
;
Structure prediction by ZEFSAII (Michael W. Deem and Ramdas Pophale) SiO2 
 PCOD8124232
Probable space group: P 21/C
;
_chemical_formula_sum "Si O2"
_cell_formula_units_Z 28
_cell_length_a 9.715341
_cell_length_b 18.616257
_cell_length_c 7.535729
_cell_angle_alpha 90.000000
_cell_angle_beta 93.941505
_cell_angle_gamma 90.000000
_cell_volume 1359.713011
_symmetry_space_group_name_H-M "P 21/C"
_symmetry_group_IT_number 14
_symmetry_cell_setting 'monoclinic'
loop_
_space_group_symop_operation_xyz
x,y,z
-x,1/2+y,1/2-z
-x,-y,-z
x,1/2-y,1/2+z
loop_
_atom_site_type_symbol
_atom_site_label
_atom_site_fract_x
_atom_site_fract_y
_atom_site_fract_z
Si Si1 0.266745 0.840495 0.343087
Si Si2 0.689537 0.791364 0.792132
Si Si3 0.573420 0.848811 0.451458
Si Si4 0.876132 0.811027 0.103571
Si Si5 0.903864 0.087126 0.372497
Si Si6 0.161692 0.809956 0.960423
Si Si7 0.156610 0.426497 0.116759
O O1 0.418924 0.871775 0.393558
O O2 0.166020 0.889407 0.449589
O O3 0.240490 0.848999 0.129860
O O4 0.249986 0.757241 0.398245
O O5 0.590720 0.841259 0.665671
O O6 0.598018 0.727560 0.861967
O O7 0.817501 0.760220 0.690531
O O8 0.759958 0.838281 0.953633
O O9 0.682628 0.907722 0.394458
O O10 0.909685 0.875339 0.239200
O O11 0.014858 0.782925 0.021707
O O12 0.068927 0.085602 0.426974
O O13 0.853308 0.007676 0.317075
O O14 0.862562 0.136362 0.204341
#
# Coordination Sequence:
#
# PCOD8124232 Si02
#       7
#     4   4   4   4   4   4   4
#     4  12  24  40  64  94 129 163 206 258 320 370
#     4   9  19  33  61  93 120 157 210 256 312 368
#     4  10  21  39  61  90 128 165 202 261 313 374
#     4  10  19  35  61  93 122 158 206 261 315 362
#     4  11  25  44  65  93 127 165 215 262 308 379
#     4  12  23  38  66  95 127 162 206 264 319 367
#     4  10  23  45  63  89 129 166 214 261 307 378
#
# _framework density 20.592580000000002
#
# number of rings (size 3 to 8) (size 9 to 14) (size 15 to 20)
#    0.000    1.429    2.857    2.571    4.000    1.143 
#    2.571    0.714    0.000    0.000    0.000    0.000 
#    0.000    0.000    0.000    0.000    0.000    0.000 
#
# Total GULP energy -347185.047324 kJ/mol
# GULP energy per Si atom -12399.465976 kJ/mol
# Density = 2.054571 g / cm^3
# Si number density = 20.592580 Si / 1000 Ang^3
#
#
#
# Elastic Constant Matrix: (Units=GPa)
#
#
# Indices 1 2 3 4 5 6 
#
# 1 98.0266 14.4219 25.2635 0.0000 16.4578 0.0000
# 2 14.4219 56.3195 15.8194 0.0000 2.6276 0.0000
# 3 25.2635 15.8194 115.0236 0.0000 15.3187 0.0000
# 4 0.0000 0.0000 0.0000 23.2845 0.0000 7.4161
# 5 16.4578 2.6276 15.3187 0.0000 30.2672 0.0000
# 6 0.0000 0.0000 0.0000 7.4161 0.0000 17.1594
#
#
#
# Elastic Compliance Matrix: (Units=1/GPa)
#
#
# Indices 1 2 3 4 5 6 
#
# 1 0.011864 -0.002346 -0.001556 0.000000 -0.005460 0.000000
# 2 -0.002346 0.018937 -0.002187 0.000000 0.000739 0.000000
# 3 -0.001556 -0.002187 0.009863 0.000000 -0.003956 0.000000
# 4 0.000000 0.000000 0.000000 0.049803 0.000000 -0.021524
# 5 -0.005460 0.000739 -0.003956 0.000000 0.037946 0.000000
# 6 0.000000 0.000000 0.000000 -0.021524 0.000000 0.067580
#
#
# Mechanical properties :
#
#
# Convention : Reuss Voigt Hill
#
# Bulk Modulus (GPa) = 35.10666 42.26438 38.68552
# Shear Modulus (GPa) = 22.97089 28.39987 25.68538
#
# Velocity S-wave (km/s) = 3.34352 3.71769 3.53556
# Velocity P-wave (km/s) = 5.65604 6.24476 5.95767
#
# Compressibility (1/GPa) = 0.02848462
#
# Stress axis : x y z
#
# Youngs Moduli (GPa) = 84.28719 52.80775 101.38574
#
# Poissons Ratio (x) = 0.12390 0.15775
# Poissons Ratio (y) = 0.19776 0.22178
# Poissons Ratio (z) = 0.13115 0.11551
#
# Static dielectric constant tensor:
#      x y z
#    x 3.674150 0.000000 0.107960 
#    y 0.000000 3.387740 0.000000 
#    z 0.107960 0.000000 4.129320 
# 
# 
# High freq. dielectric constant tensor:
#      x y z
#    x 1.804650 0.000000 0.010590 
#    y 0.000000 1.770340 0.000000 
#    z 0.010590 0.000000 1.822580 
# 
# From -- ./inp_files/9512.got.cif
#   From: 2010.03.12/outbox.cif.g09.slc.cpg/sg14_5_cif.got.tgz:9512.got - 2010.03.31 13:35:05.
