data_PCOD8124293
_publ_section_title
;
Structure prediction by ZEFSAII (Michael W. Deem and Ramdas Pophale) SiO2 
 PCOD8124293
Probable space group: P 21/C
;
_chemical_formula_sum "Si O2"
_cell_formula_units_Z 32
_cell_length_a 29.406822
_cell_length_b 7.930012
_cell_length_c 18.178895
_cell_angle_alpha 90.000000
_cell_angle_beta 21.118146
_cell_angle_gamma 90.000000
_cell_volume 1527.370348
_symmetry_space_group_name_H-M "P 21/C"
_symmetry_group_IT_number 14
_symmetry_cell_setting 'monoclinic'
loop_
_space_group_symop_operation_xyz
x,y,z
-x,1/2+y,1/2-z
-x,-y,-z
x,1/2-y,1/2+z
loop_
_atom_site_type_symbol
_atom_site_label
_atom_site_fract_x
_atom_site_fract_y
_atom_site_fract_z
Si Si1 0.729005 0.901116 0.564106
Si Si2 0.452491 0.504748 0.285312
Si Si3 0.881969 0.469735 0.627546
Si Si4 0.309813 0.197931 0.535737
Si Si5 0.005291 0.299307 0.303676
Si Si6 0.741247 0.273983 0.960670
Si Si7 0.869796 0.447471 0.374636
Si Si8 0.594076 0.905671 0.303339
O O1 0.749534 0.795949 0.456799
O O2 0.862808 0.898498 0.404102
O O3 0.621380 0.797709 0.773480
O O4 0.698027 0.094127 0.590215
O O5 0.370556 0.380226 0.462169
O O6 0.584501 0.549208 0.123991
O O7 0.383309 0.679475 0.375894
O O8 0.471257 0.417332 0.177898
O O9 0.789530 0.351871 0.812799
O O10 0.000000 0.500000 0.500000
O O11 0.918055 0.387191 0.496561
O O12 0.801910 0.646026 0.738112
O O13 0.927147 0.315771 0.346532
O O14 0.033826 0.103974 0.279384
O O15 0.852581 0.152816 0.823990
O O16 0.729235 0.504871 0.609290
O O17 0.500000 0.000000 0.500000
#
# Coordination Sequence:
#
# PCOD8124293 Si02
#       8
#     4   4   4   4   4   4   4   4
#     4   9  18  36  60  81 119 152 197 236 309 353
#     4  10  21  37  61  82 120 155 202 242 312 361
#     4  11  22  36  63  87 123 151 204 255 306 360
#     4  10  19  36  58  87 114 158 193 248 300 367
#     4  11  21  39  58  91 116 165 197 250 304 373
#     4  10  20  39  60  88 115 164 199 253 303 365
#     4  10  23  38  62  82 125 159 204 244 314 372
#     4   9  20  38  59  87 113 159 200 246 296 367
#
# _framework density 20.951042000000001
#
# number of rings (size 3 to 8) (size 9 to 14) (size 15 to 20)
#    0.000    2.000    2.500    3.000    1.750    0.500 
#    0.000    2.500    2.750    0.000    0.000    0.000 
#    0.000    0.000    0.000    0.000    0.000    0.000 
#
# Total GULP energy -396456.892918 kJ/mol
# GULP energy per Si atom -12389.277904 kJ/mol
# Density = 2.090336 g / cm^3
# Si number density = 20.951042 Si / 1000 Ang^3
#
#
#
# Elastic Constant Matrix: (Units=GPa)
#
#
# Indices 1 2 3 4 5 6 
#
# 1 52.2722 -8.1661 20.2453 0.0000 -11.4515 0.0000
# 2 -8.1661 103.0595 40.4892 0.0000 1.2072 0.0000
# 3 20.2453 40.4892 90.2902 0.0000 0.0375 0.0000
# 4 0.0000 0.0000 0.0000 38.3401 0.0000 -3.9715
# 5 -11.4515 1.2072 0.0375 0.0000 31.0873 0.0000
# 6 0.0000 0.0000 0.0000 -3.9715 0.0000 32.6436
#
#
#
# Elastic Compliance Matrix: (Units=1/GPa)
#
#
# Indices 1 2 3 4 5 6 
#
# 1 0.024888 0.004929 -0.007795 0.000000 0.008986 0.000000
# 2 0.004929 0.012761 -0.006828 0.000000 0.001328 0.000000
# 3 -0.007795 -0.006828 0.015886 0.000000 -0.002625 0.000000
# 4 0.000000 0.000000 0.000000 0.026415 0.000000 0.003214
# 5 0.008986 0.001328 -0.002625 0.000000 0.035429 0.000000
# 6 0.000000 0.000000 0.000000 0.003214 0.000000 0.031025
#
#
# Mechanical properties :
#
#
# Convention : Reuss Voigt Hill
#
# Bulk Modulus (GPa) = 29.28451 38.97319 34.12885
# Shear Modulus (GPa) = 28.22081 33.28443 30.75262
#
# Velocity S-wave (km/s) = 3.67412 3.99014 3.83539
# Velocity P-wave (km/s) = 5.65745 6.31433 5.99489
#
# Compressibility (1/GPa) = 0.03414774
#
# Stress axis : x y z
#
# Youngs Moduli (GPa) = 40.17976 78.36555 62.94770
#
# Poissons Ratio (x) = -0.38627 0.49065
# Poissons Ratio (y) = -0.19805 0.42981
# Poissons Ratio (z) = 0.31319 0.53509
#
# Static dielectric constant tensor:
#      x y z
#    x 3.591010 0.000000 -0.416090 
#    y 0.000000 4.174630 0.000000 
#    z -0.416090 0.000000 3.543510 
# 
# 
# High freq. dielectric constant tensor:
#      x y z
#    x 1.814510 0.000000 -0.037220 
#    y 0.000000 1.831830 0.000000 
#    z -0.037220 0.000000 1.793510 
# 
# From -- ./inp_files/62643.got.cif
#   From: 2010.03.12/outbox.cif.g09.slc.cpg/sg14_32_cif.got.tgz:62643.got - 2010.03.31 13:35:05.
