data_PCOD8124934
_publ_section_title
;
Structure prediction by ZEFSAII (Michael W. Deem and Ramdas Pophale) SiO2 
 PCOD8124934
Probable space group: P 21/C
;
_chemical_formula_sum "Si O2"
_cell_formula_units_Z 32
_cell_length_a 17.447090
_cell_length_b 17.403920
_cell_length_c 12.197770
_cell_angle_alpha 90.000000
_cell_angle_beta 27.753162
_cell_angle_gamma 90.000000
_cell_volume 1724.735836
_symmetry_space_group_name_H-M "P 21/C"
_symmetry_group_IT_number 14
_symmetry_cell_setting 'monoclinic'
loop_
_space_group_symop_operation_xyz
x,y,z
-x,1/2+y,1/2-z
-x,-y,-z
x,1/2-y,1/2+z
loop_
_atom_site_type_symbol
_atom_site_label
_atom_site_fract_x
_atom_site_fract_y
_atom_site_fract_z
Si Si1 0.965139 0.197777 0.870872
Si Si2 0.459323 0.015510 0.426265
Si Si3 0.319091 0.644067 0.419822
Si Si4 0.100794 0.419990 0.371714
Si Si5 0.308251 0.776399 0.150954
Si Si6 0.474582 0.145863 0.723784
Si Si7 0.183236 0.192985 0.943763
Si Si8 0.550903 0.771965 0.028472
O O1 0.060148 0.131918 0.817482
O O2 0.083556 0.252439 0.651311
O O3 0.846206 0.152796 0.939683
O O4 0.866380 0.253659 0.077223
O O5 0.614452 0.058337 0.176285
O O6 0.293779 0.063528 0.621282
O O7 0.500000 0.000000 0.500000
O O8 0.439901 0.936672 0.384908
O O9 0.278977 0.658138 0.597997
O O10 0.461174 0.698680 0.193447
O O11 0.069263 0.369038 0.522623
O O12 0.000000 0.500000 0.500000
O O13 0.434897 0.808539 0.081403
O O14 0.383934 0.702269 0.996576
O O15 0.318320 0.146269 0.841580
O O16 0.417103 0.164665 0.919462
O O17 0.272554 0.247282 0.741680
#
# Coordination Sequence:
#
# PCOD8124934 Si02
#       8
#     4   4   4   4   4   4   4   4
#     4  11  23  36  61  91 120 158 201 254 304 364
#     4  12  21  38  60  86 117 159 196 245 310 361
#     4  10  20  37  60  83 118 155 197 242 300 355
#     4  12  24  37  60  95 127 154 207 263 311 361
#     4   9  19  37  59  85 115 153 202 248 293 357
#     4  10  20  35  62  86 116 153 200 244 299 364
#     4  11  21  37  62  87 124 156 200 253 309 358
#     4   9  18  36  61  88 111 154 204 244 289 363
#
# _framework density 18.553564999999999
#
# number of rings (size 3 to 8) (size 9 to 14) (size 15 to 20)
#    0.000    1.500    2.500    4.500    3.500    2.000 
#    0.000    0.625    2.750    1.500    0.000    0.000 
#    0.000    0.000    0.000    0.000    0.000    0.000 
#
# Total GULP energy -396833.878790 kJ/mol
# GULP energy per Si atom -12401.058712 kJ/mol
# Density = 1.851134 g / cm^3
# Si number density = 18.553565 Si / 1000 Ang^3
#
#
#
# Elastic Constant Matrix: (Units=GPa)
#
#
# Indices 1 2 3 4 5 6 
#
# 1 113.3497 54.5830 41.3567 0.0000 18.4594 0.0000
# 2 54.5830 95.4069 37.2084 0.0000 12.0162 0.0000
# 3 41.3567 37.2084 97.7838 0.0000 10.5019 0.0000
# 4 0.0000 0.0000 0.0000 24.0870 0.0000 -0.2399
# 5 18.4594 12.0162 10.5019 0.0000 31.3194 0.0000
# 6 0.0000 0.0000 0.0000 -0.2399 0.0000 31.2645
#
#
#
# Elastic Compliance Matrix: (Units=1/GPa)
#
#
# Indices 1 2 3 4 5 6 
#
# 1 0.013558 -0.006019 -0.002940 0.000000 -0.004696 0.000000
# 2 -0.006019 0.015311 -0.003144 0.000000 -0.001273 0.000000
# 3 -0.002940 -0.003144 0.012812 0.000000 -0.001357 0.000000
# 4 0.000000 0.000000 0.000000 0.041519 0.000000 0.000319
# 5 -0.004696 -0.001273 -0.001357 0.000000 0.035640 0.000000
# 6 0.000000 0.000000 0.000000 0.000319 0.000000 0.031988
#
#
# Mechanical properties :
#
#
# Convention : Reuss Voigt Hill
#
# Bulk Modulus (GPa) = 57.21922 63.64850 60.43386
# Shear Modulus (GPa) = 27.64596 28.89366 28.26981
#
# Velocity S-wave (km/s) = 3.86432 3.95056 3.90768
# Velocity P-wave (km/s) = 7.12865 7.42893 7.28033
#
# Compressibility (1/GPa) = 0.01747664
#
# Stress axis : x y z
#
# Youngs Moduli (GPa) = 73.75829 65.31180 78.05176
#
# Poissons Ratio (x) = 0.39309 0.22944
# Poissons Ratio (y) = 0.44392 0.24539
# Poissons Ratio (z) = 0.21682 0.20534
#
# Static dielectric constant tensor:
#      x y z
#    x 3.716580 0.000000 0.074500 
#    y 0.000000 3.393290 0.000000 
#    z 0.074500 0.000000 3.334510 
# 
# 
# High freq. dielectric constant tensor:
#      x y z
#    x 1.736070 0.000000 -0.001500 
#    y 0.000000 1.702740 0.000000 
#    z -0.001500 0.000000 1.714000 
# 
# From -- ./inp_files/34346.got.cif
#   From: 2010.03.12/outbox.cif.g09.slc.cpg/sg14_18_cif.got.tgz:34346.got - 2010.03.31 13:35:05.
