data_PCOD8124855
_publ_section_title
;
Structure prediction by ZEFSAII (Michael W. Deem and Ramdas Pophale) SiO2 
 PCOD8124855
Probable space group: P 21/C
;
_chemical_formula_sum "Si O2"
_cell_formula_units_Z 24
_cell_length_a 16.359435
_cell_length_b 15.173603
_cell_length_c 9.156314
_cell_angle_alpha 90.000000
_cell_angle_beta 146.348409
_cell_angle_gamma 90.000000
_cell_volume 1259.500156
_symmetry_space_group_name_H-M "P 21/C"
_symmetry_group_IT_number 14
_symmetry_cell_setting 'monoclinic'
loop_
_space_group_symop_operation_xyz
x,y,z
-x,1/2+y,1/2-z
-x,-y,-z
x,1/2-y,1/2+z
loop_
_atom_site_type_symbol
_atom_site_label
_atom_site_fract_x
_atom_site_fract_y
_atom_site_fract_z
Si Si1 0.811546 0.830634 0.797320
Si Si2 0.671280 0.987469 0.427628
Si Si3 0.149946 0.655777 0.781021
Si Si4 0.670749 0.996846 0.092185
Si Si5 0.169622 0.828659 0.647509
Si Si6 0.831150 0.654662 0.667510
O O1 0.698918 0.899900 0.560760
O O2 0.769724 0.734977 0.672764
O O3 0.792004 0.827846 0.941449
O O4 0.976391 0.857475 0.993934
O O5 0.715321 0.971603 0.324242
O O6 0.768560 0.065825 0.641544
O O7 0.501999 0.014938 0.190064
O O8 0.215215 0.734689 0.781143
O O9 0.182444 0.682214 0.994372
O O10 0.754988 0.934600 0.105269
O O11 0.718099 0.097103 0.128273
O O12 0.005506 0.856125 0.451769
#
# Coordination Sequence:
#
# PCOD8124855 Si02
#       6
#     4   4   4   4   4   4
#     4  10  20  35  56  79 103 135 176 219 261 308
#     4  10  21  36  53  77 110 142 172 212 261 311
#     4   9  19  35  55  78 103 135 175 218 262 307
#     4  10  21  36  53  77 110 142 172 212 261 311
#     4   9  19  35  55  78 103 135 175 218 262 307
#     4  10  20  35  56  79 103 135 176 219 261 308
#
# _framework density 19.055178999999999
#
# number of rings (size 3 to 8) (size 9 to 14) (size 15 to 20)
#    0.000    2.333    0.000    2.000    0.000    4.667 
#    0.000    3.333    0.000    0.000    0.000    0.000 
#    0.000    0.000    0.000    0.000    0.000    0.000 
#
# Total GULP energy -297722.464447 kJ/mol
# GULP energy per Si atom -12405.102685 kJ/mol
# Density = 1.901181 g / cm^3
# Si number density = 19.055179 Si / 1000 Ang^3
#
#
#
# Elastic Constant Matrix: (Units=GPa)
#
#
# Indices 1 2 3 4 5 6 
#
# 1 53.0143 14.7342 10.3991 0.0000 -7.9315 0.0000
# 2 14.7342 72.0222 26.4358 0.0000 -9.4485 0.0000
# 3 10.3991 26.4358 59.1919 0.0000 -5.8696 0.0000
# 4 0.0000 0.0000 0.0000 29.6690 0.0000 -10.5499
# 5 -7.9315 -9.4485 -5.8696 0.0000 17.5273 0.0000
# 6 0.0000 0.0000 0.0000 -10.5499 0.0000 30.4313
#
#
#
# Elastic Compliance Matrix: (Units=1/GPa)
#
#
# Indices 1 2 3 4 5 6 
#
# 1 0.021076 -0.002681 -0.001761 0.000000 0.007502 0.000000
# 2 -0.002681 0.017743 -0.006853 0.000000 0.006057 0.000000
# 3 -0.001761 -0.006853 0.020499 0.000000 0.002374 0.000000
# 4 0.000000 0.000000 0.000000 0.038444 0.000000 0.013328
# 5 0.007502 0.006057 0.002374 0.000000 0.064509 0.000000
# 6 0.000000 0.000000 0.000000 0.013328 0.000000 0.037481
#
#
# Mechanical properties :
#
#
# Convention : Reuss Voigt Hill
#
# Bulk Modulus (GPa) = 27.22693 31.92961 29.57827
# Shear Modulus (GPa) = 21.31418 24.36947 22.84183
#
# Velocity S-wave (km/s) = 3.34810 3.58004 3.46601
# Velocity P-wave (km/s) = 5.40979 5.82079 5.61905
#
# Compressibility (1/GPa) = 0.03672835
#
# Stress axis : x y z
#
# Youngs Moduli (GPa) = 47.44765 56.36059 48.78172
#
# Poissons Ratio (x) = 0.15110 0.08593
# Poissons Ratio (y) = 0.12720 0.33428
# Poissons Ratio (z) = 0.08358 0.38622
#
# Static dielectric constant tensor:
#      x y z
#    x 3.409180 0.000000 -0.034600 
#    y 0.000000 3.502370 0.000000 
#    z -0.034600 0.000000 3.414790 
# 
# 
# High freq. dielectric constant tensor:
#      x y z
#    x 1.734520 0.000000 -0.004730 
#    y 0.000000 1.748330 0.000000 
#    z -0.004730 0.000000 1.735270 
# 
# From -- ./inp_files/8591.got.cif
#   From: 2010.03.12/outbox.cif.g09.slc.cpg/sg14_5_cif.got.tgz:8591.got - 2010.03.31 13:35:05.
