data_PCOD8124357
_publ_section_title
;
Structure prediction by ZEFSAII (Michael W. Deem and Ramdas Pophale) SiO2 
 PCOD8124357
Probable space group: P 21/C
;
_chemical_formula_sum "Si O2"
_cell_formula_units_Z 32
_cell_length_a 10.763557
_cell_length_b 14.687036
_cell_length_c 13.895571
_cell_angle_alpha 90.000000
_cell_angle_beta 135.185778
_cell_angle_gamma 90.000000
_cell_volume 1548.241219
_symmetry_space_group_name_H-M "P 21/C"
_symmetry_group_IT_number 14
_symmetry_cell_setting 'monoclinic'
loop_
_space_group_symop_operation_xyz
x,y,z
-x,1/2+y,1/2-z
-x,-y,-z
x,1/2-y,1/2+z
loop_
_atom_site_type_symbol
_atom_site_label
_atom_site_fract_x
_atom_site_fract_y
_atom_site_fract_z
Si Si1 0.899645 0.616659 0.421549
Si Si2 0.153281 0.739616 0.999007
Si Si3 0.619494 0.215407 0.208927
Si Si4 0.102898 0.800524 0.262665
Si Si5 0.238551 0.264926 0.036284
Si Si6 0.017314 0.489301 0.344052
Si Si7 0.116423 0.415058 0.095702
Si Si8 0.312200 0.974259 0.855682
O O1 0.759656 0.696371 0.369498
O O2 0.893646 0.549272 0.509521
O O3 0.088978 0.666255 0.512034
O O4 0.871866 0.562837 0.304460
O O5 0.176433 0.750345 0.897509
O O6 0.007708 0.661874 0.930091
O O7 0.335435 0.711386 0.151867
O O8 0.746722 0.290932 0.233924
O O9 0.420467 0.247342 0.080494
O O10 0.669424 0.119594 0.190200
O O11 0.076614 0.908647 0.266887
O O12 0.920408 0.756815 0.124370
O O13 0.220920 0.369532 0.062570
O O14 0.166112 0.535928 0.359499
O O15 0.257347 0.445894 0.252412
O O16 0.000000 0.500000 0.000000
O O17 0.500000 0.000000 0.000000
#
# Coordination Sequence:
#
# PCOD8124357 Si02
#       8
#     4   4   4   4   4   4   4   4
#     4   9  19  38  59  88 122 170 207 267 326 382
#     4  11  21  39  67  90 132 177 214 271 343 394
#     4  12  24  43  63  98 134 171 223 277 338 400
#     4  11  21  42  63  92 132 173 218 273 337 402
#     4  10  23  43  64  91 132 172 222 277 328 404
#     4  10  19  36  63  88 125 165 218 261 328 386
#     4  11  21  42  66  91 127 179 216 270 344 392
#     4  12  24  38  65 100 126 168 231 281 323 407
#
# _framework density 20.668614000000002
#
# number of rings (size 3 to 8) (size 9 to 14) (size 15 to 20)
#    0.000    1.250    6.250    2.250    0.000    2.000 
#    4.500    0.000    0.000    1.500    0.000    0.000 
#    0.000    0.000    0.000    0.000    0.000    0.000 
#
# Total GULP energy -396524.418838 kJ/mol
# GULP energy per Si atom -12391.388089 kJ/mol
# Density = 2.062157 g / cm^3
# Si number density = 20.668614 Si / 1000 Ang^3
#
#
#
# Elastic Constant Matrix: (Units=GPa)
#
#
# Indices 1 2 3 4 5 6 
#
# 1 105.5961 34.3634 56.6228 0.0000 0.1037 0.0000
# 2 34.3634 93.9760 27.4714 0.0000 -3.2751 0.0000
# 3 56.6228 27.4714 107.4186 0.0000 -3.7165 0.0000
# 4 0.0000 0.0000 0.0000 22.5677 0.0000 -2.0840
# 5 0.1037 -3.2751 -3.7165 0.0000 32.1661 0.0000
# 6 0.0000 0.0000 0.0000 -2.0840 0.0000 37.7489
#
#
#
# Elastic Compliance Matrix: (Units=1/GPa)
#
#
# Indices 1 2 3 4 5 6 
#
# 1 0.014086 -0.003252 -0.006633 0.000000 -0.001143 0.000000
# 2 -0.003252 0.012274 -0.001387 0.000000 0.001100 0.000000
# 3 -0.006633 -0.001387 0.013209 0.000000 0.001406 0.000000
# 4 0.000000 0.000000 0.000000 0.044538 0.000000 0.002459
# 5 -0.001143 0.001100 0.001406 0.000000 0.031367 0.000000
# 6 0.000000 0.000000 0.000000 0.002459 0.000000 0.026627
#
#
# Mechanical properties :
#
#
# Convention : Reuss Voigt Hill
#
# Bulk Modulus (GPa) = 58.73386 60.43398 59.58392
# Shear Modulus (GPa) = 29.35669 31.06541 30.21105
#
# Velocity S-wave (km/s) = 3.77284 3.88109 3.82735
# Velocity P-wave (km/s) = 6.88896 7.02757 6.95861
#
# Compressibility (1/GPa) = 0.01702595
#
# Stress axis : x y z
#
# Youngs Moduli (GPa) = 70.99201 81.47475 75.70504
#
# Poissons Ratio (x) = 0.26492 0.50216
# Poissons Ratio (y) = 0.23084 0.10499
# Poissons Ratio (z) = 0.47090 0.11299
#
# Static dielectric constant tensor:
#      x y z
#    x 3.887020 0.000000 -0.282530 
#    y 0.000000 4.880760 0.000000 
#    z -0.282530 0.000000 3.647570 
# 
# 
# High freq. dielectric constant tensor:
#      x y z
#    x 1.805590 0.000000 -0.019780 
#    y 0.000000 1.822480 0.000000 
#    z -0.019780 0.000000 1.779990 
# 
# From -- ./inp_files/45095.got.cif
#   From: 2010.03.12/outbox.cif.g09.slc.cpg/sg14_23_cif.got.tgz:45095.got - 2010.03.31 13:35:05.
