data_PCOD8124059
_publ_section_title
;
Structure prediction by ZEFSAII (Michael W. Deem and Ramdas Pophale) SiO2 
 PCOD8124059
Probable space group: P 21/C
;
_chemical_formula_sum "Si O2"
_cell_formula_units_Z 28
_cell_length_a 12.118161
_cell_length_b 6.136820
_cell_length_c 20.809850
_cell_angle_alpha 90.000000
_cell_angle_beta 72.129055
_cell_angle_gamma 90.000000
_cell_volume 1472.895733
_symmetry_space_group_name_H-M "P 21/C"
_symmetry_group_IT_number 14
_symmetry_cell_setting 'monoclinic'
loop_
_space_group_symop_operation_xyz
x,y,z
-x,1/2+y,1/2-z
-x,-y,-z
x,1/2-y,1/2+z
loop_
_atom_site_type_symbol
_atom_site_label
_atom_site_fract_x
_atom_site_fract_y
_atom_site_fract_z
Si Si1 0.749641 0.647983 0.514215
Si Si2 0.848249 0.370366 0.818289
Si Si3 0.353462 0.437236 0.078116
Si Si4 0.432595 0.682126 0.474338
Si Si5 0.935164 0.439567 0.402844
Si Si6 0.907234 0.907355 0.567987
Si Si7 0.055093 0.828386 0.317410
O O1 0.703278 0.761306 0.458642
O O2 0.660873 0.453867 0.552823
O O3 0.871680 0.535208 0.476440
O O4 0.782053 0.836968 0.560196
O O5 0.733288 0.520820 0.846309
O O6 0.844884 0.209712 0.879867
O O7 0.844950 0.240995 0.751226
O O8 0.969535 0.499620 0.799145
O O9 0.475588 0.333148 0.082226
O O10 0.371781 0.662136 0.037029
O O11 0.500000 0.500000 0.500000
O O12 0.045342 0.308406 0.407452
O O13 0.977193 0.622889 0.347285
O O14 0.884424 0.083563 0.628216
O O15 0.000000 0.000000 0.500000
#
# Coordination Sequence:
#
# PCOD8124059 Si02
#       7
#     4   4   4   4   4   4   4
#     4  11  19  33  55  77 116 155 178 234 292 329
#     4  11  20  34  53  77 117 152 185 229 284 342
#     4  10  19  34  55  82 113 141 186 238 286 340
#     4   9  20  33  52  83 113 134 190 233 294 331
#     4  11  20  33  53  79 116 155 178 222 285 342
#     4  11  23  33  49  81 119 153 191 221 279 354
#     4  11  22  33  50  81 116 155 188 221 275 363
#
# _framework density 19.010171
#
# number of rings (size 3 to 8) (size 9 to 14) (size 15 to 20)
#    0.000    1.429    5.714    1.286    0.000    0.000 
#    0.000    0.000    0.000    0.000    0.000    0.000 
#   72.857    0.000    0.000    0.000    0.000    0.000 
#
# Total GULP energy -346951.823283 kJ/mol
# GULP energy per Si atom -12391.136546 kJ/mol
# Density = 1.896690 g / cm^3
# Si number density = 19.010171 Si / 1000 Ang^3
#
#
#
# Elastic Constant Matrix: (Units=GPa)
#
#
# Indices 1 2 3 4 5 6 
#
# 1 79.6832 33.6226 44.3427 0.0000 -12.4920 0.0000
# 2 33.6226 86.5853 31.7054 0.0000 -4.3886 0.0000
# 3 44.3427 31.7054 99.7568 0.0000 -7.4774 0.0000
# 4 0.0000 0.0000 0.0000 32.1423 0.0000 -7.7615
# 5 -12.4920 -4.3886 -7.4774 0.0000 22.6632 0.0000
# 6 0.0000 0.0000 0.0000 -7.7615 0.0000 31.7312
#
#
#
# Elastic Compliance Matrix: (Units=1/GPa)
#
#
# Indices 1 2 3 4 5 6 
#
# 1 0.019383 -0.004748 -0.006537 0.000000 0.007608 0.000000
# 2 -0.004748 0.014265 -0.002474 0.000000 -0.000671 0.000000
# 3 -0.006537 -0.002474 0.013750 0.000000 0.000455 0.000000
# 4 0.000000 0.000000 0.000000 0.033065 0.000000 0.008088
# 5 0.007608 -0.000671 0.000455 0.000000 0.048338 0.000000
# 6 0.000000 0.000000 0.000000 0.008088 0.000000 0.033493
#
#
# Mechanical properties :
#
#
# Convention : Reuss Voigt Hill
#
# Bulk Modulus (GPa) = 50.29641 53.92962 52.11302
# Shear Modulus (GPa) = 25.45334 27.73096 26.59215
#
# Velocity S-wave (km/s) = 3.66311 3.82349 3.74416
# Velocity P-wave (km/s) = 6.66380 6.92261 6.79444
#
# Compressibility (1/GPa) = 0.01988213
#
# Stress axis : x y z
#
# Youngs Moduli (GPa) = 51.59055 70.10321 72.72559
#
# Poissons Ratio (x) = 0.33283 0.47540
# Poissons Ratio (y) = 0.24493 0.17989
# Poissons Ratio (z) = 0.33724 0.17341
#
# Static dielectric constant tensor:
#      x y z
#    x 2.879510 0.000000 -0.162340 
#    y 0.000000 3.158810 0.000000 
#    z -0.162340 0.000000 3.255000 
# 
# 
# High freq. dielectric constant tensor:
#      x y z
#    x 1.715250 0.000000 -0.011630 
#    y 0.000000 1.768570 0.000000 
#    z -0.011630 0.000000 1.697900 
# 
# From -- ./inp_files/66255.got.cif
#   From: 2010.03.12/outbox.cif.g09.slc.cpg/sg14_34_cif.got.tgz:66255.got - 2010.03.31 13:35:05.
