data_PCOD8124473
_publ_section_title
;
Structure prediction by ZEFSAII (Michael W. Deem and Ramdas Pophale) SiO2 
 PCOD8124473
Probable space group: P 21/C
;
_chemical_formula_sum "Si O2"
_cell_formula_units_Z 28
_cell_length_a 8.637575
_cell_length_b 19.863856
_cell_length_c 11.870018
_cell_angle_alpha 90.000000
_cell_angle_beta 143.254380
_cell_angle_gamma 90.000000
_cell_volume 1218.426015
_symmetry_space_group_name_H-M "P 21/C"
_symmetry_group_IT_number 14
_symmetry_cell_setting 'monoclinic'
loop_
_space_group_symop_operation_xyz
x,y,z
-x,1/2+y,1/2-z
-x,-y,-z
x,1/2-y,1/2+z
loop_
_atom_site_type_symbol
_atom_site_label
_atom_site_fract_x
_atom_site_fract_y
_atom_site_fract_z
Si Si1 0.549936 0.199840 0.268181
Si Si2 0.534536 0.433019 0.123026
Si Si3 0.549644 0.926694 0.670437
Si Si4 0.888008 0.538127 0.570241
Si Si5 0.284734 0.887950 0.044815
Si Si6 0.323731 0.158263 0.911698
Si Si7 0.055308 0.230456 0.126251
O O1 0.628313 0.129391 0.373903
O O2 0.789282 0.249627 0.410805
O O3 0.293292 0.228638 0.178756
O O4 0.507161 0.189953 0.112040
O O5 0.391288 0.501948 0.081530
O O6 0.587056 0.380767 0.254173
O O7 0.806176 0.467719 0.244445
O O8 0.403531 0.402291 0.933795
O O9 0.812909 0.933280 0.901119
O O10 0.762026 0.465200 0.517831
O O11 0.805450 0.589962 0.619232
O O12 0.504304 0.856929 0.095475
O O13 0.016122 0.845452 0.873670
O O14 0.113097 0.216010 0.758772
#
# Coordination Sequence:
#
# PCOD8124473 Si02
#       7
#     4   4   4   4   4   4   4
#     4  11  25  43  67  91 133 176 229 278 337 411
#     4  10  19  37  69  97 133 172 221 270 333 410
#     4   9  19  37  63 100 126 173 218 270 329 401
#     4  10  20  41  68  99 138 176 227 281 340 410
#     4  11  22  41  69 103 134 182 230 280 347 408
#     4  11  25  44  66  99 139 180 224 289 349 403
#     4  12  25  45  64  99 133 183 233 276 347 413
#
# _framework density 22.980467000000001
#
# number of rings (size 3 to 8) (size 9 to 14) (size 15 to 20)
#    0.000    1.429    1.429    5.571    2.000    1.143 
#    0.000    7.143    0.000   14.571    0.000    0.000 
#    0.000    0.000    0.000    0.000    0.000    0.000 
#
# Total GULP energy -346950.926933 kJ/mol
# GULP energy per Si atom -12391.104533 kJ/mol
# Density = 2.292816 g / cm^3
# Si number density = 22.980467 Si / 1000 Ang^3
#
#
#
# Elastic Constant Matrix: (Units=GPa)
#
#
# Indices 1 2 3 4 5 6 
#
# 1 93.3244 42.5633 53.3790 0.0000 -14.0519 0.0000
# 2 42.5633 130.3856 56.2678 0.0000 -13.7278 0.0000
# 3 53.3790 56.2678 86.2730 0.0000 -28.9114 0.0000
# 4 0.0000 0.0000 0.0000 31.7435 0.0000 -1.3129
# 5 -14.0519 -13.7278 -28.9114 0.0000 33.2474 0.0000
# 6 0.0000 0.0000 0.0000 -1.3129 0.0000 29.2777
#
#
#
# Elastic Compliance Matrix: (Units=1/GPa)
#
#
# Indices 1 2 3 4 5 6 
#
# 1 0.016904 -0.001263 -0.010466 0.000000 -0.002478 0.000000
# 2 -0.001263 0.010897 -0.007052 0.000000 -0.002167 0.000000
# 3 -0.010466 -0.007052 0.028518 0.000000 0.017464 0.000000
# 4 0.000000 0.000000 0.000000 0.031561 0.000000 0.001415
# 5 -0.002478 -0.002167 0.017464 0.000000 0.043322 0.000000
# 6 0.000000 0.000000 0.000000 0.001415 0.000000 0.034219
#
#
# Mechanical properties :
#
#
# Convention : Reuss Voigt Hill
#
# Bulk Modulus (GPa) = 53.30846 68.26703 60.78775
# Shear Modulus (GPa) = 23.89653 29.37191 26.63422
#
# Velocity S-wave (km/s) = 3.22819 3.57897 3.40809
# Velocity P-wave (km/s) = 6.09447 6.84468 6.48044
#
# Compressibility (1/GPa) = 0.01875875
#
# Stress axis : x y z
#
# Youngs Moduli (GPa) = 59.15654 91.76989 35.06521
#
# Poissons Ratio (x) = 0.11587 0.36699
# Poissons Ratio (y) = 0.07469 0.24727
# Poissons Ratio (z) = 0.61913 0.64715
#
# Static dielectric constant tensor:
#      x y z
#    x 3.828220 0.000000 -0.226930 
#    y 0.000000 4.590760 0.000000 
#    z -0.226930 0.000000 4.192290 
# 
# 
# High freq. dielectric constant tensor:
#      x y z
#    x 1.875420 0.000000 -0.014300 
#    y 0.000000 1.931580 0.000000 
#    z -0.014300 0.000000 1.912690 
# 
# From -- ./inp_files/26852.got.cif
#   From: 2010.03.12/outbox.cif.g09.slc.cpg/sg14_14_cif.got.tgz:26852.got - 2010.03.31 13:35:05.
