data_PCOD8124343
_publ_section_title
;
Structure prediction by ZEFSAII (Michael W. Deem and Ramdas Pophale) SiO2 
 PCOD8124343
Probable space group: P 21/C
;
_chemical_formula_sum "Si O2"
_cell_formula_units_Z 28
_cell_length_a 15.302096
_cell_length_b 13.694705
_cell_length_c 8.726137
_cell_angle_alpha 90.000000
_cell_angle_beta 48.283994
_cell_angle_gamma 90.000000
_cell_volume 1364.984440
_symmetry_space_group_name_H-M "P 21/C"
_symmetry_group_IT_number 14
_symmetry_cell_setting 'monoclinic'
loop_
_space_group_symop_operation_xyz
x,y,z
-x,1/2+y,1/2-z
-x,-y,-z
x,1/2-y,1/2+z
loop_
_atom_site_type_symbol
_atom_site_label
_atom_site_fract_x
_atom_site_fract_y
_atom_site_fract_z
Si Si1 0.945033 0.383220 0.744894
Si Si2 0.099626 0.806928 0.028107
Si Si3 0.698458 0.032826 0.541613
Si Si4 0.352354 0.801407 0.626163
Si Si5 0.333057 0.575288 0.582117
Si Si6 0.486911 0.423768 0.882324
Si Si7 0.919277 0.025720 0.737119
O O1 0.962041 0.330161 0.562486
O O2 0.917343 0.306370 0.912513
O O3 0.062183 0.441746 0.654579
O O4 0.838916 0.462100 0.865638
O O5 0.043276 0.871695 0.228850
O O6 0.238008 0.831111 0.858655
O O7 0.642995 0.129692 0.528429
O O8 0.651290 0.029900 0.769163
O O9 0.648499 0.933194 0.517680
O O10 0.337257 0.692495 0.584978
O O11 0.467082 0.819761 0.602138
O O12 0.435971 0.540413 0.351451
O O13 0.214077 0.530944 0.654951
O O14 0.500000 0.500000 0.000000
O O15 0.000000 0.000000 0.500000
#
# Coordination Sequence:
#
# PCOD8124343 Si02
#       7
#     4   4   4   4   4   4   4
#     4  11  22  38  61  96 125 166 215 258 322 372
#     4  11  21  38  62  93 126 164 219 267 302 371
#     4  10  20  34  56  90 124 158 201 255 312 367
#     4  10  19  36  61  92 119 154 211 265 301 356
#     4  12  20  37  62  94 120 160 212 258 308 363
#     4  10  22  37  58  91 124 157 198 262 314 365
#     4  12  22  37  60  96 130 166 210 267 316 375
#
# _framework density 20.513055000000001
#
# number of rings (size 3 to 8) (size 9 to 14) (size 15 to 20)
#    0.000    1.143    4.286    4.286    0.000    0.000 
#    0.000    0.000    0.000    6.857    7.429    0.000 
#    0.000    0.000    0.000    0.000    0.000    0.000 
#
# Total GULP energy -346994.518968 kJ/mol
# GULP energy per Si atom -12392.661392 kJ/mol
# Density = 2.046637 g / cm^3
# Si number density = 20.513055 Si / 1000 Ang^3
#
#
#
# Elastic Constant Matrix: (Units=GPa)
#
#
# Indices 1 2 3 4 5 6 
#
# 1 140.6797 67.0733 32.5399 0.0000 4.5449 0.0000
# 2 67.0733 77.3232 25.9384 0.0000 -10.0438 0.0000
# 3 32.5399 25.9384 83.1515 0.0000 12.9407 0.0000
# 4 0.0000 0.0000 0.0000 32.3115 0.0000 4.2667
# 5 4.5449 -10.0438 12.9407 0.0000 24.3013 0.0000
# 6 0.0000 0.0000 0.0000 4.2667 0.0000 33.6647
#
#
#
# Elastic Compliance Matrix: (Units=1/GPa)
#
#
# Indices 1 2 3 4 5 6 
#
# 1 0.013360 -0.012532 -0.000135 0.000000 -0.007606 0.000000
# 2 -0.012532 0.028329 -0.006673 0.000000 0.017605 0.000000
# 3 -0.000135 -0.006673 0.015904 0.000000 -0.011202 0.000000
# 4 0.000000 0.000000 0.000000 0.031476 0.000000 -0.003989
# 5 -0.007606 0.017605 -0.011202 0.000000 0.055814 0.000000
# 6 0.000000 0.000000 0.000000 -0.003989 0.000000 0.030210
#
#
# Mechanical properties :
#
#
# Convention : Reuss Voigt Hill
#
# Bulk Modulus (GPa) = 52.87338 61.36195 57.11767
# Shear Modulus (GPa) = 22.71935 29.76235 26.24085
#
# Velocity S-wave (km/s) = 3.33161 3.81320 3.58051
# Velocity P-wave (km/s) = 6.37424 7.02608 6.70808
#
# Compressibility (1/GPa) = 0.01891311
#
# Stress axis : x y z
#
# Youngs Moduli (GPa) = 74.84836 35.30002 62.87736
#
# Poissons Ratio (x) = 0.44238 0.00851
# Poissons Ratio (y) = 0.93799 0.41956
# Poissons Ratio (z) = 0.01014 0.23554
#
# Static dielectric constant tensor:
#      x y z
#    x 4.245480 0.000000 0.219390 
#    y 0.000000 3.680620 0.000000 
#    z 0.219390 0.000000 3.815620 
# 
# 
# High freq. dielectric constant tensor:
#      x y z
#    x 1.813150 0.000000 0.034540 
#    y 0.000000 1.773650 0.000000 
#    z 0.034540 0.000000 1.796570 
# 
# From -- ./inp_files/16197.got.cif
#   From: 2010.03.12/outbox.cif.g09.slc.cpg/sg14_9_cif.got.tgz:16197.got - 2010.03.31 13:35:05.
