data_PCOD8124001
_publ_section_title
;
Structure prediction by ZEFSAII (Michael W. Deem and Ramdas Pophale) SiO2 
 PCOD8124001
Probable space group: P 21/C
;
_chemical_formula_sum "Si O2"
_cell_formula_units_Z 20
_cell_length_a 10.110339
_cell_length_b 5.022298
_cell_length_c 21.981706
_cell_angle_alpha 90.000000
_cell_angle_beta 128.348773
_cell_angle_gamma 90.000000
_cell_volume 875.353127
_symmetry_space_group_name_H-M "P 21/C"
_symmetry_group_IT_number 14
_symmetry_cell_setting 'monoclinic'
loop_
_space_group_symop_operation_xyz
x,y,z
-x,1/2+y,1/2-z
-x,-y,-z
x,1/2-y,1/2+z
loop_
_atom_site_type_symbol
_atom_site_label
_atom_site_fract_x
_atom_site_fract_y
_atom_site_fract_z
Si Si1 0.379333 0.416348 0.830823
Si Si2 0.854011 0.100654 0.002870
Si Si3 0.503510 0.418639 0.570651
Si Si4 0.722025 0.034065 0.372153
Si Si5 0.851217 0.535342 0.340436
O O1 0.409294 0.634401 0.892480
O O2 0.519996 0.443373 0.818160
O O3 0.200495 0.435521 0.744838
O O4 0.381547 0.129037 0.861510
O O5 0.946407 0.097881 0.095516
O O6 0.797678 0.392773 0.961522
O O7 0.687910 0.914603 0.957898
O O8 0.000000 0.000000 0.000000
O O9 0.500000 0.500000 0.500000
O O10 0.799065 0.238721 0.345360
O O11 0.761526 0.737663 0.361914
#
# Coordination Sequence:
#
# PCOD8124001 Si02
#       5
#     4   4   4   4   4
#     4  11  21  37  58  83 113 152 194 234 283 341
#     4   9  20  37  60  87 117 149 189 232 282 338
#     4  11  24  42  59  79 113 157 194 231 285 349
#     4  10  19  33  55  87 123 152 181 227 290 347
#     4  11  20  33  56  90 118 146 186 242 285 331
#
# _framework density 22.847923000000002
#
# number of rings (size 3 to 8) (size 9 to 14) (size 15 to 20)
#    0.000    1.600    0.000    7.200    0.000    4.800 
#    0.000    2.000    0.000    0.000    0.000    0.000 
#    0.000    0.000    0.000    0.000    0.000    0.000 
#
# Total GULP energy -247845.682805 kJ/mol
# GULP energy per Si atom -12392.284140 kJ/mol
# Density = 2.279592 g / cm^3
# Si number density = 22.847923 Si / 1000 Ang^3
#
#
#
# Elastic Constant Matrix: (Units=GPa)
#
#
# Indices 1 2 3 4 5 6 
#
# 1 30.9982 8.1574 24.9171 0.0000 -0.6491 0.0000
# 2 8.1574 64.8443 6.2923 0.0000 7.6530 0.0000
# 3 24.9171 6.2923 159.3513 0.0000 29.5124 0.0000
# 4 0.0000 0.0000 0.0000 34.1124 0.0000 -2.3813
# 5 -0.6491 7.6530 29.5124 0.0000 27.7640 0.0000
# 6 0.0000 0.0000 0.0000 -2.3813 0.0000 17.5697
#
#
#
# Elastic Compliance Matrix: (Units=1/GPa)
#
#
# Indices 1 2 3 4 5 6 
#
# 1 0.040566 -0.005631 -0.008198 0.000000 0.011215 0.000000
# 2 -0.005631 0.016729 0.001368 0.000000 -0.006196 0.000000
# 3 -0.008198 0.001368 0.009474 0.000000 -0.010639 0.000000
# 4 0.000000 0.000000 0.000000 0.029595 0.000000 0.004011
# 5 0.011215 -0.006196 -0.010639 0.000000 0.049297 0.000000
# 6 0.000000 0.000000 0.000000 0.004011 0.000000 0.057460
#
#
# Mechanical properties :
#
#
# Convention : Reuss Voigt Hill
#
# Bulk Modulus (GPa) = 23.89746 37.10304 30.50025
# Shear Modulus (GPa) = 20.66186 30.27768 25.46977
#
# Velocity S-wave (km/s) = 3.01046 3.64426 3.34241
# Velocity P-wave (km/s) = 4.75035 5.82940 5.31732
#
# Compressibility (1/GPa) = 0.04184545
#
# Stress axis : x y z
#
# Youngs Moduli (GPa) = 24.65103 59.77792 105.55580
#
# Poissons Ratio (x) = 0.33663 0.86533
# Poissons Ratio (y) = 0.13882 -0.14436
# Poissons Ratio (z) = 0.20209 -0.08175
#
# Static dielectric constant tensor:
#      x y z
#    x 3.867020 0.000000 0.601940 
#    y 0.000000 4.052200 0.000000 
#    z 0.601940 0.000000 4.892730 
# 
# 
# High freq. dielectric constant tensor:
#      x y z
#    x 1.850790 0.000000 0.025030 
#    y 0.000000 1.908190 0.000000 
#    z 0.025030 0.000000 1.914450 
# 
# From -- ./inp_files/56658.got.cif
#   From: 2010.03.12/outbox.cif.g09.slc.cpg/sg14_29_cif.got.tgz:56658.got - 2010.03.31 13:35:05.
