data_PCOD8124032
_publ_section_title
;
Structure prediction by ZEFSAII (Michael W. Deem and Ramdas Pophale) SiO2 
 PCOD8124032
Probable space group: P 21/C
;
_chemical_formula_sum "Si O2"
_cell_formula_units_Z 28
_cell_length_a 13.356336
_cell_length_b 14.948411
_cell_length_c 8.884035
_cell_angle_alpha 90.000000
_cell_angle_beta 48.942108
_cell_angle_gamma 90.000000
_cell_volume 1337.490313
_symmetry_space_group_name_H-M "P 21/C"
_symmetry_group_IT_number 14
_symmetry_cell_setting 'monoclinic'
loop_
_space_group_symop_operation_xyz
x,y,z
-x,1/2+y,1/2-z
-x,-y,-z
x,1/2-y,1/2+z
loop_
_atom_site_type_symbol
_atom_site_label
_atom_site_fract_x
_atom_site_fract_y
_atom_site_fract_z
Si Si1 0.533437 0.198234 0.247693
Si Si2 0.971905 0.890247 0.186093
Si Si3 0.311007 0.325807 0.517845
Si Si4 0.283206 0.754286 0.687335
Si Si5 0.732016 0.848683 0.587287
Si Si6 0.899806 0.200143 0.384203
Si Si7 0.891504 0.573833 0.436442
O O1 0.465047 0.298259 0.335063
O O2 0.621867 0.179530 0.308219
O O3 0.413558 0.126564 0.341106
O O4 0.626589 0.194387 0.010467
O O5 0.849760 0.915328 0.421134
O O6 0.046813 0.801234 0.162308
O O7 0.909978 0.881400 0.081192
O O8 0.079437 0.968994 0.088678
O O9 0.281469 0.339788 0.721779
O O10 0.221349 0.245126 0.536407
O O11 0.260171 0.412735 0.474361
O O12 0.180797 0.814176 0.692698
O O13 0.202256 0.686848 0.876392
O O14 0.012674 0.124757 0.278232
#
# Coordination Sequence:
#
# PCOD8124032 Si02
#       7
#     4   4   4   4   4   4   4
#     4   9  17  34  56  92 107 155 202 238 284 353
#     4  11  24  40  60  89 122 157 197 248 305 356
#     4  10  19  33  60  87 114 147 198 246 283 344
#     4  10  20  32  60  86 118 154 198 232 296 352
#     4  10  19  33  60  87 114 147 198 246 283 344
#     4  11  21  38  60  88 117 157 194 240 296 361
#     4  11  24  40  60  89 122 157 197 248 305 356
#
# _framework density 20.934730999999999
#
# number of rings (size 3 to 8) (size 9 to 14) (size 15 to 20)
#    0.857    0.857    4.286    0.857    4.000    0.571 
#    0.000    0.000    0.000   10.286    0.000    0.000 
#    0.000    0.000    0.000    0.000    0.000    0.000 
#
# Total GULP energy -346878.764698 kJ/mol
# GULP energy per Si atom -12388.527311 kJ/mol
# Density = 2.088708 g / cm^3
# Si number density = 20.934731 Si / 1000 Ang^3
#
#
#
# Elastic Constant Matrix: (Units=GPa)
#
#
# Indices 1 2 3 4 5 6 
#
# 1 101.1371 19.4596 33.0005 0.0000 10.3667 0.0000
# 2 19.4596 41.6783 10.7199 0.0000 -0.8969 0.0000
# 3 33.0005 10.7199 112.3400 0.0000 6.6815 0.0000
# 4 0.0000 0.0000 0.0000 15.1587 0.0000 1.9913
# 5 10.3667 -0.8969 6.6815 0.0000 34.9763 0.0000
# 6 0.0000 0.0000 0.0000 1.9913 0.0000 12.4888
#
#
#
# Elastic Compliance Matrix: (Units=1/GPa)
#
#
# Indices 1 2 3 4 5 6 
#
# 1 0.012115 -0.004980 -0.002895 0.000000 -0.003165 0.000000
# 2 -0.004980 0.026685 -0.001226 0.000000 0.002394 0.000000
# 3 -0.002895 -0.001226 0.009933 0.000000 -0.001071 0.000000
# 4 0.000000 0.000000 0.000000 0.067380 0.000000 -0.010744
# 5 -0.003165 0.002394 -0.001071 0.000000 0.029795 0.000000
# 6 0.000000 0.000000 0.000000 -0.010744 0.000000 0.081785
#
#
# Mechanical properties :
#
#
# Convention : Reuss Voigt Hill
#
# Bulk Modulus (GPa) = 32.75409 42.39061 37.57235
# Shear Modulus (GPa) = 19.52577 25.32313 22.42445
#
# Velocity S-wave (km/s) = 3.05732 3.48174 3.27641
# Velocity P-wave (km/s) = 5.30497 6.03790 5.68326
#
# Compressibility (1/GPa) = 0.03053054
#
# Stress axis : x y z
#
# Youngs Moduli (GPa) = 82.54284 37.47393 100.67706
#
# Poissons Ratio (x) = 0.18661 0.29150
# Poissons Ratio (y) = 0.41105 0.12343
# Poissons Ratio (z) = 0.23899 0.04594
#
# Static dielectric constant tensor:
#      x y z
#    x 4.070120 0.000000 -0.045440 
#    y 0.000000 3.100270 0.000000 
#    z -0.045440 0.000000 3.950880 
# 
# 
# High freq. dielectric constant tensor:
#      x y z
#    x 1.839770 0.000000 0.000170 
#    y 0.000000 1.741870 0.000000 
#    z 0.000170 0.000000 1.835620 
# 
# From -- ./inp_files/16185.got.cif
#   From: 2010.03.12/outbox.cif.g09.slc.cpg/sg14_9_cif.got.tgz:16185.got - 2010.03.31 13:35:05.
