data_PCOD8124145
_publ_section_title
;
Structure prediction by ZEFSAII (Michael W. Deem and Ramdas Pophale) SiO2 
 PCOD8124145
Probable space group: P 21/C
;
_chemical_formula_sum "Si O2"
_cell_formula_units_Z 28
_cell_length_a 7.733653
_cell_length_b 15.821738
_cell_length_c 15.325449
_cell_angle_alpha 90.000000
_cell_angle_beta 130.394373
_cell_angle_gamma 90.000000
_cell_volume 1428.170730
_symmetry_space_group_name_H-M "P 21/C"
_symmetry_group_IT_number 14
_symmetry_cell_setting 'monoclinic'
loop_
_space_group_symop_operation_xyz
x,y,z
-x,1/2+y,1/2-z
-x,-y,-z
x,1/2-y,1/2+z
loop_
_atom_site_type_symbol
_atom_site_label
_atom_site_fract_x
_atom_site_fract_y
_atom_site_fract_z
Si Si1 0.905066 0.737581 0.544971
Si Si2 0.346519 0.858150 0.226195
Si Si3 0.177246 0.312014 0.171580
Si Si4 0.648904 0.982926 0.670727
Si Si5 0.274040 0.605172 0.963436
Si Si6 0.416975 0.760331 0.915509
Si Si7 0.037327 0.328497 0.760413
O O1 0.876495 0.772114 0.439203
O O2 0.663895 0.695452 0.494178
O O3 0.943199 0.812189 0.628845
O O4 0.107762 0.670029 0.606068
O O5 0.563871 0.843938 0.234855
O O6 0.382293 0.803649 0.324011
O O7 0.331178 0.959230 0.236933
O O8 0.143258 0.249351 0.241310
O O9 0.998828 0.390018 0.118349
O O10 0.403814 0.934824 0.589840
O O11 0.851526 0.915688 0.732351
O O12 0.664572 0.045908 0.595920
O O13 0.380641 0.699719 0.987790
O O14 0.229810 0.834297 0.851091
#
# Coordination Sequence:
#
# PCOD8124145 Si02
#       7
#     4   4   4   4   4   4   4
#     4  10  19  37  59  78 115 148 188 238 271 325
#     4   9  20  34  52  82 116 142 180 234 282 333
#     4  10  22  36  56  89 108 149 200 220 271 351
#     4  10  19  35  55  84 116 144 180 238 293 322
#     4   9  18  33  57  81 113 142 181 239 286 314
#     4   8  16  34  54  82 103 146 195 221 263 340
#     4  10  20  35  60  82 111 150 191 230 281 332
#
# _framework density 19.605498000000001
#
# number of rings (size 3 to 8) (size 9 to 14) (size 15 to 20)
#    0.000    2.571    1.429    0.857    4.000    0.571 
#    0.000    1.429    0.000    0.000    0.000    0.000 
#    0.000    0.000    0.000    0.000    0.000    0.000 
#
# Total GULP energy -346889.538492 kJ/mol
# GULP energy per Si atom -12388.912089 kJ/mol
# Density = 1.956088 g / cm^3
# Si number density = 19.605498 Si / 1000 Ang^3
#
#
#
# Elastic Constant Matrix: (Units=GPa)
#
#
# Indices 1 2 3 4 5 6 
#
# 1 66.1507 -2.6321 22.4649 0.0000 28.8748 0.0000
# 2 -2.6321 29.8467 17.0595 0.0000 12.4358 0.0000
# 3 22.4649 17.0595 71.6007 0.0000 28.4508 0.0000
# 4 0.0000 0.0000 0.0000 22.8120 0.0000 11.9463
# 5 28.8748 12.4358 28.4508 0.0000 48.0727 0.0000
# 6 0.0000 0.0000 0.0000 11.9463 0.0000 24.5120
#
#
#
# Elastic Compliance Matrix: (Units=1/GPa)
#
#
# Indices 1 2 3 4 5 6 
#
# 1 0.023055 0.010230 -0.004075 0.000000 -0.014083 0.000000
# 2 0.010230 0.044681 -0.008918 0.000000 -0.012425 0.000000
# 3 -0.004075 -0.008918 0.020240 0.000000 -0.007224 0.000000
# 4 0.000000 0.000000 0.000000 0.058859 0.000000 -0.028686
# 5 -0.014083 -0.012425 -0.007224 0.000000 0.036750 0.000000
# 6 0.000000 0.000000 0.000000 -0.028686 0.000000 0.054777
#
#
# Mechanical properties :
#
#
# Convention : Reuss Voigt Hill
#
# Bulk Modulus (GPa) = 12.12864 26.82028 19.47446
# Shear Modulus (GPa) = 18.42489 27.79307 23.10898
#
# Velocity S-wave (km/s) = 3.06891 3.76921 3.43694
# Velocity P-wave (km/s) = 4.33098 5.71422 5.06999
#
# Compressibility (1/GPa) = 0.08244947
#
# Stress axis : x y z
#
# Youngs Moduli (GPa) = 43.37447 22.38090 49.40654
#
# Poissons Ratio (x) = -0.22896 0.20134
# Poissons Ratio (y) = -0.44372 0.44062
# Poissons Ratio (z) = 0.17676 0.19960
#
# Static dielectric constant tensor:
#      x y z
#    x 3.841990 0.000000 0.359730 
#    y 0.000000 3.470560 0.000000 
#    z 0.359730 0.000000 3.731820 
# 
# 
# High freq. dielectric constant tensor:
#      x y z
#    x 1.766330 0.000000 0.022080 
#    y 0.000000 1.726750 0.000000 
#    z 0.022080 0.000000 1.760410 
# 
# From -- ./inp_files/30261.got.cif
#   From: 2010.03.12/outbox.cif.g09.slc.cpg/sg14_16_cif.got.tgz:30261.got - 2010.03.31 13:35:05.
