data_PCOD8124012
_publ_section_title
;
Structure prediction by ZEFSAII (Michael W. Deem and Ramdas Pophale) SiO2 
 PCOD8124012
Probable space group: P 21/C
;
_chemical_formula_sum "Si O2"
_cell_formula_units_Z 28
_cell_length_a 10.031869
_cell_length_b 18.736682
_cell_length_c 8.669244
_cell_angle_alpha 90.000000
_cell_angle_beta 105.139915
_cell_angle_gamma 90.000000
_cell_volume 1572.946619
_symmetry_space_group_name_H-M "P 21/C"
_symmetry_group_IT_number 14
_symmetry_cell_setting 'monoclinic'
loop_
_space_group_symop_operation_xyz
x,y,z
-x,1/2+y,1/2-z
-x,-y,-z
x,1/2-y,1/2+z
loop_
_atom_site_type_symbol
_atom_site_label
_atom_site_fract_x
_atom_site_fract_y
_atom_site_fract_z
Si Si1 0.570171 0.805194 0.915556
Si Si2 0.148919 0.683608 0.731606
Si Si3 0.589049 0.910974 0.657041
Si Si4 0.972175 0.739254 0.424431
Si Si5 0.428669 0.808838 0.179492
Si Si6 0.216709 0.296408 0.901680
Si Si7 0.645459 0.070529 0.643372
O O1 0.586736 0.879449 0.829328
O O2 0.543414 0.744634 0.779664
O O3 0.444665 0.812166 0.999617
O O4 0.707799 0.780408 0.048229
O O5 0.279667 0.722347 0.687893
O O6 0.200521 0.606016 0.810304
O O7 0.030801 0.680289 0.563683
O O8 0.095722 0.728686 0.860367
O O9 0.675746 0.861658 0.564540
O O10 0.432819 0.918302 0.544106
O O11 0.661354 0.987849 0.688861
O O12 0.899817 0.803507 0.500331
O O13 0.855697 0.701491 0.286927
O O14 0.446093 0.888943 0.253402
#
# Coordination Sequence:
#
# PCOD8124012 Si02
#       7
#     4   4   4   4   4   4   4
#     4  12  19  32  60  86 108 140 186 236 280 323
#     4   9  20  37  51  82 109 142 184 231 265 330
#     4  11  21  37  57  84 116 144 177 232 292 335
#     4  10  20  33  59  77 108 143 193 230 265 308
#     4  10  19  33  57  83 108 142 182 230 283 325
#     4  11  19  34  54  86 104 141 186 236 266 325
#     4   9  22  38  56  79 119 147 175 228 293 338
#
# _framework density 17.800986999999999
#
# number of rings (size 3 to 8) (size 9 to 14) (size 15 to 20)
#    0.857    0.857    4.286    0.857    2.000    0.571 
#    0.000    1.429    0.000    0.000    0.000    0.000 
#    0.000    0.000    0.000    0.000    0.000    0.000 
#
# Total GULP energy -346919.578872 kJ/mol
# GULP energy per Si atom -12389.984960 kJ/mol
# Density = 1.776047 g / cm^3
# Si number density = 17.800987 Si / 1000 Ang^3
#
#
#
# Elastic Constant Matrix: (Units=GPa)
#
#
# Indices 1 2 3 4 5 6 
#
# 1 73.3182 19.1399 32.9896 0.0000 -7.4752 0.0000
# 2 19.1399 94.1832 34.9119 0.0000 5.1529 0.0000
# 3 32.9896 34.9119 93.9597 0.0000 -0.3914 0.0000
# 4 0.0000 0.0000 0.0000 27.2345 0.0000 2.6712
# 5 -7.4752 5.1529 -0.3914 0.0000 35.5962 0.0000
# 6 0.0000 0.0000 0.0000 2.6712 0.0000 14.9571
#
#
#
# Elastic Compliance Matrix: (Units=1/GPa)
#
#
# Indices 1 2 3 4 5 6 
#
# 1 0.016826 -0.001668 -0.005272 0.000000 0.003717 0.000000
# 2 -0.001668 0.012600 -0.004105 0.000000 -0.002219 0.000000
# 3 -0.005272 -0.004105 0.014018 0.000000 -0.000359 0.000000
# 4 0.000000 0.000000 0.000000 0.037373 0.000000 -0.006674
# 5 0.003717 -0.002219 -0.000359 0.000000 0.029191 0.000000
# 6 0.000000 0.000000 0.000000 -0.006674 0.000000 0.068050
#
#
# Mechanical properties :
#
#
# Convention : Reuss Voigt Hill
#
# Bulk Modulus (GPa) = 46.83395 48.39376 47.61386
# Shear Modulus (GPa) = 24.12364 27.18555 25.65459
#
# Velocity S-wave (km/s) = 3.68528 3.91217 3.80042
# Velocity P-wave (km/s) = 6.66898 6.90303 6.78701
#
# Compressibility (1/GPa) = 0.02135203
#
# Stress axis : x y z
#
# Youngs Moduli (GPa) = 59.43204 79.36659 71.33803
#
# Poissons Ratio (x) = 0.13242 0.37611
# Poissons Ratio (y) = 0.09916 0.29285
# Poissons Ratio (z) = 0.31334 0.32581
#
# Static dielectric constant tensor:
#      x y z
#    x 3.303010 0.000000 -0.013260 
#    y 0.000000 2.959610 0.000000 
#    z -0.013260 0.000000 3.409460 
# 
# 
# High freq. dielectric constant tensor:
#      x y z
#    x 1.688060 0.000000 0.000250 
#    y 0.000000 1.645590 0.000000 
#    z 0.000250 0.000000 1.701470 
# 
# From -- ./inp_files/13595.got.cif
#   From: 2010.03.12/outbox.cif.g09.slc.cpg/sg14_7_cif.got.tgz:13595.got - 2010.03.31 13:35:05.
