data_PCOD8124762
_publ_section_title
;
Structure prediction by ZEFSAII (Michael W. Deem and Ramdas Pophale) SiO2 
 PCOD8124762
Probable space group: P 21/C
;
_chemical_formula_sum "Si O2"
_cell_formula_units_Z 28
_cell_length_a 13.341312
_cell_length_b 14.082246
_cell_length_c 7.827994
_cell_angle_alpha 90.000000
_cell_angle_beta 106.295655
_cell_angle_gamma 90.000000
_cell_volume 1411.606732
_symmetry_space_group_name_H-M "P 21/C"
_symmetry_group_IT_number 14
_symmetry_cell_setting 'monoclinic'
loop_
_space_group_symop_operation_xyz
x,y,z
-x,1/2+y,1/2-z
-x,-y,-z
x,1/2-y,1/2+z
loop_
_atom_site_type_symbol
_atom_site_label
_atom_site_fract_x
_atom_site_fract_y
_atom_site_fract_z
Si Si1 0.529711 0.875007 0.655982
Si Si2 0.752996 0.630839 0.852221
Si Si3 0.007159 0.631328 0.337774
Si Si4 0.010593 0.157855 0.554495
Si Si5 0.336583 0.972940 0.453277
Si Si6 0.882523 0.053590 0.790338
Si Si7 0.360052 0.286249 0.499334
O O1 0.590771 0.971743 0.644767
O O2 0.568291 0.787491 0.563930
O O3 0.405503 0.888660 0.569396
O O4 0.556065 0.849893 0.861895
O O5 0.705177 0.638765 0.641787
O O6 0.875873 0.610700 0.903966
O O7 0.701150 0.540909 0.914803
O O8 0.726717 0.730302 0.932391
O O9 0.971014 0.732127 0.393607
O O10 0.096915 0.592227 0.507750
O O11 0.909119 0.558773 0.297410
O O12 0.045609 0.643049 0.158218
O O13 0.948004 0.107707 0.676027
O O14 0.239024 0.929175 0.304566
#
# Coordination Sequence:
#
# PCOD8124762 Si02
#       7
#     4   4   4   4   4   4   4
#     4   9  20  39  61  81 118 148 198 252 298 352
#     4  10  20  33  62  88 113 149 200 248 301 351
#     4  11  24  40  63  89 127 169 206 256 302 368
#     4  12  22  42  62  92 128 164 208 254 306 373
#     4  10  21  40  57  84 120 156 190 253 304 355
#     4  11  25  41  62  93 130 163 210 251 312 371
#     4   9  19  35  59  91 108 149 201 247 297 354
#
# _framework density 19.835553999999998
#
# number of rings (size 3 to 8) (size 9 to 14) (size 15 to 20)
#    0.000    1.714    2.857    1.286    4.000    1.714 
#    2.571    0.000    0.000    0.000    0.000    0.000 
#    0.000    0.000    0.000    0.000    0.000    0.000 
#
# Total GULP energy -347144.347284 kJ/mol
# GULP energy per Si atom -12398.012403 kJ/mol
# Density = 1.979041 g / cm^3
# Si number density = 19.835554 Si / 1000 Ang^3
#
#
#
# Elastic Constant Matrix: (Units=GPa)
#
#
# Indices 1 2 3 4 5 6 
#
# 1 85.4195 25.8816 56.3519 0.0000 25.0214 0.0000
# 2 25.8816 67.5701 39.0187 0.0000 1.4594 0.0000
# 3 56.3519 39.0187 174.5365 0.0000 10.0834 0.0000
# 4 0.0000 0.0000 0.0000 33.5024 0.0000 4.7717
# 5 25.0214 1.4594 10.0834 0.0000 33.0616 0.0000
# 6 0.0000 0.0000 0.0000 4.7717 0.0000 15.8581
#
#
#
# Elastic Compliance Matrix: (Units=1/GPa)
#
#
# Indices 1 2 3 4 5 6 
#
# 1 0.020245 -0.004755 -0.004683 0.000000 -0.013684 0.000000
# 2 -0.004755 0.018115 -0.002724 0.000000 0.003630 0.000000
# 3 -0.004683 -0.002724 0.007776 0.000000 0.001293 0.000000
# 4 0.000000 0.000000 0.000000 0.031185 0.000000 -0.009384
# 5 -0.013684 0.003630 0.001293 0.000000 0.040048 0.000000
# 6 0.000000 0.000000 0.000000 -0.009384 0.000000 0.065883
#
#
# Mechanical properties :
#
#
# Convention : Reuss Voigt Hill
#
# Bulk Modulus (GPa) = 45.84592 63.33673 54.59132
# Shear Modulus (GPa) = 23.27228 30.23601 26.75415
#
# Velocity S-wave (km/s) = 3.42901 3.90851 3.67658
# Velocity P-wave (km/s) = 6.23222 7.23663 6.75313
#
# Compressibility (1/GPa) = 0.02181219
#
# Stress axis : x y z
#
# Youngs Moduli (GPa) = 49.39409 55.20135 128.60423
#
# Poissons Ratio (x) = 0.26247 0.60225
# Poissons Ratio (y) = 0.23486 0.35036
# Poissons Ratio (z) = 0.23131 0.15039
#
# Static dielectric constant tensor:
#      x y z
#    x 3.375900 0.000000 -0.035080 
#    y 0.000000 3.620260 0.000000 
#    z -0.035080 0.000000 4.073490 
# 
# 
# High freq. dielectric constant tensor:
#      x y z
#    x 1.747820 0.000000 -0.001240 
#    y 0.000000 1.769650 0.000000 
#    z -0.001240 0.000000 1.793320 
# 
# From -- ./inp_files/12796.got.cif
#   From: 2010.03.12/outbox.cif.g09.slc.cpg/sg14_7_cif.got.tgz:12796.got - 2010.03.31 13:35:05.
