data_PCOD8124299
_publ_section_title
;
Structure prediction by ZEFSAII (Michael W. Deem and Ramdas Pophale) SiO2 
 PCOD8124299
Probable space group: P 21/C
;
_chemical_formula_sum "Si O2"
_cell_formula_units_Z 20
_cell_length_a 7.757759
_cell_length_b 13.004338
_cell_length_c 12.758985
_cell_angle_alpha 90.000000
_cell_angle_beta 128.714492
_cell_angle_gamma 90.000000
_cell_volume 1004.354002
_symmetry_space_group_name_H-M "P 21/C"
_symmetry_group_IT_number 14
_symmetry_cell_setting 'monoclinic'
loop_
_space_group_symop_operation_xyz
x,y,z
-x,1/2+y,1/2-z
-x,-y,-z
x,1/2-y,1/2+z
loop_
_atom_site_type_symbol
_atom_site_label
_atom_site_fract_x
_atom_site_fract_y
_atom_site_fract_z
Si Si1 0.823265 0.268156 0.277045
Si Si2 0.616958 0.062911 0.200340
Si Si3 0.226348 0.651923 0.439243
Si Si4 0.446166 0.154296 0.753959
Si Si5 0.833622 0.836595 0.934945
O O1 0.746125 0.159104 0.302531
O O2 0.838569 0.251479 0.157349
O O3 0.627868 0.349285 0.229175
O O4 0.056541 0.302486 0.413136
O O5 0.691272 0.059473 0.105652
O O6 0.352183 0.079759 0.109429
O O7 0.672115 0.956671 0.279401
O O8 0.427603 0.684051 0.590693
O O9 0.016568 0.613999 0.427177
O O10 0.258537 0.236278 0.658217
#
# Coordination Sequence:
#
# PCOD8124299 Si02
#       5
#     4   4   4   4   4
#     4   8  20  35  51  82 105 136 179 217 258 320
#     4   9  20  36  54  82 107 132 189 213 260 316
#     4   9  20  35  52  82 102 138 185 206 264 324
#     4  10  19  36  59  76 109 143 171 225 261 309
#     4  10  20  36  57  74 113 143 164 231 265 300
#
# _framework density 19.913297
#
# number of rings (size 3 to 8) (size 9 to 14) (size 15 to 20)
#    1.200    1.600    0.000    0.600    2.800    4.000 
#    3.600    0.000    0.000    4.800    0.000    0.000 
#    0.000    0.000    0.000    0.000    0.000    0.000 
#
# Total GULP energy -247772.920830 kJ/mol
# GULP energy per Si atom -12388.646042 kJ/mol
# Density = 1.986797 g / cm^3
# Si number density = 19.913297 Si / 1000 Ang^3
#
#
#
# Elastic Constant Matrix: (Units=GPa)
#
#
# Indices 1 2 3 4 5 6 
#
# 1 82.8096 5.0605 -1.0665 0.0000 -0.4576 0.0000
# 2 5.0605 34.6658 -4.8520 0.0000 6.0484 0.0000
# 3 -1.0665 -4.8520 27.5603 0.0000 2.3690 0.0000
# 4 0.0000 0.0000 0.0000 12.8612 0.0000 6.7186
# 5 -0.4576 6.0484 2.3690 0.0000 27.9277 0.0000
# 6 0.0000 0.0000 0.0000 6.7186 0.0000 17.4547
#
#
#
# Elastic Compliance Matrix: (Units=1/GPa)
#
#
# Indices 1 2 3 4 5 6 
#
# 1 0.012195 -0.001872 0.000091 0.000000 0.000597 0.000000
# 2 -0.001872 0.031243 0.006056 0.000000 -0.007311 0.000000
# 3 0.000091 0.006056 0.037742 0.000000 -0.004512 0.000000
# 4 0.000000 0.000000 0.000000 0.097323 0.000000 -0.037461
# 5 0.000597 -0.007311 -0.004512 0.000000 0.037783 0.000000
# 6 0.000000 0.000000 0.000000 -0.037461 0.000000 0.071710
#
#
# Mechanical properties :
#
#
# Convention : Reuss Voigt Hill
#
# Bulk Modulus (GPa) = 11.14436 15.92440 13.53438
# Shear Modulus (GPa) = 16.16269 21.37496 18.76883
#
# Velocity S-wave (km/s) = 2.85204 3.27983 3.07339
# Velocity P-wave (km/s) = 4.05637 4.72835 4.40519
#
# Compressibility (1/GPa) = 0.08973150
#
# Stress axis : x y z
#
# Youngs Moduli (GPa) = 82.00252 32.00675 26.49589
#
# Poissons Ratio (x) = 0.05991 -0.00241
# Poissons Ratio (y) = 0.15348 -0.16047
# Poissons Ratio (z) = -0.00747 -0.19385
#
# Static dielectric constant tensor:
#      x y z
#    x 3.616050 0.000000 -0.023260 
#    y 0.000000 3.306100 0.000000 
#    z -0.023260 0.000000 3.443410 
# 
# 
# High freq. dielectric constant tensor:
#      x y z
#    x 1.783830 0.000000 0.003870 
#    y 0.000000 1.752660 0.000000 
#    z 0.003870 0.000000 1.760550 
# 
# From -- ./inp_files/24431.got.cif
#   From: 2010.03.12/outbox.cif.g09.slc.cpg/sg14_13_cif.got.tgz:24431.got - 2010.03.31 13:35:05.
