data_PCOD8124481
_publ_section_title
;
Structure prediction by ZEFSAII (Michael W. Deem and Ramdas Pophale) SiO2 
 PCOD8124481
Probable space group: P 21/C
;
_chemical_formula_sum "Si O2"
_cell_formula_units_Z 28
_cell_length_a 16.197863
_cell_length_b 9.539029
_cell_length_c 12.780547
_cell_angle_alpha 90.000000
_cell_angle_beta 136.037796
_cell_angle_gamma 90.000000
_cell_volume 1370.836760
_symmetry_space_group_name_H-M "P 21/C"
_symmetry_group_IT_number 14
_symmetry_cell_setting 'monoclinic'
loop_
_space_group_symop_operation_xyz
x,y,z
-x,1/2+y,1/2-z
-x,-y,-z
x,1/2-y,1/2+z
loop_
_atom_site_type_symbol
_atom_site_label
_atom_site_fract_x
_atom_site_fract_y
_atom_site_fract_z
Si Si1 0.926896 0.009159 0.670826
Si Si2 0.336389 0.614463 0.792066
Si Si3 0.516962 0.096750 0.368765
Si Si4 0.845619 0.599133 0.317362
Si Si5 0.311672 0.291981 0.219877
Si Si6 0.306501 0.593644 0.155996
Si Si7 0.924422 0.727518 0.582132
O O1 0.815976 0.092457 0.520995
O O2 0.028316 0.124232 0.784566
O O3 0.890505 0.926791 0.742831
O O4 0.979372 0.885368 0.643810
O O5 0.431052 0.537964 0.802723
O O6 0.208149 0.539175 0.675637
O O7 0.314256 0.771901 0.736022
O O8 0.382001 0.605682 0.951847
O O9 0.441402 0.239340 0.306786
O O10 0.579883 0.087379 0.315193
O O11 0.737812 0.715901 0.219301
O O12 0.951466 0.658543 0.491393
O O13 0.313626 0.458678 0.238231
O O14 0.219091 0.249994 0.040907
#
# Coordination Sequence:
#
# PCOD8124481 Si02
#       7
#     4   4   4   4   4   4   4
#     4  11  21  40  63  81 114 152 189 236 291 335
#     4  10  21  34  61  84 114 148 197 231 271 356
#     4  10  19  38  57  83 113 159 182 228 294 331
#     4   9  19  41  57  79 113 155 183 227 294 340
#     4   8  20  37  55  84 119 141 194 235 275 337
#     4  11  21  36  57  90 113 148 193 240 274 331
#     4   9  22  37  59  86 110 149 194 235 278 344
#
# _framework density 20.425483
#
# number of rings (size 3 to 8) (size 9 to 14) (size 15 to 20)
#    0.857    1.429    1.429    1.286    2.000    0.571 
#    0.000    3.571    0.000    0.000    0.000    0.000 
#    0.000    0.000    0.000    0.000    0.000    0.000 
#
# Total GULP energy -346909.991365 kJ/mol
# GULP energy per Si atom -12389.642549 kJ/mol
# Density = 2.037899 g / cm^3
# Si number density = 20.425483 Si / 1000 Ang^3
#
#
#
# Elastic Constant Matrix: (Units=GPa)
#
#
# Indices 1 2 3 4 5 6 
#
# 1 44.3780 25.9135 -1.3624 0.0000 -0.5793 0.0000
# 2 25.9135 155.2559 34.5585 0.0000 1.4714 0.0000
# 3 -1.3624 34.5585 47.0440 0.0000 9.6269 0.0000
# 4 0.0000 0.0000 0.0000 38.5555 0.0000 3.0519
# 5 -0.5793 1.4714 9.6269 0.0000 13.4531 0.0000
# 6 0.0000 0.0000 0.0000 3.0519 0.0000 12.9115
#
#
#
# Elastic Compliance Matrix: (Units=1/GPa)
#
#
# Indices 1 2 3 4 5 6 
#
# 1 0.025843 -0.005441 0.005150 0.000000 -0.001977 0.000000
# 2 -0.005441 0.009011 -0.007647 0.000000 0.004253 0.000000
# 3 0.005150 -0.007647 0.031406 0.000000 -0.021416 0.000000
# 4 0.000000 0.000000 0.000000 0.026431 0.000000 -0.006248
# 5 -0.001977 0.004253 -0.021416 0.000000 0.089107 0.000000
# 6 0.000000 0.000000 0.000000 -0.006248 0.000000 0.078927
#
#
# Mechanical properties :
#
#
# Convention : Reuss Voigt Hill
#
# Bulk Modulus (GPa) = 19.84774 40.54412 30.19593
# Shear Modulus (GPa) = 17.04180 25.48859 21.26519
#
# Velocity S-wave (km/s) = 2.89163 3.53637 3.23013
# Velocity P-wave (km/s) = 4.57022 6.04710 5.35977
#
# Compressibility (1/GPa) = 0.05038358
#
# Stress axis : x y z
#
# Youngs Moduli (GPa) = 38.69499 110.97491 31.84108
#
# Poissons Ratio (x) = 0.60382 -0.16398
# Poissons Ratio (y) = 0.21054 0.24350
# Poissons Ratio (z) = -0.19928 0.84866
#
# Static dielectric constant tensor:
#      x y z
#    x 3.319840 0.000000 0.092750 
#    y 0.000000 3.834410 0.000000 
#    z 0.092750 0.000000 3.682250 
# 
# 
# High freq. dielectric constant tensor:
#      x y z
#    x 1.763400 0.000000 0.011460 
#    y 0.000000 1.809690 0.000000 
#    z 0.011460 0.000000 1.792740 
# 
# From -- ./inp_files/49875.got.cif
#   From: 2010.03.12/outbox.cif.g09.slc.cpg/sg14_25_cif.got.tgz:49875.got - 2010.03.31 13:35:05.
