data_PCOD8124871
_publ_section_title
;
Structure prediction by ZEFSAII (Michael W. Deem and Ramdas Pophale) SiO2 
 PCOD8124871
Probable space group: P 21/C
;
_chemical_formula_sum "Si O2"
_cell_formula_units_Z 28
_cell_length_a 9.110312
_cell_length_b 19.836659
_cell_length_c 12.610531
_cell_angle_alpha 90.000000
_cell_angle_beta 142.345391
_cell_angle_gamma 90.000000
_cell_volume 1392.211747
_symmetry_space_group_name_H-M "P 21/C"
_symmetry_group_IT_number 14
_symmetry_cell_setting 'monoclinic'
loop_
_space_group_symop_operation_xyz
x,y,z
-x,1/2+y,1/2-z
-x,-y,-z
x,1/2-y,1/2+z
loop_
_atom_site_type_symbol
_atom_site_label
_atom_site_fract_x
_atom_site_fract_y
_atom_site_fract_z
Si Si1 0.840047 0.203719 0.299671
Si Si2 0.192918 0.417379 0.693848
Si Si3 0.552531 0.189587 0.348362
Si Si4 0.062340 0.661308 0.757665
Si Si5 0.243328 0.929982 0.195571
Si Si6 0.291510 0.145180 0.474185
Si Si7 0.599874 0.783879 0.077091
O O1 0.723786 0.203814 0.348719
O O2 0.931669 0.278584 0.324826
O O3 0.061646 0.151486 0.420619
O O4 0.643279 0.179474 0.100235
O O5 0.348453 0.366218 0.708752
O O6 0.301848 0.491277 0.737250
O O7 0.213533 0.398909 0.828598
O O8 0.912883 0.414376 0.499215
O O9 0.706653 0.163550 0.535569
O O10 0.422797 0.259200 0.313271
O O11 0.080109 0.591421 0.703770
O O12 0.822444 0.665113 0.691818
O O13 0.492989 0.889001 0.336594
O O14 0.367161 0.219516 0.481085
#
# Coordination Sequence:
#
# PCOD8124871 Si02
#       7
#     4   4   4   4   4   4   4
#     4  10  20  35  56  84 119 147 190 238 289 347
#     4  10  22  37  64  84 111 157 198 240 284 343
#     4  10  20  37  56  84 114 155 192 234 294 340
#     4  10  20  35  58  85 112 152 190 239 292 344
#     4  11  20  38  64  86 113 151 203 237 289 343
#     4  10  20  38  57  85 117 150 190 240 286 341
#     4   9  19  36  54  82 115 147 190 233 288 346
#
# _framework density 20.111882000000001
#
# number of rings (size 3 to 8) (size 9 to 14) (size 15 to 20)
#    0.000    2.000    4.286    1.286    0.000    6.857 
#    2.571    0.714    0.000    2.571    0.000    0.000 
#    0.000    0.000    0.000    0.000    0.000    0.000 
#
# Total GULP energy -347117.496177 kJ/mol
# GULP energy per Si atom -12397.053435 kJ/mol
# Density = 2.006611 g / cm^3
# Si number density = 20.111882 Si / 1000 Ang^3
#
#
#
# Elastic Constant Matrix: (Units=GPa)
#
#
# Indices 1 2 3 4 5 6 
#
# 1 138.6560 32.1609 32.9169 0.0000 18.1452 0.0000
# 2 32.1609 52.5621 41.9608 0.0000 11.6138 0.0000
# 3 32.9169 41.9608 88.4769 0.0000 17.3859 0.0000
# 4 0.0000 0.0000 0.0000 29.9581 0.0000 6.8692
# 5 18.1452 11.6138 17.3859 0.0000 31.4016 0.0000
# 6 0.0000 0.0000 0.0000 6.8692 0.0000 18.6900
#
#
#
# Elastic Compliance Matrix: (Units=1/GPa)
#
#
# Indices 1 2 3 4 5 6 
#
# 1 0.008739 -0.004103 -0.000686 0.000000 -0.003153 0.000000
# 2 -0.004103 0.032928 -0.013647 0.000000 -0.002251 0.000000
# 3 -0.000686 -0.013647 0.019031 0.000000 -0.005093 0.000000
# 4 0.000000 0.000000 0.000000 0.036452 0.000000 -0.013397
# 5 -0.003153 -0.002251 -0.005093 0.000000 0.037320 0.000000
# 6 0.000000 0.000000 0.000000 -0.013397 0.000000 0.058428
#
#
# Mechanical properties :
#
#
# Convention : Reuss Voigt Hill
#
# Bulk Modulus (GPa) = 41.97267 54.86359 48.41813
# Shear Modulus (GPa) = 21.03384 27.52036 24.27710
#
# Velocity S-wave (km/s) = 3.23746 3.70315 3.47811
# Velocity P-wave (km/s) = 5.90675 6.75447 6.34478
#
# Compressibility (1/GPa) = 0.02382503
#
# Stress axis : x y z
#
# Youngs Moduli (GPa) = 114.42707 30.36935 52.54661
#
# Poissons Ratio (x) = 0.12461 0.03604
# Poissons Ratio (y) = 0.46950 0.71713
# Poissons Ratio (z) = 0.07849 0.41446
#
# Static dielectric constant tensor:
#      x y z
#    x 3.781340 0.000000 0.245250 
#    y 0.000000 3.437790 0.000000 
#    z 0.245250 0.000000 3.848280 
# 
# 
# High freq. dielectric constant tensor:
#      x y z
#    x 1.774280 0.000000 0.014440 
#    y 0.000000 1.748100 0.000000 
#    z 0.014440 0.000000 1.802310 
# 
# From -- ./inp_files/26980.got.cif
#   From: 2010.03.12/outbox.cif.g09.slc.cpg/sg14_14_cif.got.tgz:26980.got - 2010.03.31 13:35:05.
