data_PCOD8124126
_publ_section_title
;
Structure prediction by ZEFSAII (Michael W. Deem and Ramdas Pophale) SiO2 
 PCOD8124126
Probable space group: P 21/C
;
_chemical_formula_sum "Si O2"
_cell_formula_units_Z 32
_cell_length_a 21.475770
_cell_length_b 8.927660
_cell_length_c 29.797515
_cell_angle_alpha 90.000000
_cell_angle_beta 164.931547
_cell_angle_gamma 90.000000
_cell_volume 1485.232625
_symmetry_space_group_name_H-M "P 21/C"
_symmetry_group_IT_number 14
_symmetry_cell_setting 'monoclinic'
loop_
_space_group_symop_operation_xyz
x,y,z
-x,1/2+y,1/2-z
-x,-y,-z
x,1/2-y,1/2+z
loop_
_atom_site_type_symbol
_atom_site_label
_atom_site_fract_x
_atom_site_fract_y
_atom_site_fract_z
Si Si1 0.997673 0.513339 0.364003
Si Si2 0.975640 0.424466 0.889236
Si Si3 0.924253 0.979561 0.639644
Si Si4 0.930936 0.690648 0.232598
Si Si5 0.150445 0.730452 0.028136
Si Si6 0.344799 0.178294 0.158745
Si Si7 0.626286 0.446542 0.249293
Si Si8 0.631374 0.331113 0.158471
O O1 0.974021 0.658484 0.379071
O O2 0.236350 0.421354 0.542809
O O3 0.027105 0.563095 0.333171
O O4 0.761201 0.409487 0.206310
O O5 0.926925 0.453008 0.802198
O O6 0.751266 0.330370 0.751451
O O7 0.995260 0.581382 0.929458
O O8 0.224876 0.340415 0.073555
O O9 0.006553 0.863272 0.735583
O O10 0.655545 0.938217 0.439343
O O11 0.949412 0.149334 0.674854
O O12 0.646266 0.698242 0.042437
O O13 0.370499 0.690337 0.147897
O O14 0.251322 0.799713 0.144011
O O15 0.278503 0.097349 0.160119
O O16 0.684438 0.443176 0.237079
#
# Coordination Sequence:
#
# PCOD8124126 Si02
#       8
#     4   4   4   4   4   4   4   4
#     4  10  21  38  61  86 123 165 206 236 320 367
#     4  11  21  38  60  96 122 161 205 251 313 358
#     4  11  23  40  65  90 122 159 213 262 298 367
#     4  11  24  43  63  89 123 165 213 258 304 357
#     4  11  19  36  64  90 121 158 199 261 301 362
#     4  10  19  34  66  90 120 159 200 257 305 362
#     4  10  21  41  61  91 125 155 208 247 312 374
#     4  10  25  40  60  89 129 170 197 256 302 378
#
# _framework density 21.545445999999998
#
# number of rings (size 3 to 8) (size 9 to 14) (size 15 to 20)
#    0.000    1.500    3.750    1.125    3.500    5.500 
#    0.000    0.000    0.000    0.000    0.000    0.000 
#    0.000    0.000    0.000    0.000    0.000    0.000 
#
# Total GULP energy -396774.772593 kJ/mol
# GULP energy per Si atom -12399.211644 kJ/mol
# Density = 2.149641 g / cm^3
# Si number density = 21.545446 Si / 1000 Ang^3
#
#
#
# Elastic Constant Matrix: (Units=GPa)
#
#
# Indices 1 2 3 4 5 6 
#
# 1 45.0368 0.1922 6.8608 0.0000 -15.4120 0.0000
# 2 0.1922 104.9322 17.5796 0.0000 -7.4589 0.0000
# 3 6.8608 17.5796 68.2638 0.0000 -10.4304 0.0000
# 4 0.0000 0.0000 0.0000 32.2513 0.0000 -4.0012
# 5 -15.4120 -7.4589 -10.4304 0.0000 29.4064 0.0000
# 6 0.0000 0.0000 0.0000 -4.0012 0.0000 32.5151
#
#
#
# Elastic Compliance Matrix: (Units=1/GPa)
#
#
# Indices 1 2 3 4 5 6 
#
# 1 0.027200 0.001103 -0.000843 0.000000 0.014236 0.000000
# 2 0.001103 0.010086 -0.002357 0.000000 0.002301 0.000000
# 3 -0.000843 -0.002357 0.016052 0.000000 0.004654 0.000000
# 4 0.000000 0.000000 0.000000 0.031487 0.000000 0.003875
# 5 0.014236 0.002301 0.004654 0.000000 0.043702 0.000000
# 6 0.000000 0.000000 0.000000 0.003875 0.000000 0.031232
#
#
# Mechanical properties :
#
#
# Convention : Reuss Voigt Hill
#
# Bulk Modulus (GPa) = 20.34772 29.72198 25.03485
# Shear Modulus (GPa) = 27.72656 31.74124 29.73390
#
# Velocity S-wave (km/s) = 3.59121 3.84242 3.71894
# Velocity P-wave (km/s) = 5.16337 5.78883 5.48502
#
# Compressibility (1/GPa) = 0.04914555
#
# Stress axis : x y z
#
# Youngs Moduli (GPa) = 36.76533 99.14414 62.29824
#
# Poissons Ratio (x) = -0.10939 0.05249
# Poissons Ratio (y) = -0.04056 0.14683
# Poissons Ratio (z) = 0.03098 0.23367
#
# Static dielectric constant tensor:
#      x y z
#    x 3.747850 0.000000 -0.217000 
#    y 0.000000 4.039910 0.000000 
#    z -0.217000 0.000000 3.858730 
# 
# 
# High freq. dielectric constant tensor:
#      x y z
#    x 1.822640 0.000000 -0.015540 
#    y 0.000000 1.856240 0.000000 
#    z -0.015540 0.000000 1.842160 
# 
# From -- ./inp_files/78015.got.cif
#   From: 2010.03.12/outbox.cif.g09.slc.cpg/sg14_40_cif.got.tgz:78015.got - 2010.03.31 13:35:05.
