data_PCOD8124811
_publ_section_title
;
Structure prediction by ZEFSAII (Michael W. Deem and Ramdas Pophale) SiO2 
 PCOD8124811
Probable space group: P 21/C
;
_chemical_formula_sum "Si O2"
_cell_formula_units_Z 20
_cell_length_a 10.044921
_cell_length_b 4.900577
_cell_length_c 21.441673
_cell_angle_alpha 90.000000
_cell_angle_beta 72.677398
_cell_angle_gamma 90.000000
_cell_volume 1007.612609
_symmetry_space_group_name_H-M "P 21/C"
_symmetry_group_IT_number 14
_symmetry_cell_setting 'monoclinic'
loop_
_space_group_symop_operation_xyz
x,y,z
-x,1/2+y,1/2-z
-x,-y,-z
x,1/2-y,1/2+z
loop_
_atom_site_type_symbol
_atom_site_label
_atom_site_fract_x
_atom_site_fract_y
_atom_site_fract_z
Si Si1 0.352814 0.025338 0.554588
Si Si2 0.388668 0.534607 0.628862
Si Si3 0.708304 0.017564 0.108691
Si Si4 0.163073 0.030668 0.469390
Si Si5 0.406564 0.742218 0.756239
O O1 0.354675 0.227497 0.613737
O O2 0.232480 0.127102 0.524670
O O3 0.500000 0.000000 0.500000
O O4 0.318561 0.729500 0.587519
O O5 0.555288 0.571588 0.607957
O O6 0.331111 0.614977 0.705745
O O7 0.769782 0.240544 0.054083
O O8 0.706366 0.137587 0.179345
O O9 0.805292 0.749430 0.089810
O O10 0.000000 0.000000 0.500000
O O11 0.491740 0.494239 0.777430
#
# Coordination Sequence:
#
# PCOD8124811 Si02
#       5
#     4   4   4   4   4
#     4  12  21  36  59  86 124 151 188 249 297 342
#     4  11  20  35  60  91 115 147 194 248 303 342
#     4  11  20  38  59  84 121 152 193 248 289 349
#     4  12  25  38  57  86 122 162 196 232 294 359
#     4  10  20  34  57  90 120 149 191 250 307 346
#
# _framework density 19.848898999999999
#
# number of rings (size 3 to 8) (size 9 to 14) (size 15 to 20)
#    0.000    0.800    4.000    7.200    0.000    0.000 
#    0.000    0.000    0.000    4.800    0.000    2.800 
#    0.000    0.000    0.000    0.000    0.000    0.000 
#
# Total GULP energy -247971.836207 kJ/mol
# GULP energy per Si atom -12398.591810 kJ/mol
# Density = 1.980372 g / cm^3
# Si number density = 19.848899 Si / 1000 Ang^3
#
#
#
# Elastic Constant Matrix: (Units=GPa)
#
#
# Indices 1 2 3 4 5 6 
#
# 1 83.6796 22.4253 53.9059 0.0000 2.2654 0.0000
# 2 22.4253 103.3432 27.5585 0.0000 -1.4491 0.0000
# 3 53.9059 27.5585 101.3266 0.0000 11.0518 0.0000
# 4 0.0000 0.0000 0.0000 52.9686 0.0000 4.7858
# 5 2.2654 -1.4491 11.0518 0.0000 21.4967 0.0000
# 6 0.0000 0.0000 0.0000 4.7858 0.0000 15.9810
#
#
#
# Elastic Compliance Matrix: (Units=1/GPa)
#
#
# Indices 1 2 3 4 5 6 
#
# 1 0.018572 -0.001365 -0.009837 0.000000 0.003008 0.000000
# 2 -0.001365 0.010641 -0.002396 0.000000 0.002093 0.000000
# 3 -0.009837 -0.002396 0.016589 0.000000 -0.007654 0.000000
# 4 0.000000 0.000000 0.000000 0.019404 0.000000 -0.005811
# 5 0.003008 0.002093 -0.007654 0.000000 0.050278 0.000000
# 6 0.000000 0.000000 0.000000 -0.005811 0.000000 0.064314
#
#
# Mechanical properties :
#
#
# Convention : Reuss Voigt Hill
#
# Bulk Modulus (GPa) = 53.74800 55.12542 54.43671
# Shear Modulus (GPa) = 23.45263 30.38659 26.91961
#
# Velocity S-wave (km/s) = 3.44111 3.91691 3.68669
# Velocity P-wave (km/s) = 6.55177 6.94903 6.75332
#
# Compressibility (1/GPa) = 0.01860534
#
# Stress axis : x y z
#
# Youngs Moduli (GPa) = 53.84575 93.97595 60.28100
#
# Poissons Ratio (x) = 0.12824 0.59299
# Poissons Ratio (y) = 0.07348 0.14446
# Poissons Ratio (z) = 0.52968 0.22521
#
# Static dielectric constant tensor:
#      x y z
#    x 3.308400 0.000000 -0.113800 
#    y 0.000000 4.286520 0.000000 
#    z -0.113800 0.000000 4.816780 
# 
# 
# High freq. dielectric constant tensor:
#      x y z
#    x 1.711060 0.000000 0.019540 
#    y 0.000000 1.804940 0.000000 
#    z 0.019540 0.000000 1.776510 
# 
# From -- ./inp_files/64128.got.cif
#   From: 2010.03.12/outbox.cif.g09.slc.cpg/sg14_33_cif.got.tgz:64128.got - 2010.03.31 13:35:05.
