data_PCOD8124440
_publ_section_title
;
Structure prediction by ZEFSAII (Michael W. Deem and Ramdas Pophale) SiO2 
 PCOD8124440
Probable space group: P 21/C
;
_chemical_formula_sum "Si O2"
_cell_formula_units_Z 24
_cell_length_a 10.072414
_cell_length_b 13.919635
_cell_length_c 15.808344
_cell_angle_alpha 90.000000
_cell_angle_beta 32.944267
_cell_angle_gamma 90.000000
_cell_volume 1205.328291
_symmetry_space_group_name_H-M "P 21/C"
_symmetry_group_IT_number 14
_symmetry_cell_setting 'monoclinic'
loop_
_space_group_symop_operation_xyz
x,y,z
-x,1/2+y,1/2-z
-x,-y,-z
x,1/2-y,1/2+z
loop_
_atom_site_type_symbol
_atom_site_label
_atom_site_fract_x
_atom_site_fract_y
_atom_site_fract_z
Si Si1 0.560501 0.856111 0.865998
Si Si2 0.534533 0.147574 0.640540
Si Si3 0.248307 0.464317 0.170984
Si Si4 0.037634 0.644425 0.222373
Si Si5 0.755082 0.037643 0.673898
Si Si6 0.120960 0.849404 0.224443
O O1 0.542859 0.759583 0.818524
O O2 0.772861 0.847903 0.822241
O O3 0.597493 0.944437 0.782494
O O4 0.313095 0.875758 0.048807
O O5 0.302572 0.084387 0.732615
O O6 0.769483 0.131935 0.456146
O O7 0.599928 0.109242 0.698156
O O8 0.055540 0.552845 0.275976
O O9 0.144529 0.383426 0.163892
O O10 0.500000 0.500000 0.000000
O O11 0.102746 0.735074 0.246169
O O12 0.814447 0.100071 0.723571
O O13 0.000000 0.000000 0.500000
#
# Coordination Sequence:
#
# PCOD8124440 Si02
#       6
#     4   4   4   4   4   4
#     4  11  22  41  65  90 129 167 208 261 313 371
#     4  10  22  39  63  92 129 160 204 263 315 367
#     4  10  19  37  62  90 119 165 208 247 306 378
#     4  10  20  39  65  91 121 167 209 254 307 375
#     4  12  23  42  64  93 126 166 208 259 323 367
#     4  11  23  39  66  91 121 168 216 249 304 387
#
# _framework density 19.911587999999998
#
# number of rings (size 3 to 8) (size 9 to 14) (size 15 to 20)
#    0.000    1.333    5.000    1.500    0.000    1.333 
#    3.000    0.833    0.000    0.000    0.000    0.000 
#    0.000    0.000    0.000    0.000    0.000    0.000 
#
# Total GULP energy -297544.632928 kJ/mol
# GULP energy per Si atom -12397.693039 kJ/mol
# Density = 1.986627 g / cm^3
# Si number density = 19.911588 Si / 1000 Ang^3
#
#
#
# Elastic Constant Matrix: (Units=GPa)
#
#
# Indices 1 2 3 4 5 6 
#
# 1 144.1715 70.3598 38.7164 0.0000 -3.3015 0.0000
# 2 70.3598 133.6699 46.8547 0.0000 9.0221 0.0000
# 3 38.7164 46.8547 46.0726 0.0000 2.9018 0.0000
# 4 0.0000 0.0000 0.0000 20.6347 0.0000 -2.7714
# 5 -3.3015 9.0221 2.9018 0.0000 26.0581 0.0000
# 6 0.0000 0.0000 0.0000 -2.7714 0.0000 49.1596
#
#
#
# Elastic Compliance Matrix: (Units=1/GPa)
#
#
# Indices 1 2 3 4 5 6 
#
# 1 0.010204 -0.003900 -0.004808 0.000000 0.003178 0.000000
# 2 -0.003900 0.013312 -0.010009 0.000000 -0.003988 0.000000
# 3 -0.004808 -0.010009 0.035997 0.000000 -0.001152 0.000000
# 4 0.000000 0.000000 0.000000 0.048832 0.000000 0.002753
# 5 0.003178 -0.003988 -0.001152 0.000000 0.040288 0.000000
# 6 0.000000 0.000000 0.000000 0.002753 0.000000 0.020497
#
#
# Mechanical properties :
#
#
# Convention : Reuss Voigt Hill
#
# Bulk Modulus (GPa) = 45.29533 70.64176 57.96854
# Shear Modulus (GPa) = 23.37290 30.36936 26.87113
#
# Velocity S-wave (km/s) = 3.42984 3.90963 3.67757
# Velocity P-wave (km/s) = 6.20344 7.47897 6.87087
#
# Compressibility (1/GPa) = 0.02207733
#
# Stress axis : x y z
#
# Youngs Moduli (GPa) = 98.00556 75.12280 27.77991
#
# Poissons Ratio (x) = 0.29297 0.13358
# Poissons Ratio (y) = 0.38221 0.27805
# Poissons Ratio (z) = 0.47126 0.75191
#
# Static dielectric constant tensor:
#      x y z
#    x 3.845660 0.000000 -0.298880 
#    y 0.000000 4.059820 0.000000 
#    z -0.298880 0.000000 3.491790 
# 
# 
# High freq. dielectric constant tensor:
#      x y z
#    x 1.777670 0.000000 -0.025750 
#    y 0.000000 1.802550 0.000000 
#    z -0.025750 0.000000 1.750790 
# 
# From -- ./inp_files/35342.got.cif
#   From: 2010.03.12/outbox.cif.g09.slc.cpg/sg14_18_cif.got.tgz:35342.got - 2010.03.31 13:35:05.
