data_PCOD8124153
_publ_section_title
;
Structure prediction by ZEFSAII (Michael W. Deem and Ramdas Pophale) SiO2 
 PCOD8124153
Probable space group: P 21/C
;
_chemical_formula_sum "Si O2"
_cell_formula_units_Z 32
_cell_length_a 26.493295
_cell_length_b 8.686169
_cell_length_c 20.012336
_cell_angle_alpha 90.000000
_cell_angle_beta 158.073701
_cell_angle_gamma 90.000000
_cell_volume 1719.698036
_symmetry_space_group_name_H-M "P 21/C"
_symmetry_group_IT_number 14
_symmetry_cell_setting 'monoclinic'
loop_
_space_group_symop_operation_xyz
x,y,z
-x,1/2+y,1/2-z
-x,-y,-z
x,1/2-y,1/2+z
loop_
_atom_site_type_symbol
_atom_site_label
_atom_site_fract_x
_atom_site_fract_y
_atom_site_fract_z
Si Si1 0.051569 0.225515 0.202778
Si Si2 0.679882 0.278566 0.037404
Si Si3 0.186703 0.783126 0.998184
Si Si4 0.341435 0.004403 0.284834
Si Si5 0.755927 0.000744 0.047184
Si Si6 0.876368 0.410711 0.379927
Si Si7 0.267655 0.995769 0.515279
Si Si8 0.603035 0.792083 0.764284
O O1 0.140851 0.375001 0.296887
O O2 0.140632 0.071484 0.320942
O O3 0.965530 0.241953 0.164108
O O4 0.942359 0.212182 0.010261
O O5 0.692591 0.102629 0.028395
O O6 0.813578 0.319001 0.241639
O O7 0.653163 0.396425 0.943257
O O8 0.558348 0.290752 0.941234
O O9 0.294558 0.855982 0.183437
O O10 0.234117 0.614577 0.035615
O O11 0.166009 0.888841 0.907984
O O12 0.238068 0.015046 0.221387
O O13 0.500000 0.000000 0.500000
O O14 0.326985 0.156998 0.219882
O O15 0.635045 0.915710 0.860917
O O16 0.000000 0.500000 0.500000
O O17 0.354449 0.125901 0.657786
#
# Coordination Sequence:
#
# PCOD8124153 Si02
#       8
#     4   4   4   4   4   4   4   4
#     4  10  19  35  56  79 116 148 190 233 285 339
#     4  11  20  36  58  81 120 149 187 233 282 342
#     4   9  19  34  57  84 111 146 189 236 286 336
#     4  10  20  39  62  80 113 154 190 235 281 343
#     4   9  20  34  54  86 110 145 188 236 288 328
#     4  11  22  38  58  84 114 156 193 227 289 346
#     4  10  20  35  57  86 113 144 188 243 282 334
#     4  10  20  37  60  85 110 147 194 234 284 334
#
# _framework density 18.607918000000002
#
# number of rings (size 3 to 8) (size 9 to 14) (size 15 to 20)
#    0.000    2.000    2.500    1.500    0.000    1.500 
#    2.250    1.875    0.000    0.000    0.000    0.000 
#    0.000    0.000    0.000    0.000    0.000    0.000 
#
# Total GULP energy -396550.098920 kJ/mol
# GULP energy per Si atom -12392.190591 kJ/mol
# Density = 1.856557 g / cm^3
# Si number density = 18.607918 Si / 1000 Ang^3
#
#
#
# Elastic Constant Matrix: (Units=GPa)
#
#
# Indices 1 2 3 4 5 6 
#
# 1 76.9791 35.8880 19.8048 0.0000 18.8676 0.0000
# 2 35.8880 107.3848 30.8896 0.0000 5.4600 0.0000
# 3 19.8048 30.8896 85.8373 0.0000 8.7559 0.0000
# 4 0.0000 0.0000 0.0000 16.7081 0.0000 -3.5349
# 5 18.8676 5.4600 8.7559 0.0000 31.5990 0.0000
# 6 0.0000 0.0000 0.0000 -3.5349 0.0000 16.5079
#
#
#
# Elastic Compliance Matrix: (Units=1/GPa)
#
#
# Indices 1 2 3 4 5 6 
#
# 1 0.018083 -0.005174 -0.001338 0.000000 -0.009533 0.000000
# 2 -0.005174 0.011887 -0.003282 0.000000 0.001945 0.000000
# 3 -0.001338 -0.003282 0.013379 0.000000 -0.002341 0.000000
# 4 0.000000 0.000000 0.000000 0.062691 0.000000 0.013425
# 5 -0.009533 0.001945 -0.002341 0.000000 0.037651 0.000000
# 6 0.000000 0.000000 0.000000 0.013425 0.000000 0.063452
#
#
# Mechanical properties :
#
#
# Convention : Reuss Voigt Hill
#
# Bulk Modulus (GPa) = 42.08677 49.26290 45.67483
# Shear Modulus (GPa) = 21.30821 25.20425 23.25623
#
# Velocity S-wave (km/s) = 3.38763 3.68433 3.53909
# Velocity P-wave (km/s) = 6.16183 6.68062 6.42646
#
# Compressibility (1/GPa) = 0.02376044
#
# Stress axis : x y z
#
# Youngs Moduli (GPa) = 55.29953 84.12782 74.74624
#
# Poissons Ratio (x) = 0.43527 0.10001
# Poissons Ratio (y) = 0.28611 0.24533
# Poissons Ratio (z) = 0.07399 0.27613
#
# Static dielectric constant tensor:
#      x y z
#    x 3.624390 0.000000 0.012090 
#    y 0.000000 3.419220 0.000000 
#    z 0.012090 0.000000 3.427400 
# 
# 
# High freq. dielectric constant tensor:
#      x y z
#    x 1.723360 0.000000 0.004440 
#    y 0.000000 1.713620 0.000000 
#    z 0.004440 0.000000 1.725370 
# 
# From -- ./inp_files/66867.got.cif
#   From: 2010.03.12/outbox.cif.g09.slc.cpg/sg14_34_cif.got.tgz:66867.got - 2010.03.31 13:35:05.
