data_PCOD8124917
_publ_section_title
;
Structure prediction by ZEFSAII (Michael W. Deem and Ramdas Pophale) SiO2 
 PCOD8124917
Probable space group: P 21/C
;
_chemical_formula_sum "Si O2"
_cell_formula_units_Z 32
_cell_length_a 8.111509
_cell_length_b 10.573839
_cell_length_c 21.189689
_cell_angle_alpha 90.000000
_cell_angle_beta 62.205319
_cell_angle_gamma 90.000000
_cell_volume 1607.747266
_symmetry_space_group_name_H-M "P 21/C"
_symmetry_group_IT_number 14
_symmetry_cell_setting 'monoclinic'
loop_
_space_group_symop_operation_xyz
x,y,z
-x,1/2+y,1/2-z
-x,-y,-z
x,1/2-y,1/2+z
loop_
_atom_site_type_symbol
_atom_site_label
_atom_site_fract_x
_atom_site_fract_y
_atom_site_fract_z
Si Si1 0.593895 0.281456 0.942331
Si Si2 0.866997 0.115726 0.600232
Si Si3 0.235616 0.677169 0.469526
Si Si4 0.849385 0.054433 0.746333
Si Si5 0.467049 0.053024 0.887019
Si Si6 0.239002 0.085527 0.472335
Si Si7 0.963023 0.209711 0.304140
Si Si8 0.128209 0.191441 0.900420
O O1 0.501690 0.148400 0.938650
O O2 0.437165 0.389087 0.968749
O O3 0.753989 0.317700 0.864210
O O4 0.675929 0.279463 0.997992
O O5 0.827193 0.260742 0.586107
O O6 0.804453 0.087121 0.682021
O O7 0.083839 0.073798 0.555167
O O8 0.741248 0.039044 0.573083
O O9 0.395586 0.575650 0.430267
O O10 0.054503 0.619319 0.538634
O O11 0.654282 0.030510 0.815187
O O12 0.960609 0.176068 0.753604
O O13 0.962522 0.923579 0.736586
O O14 0.306367 0.100163 0.867757
O O15 0.166690 0.192190 0.438515
O O16 0.096665 0.257744 0.335925
#
# Coordination Sequence:
#
# PCOD8124917 Si02
#       8
#     4   4   4   4   4   4   4   4
#     4   9  20  38  61  87 116 155 199 249 303 351
#     4  10  21  37  57  84 119 151 191 257 291 350
#     4  10  20  35  60  91 115 146 204 252 291 347
#     4  11  24  42  58  85 129 159 200 242 303 370
#     4  10  21  37  59  87 123 159 193 239 300 370
#     4   9  18  37  62  82 111 150 200 246 300 341
#     4  10  22  42  61  85 121 165 198 248 303 359
#     4   9  18  38  63  83 113 159 196 244 305 347
#
# _framework density 19.903628000000001
#
# number of rings (size 3 to 8) (size 9 to 14) (size 15 to 20)
#    0.000    2.250    1.250    0.750    1.750    3.500 
#    6.750    2.500    0.000    0.000    0.000    0.000 
#    0.000    0.000    0.000    0.000    0.000    0.000 
#
# Total GULP energy -396708.064799 kJ/mol
# GULP energy per Si atom -12397.127025 kJ/mol
# Density = 1.985833 g / cm^3
# Si number density = 19.903628 Si / 1000 Ang^3
#
#
#
# Elastic Constant Matrix: (Units=GPa)
#
#
# Indices 1 2 3 4 5 6 
#
# 1 92.8764 32.8195 29.4158 0.0000 -8.7953 0.0000
# 2 32.8195 90.4971 43.5016 0.0000 -7.6768 0.0000
# 3 29.4158 43.5016 74.8127 0.0000 -2.0962 0.0000
# 4 0.0000 0.0000 0.0000 24.9155 0.0000 -10.3269
# 5 -8.7953 -7.6768 -2.0962 0.0000 26.0479 0.0000
# 6 0.0000 0.0000 0.0000 -10.3269 0.0000 32.5629
#
#
#
# Elastic Compliance Matrix: (Units=1/GPa)
#
#
# Indices 1 2 3 4 5 6 
#
# 1 0.013175 -0.002845 -0.003433 0.000000 0.003334 0.000000
# 2 -0.002845 0.016338 -0.008292 0.000000 0.003187 0.000000
# 3 -0.003433 -0.008292 0.019481 0.000000 -0.002035 0.000000
# 4 0.000000 0.000000 0.000000 0.046210 0.000000 0.014655
# 5 0.003334 0.003187 -0.002035 0.000000 0.040292 0.000000
# 6 0.000000 0.000000 0.000000 0.014655 0.000000 0.035357
#
#
# Mechanical properties :
#
#
# Convention : Reuss Voigt Hill
#
# Bulk Modulus (GPa) = 50.36638 52.18445 51.27541
# Shear Modulus (GPa) = 24.19992 26.86856 25.53424
#
# Velocity S-wave (km/s) = 3.49069 3.67813 3.58564
# Velocity P-wave (km/s) = 6.45032 6.65685 6.55440
#
# Compressibility (1/GPa) = 0.01985452
#
# Stress axis : x y z
#
# Youngs Moduli (GPa) = 75.89954 61.20555 51.33177
#
# Poissons Ratio (x) = 0.17415 0.17620
# Poissons Ratio (y) = 0.21596 0.42566
# Poissons Ratio (z) = 0.26053 0.50753
#
# Static dielectric constant tensor:
#      x y z
#    x 3.747660 0.000000 -0.113350 
#    y 0.000000 3.584810 0.000000 
#    z -0.113350 0.000000 3.450940 
# 
# 
# High freq. dielectric constant tensor:
#      x y z
#    x 1.784290 0.000000 -0.003200 
#    y 0.000000 1.775560 0.000000 
#    z -0.003200 0.000000 1.761850 
# 
# From -- ./inp_files/65596.got.cif
#   From: 2010.03.12/outbox.cif.g09.slc.cpg/sg14_33_cif.got.tgz:65596.got - 2010.03.31 13:35:05.
