data_PCOD8124416
_publ_section_title
;
Structure prediction by ZEFSAII (Michael W. Deem and Ramdas Pophale) SiO2 
 PCOD8124416
Probable space group: P 21/C
;
_chemical_formula_sum "Si O2"
_cell_formula_units_Z 28
_cell_length_a 15.364155
_cell_length_b 15.863098
_cell_length_c 8.460128
_cell_angle_alpha 90.000000
_cell_angle_beta 40.385472
_cell_angle_gamma 90.000000
_cell_volume 1335.978761
_symmetry_space_group_name_H-M "P 21/C"
_symmetry_group_IT_number 14
_symmetry_cell_setting 'monoclinic'
loop_
_space_group_symop_operation_xyz
x,y,z
-x,1/2+y,1/2-z
-x,-y,-z
x,1/2-y,1/2+z
loop_
_atom_site_type_symbol
_atom_site_label
_atom_site_fract_x
_atom_site_fract_y
_atom_site_fract_z
Si Si1 0.366851 0.492187 0.898368
Si Si2 0.619871 0.582569 0.462953
Si Si3 0.216127 0.664463 0.160626
Si Si4 0.045298 0.768334 0.165891
Si Si5 0.139988 0.189404 0.315044
Si Si6 0.497096 0.721037 0.805876
Si Si7 0.349588 0.167317 0.598328
O O1 0.526269 0.516783 0.691032
O O2 0.346532 0.448343 0.757816
O O3 0.265498 0.570914 0.051727
O O4 0.321056 0.431318 0.105234
O O5 0.765004 0.607116 0.338286
O O6 0.530999 0.669079 0.593750
O O7 0.160570 0.709368 0.080743
O O8 0.104116 0.667905 0.452866
O O9 0.340300 0.718721 0.058956
O O10 0.933806 0.705473 0.247759
O O11 0.973504 0.827185 0.395184
O O12 0.220343 0.273791 0.255369
O O13 0.586280 0.677895 0.818162
O O14 0.544249 0.814222 0.692836
#
# Coordination Sequence:
#
# PCOD8124416 Si02
#       7
#     4   4   4   4   4   4   4
#     4  10  21  37  59  89 122 143 177 245 309 339
#     4   9  19  36  57  84 115 145 180 233 293 342
#     4  10  22  39  57  84 115 152 195 238 286 337
#     4  10  21  38  59  77 109 158 202 231 264 337
#     4  10  19  37  60  83 108 151 200 229 267 345
#     4  10  20  35  60  88 114 151 194 232 287 354
#     4  11  20  35  63  91 115 146 187 243 296 343
#
# _framework density 20.958417000000001
#
# number of rings (size 3 to 8) (size 9 to 14) (size 15 to 20)
#    0.000    2.000    0.000    5.143    0.000    4.571 
#    0.000   10.000    0.000    1.714    0.000    0.000 
#    0.000    0.000    0.000    0.000    0.000    0.000 
#
# Total GULP energy -346900.650179 kJ/mol
# GULP energy per Si atom -12389.308935 kJ/mol
# Density = 2.091071 g / cm^3
# Si number density = 20.958417 Si / 1000 Ang^3
#
#
#
# Elastic Constant Matrix: (Units=GPa)
#
#
# Indices 1 2 3 4 5 6 
#
# 1 106.5036 35.8084 21.8086 0.0000 -10.1348 0.0000
# 2 35.8084 82.8680 31.9419 0.0000 -1.6153 0.0000
# 3 21.8086 31.9419 75.9239 0.0000 1.7504 0.0000
# 4 0.0000 0.0000 0.0000 30.7668 0.0000 -1.1463
# 5 -10.1348 -1.6153 1.7504 0.0000 31.7825 0.0000
# 6 0.0000 0.0000 0.0000 -1.1463 0.0000 28.6988
#
#
#
# Elastic Compliance Matrix: (Units=1/GPa)
#
#
# Indices 1 2 3 4 5 6 
#
# 1 0.011490 -0.004288 -0.001578 0.000000 0.003533 0.000000
# 2 -0.004288 0.016040 -0.005511 0.000000 -0.000249 0.000000
# 3 -0.001578 -0.005511 0.015981 0.000000 -0.001663 0.000000
# 4 0.000000 0.000000 0.000000 0.032551 0.000000 0.001300
# 5 0.003533 -0.000249 -0.001663 0.000000 0.032669 0.000000
# 6 0.000000 0.000000 0.000000 0.001300 0.000000 0.034897
#
#
# Mechanical properties :
#
#
# Convention : Reuss Voigt Hill
#
# Bulk Modulus (GPa) = 48.17457 49.37927 48.77692
# Shear Modulus (GPa) = 28.85164 29.96539 29.40851
#
# Velocity S-wave (km/s) = 3.71430 3.78531 3.74997
# Velocity P-wave (km/s) = 6.43664 6.53579 6.48641
#
# Compressibility (1/GPa) = 0.02075784
#
# Stress axis : x y z
#
# Youngs Moduli (GPa) = 87.02916 62.34593 62.57421
#
# Poissons Ratio (x) = 0.26734 0.09874
# Poissons Ratio (y) = 0.37319 0.34482
# Poissons Ratio (z) = 0.13733 0.34356
#
# Static dielectric constant tensor:
#      x y z
#    x 3.714830 0.000000 -0.091580 
#    y 0.000000 3.708700 0.000000 
#    z -0.091580 0.000000 3.990130 
# 
# 
# High freq. dielectric constant tensor:
#      x y z
#    x 1.814170 0.000000 0.004230 
#    y 0.000000 1.794900 0.000000 
#    z 0.004230 0.000000 1.837260 
# 
# From -- ./inp_files/16388.got.cif
#   From: 2010.03.12/outbox.cif.g09.slc.cpg/sg14_9_cif.got.tgz:16388.got - 2010.03.31 13:35:05.
