data_PCOD8124567
_publ_section_title
;
Structure prediction by ZEFSAII (Michael W. Deem and Ramdas Pophale) SiO2 
 PCOD8124567
Probable space group: P 21/C
;
_chemical_formula_sum "Si O2"
_cell_formula_units_Z 32
_cell_length_a 17.390319
_cell_length_b 19.582192
_cell_length_c 9.007747
_cell_angle_alpha 90.000000
_cell_angle_beta 148.068932
_cell_angle_gamma 90.000000
_cell_volume 1622.398186
_symmetry_space_group_name_H-M "P 21/C"
_symmetry_group_IT_number 14
_symmetry_cell_setting 'monoclinic'
loop_
_space_group_symop_operation_xyz
x,y,z
-x,1/2+y,1/2-z
-x,-y,-z
x,1/2-y,1/2+z
loop_
_atom_site_type_symbol
_atom_site_label
_atom_site_fract_x
_atom_site_fract_y
_atom_site_fract_z
Si Si1 0.051272 0.475423 0.742065
Si Si2 0.755393 0.335709 0.845165
Si Si3 0.819118 0.084300 0.027252
Si Si4 0.466330 0.840069 0.494194
Si Si5 0.652786 0.008665 0.172644
Si Si6 0.303388 0.448391 0.576003
Si Si7 0.608913 0.240837 0.363547
Si Si8 0.002607 0.596192 0.884069
O O1 0.013423 0.525031 0.816548
O O2 0.000000 0.500000 0.500000
O O3 0.950377 0.410469 0.620275
O O4 0.225852 0.466866 0.031250
O O5 0.686784 0.411205 0.720566
O O6 0.696334 0.289924 0.615713
O O7 0.721280 0.303260 0.948689
O O8 0.932210 0.343729 0.115579
O O9 0.705246 0.143542 0.803669
O O10 0.884948 0.093893 0.296858
O O11 0.732200 0.012098 0.875636
O O12 0.499377 0.783876 0.420720
O O13 0.490588 0.809351 0.699040
O O14 0.567495 0.905599 0.636228
O O15 0.645747 0.974949 0.999862
O O16 0.500000 0.000000 0.000000
O O17 0.164147 0.396378 0.336708
#
# Coordination Sequence:
#
# PCOD8124567 Si02
#       8
#     4   4   4   4   4   4   4   4
#     4  10  21  34  54  88 125 146 181 236 295 358
#     4  10  20  38  60  80 114 152 203 238 296 343
#     4  11  19  38  63  87 118 159 192 239 309 373
#     4  11  23  37  64  83 114 160 204 244 291 358
#     4  11  21  35  59  91 125 151 190 250 310 363
#     4  11  20  37  59  92 122 153 188 239 320 366
#     4  10  22  40  57  82 110 158 210 250 275 339
#     4  10  19  39  59  84 121 156 183 241 303 363
#
# _framework density 19.723887999999999
#
# number of rings (size 3 to 8) (size 9 to 14) (size 15 to 20)
#    0.000    1.500    5.000    1.875    5.250    0.000 
#    2.250    1.250    0.000    0.000    0.000    0.000 
#    0.000    0.000    0.000    0.000    0.000    0.000 
#
# Total GULP energy -396545.500493 kJ/mol
# GULP energy per Si atom -12392.046890 kJ/mol
# Density = 1.967900 g / cm^3
# Si number density = 19.723888 Si / 1000 Ang^3
#
#
#
# Elastic Constant Matrix: (Units=GPa)
#
#
# Indices 1 2 3 4 5 6 
#
# 1 101.3090 18.6725 35.2131 0.0000 6.8048 0.0000
# 2 18.6725 57.2218 16.2927 0.0000 1.8015 0.0000
# 3 35.2131 16.2927 83.4050 0.0000 7.3520 0.0000
# 4 0.0000 0.0000 0.0000 20.7177 0.0000 -1.3569
# 5 6.8048 1.8015 7.3520 0.0000 35.8299 0.0000
# 6 0.0000 0.0000 0.0000 -1.3569 0.0000 28.7514
#
#
#
# Elastic Compliance Matrix: (Units=1/GPa)
#
#
# Indices 1 2 3 4 5 6 
#
# 1 0.011977 -0.002606 -0.004439 0.000000 -0.001233 0.000000
# 2 -0.002606 0.019073 -0.002633 0.000000 0.000076 0.000000
# 3 -0.004439 -0.002633 0.014555 0.000000 -0.002011 0.000000
# 4 0.000000 0.000000 0.000000 0.048418 0.000000 0.002285
# 5 -0.001233 0.000076 -0.002011 0.000000 0.028553 0.000000
# 6 0.000000 0.000000 0.000000 0.002285 0.000000 0.034889
#
#
# Mechanical properties :
#
#
# Convention : Reuss Voigt Hill
#
# Bulk Modulus (GPa) = 38.09315 42.47693 40.28504
# Shear Modulus (GPa) = 26.94424 28.51031 27.72727
#
# Velocity S-wave (km/s) = 3.70005 3.80606 3.75343
# Velocity P-wave (km/s) = 6.13261 6.39510 6.26523
#
# Compressibility (1/GPa) = 0.02625144
#
# Stress axis : x y z
#
# Youngs Moduli (GPa) = 83.49556 52.42946 68.70366
#
# Poissons Ratio (x) = 0.13661 0.30496
# Poissons Ratio (y) = 0.21755 0.18086
# Poissons Ratio (z) = 0.37062 0.13802
#
# Static dielectric constant tensor:
#      x y z
#    x 4.010760 0.000000 0.109830 
#    y 0.000000 3.834420 0.000000 
#    z 0.109830 0.000000 3.716360 
# 
# 
# High freq. dielectric constant tensor:
#      x y z
#    x 1.782860 0.000000 -0.003070 
#    y 0.000000 1.748140 0.000000 
#    z -0.003070 0.000000 1.756770 
# 
# From -- ./inp_files/18231.got.cif
#   From: 2010.03.12/outbox.cif.g09.slc.cpg/sg14_10_cif.got.tgz:18231.got - 2010.03.31 13:35:05.
