data_PCOD8124097
_publ_section_title
;
Structure prediction by ZEFSAII (Michael W. Deem and Ramdas Pophale) SiO2 
 PCOD8124097
Probable space group: P 21/C
;
_chemical_formula_sum "Si O2"
_cell_formula_units_Z 28
_cell_length_a 8.760067
_cell_length_b 11.687661
_cell_length_c 21.104981
_cell_angle_alpha 90.000000
_cell_angle_beta 139.947817
_cell_angle_gamma 90.000000
_cell_volume 1390.459832
_symmetry_space_group_name_H-M "P 21/C"
_symmetry_group_IT_number 14
_symmetry_cell_setting 'monoclinic'
loop_
_space_group_symop_operation_xyz
x,y,z
-x,1/2+y,1/2-z
-x,-y,-z
x,1/2-y,1/2+z
loop_
_atom_site_type_symbol
_atom_site_label
_atom_site_fract_x
_atom_site_fract_y
_atom_site_fract_z
Si Si1 0.122149 0.981280 0.190700
Si Si2 0.467696 0.857602 0.531699
Si Si3 0.803263 0.883345 0.330135
Si Si4 0.850374 0.327903 0.538352
Si Si5 0.274857 0.687817 0.639031
Si Si6 0.862742 0.015940 0.661029
Si Si7 0.358473 0.936382 0.631635
O O1 0.066012 0.949129 0.245293
O O2 0.366610 0.050564 0.261418
O O3 0.909209 0.060093 0.097285
O O4 0.134896 0.864118 0.154452
O O5 0.408984 0.722633 0.522315
O O6 0.750162 0.886179 0.623090
O O7 0.335580 0.923665 0.548509
O O8 0.352919 0.901499 0.429789
O O9 0.547090 0.849142 0.224052
O O10 0.958240 0.771025 0.387882
O O11 0.787842 0.952428 0.391744
O O12 0.910214 0.969351 0.311196
O O13 0.846992 0.360847 0.463465
O O14 0.257310 0.824998 0.635453
#
# Coordination Sequence:
#
# PCOD8124097 Si02
#       7
#     4   4   4   4   4   4   4
#     4  10  19  35  55  82 117 147 179 223 286 337
#     4   8  17  33  56  79 105 140 196 225 270 319
#     4  10  20  36  59  82 114 142 191 232 275 322
#     4  10  19  34  59  82 110 153 181 222 283 328
#     4  10  20  35  56  83 111 148 190 226 269 335
#     4   9  18  34  54  79 109 148 181 234 273 315
#     4   9  18  35  58  83 108 146 193 234 263 318
#
# _framework density 20.137222999999999
#
# number of rings (size 3 to 8) (size 9 to 14) (size 15 to 20)
#    0.000    2.571    1.429    0.429    0.000    5.143 
#    5.143    0.714    0.000    1.714    0.000    0.000 
#    0.000    0.000    0.000    0.000    0.000    0.000 
#
# Total GULP energy -347055.894500 kJ/mol
# GULP energy per Si atom -12394.853375 kJ/mol
# Density = 2.009139 g / cm^3
# Si number density = 20.137223 Si / 1000 Ang^3
#
#
#
# Elastic Constant Matrix: (Units=GPa)
#
#
# Indices 1 2 3 4 5 6 
#
# 1 65.2434 20.7219 26.0735 0.0000 -7.7609 0.0000
# 2 20.7219 65.1618 19.7293 0.0000 -6.5652 0.0000
# 3 26.0735 19.7293 82.1068 0.0000 -29.4442 0.0000
# 4 0.0000 0.0000 0.0000 27.4002 0.0000 0.4813
# 5 -7.7609 -6.5652 -29.4442 0.0000 30.5176 0.0000
# 6 0.0000 0.0000 0.0000 0.4813 0.0000 22.0840
#
#
#
# Elastic Compliance Matrix: (Units=1/GPa)
#
#
# Indices 1 2 3 4 5 6 
#
# 1 0.018728 -0.004469 -0.005367 0.000000 -0.001377 0.000000
# 2 -0.004469 0.017621 -0.002849 0.000000 -0.000094 0.000000
# 3 -0.005367 -0.002849 0.021191 0.000000 0.018468 0.000000
# 4 0.000000 0.000000 0.000000 0.036510 0.000000 -0.000796
# 5 -0.001377 -0.000094 0.018468 0.000000 0.050216 0.000000
# 6 0.000000 0.000000 0.000000 -0.000796 0.000000 0.045299
#
#
# Mechanical properties :
#
#
# Convention : Reuss Voigt Hill
#
# Bulk Modulus (GPa) = 31.08552 38.39571 34.74061
# Shear Modulus (GPa) = 22.15755 25.73284 23.94520
#
# Velocity S-wave (km/s) = 3.32072 3.57862 3.45208
# Velocity P-wave (km/s) = 5.49302 6.01529 5.76008
#
# Compressibility (1/GPa) = 0.03216932
#
# Stress axis : x y z
#
# Youngs Moduli (GPa) = 53.39674 56.75155 47.19049
#
# Poissons Ratio (x) = 0.25364 0.25327
# Poissons Ratio (y) = 0.23865 0.13443
# Poissons Ratio (z) = 0.28658 0.16166
#
# Static dielectric constant tensor:
#      x y z
#    x 3.604140 0.000000 -0.011450 
#    y 0.000000 3.580340 0.000000 
#    z -0.011450 0.000000 3.730470 
# 
# 
# High freq. dielectric constant tensor:
#      x y z
#    x 1.765440 0.000000 -0.008930 
#    y 0.000000 1.764020 0.000000 
#    z -0.008930 0.000000 1.795340 
# 
# From -- ./inp_files/39750.got.cif
#   From: 2010.03.12/outbox.cif.g09.slc.cpg/sg14_20_cif.got.tgz:39750.got - 2010.03.31 13:35:05.
