data_PCOD8124920
_publ_section_title
;
Structure prediction by ZEFSAII (Michael W. Deem and Ramdas Pophale) SiO2 
 PCOD8124920
Probable space group: P 21/C
;
_chemical_formula_sum "Si O2"
_cell_formula_units_Z 24
_cell_length_a 14.232407
_cell_length_b 15.003597
_cell_length_c 7.819023
_cell_angle_alpha 90.000000
_cell_angle_beta 137.790810
_cell_angle_gamma 90.000000
_cell_volume 1121.738709
_symmetry_space_group_name_H-M "P 21/C"
_symmetry_group_IT_number 14
_symmetry_cell_setting 'monoclinic'
loop_
_space_group_symop_operation_xyz
x,y,z
-x,1/2+y,1/2-z
-x,-y,-z
x,1/2-y,1/2+z
loop_
_atom_site_type_symbol
_atom_site_label
_atom_site_fract_x
_atom_site_fract_y
_atom_site_fract_z
Si Si1 0.826698 0.667563 0.093401
Si Si2 0.052715 0.989143 0.260920
Si Si3 0.530493 0.884140 0.198895
Si Si4 0.645376 0.082595 0.345335
Si Si5 0.173290 0.140702 0.006592
Si Si6 0.515121 0.603189 0.054777
O O1 0.912843 0.587686 0.113578
O O2 0.827806 0.641060 0.291544
O O3 0.665897 0.669651 0.812087
O O4 0.888870 0.765279 0.144998
O O5 0.188651 0.925852 0.441221
O O6 0.930363 0.937799 0.201370
O O7 0.000000 0.000000 0.000000
O O8 0.488935 0.849582 0.334370
O O9 0.570233 0.987689 0.259523
O O10 0.406100 0.866956 0.896215
O O11 0.597440 0.135718 0.453799
O O12 0.330887 0.122355 0.157633
O O13 0.500000 0.500000 0.000000
#
# Coordination Sequence:
#
# PCOD8124920 Si02
#       6
#     4   4   4   4   4   4
#     4   9  19  34  57  81 111 147 199 238 284 359
#     4   9  18  36  60  80 113 162 188 233 299 349
#     4   8  16  30  51  82 107 134 179 237 276 330
#     4   9  16  30  59  77 107 142 182 228 285 333
#     4  10  20  35  61  80 113 154 193 237 295 347
#     4   9  17  31  55  83 103 140 185 231 276 345
#
# _framework density 21.395357000000001
#
# number of rings (size 3 to 8) (size 9 to 14) (size 15 to 20)
#    0.000    3.000    0.000    3.000    2.333    0.000 
#    0.000    0.833   18.333    0.000    0.000    0.000 
#    0.000    0.000    0.000    0.000    0.000    0.000 
#
# Total GULP energy -297339.159214 kJ/mol
# GULP energy per Si atom -12389.131634 kJ/mol
# Density = 2.134666 g / cm^3
# Si number density = 21.395357 Si / 1000 Ang^3
#
#
#
# Elastic Constant Matrix: (Units=GPa)
#
#
# Indices 1 2 3 4 5 6 
#
# 1 51.4553 18.6479 23.9370 0.0000 1.5993 0.0000
# 2 18.6479 97.5054 16.6890 0.0000 20.0829 0.0000
# 3 23.9370 16.6890 96.0954 0.0000 8.7271 0.0000
# 4 0.0000 0.0000 0.0000 21.9764 0.0000 0.9125
# 5 1.5993 20.0829 8.7271 0.0000 27.0783 0.0000
# 6 0.0000 0.0000 0.0000 0.9125 0.0000 21.4485
#
#
#
# Elastic Compliance Matrix: (Units=1/GPa)
#
#
# Indices 1 2 3 4 5 6 
#
# 1 0.023388 -0.004275 -0.005404 0.000000 0.003531 0.000000
# 2 -0.004275 0.013053 -0.000356 0.000000 -0.009313 0.000000
# 3 -0.005404 -0.000356 0.012116 0.000000 -0.003322 0.000000
# 4 0.000000 0.000000 0.000000 0.045584 0.000000 -0.001939
# 5 0.003531 -0.009313 -0.003322 0.000000 0.044699 0.000000
# 6 0.000000 0.000000 0.000000 -0.001939 0.000000 0.046706
#
#
# Mechanical properties :
#
#
# Convention : Reuss Voigt Hill
#
# Bulk Modulus (GPa) = 35.10530 40.40043 37.75286
# Shear Modulus (GPa) = 23.24375 26.48613 24.86494
#
# Velocity S-wave (km/s) = 3.29962 3.52225 3.41275
# Velocity P-wave (km/s) = 5.56419 5.95529 5.76306
#
# Compressibility (1/GPa) = 0.02848573
#
# Stress axis : x y z
#
# Youngs Moduli (GPa) = 42.75705 76.61260 82.53582
#
# Poissons Ratio (x) = 0.32754 0.44603
# Poissons Ratio (y) = 0.18280 0.02939
# Poissons Ratio (z) = 0.23106 0.02728
#
# Static dielectric constant tensor:
#      x y z
#    x 4.142880 0.000000 -0.017860 
#    y 0.000000 7.186290 0.000000 
#    z -0.017860 0.000000 4.137980 
# 
# 
# High freq. dielectric constant tensor:
#      x y z
#    x 1.816180 0.000000 -0.005130 
#    y 0.000000 1.818660 0.000000 
#    z -0.005130 0.000000 1.831280 
# 
# From -- ./inp_files/16330.got.cif
#   From: 2010.03.12/outbox.cif.g09.slc.cpg/sg14_9_cif.got.tgz:16330.got - 2010.03.31 13:35:05.
