data_PCOD8124188
_publ_section_title
;
Structure prediction by ZEFSAII (Michael W. Deem and Ramdas Pophale) SiO2 
 PCOD8124188
Probable space group: P 21/C
;
_chemical_formula_sum "Si O2"
_cell_formula_units_Z 28
_cell_length_a 8.096965
_cell_length_b 11.845784
_cell_length_c 14.085800
_cell_angle_alpha 90.000000
_cell_angle_beta 103.054824
_cell_angle_gamma 90.000000
_cell_volume 1316.119649
_symmetry_space_group_name_H-M "P 21/C"
_symmetry_group_IT_number 14
_symmetry_cell_setting 'monoclinic'
loop_
_space_group_symop_operation_xyz
x,y,z
-x,1/2+y,1/2-z
-x,-y,-z
x,1/2-y,1/2+z
loop_
_atom_site_type_symbol
_atom_site_label
_atom_site_fract_x
_atom_site_fract_y
_atom_site_fract_z
Si Si1 0.177333 0.233562 0.714841
Si Si2 0.326346 0.983457 0.926594
Si Si3 0.246545 0.778885 0.027675
Si Si4 0.952030 0.855324 0.113879
Si Si5 0.494276 0.391772 0.292171
Si Si6 0.797872 0.986018 0.744557
Si Si7 0.085488 0.575662 0.930565
O O1 0.134315 0.227459 0.821394
O O2 0.368657 0.189877 0.718106
O O3 0.183359 0.367160 0.699379
O O4 0.045910 0.167097 0.630818
O O5 0.192980 0.070612 0.956741
O O6 0.364223 0.016291 0.822546
O O7 0.258980 0.856284 0.934177
O O8 0.500000 0.000000 0.000000
O O9 0.396503 0.815112 0.119221
O O10 0.060904 0.789905 0.050735
O O11 0.245035 0.648038 0.994507
O O12 0.065565 0.939209 0.187340
O O13 0.612096 0.460604 0.236004
O O14 0.839341 0.989213 0.637652
O O15 0.000000 0.500000 0.000000
#
# Coordination Sequence:
#
# PCOD8124188 Si02
#       7
#     4   4   4   4   4   4   4
#     4  10  21  39  59  80 116 159 192 239 295 347
#     4   9  17  30  53  86 114 143 191 242 286 340
#     4  10  19  35  58  84 115 148 188 246 294 334
#     4   9  18  34  56  79 110 151 192 230 283 358
#     4   9  21  38  58  86 117 154 199 239 289 360
#     4  10  21  39  60  83 113 158 201 230 291 365
#     4  11  24  39  59  90 119 151 198 248 293 346
#
# _framework density 21.274661999999999
#
# number of rings (size 3 to 8) (size 9 to 14) (size 15 to 20)
#    0.000    2.286    0.000    2.143    0.000    4.571 
#    0.000   10.000    0.000    0.000    0.000    0.000 
#    0.000    0.000    0.000    0.000    0.000    0.000 
#
# Total GULP energy -346927.525148 kJ/mol
# GULP energy per Si atom -12390.268755 kJ/mol
# Density = 2.122624 g / cm^3
# Si number density = 21.274662 Si / 1000 Ang^3
#
#
#
# Elastic Constant Matrix: (Units=GPa)
#
#
# Indices 1 2 3 4 5 6 
#
# 1 95.8332 14.9943 16.0895 0.0000 -12.5616 0.0000
# 2 14.9943 91.8385 22.7895 0.0000 -12.6840 0.0000
# 3 16.0895 22.7895 53.5799 0.0000 -21.0709 0.0000
# 4 0.0000 0.0000 0.0000 18.3363 0.0000 -9.5203
# 5 -12.5616 -12.6840 -21.0709 0.0000 19.5294 0.0000
# 6 0.0000 0.0000 0.0000 -9.5203 0.0000 18.0407
#
#
#
# Elastic Compliance Matrix: (Units=1/GPa)
#
#
# Indices 1 2 3 4 5 6 
#
# 1 0.011483 -0.000864 -0.000689 0.000000 0.006081 0.000000
# 2 -0.000864 0.012424 -0.003596 0.000000 0.003634 0.000000
# 3 -0.000689 -0.003596 0.033537 0.000000 0.033406 0.000000
# 4 0.000000 0.000000 0.000000 0.075118 0.000000 0.039641
# 5 0.006081 0.003634 0.033406 0.000000 0.093519 0.000000
# 6 0.000000 0.000000 0.000000 0.039641 0.000000 0.076349
#
#
# Mechanical properties :
#
#
# Convention : Reuss Voigt Hill
#
# Bulk Modulus (GPa) = 21.21072 38.77756 29.99414
# Shear Modulus (GPa) = 15.22334 23.67319 19.44826
#
# Velocity S-wave (km/s) = 2.67790 3.33940 3.02677
# Velocity P-wave (km/s) = 4.42189 5.75634 5.13267
#
# Compressibility (1/GPa) = 0.04714598
#
# Stress axis : x y z
#
# Youngs Moduli (GPa) = 87.08694 80.49007 29.81747
#
# Poissons Ratio (x) = 0.06953 0.02055
# Poissons Ratio (y) = 0.07523 0.10722
# Poissons Ratio (z) = 0.06002 0.28944
#
# Static dielectric constant tensor:
#      x y z
#    x 4.188410 0.000000 -0.349350 
#    y 0.000000 5.564770 0.000000 
#    z -0.349350 0.000000 4.226920 
# 
# 
# High freq. dielectric constant tensor:
#      x y z
#    x 1.846150 0.000000 -0.004350 
#    y 0.000000 1.828480 0.000000 
#    z -0.004350 0.000000 1.814110 
# 
# From -- ./inp_files/39774.got.cif
#   From: 2010.03.12/outbox.cif.g09.slc.cpg/sg14_20_cif.got.tgz:39774.got - 2010.03.31 13:35:05.
