data_PCOD8124867
_publ_section_title
;
Structure prediction by ZEFSAII (Michael W. Deem and Ramdas Pophale) SiO2 
 PCOD8124867
Probable space group: P 21/C
;
_chemical_formula_sum "Si O2"
_cell_formula_units_Z 20
_cell_length_a 14.939411
_cell_length_b 5.140737
_cell_length_c 21.787642
_cell_angle_alpha 90.000000
_cell_angle_beta 142.610720
_cell_angle_gamma 90.000000
_cell_volume 1016.062224
_symmetry_space_group_name_H-M "P 21/C"
_symmetry_group_IT_number 14
_symmetry_cell_setting 'monoclinic'
loop_
_space_group_symop_operation_xyz
x,y,z
-x,1/2+y,1/2-z
-x,-y,-z
x,1/2-y,1/2+z
loop_
_atom_site_type_symbol
_atom_site_label
_atom_site_fract_x
_atom_site_fract_y
_atom_site_fract_z
Si Si1 0.180604 0.059922 0.818292
Si Si2 0.648042 0.439887 0.281644
Si Si3 0.649807 0.928004 0.212103
Si Si4 0.366428 0.790254 0.601252
Si Si5 0.156710 0.559660 0.882731
O O1 0.298145 0.102608 0.828966
O O2 0.204155 0.282172 0.881780
O O3 0.017608 0.077023 0.700757
O O4 0.209080 0.781868 0.864493
O O5 0.722653 0.702694 0.295238
O O6 0.701369 0.378272 0.379658
O O7 0.468353 0.476546 0.185192
O O8 0.695285 0.208013 0.262187
O O9 0.471836 0.889633 0.115741
O O10 0.232737 0.907998 0.489990
#
# Coordination Sequence:
#
# PCOD8124867 Si02
#       5
#     4   4   4   4   4
#     4  10  22  41  52  83 112 145 186 225 265 325
#     4  10  20  35  56  83 111 140 176 232 269 323
#     4  10  20  35  58  79 117 136 180 233 267 313
#     4  10  21  36  59  82 111 144 183 219 282 319
#     4  10  23  37  60  75 113 152 180 220 277 325
#
# _framework density 19.683831999999999
#
# number of rings (size 3 to 8) (size 9 to 14) (size 15 to 20)
#    1.200    0.800    2.000    1.200    2.800    1.600 
#    0.000    2.000    0.000    0.000    0.000    0.000 
#    0.000    0.000    0.000    0.000    0.000    0.000 
#
# Total GULP energy -247932.783411 kJ/mol
# GULP energy per Si atom -12396.639171 kJ/mol
# Density = 1.963903 g / cm^3
# Si number density = 19.683832 Si / 1000 Ang^3
#
#
#
# Elastic Constant Matrix: (Units=GPa)
#
#
# Indices 1 2 3 4 5 6 
#
# 1 30.8304 0.2761 5.8288 0.0000 -8.8864 0.0000
# 2 0.2761 90.8561 -1.6630 0.0000 1.0908 0.0000
# 3 5.8288 -1.6630 78.7468 0.0000 -14.7211 0.0000
# 4 0.0000 0.0000 0.0000 16.1093 0.0000 -3.1177
# 5 -8.8864 1.0908 -14.7211 0.0000 14.6597 0.0000
# 6 0.0000 0.0000 0.0000 -3.1177 0.0000 24.4157
#
#
#
# Elastic Compliance Matrix: (Units=1/GPa)
#
#
# Indices 1 2 3 4 5 6 
#
# 1 0.039550 -0.000396 0.001910 0.000000 0.025922 0.000000
# 2 -0.000396 0.011021 0.000079 0.000000 -0.000981 0.000000
# 3 0.001910 0.000079 0.015727 0.000000 0.016945 0.000000
# 4 0.000000 0.000000 0.000000 0.063649 0.000000 0.008127
# 5 0.025922 -0.000981 0.016945 0.000000 0.101016 0.000000
# 6 0.000000 0.000000 0.000000 0.008127 0.000000 0.041995
#
#
# Mechanical properties :
#
#
# Convention : Reuss Voigt Hill
#
# Bulk Modulus (GPa) = 14.39226 23.25747 18.82487
# Shear Modulus (GPa) = 17.06873 24.10305 20.58589
#
# Velocity S-wave (km/s) = 2.94793 3.50310 3.23743
# Velocity P-wave (km/s) = 4.34909 5.31069 4.85376
#
# Compressibility (1/GPa) = 0.06948177
#
# Stress axis : x y z
#
# Youngs Moduli (GPa) = 25.28476 90.73721 63.58523
#
# Poissons Ratio (x) = 0.03597 -0.12145
# Poissons Ratio (y) = 0.01002 -0.00500
# Poissons Ratio (z) = -0.04830 -0.00713
#
# Static dielectric constant tensor:
#      x y z
#    x 3.291570 0.000000 -0.052190 
#    y 0.000000 3.716840 0.000000 
#    z -0.052190 0.000000 3.228880 
# 
# 
# High freq. dielectric constant tensor:
#      x y z
#    x 1.754000 0.000000 -0.021100 
#    y 0.000000 1.782840 0.000000 
#    z -0.021100 0.000000 1.733490 
# 
# From -- ./inp_files/49440.got.cif
#   From: 2010.03.12/outbox.cif.g09.slc.cpg/sg14_25_cif.got.tgz:49440.got - 2010.03.31 13:35:05.
