data_PCOD8124316
_publ_section_title
;
Structure prediction by ZEFSAII (Michael W. Deem and Ramdas Pophale) SiO2 
 PCOD8124316
Probable space group: P 21/C
;
_chemical_formula_sum "Si O2"
_cell_formula_units_Z 24
_cell_length_a 24.675696
_cell_length_b 8.094102
_cell_length_c 18.300599
_cell_angle_alpha 90.000000
_cell_angle_beta 19.264041
_cell_angle_gamma 90.000000
_cell_volume 1205.909341
_symmetry_space_group_name_H-M "P 21/C"
_symmetry_group_IT_number 14
_symmetry_cell_setting 'monoclinic'
loop_
_space_group_symop_operation_xyz
x,y,z
-x,1/2+y,1/2-z
-x,-y,-z
x,1/2-y,1/2+z
loop_
_atom_site_type_symbol
_atom_site_label
_atom_site_fract_x
_atom_site_fract_y
_atom_site_fract_z
Si Si1 0.021193 0.107636 0.565788
Si Si2 0.084210 0.630399 0.650072
Si Si3 0.738040 0.136948 0.679307
Si Si4 0.788642 0.720309 0.456866
Si Si5 0.511993 0.891778 0.886581
Si Si6 0.244530 0.097900 0.158604
O O1 0.161694 0.190315 0.335167
O O2 0.966853 0.214514 0.706207
O O3 0.087707 0.928961 0.511877
O O4 0.861295 0.068949 0.720773
O O5 0.231312 0.727244 0.422400
O O6 0.147472 0.446752 0.585897
O O7 0.920020 0.634343 0.808479
O O8 0.649346 0.975024 0.761733
O O9 0.623184 0.204550 0.891447
O O10 0.605837 0.758388 0.718221
O O11 0.760475 0.713388 0.405627
O O12 0.426943 0.035771 0.945891
#
# Coordination Sequence:
#
# PCOD8124316 Si02
#       6
#     4   4   4   4   4   4
#     4   9  17  34  57  83 104 155 192 232 272 355
#     4  11  19  35  61  86 111 153 203 236 280 348
#     4  10  19  36  60  85 113 156 196 236 286 358
#     4  11  21  36  61  89 117 155 196 248 286 348
#     4  10  21  36  57  87 117 151 195 237 299 347
#     4   9  19  33  56  82 113 148 188 233 290 340
#
# _framework density 19.901993999999998
#
# number of rings (size 3 to 8) (size 9 to 14) (size 15 to 20)
#    0.000    2.000    5.000    0.000    0.000    3.333 
#    0.000    0.000    3.667    2.000    0.000    0.000 
#    0.000    0.000    0.000    0.000    0.000    0.000 
#
# Total GULP energy -297323.917689 kJ/mol
# GULP energy per Si atom -12388.496570 kJ/mol
# Density = 1.985670 g / cm^3
# Si number density = 19.901994 Si / 1000 Ang^3
#
#
#
# Elastic Constant Matrix: (Units=GPa)
#
#
# Indices 1 2 3 4 5 6 
#
# 1 109.6383 16.0737 46.5805 0.0000 23.6044 0.0000
# 2 16.0737 22.6969 26.8146 0.0000 9.2286 0.0000
# 3 46.5805 26.8146 122.6793 0.0000 29.4061 0.0000
# 4 0.0000 0.0000 0.0000 31.2014 0.0000 4.5168
# 5 23.6044 9.2286 29.4061 0.0000 39.3481 0.0000
# 6 0.0000 0.0000 0.0000 4.5168 0.0000 31.9529
#
#
#
# Elastic Compliance Matrix: (Units=1/GPa)
#
#
# Indices 1 2 3 4 5 6 
#
# 1 0.011660 -0.003382 -0.002682 0.000000 -0.004197 0.000000
# 2 -0.003382 0.061248 -0.011142 0.000000 -0.004009 0.000000
# 3 -0.002682 -0.011142 0.012905 0.000000 -0.005422 0.000000
# 4 0.000000 0.000000 0.000000 0.032719 0.000000 -0.004625
# 5 -0.004197 -0.004009 -0.005422 0.000000 0.032924 0.000000
# 6 0.000000 0.000000 0.000000 -0.004625 0.000000 0.031950
#
#
# Mechanical properties :
#
#
# Convention : Reuss Voigt Hill
#
# Bulk Modulus (GPa) = 19.45543 48.21692 33.83617
# Shear Modulus (GPa) = 21.28103 31.53687 26.40895
#
# Velocity S-wave (km/s) = 3.27355 3.98503 3.64668
# Velocity P-wave (km/s) = 4.90765 6.74194 5.89656
#
# Compressibility (1/GPa) = 0.05139953
#
# Stress axis : x y z
#
# Youngs Moduli (GPa) = 85.76512 16.32717 77.49177
#
# Poissons Ratio (x) = 0.05523 0.20782
# Poissons Ratio (y) = 0.29010 0.86341
# Poissons Ratio (z) = 0.23000 0.18192
#
# Static dielectric constant tensor:
#      x y z
#    x 3.867400 0.000000 0.278720 
#    y 0.000000 2.913880 0.000000 
#    z 0.278720 0.000000 4.096790 
# 
# 
# High freq. dielectric constant tensor:
#      x y z
#    x 1.794030 0.000000 0.010310 
#    y 0.000000 1.697380 0.000000 
#    z 0.010310 0.000000 1.801910 
# 
# From -- ./inp_files/61731.got.cif
#   From: 2010.03.12/outbox.cif.g09.slc.cpg/sg14_31_cif.got.tgz:61731.got - 2010.03.31 13:35:05.
