data_PCOD8124046
_publ_section_title
;
Structure prediction by ZEFSAII (Michael W. Deem and Ramdas Pophale) SiO2 
 PCOD8124046
Probable space group: P 21/C
;
_chemical_formula_sum "Si O2"
_cell_formula_units_Z 28
_cell_length_a 6.103494
_cell_length_b 17.151390
_cell_length_c 16.478317
_cell_angle_alpha 90.000000
_cell_angle_beta 127.289232
_cell_angle_gamma 90.000000
_cell_volume 1372.393237
_symmetry_space_group_name_H-M "P 21/C"
_symmetry_group_IT_number 14
_symmetry_cell_setting 'monoclinic'
loop_
_space_group_symop_operation_xyz
x,y,z
-x,1/2+y,1/2-z
-x,-y,-z
x,1/2-y,1/2+z
loop_
_atom_site_type_symbol
_atom_site_label
_atom_site_fract_x
_atom_site_fract_y
_atom_site_fract_z
Si Si1 0.841156 0.719498 0.932570
Si Si2 0.426033 0.854220 0.866172
Si Si3 0.332540 0.011400 0.160679
Si Si4 0.954083 0.735345 0.770671
Si Si5 0.659132 0.272621 0.386711
Si Si6 0.742135 0.416110 0.507504
Si Si7 0.647149 0.129674 0.722490
O O1 0.676810 0.794466 0.929371
O O2 0.937242 0.731774 0.862520
O O3 0.634183 0.645262 0.890873
O O4 0.111735 0.703661 0.050865
O O5 0.471940 0.912117 0.798894
O O6 0.434791 0.907481 0.949887
O O7 0.139976 0.809502 0.787825
O O8 0.020093 0.038952 0.089560
O O9 0.363278 0.959397 0.248885
O O10 0.416522 0.961048 0.100192
O O11 0.654943 0.750505 0.662276
O O12 0.083531 0.652163 0.770078
O O13 0.790403 0.330003 0.483651
O O14 0.659721 0.307645 0.297698
#
# Coordination Sequence:
#
# PCOD8124046 Si02
#       7
#     4   4   4   4   4   4   4
#     4  10  20  37  52  78 111 145 189 229 267 327
#     4  11  19  34  55  77 112 150 180 221 278 332
#     4  10  20  34  50  85 114 146 179 222 277 340
#     4  10  21  34  53  79 106 148 186 225 275 332
#     4  10  19  34  53  80 111 140 186 228 267 332
#     4  10  20  31  54  82 114 145 175 221 281 336
#     4   9  22  34  52  79 112 143 184 224 276 324
#
# _framework density 20.402315999999999
#
# number of rings (size 3 to 8) (size 9 to 14) (size 15 to 20)
#    0.000    2.000    2.857    0.429    2.000    3.429 
#    0.000    0.000    0.000    0.857    0.000   15.000 
#    0.000    0.000    0.000    0.000    0.000    0.000 
#
# Total GULP energy -346897.189383 kJ/mol
# GULP energy per Si atom -12389.185335 kJ/mol
# Density = 2.035588 g / cm^3
# Si number density = 20.402316 Si / 1000 Ang^3
#
#
#
# Elastic Constant Matrix: (Units=GPa)
#
#
# Indices 1 2 3 4 5 6 
#
# 1 101.2889 19.2612 21.0610 0.0000 9.6067 0.0000
# 2 19.2612 42.4275 -2.0046 0.0000 -2.9347 0.0000
# 3 21.0610 -2.0046 35.4161 0.0000 17.0423 0.0000
# 4 0.0000 0.0000 0.0000 19.5255 0.0000 -4.9202
# 5 9.6067 -2.9347 17.0423 0.0000 39.1782 0.0000
# 6 0.0000 0.0000 0.0000 -4.9202 0.0000 33.4260
#
#
#
# Elastic Compliance Matrix: (Units=1/GPa)
#
#
# Indices 1 2 3 4 5 6 
#
# 1 0.012679 -0.006137 -0.007803 0.000000 -0.000174 0.000000
# 2 -0.006137 0.026673 0.004393 0.000000 0.001592 0.000000
# 3 -0.007803 0.004393 0.040529 0.000000 -0.015388 0.000000
# 4 0.000000 0.000000 0.000000 0.053188 0.000000 0.007829
# 5 -0.000174 0.001592 -0.015388 0.000000 0.032380 0.000000
# 6 0.000000 0.000000 0.000000 0.007829 0.000000 0.031069
#
#
# Mechanical properties :
#
#
# Convention : Reuss Voigt Hill
#
# Bulk Modulus (GPa) = 16.45070 28.41862 22.43466
# Shear Modulus (GPa) = 21.19773 27.81359 24.50566
#
# Velocity S-wave (km/s) = 3.22683 3.69624 3.46948
# Velocity P-wave (km/s) = 4.68656 5.67235 5.20286
#
# Compressibility (1/GPa) = 0.06078770
#
# Stress axis : x y z
#
# Youngs Moduli (GPa) = 78.87216 37.49086 24.67351
#
# Poissons Ratio (x) = 0.23007 0.19253
# Poissons Ratio (y) = 0.48401 -0.10839
# Poissons Ratio (z) = 0.61546 -0.16470
#
# Static dielectric constant tensor:
#      x y z
#    x 4.065400 0.000000 0.063420 
#    y 0.000000 3.676860 0.000000 
#    z 0.063420 0.000000 3.585700 
# 
# 
# High freq. dielectric constant tensor:
#      x y z
#    x 1.817340 0.000000 0.002870 
#    y 0.000000 1.769910 0.000000 
#    z 0.002870 0.000000 1.766370 
# 
# From -- ./inp_files/37573.got.cif
#   From: 2010.03.12/outbox.cif.g09.slc.cpg/sg14_19_cif.got.tgz:37573.got - 2010.03.31 13:35:05.
