data_PCOD8124541
_publ_section_title
;
Structure prediction by ZEFSAII (Michael W. Deem and Ramdas Pophale) SiO2 
 PCOD8124541
Probable space group: P 21/C
;
_chemical_formula_sum "Si O2"
_cell_formula_units_Z 32
_cell_length_a 11.592530
_cell_length_b 14.019083
_cell_length_c 9.846127
_cell_angle_alpha 90.000000
_cell_angle_beta 78.235962
_cell_angle_gamma 90.000000
_cell_volume 1566.549008
_symmetry_space_group_name_H-M "P 21/C"
_symmetry_group_IT_number 14
_symmetry_cell_setting 'monoclinic'
loop_
_space_group_symop_operation_xyz
x,y,z
-x,1/2+y,1/2-z
-x,-y,-z
x,1/2-y,1/2+z
loop_
_atom_site_type_symbol
_atom_site_label
_atom_site_fract_x
_atom_site_fract_y
_atom_site_fract_z
Si Si1 0.710516 0.658472 0.979542
Si Si2 0.461766 0.867868 0.162141
Si Si3 0.329495 0.873890 0.931205
Si Si4 0.531162 0.142317 0.356086
Si Si5 0.288020 0.162461 0.830812
Si Si6 0.111407 0.512998 0.067279
Si Si7 0.885350 0.004670 0.120579
Si Si8 0.305456 0.851463 0.449186
O O1 0.687626 0.695351 0.830886
O O2 0.815442 0.583981 0.959901
O O3 0.594584 0.603124 0.063414
O O4 0.740271 0.747242 0.068709
O O5 0.477880 0.755735 0.137926
O O6 0.598478 0.901178 0.146093
O O7 0.384065 0.893842 0.310024
O O8 0.389027 0.912499 0.054649
O O9 0.433804 0.896203 0.799469
O O10 0.206580 0.922789 0.925336
O O11 0.297500 0.762280 0.944131
O O12 0.635988 0.109111 0.427825
O O13 0.171573 0.099461 0.864667
O O14 0.080999 0.535212 0.232983
O O15 0.176230 0.603168 0.982436
O O16 0.000000 0.500000 0.000000
O O17 0.000000 0.000000 0.000000
#
# Coordination Sequence:
#
# PCOD8124541 Si02
#       8
#     4   4   4   4   4   4   4   4
#     4  10  22  40  64  91 124 158 195 247 304 359
#     4   9  19  33  60  97 125 149 194 239 302 365
#     4  10  21  38  63  92 123 158 192 248 305 359
#     4   9  17  35  61  92 121 156 191 238 306 364
#     4  10  22  41  63  91 125 158 196 245 303 361
#     4  11  26  44  61  86 117 162 215 250 289 357
#     4  11  26  45  60  84 121 163 209 253 294 349
#     4  10  19  38  64  91 120 154 195 247 301 362
#
# _framework density 20.427064999999999
#
# number of rings (size 3 to 8) (size 9 to 14) (size 15 to 20)
#    0.000    2.000    2.500    0.000    7.000    4.000 
#    0.000    2.500    0.000    0.000    0.000    0.000 
#    0.000    0.000    0.000    0.000    0.000    0.000 
#
# Total GULP energy -396715.499713 kJ/mol
# GULP energy per Si atom -12397.359366 kJ/mol
# Density = 2.038057 g / cm^3
# Si number density = 20.427065 Si / 1000 Ang^3
#
#
#
# Elastic Constant Matrix: (Units=GPa)
#
#
# Indices 1 2 3 4 5 6 
#
# 1 127.1864 22.1999 57.8933 0.0000 -3.3897 0.0000
# 2 22.1999 41.8414 36.2461 0.0000 -2.4466 0.0000
# 3 57.8933 36.2461 137.5931 0.0000 -6.1437 0.0000
# 4 0.0000 0.0000 0.0000 24.5955 0.0000 0.9044
# 5 -3.3897 -2.4466 -6.1437 0.0000 42.0792 0.0000
# 6 0.0000 0.0000 0.0000 0.9044 0.0000 30.2970
#
#
#
# Elastic Compliance Matrix: (Units=1/GPa)
#
#
# Indices 1 2 3 4 5 6 
#
# 1 0.009869 -0.002120 -0.003588 0.000000 0.000148 0.000000
# 2 -0.002120 0.031437 -0.007364 0.000000 0.000582 0.000000
# 3 -0.003588 -0.007364 0.010755 0.000000 0.000853 0.000000
# 4 0.000000 0.000000 0.000000 0.040702 0.000000 -0.001215
# 5 0.000148 0.000582 0.000853 0.000000 0.023935 0.000000
# 6 0.000000 0.000000 0.000000 -0.001215 0.000000 0.033043
#
#
# Mechanical properties :
#
#
# Convention : Reuss Voigt Hill
#
# Bulk Modulus (GPa) = 38.58049 59.92217 49.25133
# Shear Modulus (GPa) = 27.09663 32.07977 29.58820
#
# Velocity S-wave (km/s) = 3.64607 3.96720 3.81002
# Velocity P-wave (km/s) = 6.05418 7.09811 6.59683
#
# Compressibility (1/GPa) = 0.02591984
#
# Stress axis : x y z
#
# Youngs Moduli (GPa) = 101.32263 31.80916 92.97835
#
# Poissons Ratio (x) = 0.06743 0.33357
# Poissons Ratio (y) = 0.21480 0.68465
# Poissons Ratio (z) = 0.36350 0.23423
#
# Static dielectric constant tensor:
#      x y z
#    x 3.735720 0.000000 0.149580 
#    y 0.000000 3.515360 0.000000 
#    z 0.149580 0.000000 4.015000 
# 
# 
# High freq. dielectric constant tensor:
#      x y z
#    x 1.793580 0.000000 0.005930 
#    y 0.000000 1.788460 0.000000 
#    z 0.005930 0.000000 1.814840 
# 
# From -- ./inp_files/13285.got.cif
#   From: 2010.03.12/outbox.cif.g09.slc.cpg/sg14_7_cif.got.tgz:13285.got - 2010.03.31 13:35:05.
