data_PCOD8124172
_publ_section_title
;
Structure prediction by ZEFSAII (Michael W. Deem and Ramdas Pophale) SiO2 
 PCOD8124172
Probable space group: P 21/C
;
_chemical_formula_sum "Si O2"
_cell_formula_units_Z 32
_cell_length_a 7.888435
_cell_length_b 18.146248
_cell_length_c 14.061082
_cell_angle_alpha 90.000000
_cell_angle_beta 55.318386
_cell_angle_gamma 90.000000
_cell_volume 1655.163171
_symmetry_space_group_name_H-M "P 21/C"
_symmetry_group_IT_number 14
_symmetry_cell_setting 'monoclinic'
loop_
_space_group_symop_operation_xyz
x,y,z
-x,1/2+y,1/2-z
-x,-y,-z
x,1/2-y,1/2+z
loop_
_atom_site_type_symbol
_atom_site_label
_atom_site_fract_x
_atom_site_fract_y
_atom_site_fract_z
Si Si1 0.508489 0.588673 0.297133
Si Si2 0.292762 0.695047 0.875021
Si Si3 0.768094 0.381287 0.441809
Si Si4 0.838241 0.156622 0.190661
Si Si5 0.833455 0.634439 0.554503
Si Si6 0.143740 0.721152 0.119966
Si Si7 0.613436 0.068999 0.796373
Si Si8 0.292902 0.240914 0.280529
O O1 0.423694 0.597105 0.431096
O O2 0.311762 0.589780 0.290071
O O3 0.636405 0.513221 0.247088
O O4 0.653143 0.655950 0.218206
O O5 0.212756 0.768320 0.849194
O O6 0.277619 0.624810 0.811478
O O7 0.529518 0.712078 0.828575
O O8 0.165218 0.679033 0.012002
O O9 0.726048 0.296306 0.425504
O O10 0.741755 0.428457 0.353975
O O11 0.990643 0.391815 0.423939
O O12 0.794333 0.166532 0.315771
O O13 0.068526 0.134311 0.083105
O O14 0.633531 0.582147 0.614515
O O15 0.759123 0.717430 0.603255
O O16 0.909174 0.743310 0.219903
#
# Coordination Sequence:
#
# PCOD8124172 Si02
#       8
#     4   4   4   4   4   4   4   4
#     4  10  21  38  51  87 120 148 189 235 290 357
#     4  10  19  37  56  82 115 147 192 244 276 346
#     4  10  19  35  57  84 114 142 190 253 283 331
#     4  10  19  35  58  79 114 148 187 248 285 327
#     4   9  20  36  58  88 108 144 203 236 284 345
#     4  11  19  35  59  84 109 145 200 245 283 333
#     4  11  22  36  60  83 120 159 181 235 307 336
#     4   9  18  35  57  80 114 141 190 244 275 333
#
# _framework density 19.333441000000001
#
# number of rings (size 3 to 8) (size 9 to 14) (size 15 to 20)
#    0.000    2.000    6.250    0.375    1.750    2.000 
#    2.250    1.250    0.000    0.000    0.000    0.000 
#    0.000    0.000    0.000    0.000    0.000    0.000 
#
# Total GULP energy -396503.015259 kJ/mol
# GULP energy per Si atom -12390.719227 kJ/mol
# Density = 1.928944 g / cm^3
# Si number density = 19.333441 Si / 1000 Ang^3
#
#
#
# Elastic Constant Matrix: (Units=GPa)
#
#
# Indices 1 2 3 4 5 6 
#
# 1 60.8563 9.8836 31.1437 0.0000 6.1910 0.0000
# 2 9.8836 55.0928 3.2455 0.0000 -2.6798 0.0000
# 3 31.1437 3.2455 64.3549 0.0000 11.6848 0.0000
# 4 0.0000 0.0000 0.0000 19.4258 0.0000 0.1211
# 5 6.1910 -2.6798 11.6848 0.0000 27.2156 0.0000
# 6 0.0000 0.0000 0.0000 0.1211 0.0000 19.2512
#
#
#
# Elastic Compliance Matrix: (Units=1/GPa)
#
#
# Indices 1 2 3 4 5 6 
#
# 1 0.022480 -0.003458 -0.010536 0.000000 -0.000931 0.000000
# 2 -0.003458 0.018879 0.000261 0.000000 0.002533 0.000000
# 3 -0.010536 0.000261 0.021891 0.000000 -0.006976 0.000000
# 4 0.000000 0.000000 0.000000 0.051480 0.000000 -0.000324
# 5 -0.000931 0.002533 -0.006976 0.000000 0.040200 0.000000
# 6 0.000000 0.000000 0.000000 -0.000324 0.000000 0.051947
#
#
# Mechanical properties :
#
#
# Convention : Reuss Voigt Hill
#
# Bulk Modulus (GPa) = 27.94360 29.87218 28.90789
# Shear Modulus (GPa) = 20.30292 22.24725 21.27509
#
# Velocity S-wave (km/s) = 3.24411 3.39590 3.32087
# Velocity P-wave (km/s) = 5.34015 5.55524 5.44876
#
# Compressibility (1/GPa) = 0.03578637
#
# Stress axis : x y z
#
# Youngs Moduli (GPa) = 44.48389 52.96801 45.68108
#
# Poissons Ratio (x) = 0.18314 0.48128
# Poissons Ratio (y) = 0.15380 -0.01193
# Poissons Ratio (z) = 0.46866 -0.01383
#
# Static dielectric constant tensor:
#      x y z
#    x 3.615010 0.000000 -0.132610 
#    y 0.000000 3.378140 0.000000 
#    z -0.132610 0.000000 3.570600 
# 
# 
# High freq. dielectric constant tensor:
#      x y z
#    x 1.745570 0.000000 -0.008280 
#    y 0.000000 1.732030 0.000000 
#    z -0.008280 0.000000 1.739420 
# 
# From -- ./inp_files/41701.got.cif
#   From: 2010.03.12/outbox.cif.g09.slc.cpg/sg14_21_cif.got.tgz:41701.got - 2010.03.31 13:35:05.
