data_PCOD8124808
_publ_section_title
;
Structure prediction by ZEFSAII (Michael W. Deem and Ramdas Pophale) SiO2 
 PCOD8124808
Probable space group: P 21/C
;
_chemical_formula_sum "Si O2"
_cell_formula_units_Z 32
_cell_length_a 9.201838
_cell_length_b 27.111671
_cell_length_c 8.552830
_cell_angle_alpha 90.000000
_cell_angle_beta 49.680108
_cell_angle_gamma 90.000000
_cell_volume 1626.853727
_symmetry_space_group_name_H-M "P 21/C"
_symmetry_group_IT_number 14
_symmetry_cell_setting 'monoclinic'
loop_
_space_group_symop_operation_xyz
x,y,z
-x,1/2+y,1/2-z
-x,-y,-z
x,1/2-y,1/2+z
loop_
_atom_site_type_symbol
_atom_site_label
_atom_site_fract_x
_atom_site_fract_y
_atom_site_fract_z
Si Si1 0.910642 0.344059 0.778415
Si Si2 0.251096 0.182125 0.506732
Si Si3 0.448524 0.848651 0.294059
Si Si4 0.434014 0.613809 0.120749
Si Si5 0.549239 0.963510 0.769788
Si Si6 0.683227 0.438891 0.281454
Si Si7 0.915493 0.598567 0.070351
Si Si8 0.211036 0.215789 0.889808
O O1 0.794859 0.376605 0.728771
O O2 0.052752 0.378399 0.779170
O O3 0.020593 0.300867 0.612566
O O4 0.749607 0.322074 0.010657
O O5 0.462868 0.158073 0.353659
O O6 0.104398 0.140394 0.549953
O O7 0.197893 0.201986 0.716477
O O8 0.237985 0.225884 0.389281
O O9 0.522300 0.883812 0.384537
O O10 0.409332 0.884613 0.176056
O O11 0.608668 0.808528 0.145793
O O12 0.482614 0.559868 0.152718
O O13 0.730084 0.935078 0.715564
O O14 0.601949 0.021070 0.712825
O O15 0.368725 0.957724 0.010537
O O16 0.909460 0.435884 0.102889
#
# Coordination Sequence:
#
# PCOD8124808 Si02
#       8
#     4   4   4   4   4   4   4   4
#     4   9  19  37  56  78 109 143 185 217 275 320
#     4  10  22  37  58  80 109 143 183 223 279 322
#     4   8  19  37  54  79 110 143 180 225 271 321
#     4   8  19  39  53  80 109 142 178 228 268 324
#     4  10  20  34  57  83 113 142 186 226 276 324
#     4  10  20  34  57  83 109 147 186 223 274 331
#     4  10  20  38  56  79 112 147 181 229 271 323
#     4  11  20  38  57  79 110 142 180 229 270 328
#
# _framework density 19.669868999999998
#
# number of rings (size 3 to 8) (size 9 to 14) (size 15 to 20)
#    0.750    1.750    0.000    1.875    1.750    1.500 
#    6.750    0.000    0.000    2.250    0.000    0.000 
#    0.000    0.000    0.000    0.000    0.000    0.000 
#
# Total GULP energy -396493.715953 kJ/mol
# GULP energy per Si atom -12390.428624 kJ/mol
# Density = 1.962510 g / cm^3
# Si number density = 19.669869 Si / 1000 Ang^3
#
#
#
# Elastic Constant Matrix: (Units=GPa)
#
#
# Indices 1 2 3 4 5 6 
#
# 1 67.0793 9.0817 7.1743 0.0000 -4.2520 0.0000
# 2 9.0817 63.1039 20.9525 0.0000 -3.2311 0.0000
# 3 7.1743 20.9525 54.3768 0.0000 -4.3916 0.0000
# 4 0.0000 0.0000 0.0000 26.8238 0.0000 -0.4557
# 5 -4.2520 -3.2311 -4.3916 0.0000 21.2055 0.0000
# 6 0.0000 0.0000 0.0000 -0.4557 0.0000 24.7256
#
#
#
# Elastic Compliance Matrix: (Units=1/GPa)
#
#
# Indices 1 2 3 4 5 6 
#
# 1 0.015427 -0.001699 -0.001172 0.000000 0.002592 0.000000
# 2 -0.001699 0.018396 -0.006779 0.000000 0.001059 0.000000
# 3 -0.001172 -0.006779 0.021413 0.000000 0.003167 0.000000
# 4 0.000000 0.000000 0.000000 0.037292 0.000000 0.000687
# 5 0.002592 0.001059 0.003167 0.000000 0.048494 0.000000
# 6 0.000000 0.000000 0.000000 0.000687 0.000000 0.040457
#
#
# Mechanical properties :
#
#
# Convention : Reuss Voigt Hill
#
# Bulk Modulus (GPa) = 27.82560 28.77524 28.30042
# Shear Modulus (GPa) = 23.50104 24.37442 23.93773
#
# Velocity S-wave (km/s) = 3.46030 3.52401 3.49230
# Velocity P-wave (km/s) = 5.49017 5.58740 5.53900
#
# Compressibility (1/GPa) = 0.03593812
#
# Stress axis : x y z
#
# Youngs Moduli (GPa) = 64.82017 54.35868 46.70154
#
# Poissons Ratio (x) = 0.09233 0.05472
# Poissons Ratio (y) = 0.11010 0.31658
# Poissons Ratio (z) = 0.07595 0.36849
#
# Static dielectric constant tensor:
#      x y z
#    x 3.679040 0.000000 -0.076150 
#    y 0.000000 3.455500 0.000000 
#    z -0.076150 0.000000 3.274290 
# 
# 
# High freq. dielectric constant tensor:
#      x y z
#    x 1.769070 0.000000 -0.005840 
#    y 0.000000 1.754630 0.000000 
#    z -0.005840 0.000000 1.747290 
# 
# From -- ./inp_files/11068.got.cif
#   From: 2010.03.12/outbox.cif.g09.slc.cpg/sg14_6_cif.got.tgz:11068.got - 2010.03.31 13:35:05.
