data_PCOD8124854
_publ_section_title
;
Structure prediction by ZEFSAII (Michael W. Deem and Ramdas Pophale) SiO2 
 PCOD8124854
Probable space group: P 21/C
;
_chemical_formula_sum "Si O2"
_cell_formula_units_Z 28
_cell_length_a 16.788098
_cell_length_b 9.799875
_cell_length_c 8.252227
_cell_angle_alpha 90.000000
_cell_angle_beta 82.867083
_cell_angle_gamma 90.000000
_cell_volume 1347.159495
_symmetry_space_group_name_H-M "P 21/C"
_symmetry_group_IT_number 14
_symmetry_cell_setting 'monoclinic'
loop_
_space_group_symop_operation_xyz
x,y,z
-x,1/2+y,1/2-z
-x,-y,-z
x,1/2-y,1/2+z
loop_
_atom_site_type_symbol
_atom_site_label
_atom_site_fract_x
_atom_site_fract_y
_atom_site_fract_z
Si Si1 0.927504 0.162532 0.713337
Si Si2 0.427073 0.188808 0.578487
Si Si3 0.481920 0.890508 0.139848
Si Si4 0.167317 0.428858 0.884701
Si Si5 0.350127 0.434842 0.792037
Si Si6 0.912937 0.440810 0.553387
Si Si7 0.114063 0.169581 0.722673
O O1 0.911258 0.320565 0.685375
O O2 0.022893 0.139278 0.691593
O O3 0.886809 0.065394 0.589037
O O4 0.882178 0.120360 0.891479
O O5 0.503150 0.244655 0.451124
O O6 0.459605 0.096310 0.717837
O O7 0.374758 0.312726 0.664632
O O8 0.372520 0.098907 0.472865
O O9 0.392166 0.922459 0.226514
O O10 0.500000 0.000000 0.000000
O O11 0.256043 0.461432 0.800275
O O12 0.123407 0.325633 0.772182
O O13 0.172824 0.360079 0.059042
O O14 0.860701 0.566799 0.636880
O O15 0.000000 0.500000 0.500000
#
# Coordination Sequence:
#
# PCOD8124854 Si02
#       7
#     4   4   4   4   4   4   4
#     4  11  21  38  58  82 112 153 200 246 296 357
#     4   9  18  35  60  84 117 155 191 230 280 358
#     4   9  18  34  59  87 114 152 192 229 277 348
#     4  12  23  36  59  88 121 154 195 258 303 347
#     4  10  20  35  55  88 118 148 192 241 296 342
#     4  10  21  37  59  81 105 142 194 246 289 348
#     4  11  21  37  57  84 114 156 201 240 300 364
#
# _framework density 20.784472000000001
#
# number of rings (size 3 to 8) (size 9 to 14) (size 15 to 20)
#    0.000    1.714    0.000    6.857    0.000    0.000 
#    0.000    4.286    0.000    3.429    0.000    0.000 
#    0.000    0.000    0.000    0.000    0.000    0.000 
#
# Total GULP energy -347035.489223 kJ/mol
# GULP energy per Si atom -12394.124615 kJ/mol
# Density = 2.073717 g / cm^3
# Si number density = 20.784472 Si / 1000 Ang^3
#
#
#
# Elastic Constant Matrix: (Units=GPa)
#
#
# Indices 1 2 3 4 5 6 
#
# 1 99.8890 40.7641 32.2645 0.0000 -10.8182 0.0000
# 2 40.7641 80.6364 12.1660 0.0000 7.0623 0.0000
# 3 32.2645 12.1660 90.9284 0.0000 7.3937 0.0000
# 4 0.0000 0.0000 0.0000 44.4543 0.0000 2.3931
# 5 -10.8182 7.0623 7.3937 0.0000 24.6216 0.0000
# 6 0.0000 0.0000 0.0000 2.3931 0.0000 25.6849
#
#
#
# Elastic Compliance Matrix: (Units=1/GPa)
#
#
# Indices 1 2 3 4 5 6 
#
# 1 0.016549 -0.008512 -0.005661 0.000000 0.011413 0.000000
# 2 -0.008512 0.017285 0.001450 0.000000 -0.009133 0.000000
# 3 -0.005661 0.001450 0.013375 0.000000 -0.006920 0.000000
# 4 0.000000 0.000000 0.000000 0.022608 0.000000 -0.002106
# 5 0.011413 -0.009133 -0.006920 0.000000 0.050327 0.000000
# 6 0.000000 0.000000 0.000000 -0.002106 0.000000 0.039130
#
#
# Mechanical properties :
#
#
# Convention : Reuss Voigt Hill
#
# Bulk Modulus (GPa) = 45.94737 49.09366 47.52052
# Shear Modulus (GPa) = 26.04495 31.36943 28.70719
#
# Velocity S-wave (km/s) = 3.54375 3.88915 3.72046
# Velocity P-wave (km/s) = 6.23689 6.62110 6.43186
#
# Compressibility (1/GPa) = 0.02176403
#
# Stress axis : x y z
#
# Youngs Moduli (GPa) = 60.42527 57.85249 74.76521
#
# Poissons Ratio (x) = 0.49242 0.42328
# Poissons Ratio (y) = 0.51432 -0.10842
# Poissons Ratio (z) = 0.34210 -0.08389
#
# Static dielectric constant tensor:
#      x y z
#    x 3.379010 0.000000 -0.065330 
#    y 0.000000 3.992900 0.000000 
#    z -0.065330 0.000000 4.325460 
# 
# 
# High freq. dielectric constant tensor:
#      x y z
#    x 1.766810 0.000000 0.000760 
#    y 0.000000 1.811010 0.000000 
#    z 0.000760 0.000000 1.837830 
# 
# From -- ./inp_files/17542.got.cif
#   From: 2010.03.12/outbox.cif.g09.slc.cpg/sg14_9_cif.got.tgz:17542.got - 2010.03.31 13:35:05.
