data_PCOD8124066
_publ_section_title
;
Structure prediction by ZEFSAII (Michael W. Deem and Ramdas Pophale) SiO2 
 PCOD8124066
Probable space group: P 21/C
;
_chemical_formula_sum "Si O2"
_cell_formula_units_Z 24
_cell_length_a 9.191414
_cell_length_b 18.332235
_cell_length_c 16.115841
_cell_angle_alpha 90.000000
_cell_angle_beta 151.003613
_cell_angle_gamma 90.000000
_cell_volume 1316.353515
_symmetry_space_group_name_H-M "P 21/C"
_symmetry_group_IT_number 14
_symmetry_cell_setting 'monoclinic'
loop_
_space_group_symop_operation_xyz
x,y,z
-x,1/2+y,1/2-z
-x,-y,-z
x,1/2-y,1/2+z
loop_
_atom_site_type_symbol
_atom_site_label
_atom_site_fract_x
_atom_site_fract_y
_atom_site_fract_z
Si Si1 0.278228 0.297536 0.465075
Si Si2 0.653363 0.422104 0.573744
Si Si3 0.355198 0.075817 0.450899
Si Si4 0.640017 0.329986 0.223453
Si Si5 0.735664 0.172947 0.960362
Si Si6 0.337260 0.292197 0.834512
O O1 0.485251 0.367767 0.552391
O O2 0.459125 0.244352 0.616705
O O3 0.194022 0.256062 0.337597
O O4 0.975058 0.323403 0.356367
O O5 0.500000 0.500000 0.500000
O O6 0.629202 0.391682 0.468006
O O7 0.996262 0.428612 0.773604
O O8 0.473109 0.100875 0.599564
O O9 0.474076 0.134584 0.442995
O O10 0.500000 0.000000 0.500000
O O11 0.644589 0.348398 0.322680
O O12 0.595023 0.250226 0.915267
O O13 0.090103 0.185277 0.143948
#
# Coordination Sequence:
#
# PCOD8124066 Si02
#       6
#     4   4   4   4   4   4
#     4  10  19  34  56  78 107 142 177 211 261 321
#     4  10  21  38  56  76 105 146 182 213 260 324
#     4  10  20  36  56  78 106 144 181 214 263 324
#     4  11  20  34  55  83 107 134 173 225 264 304
#     4  10  20  34  54  81 107 132 174 223 264 304
#     4   9  18  34  54  76 104 140 173 208 259 321
#
# _framework density 18.232182999999999
#
# number of rings (size 3 to 8) (size 9 to 14) (size 15 to 20)
#    0.000    2.000    0.000    7.000    0.000    1.333 
#    0.000   10.000    0.000    0.000    0.000    0.000 
#    0.000    0.000    0.000    0.000    0.000    0.000 
#
# Total GULP energy -297641.492848 kJ/mol
# GULP energy per Si atom -12401.728869 kJ/mol
# Density = 1.819069 g / cm^3
# Si number density = 18.232183 Si / 1000 Ang^3
#
#
#
# Elastic Constant Matrix: (Units=GPa)
#
#
# Indices 1 2 3 4 5 6 
#
# 1 90.5977 47.7544 62.5719 0.0000 -7.8606 0.0000
# 2 47.7544 142.7266 58.3231 0.0000 -0.6099 0.0000
# 3 62.5719 58.3231 124.3688 0.0000 -12.7474 0.0000
# 4 0.0000 0.0000 0.0000 27.8640 0.0000 9.3471
# 5 -7.8606 -0.6099 -12.7474 0.0000 35.7388 0.0000
# 6 0.0000 0.0000 0.0000 9.3471 0.0000 22.0466
#
#
#
# Elastic Compliance Matrix: (Units=1/GPa)
#
#
# Indices 1 2 3 4 5 6 
#
# 1 0.017850 -0.002904 -0.007495 0.000000 0.001203 0.000000
# 2 -0.002904 0.009203 -0.003014 0.000000 -0.001557 0.000000
# 3 -0.007495 -0.003014 0.013546 0.000000 0.003132 0.000000
# 4 0.000000 0.000000 0.000000 0.041839 0.000000 -0.017738
# 5 0.001203 -0.001557 0.003132 0.000000 0.029336 0.000000
# 6 0.000000 0.000000 0.000000 -0.017738 0.000000 0.052879
#
#
# Mechanical properties :
#
#
# Convention : Reuss Voigt Hill
#
# Bulk Modulus (GPa) = 72.61376 77.22133 74.91754
# Shear Modulus (GPa) = 25.50101 29.73278 27.61689
#
# Velocity S-wave (km/s) = 3.74395 4.04268 3.89618
# Velocity P-wave (km/s) = 7.65528 8.01482 7.83711
#
# Compressibility (1/GPa) = 0.01377150
#
# Stress axis : x y z
#
# Youngs Moduli (GPa) = 56.02356 108.65757 73.82236
#
# Poissons Ratio (x) = 0.31558 0.55331
# Poissons Ratio (y) = 0.16271 0.22252
# Poissons Ratio (z) = 0.41990 0.32752
#
# Static dielectric constant tensor:
#      x y z
#    x 3.228010 0.000000 0.023700 
#    y 0.000000 3.357540 0.000000 
#    z 0.023700 0.000000 3.603570 
# 
# 
# High freq. dielectric constant tensor:
#      x y z
#    x 1.692060 0.000000 0.006150 
#    y 0.000000 1.705020 0.000000 
#    z 0.006150 0.000000 1.720510 
# 
# From -- ./inp_files/9040.got.cif
#   From: 2010.03.12/outbox.cif.g09.slc.cpg/sg14_5_cif.got.tgz:9040.got - 2010.03.31 13:35:05.
