data_PCOD8124747
_publ_section_title
;
Structure prediction by ZEFSAII (Michael W. Deem and Ramdas Pophale) SiO2 
 PCOD8124747
Probable space group: P 21/C
;
_chemical_formula_sum "Si O2"
_cell_formula_units_Z 32
_cell_length_a 18.112636
_cell_length_b 18.846552
_cell_length_c 13.482407
_cell_angle_alpha 90.000000
_cell_angle_beta 159.583386
_cell_angle_gamma 90.000000
_cell_volume 1605.506350
_symmetry_space_group_name_H-M "P 21/C"
_symmetry_group_IT_number 14
_symmetry_cell_setting 'monoclinic'
loop_
_space_group_symop_operation_xyz
x,y,z
-x,1/2+y,1/2-z
-x,-y,-z
x,1/2-y,1/2+z
loop_
_atom_site_type_symbol
_atom_site_label
_atom_site_fract_x
_atom_site_fract_y
_atom_site_fract_z
Si Si1 0.850586 0.440960 0.917374
Si Si2 0.616018 0.367503 0.354477
Si Si3 0.293680 0.009561 0.966115
Si Si4 0.021467 0.286557 0.102157
Si Si5 0.654348 0.766376 0.348913
Si Si6 0.911789 0.666105 0.015098
Si Si7 0.385264 0.767185 0.325024
Si Si8 0.487527 0.114605 0.083520
O O1 0.065576 0.476874 0.230845
O O2 0.913691 0.362755 0.961782
O O3 0.747242 0.481242 0.696032
O O4 0.672841 0.436502 0.777994
O O5 0.564077 0.452191 0.293027
O O6 0.491863 0.325154 0.283307
O O7 0.570712 0.334933 0.189303
O O8 0.862874 0.370117 0.691739
O O9 0.426449 0.083352 0.116010
O O10 0.244093 0.286517 0.442343
O O11 0.080062 0.271689 0.060185
O O12 0.857020 0.230816 0.941949
O O13 0.857067 0.801889 0.552586
O O14 0.526732 0.725974 0.101888
O O15 0.727528 0.609744 0.753791
O O16 0.432018 0.696491 0.317961
#
# Coordination Sequence:
#
# PCOD8124747 Si02
#       8
#     4   4   4   4   4   4   4   4
#     4  10  20  33  53  84 115 147 187 231 288 347
#     4  12  22  36  55  85 120 147 189 241 287 339
#     4  11  19  33  54  81 118 151 177 240 295 341
#     4  11  19  38  58  81 115 154 191 235 289 343
#     4  11  22  35  59  79 114 157 190 235 286 337
#     4  11  19  34  55  85 114 146 191 234 283 340
#     4  10  22  38  55  86 116 150 195 240 281 344
#     4  10  20  34  55  80 117 149 188 228 292 351
#
# _framework density 19.931405999999999
#
# number of rings (size 3 to 8) (size 9 to 14) (size 15 to 20)
#    0.000    1.250    5.000    4.125    0.000    1.000 
#    0.000    0.000    0.000    0.750    0.000    1.750 
#    0.000    0.000    0.000    0.000    0.000    0.000 
#
# Total GULP energy -396428.459019 kJ/mol
# GULP energy per Si atom -12388.389344 kJ/mol
# Density = 1.988604 g / cm^3
# Si number density = 19.931406 Si / 1000 Ang^3
#
#
#
# Elastic Constant Matrix: (Units=GPa)
#
#
# Indices 1 2 3 4 5 6 
#
# 1 70.8966 -0.6768 18.9533 0.0000 25.2797 0.0000
# 2 -0.6768 20.6197 0.8532 0.0000 8.4883 0.0000
# 3 18.9533 0.8532 63.4537 0.0000 15.9887 0.0000
# 4 0.0000 0.0000 0.0000 24.7224 0.0000 2.0359
# 5 25.2797 8.4883 15.9887 0.0000 31.3018 0.0000
# 6 0.0000 0.0000 0.0000 2.0359 0.0000 26.9500
#
#
#
# Elastic Compliance Matrix: (Units=1/GPa)
#
#
# Indices 1 2 3 4 5 6 
#
# 1 0.021279 0.008408 -0.001795 0.000000 -0.018548 0.000000
# 2 0.008408 0.058576 0.002771 0.000000 -0.024090 0.000000
# 3 -0.001795 0.002771 0.018458 0.000000 -0.008730 0.000000
# 4 0.000000 0.000000 0.000000 0.040702 0.000000 -0.003075
# 5 -0.018548 -0.024090 -0.008730 0.000000 0.057919 0.000000
# 6 0.000000 0.000000 0.000000 -0.003075 0.000000 0.037338
#
#
# Mechanical properties :
#
#
# Convention : Reuss Voigt Hill
#
# Bulk Modulus (GPa) = 8.54108 21.46992 15.00550
# Shear Modulus (GPa) = 19.64397 25.65087 22.64742
#
# Velocity S-wave (km/s) = 3.14280 3.59131 3.37451
# Velocity P-wave (km/s) = 4.17901 5.29074 4.76739
#
# Compressibility (1/GPa) = 0.11708118
#
# Stress axis : x y z
#
# Youngs Moduli (GPa) = 46.99447 17.07191 54.17647
#
# Poissons Ratio (x) = -0.14355 0.09726
# Poissons Ratio (y) = -0.39515 -0.15012
# Poissons Ratio (z) = 0.08437 -0.04731
#
# Static dielectric constant tensor:
#      x y z
#    x 3.991610 0.000000 0.482170 
#    y 0.000000 3.627560 0.000000 
#    z 0.482170 0.000000 3.565520 
# 
# 
# High freq. dielectric constant tensor:
#      x y z
#    x 1.780830 0.000000 0.040460 
#    y 0.000000 1.750960 0.000000 
#    z 0.040460 0.000000 1.759130 
# 
# From -- ./inp_files/50791.got.cif
#   From: 2010.03.12/outbox.cif.g09.slc.cpg/sg14_26_cif.got.tgz:50791.got - 2010.03.31 13:35:05.
