data_PCOD8124844
_publ_section_title
;
Structure prediction by ZEFSAII (Michael W. Deem and Ramdas Pophale) SiO2 
 PCOD8124844
Probable space group: P 21/C
;
_chemical_formula_sum "Si O2"
_cell_formula_units_Z 32
_cell_length_a 18.508888
_cell_length_b 8.220678
_cell_length_c 29.490695
_cell_angle_alpha 90.000000
_cell_angle_beta 160.986307
_cell_angle_gamma 90.000000
_cell_volume 1461.895080
_symmetry_space_group_name_H-M "P 21/C"
_symmetry_group_IT_number 14
_symmetry_cell_setting 'monoclinic'
loop_
_space_group_symop_operation_xyz
x,y,z
-x,1/2+y,1/2-z
-x,-y,-z
x,1/2-y,1/2+z
loop_
_atom_site_type_symbol
_atom_site_label
_atom_site_fract_x
_atom_site_fract_y
_atom_site_fract_z
Si Si1 0.869422 0.530428 0.654701
Si Si2 0.269443 0.279343 0.997125
Si Si3 0.311528 0.857894 0.543388
Si Si4 0.176800 0.285277 0.537592
Si Si5 0.099575 0.246302 0.245019
Si Si6 0.723087 0.375439 0.785958
Si Si7 0.557607 0.022460 0.285290
Si Si8 0.577182 0.848762 0.136991
O O1 0.851064 0.700994 0.617220
O O2 0.905428 0.589407 0.727468
O O3 0.644004 0.429275 0.514631
O O4 0.079063 0.420251 0.762503
O O5 0.245846 0.471297 0.982064
O O6 0.136392 0.198386 0.960146
O O7 0.531451 0.243375 0.155234
O O8 0.348434 0.861916 0.619093
O O9 0.525179 0.783387 0.644978
O O10 0.105598 0.740152 0.411579
O O11 0.287567 0.452243 0.622540
O O12 0.952009 0.224960 0.427400
O O13 0.385874 0.160909 0.667300
O O14 0.316417 0.253941 0.342302
O O15 0.673695 0.445082 0.806189
O O16 0.739811 0.519073 0.757904
#
# Coordination Sequence:
#
# PCOD8124844 Si02
#       8
#     4   4   4   4   4   4   4   4
#     4  10  22  40  62  86 116 150 191 239 291 350
#     4   9  20  38  56  82 117 149 189 242 288 340
#     4  10  21  37  56  85 120 151 194 243 285 338
#     4  10  20  35  55  80 110 151 193 236 289 343
#     4  11  22  39  62  87 115 154 192 235 296 349
#     4  10  20  36  58  82 114 158 195 231 291 345
#     4  10  20  35  55  81 114 151 193 238 282 338
#     4  10  21  38  61  89 118 150 194 240 284 343
#
# _framework density 21.889395
#
# number of rings (size 3 to 8) (size 9 to 14) (size 15 to 20)
#    0.000    2.000    0.000    3.750    0.000    3.000 
#    0.000   15.000    0.000    0.000    0.000    2.625 
#    0.000    0.000    0.000    0.000    0.000    0.000 
#
# Total GULP energy -396595.984652 kJ/mol
# GULP energy per Si atom -12393.624520 kJ/mol
# Density = 2.183957 g / cm^3
# Si number density = 21.889395 Si / 1000 Ang^3
#
#
#
# Elastic Constant Matrix: (Units=GPa)
#
#
# Indices 1 2 3 4 5 6 
#
# 1 95.9454 10.0398 34.7643 0.0000 -0.3031 0.0000
# 2 10.0398 34.7409 12.5688 0.0000 3.0084 0.0000
# 3 34.7643 12.5688 58.3288 0.0000 2.7824 0.0000
# 4 0.0000 0.0000 0.0000 25.5123 0.0000 -2.2170
# 5 -0.3031 3.0084 2.7824 0.0000 29.9690 0.0000
# 6 0.0000 0.0000 0.0000 -2.2170 0.0000 33.0728
#
#
#
# Elastic Compliance Matrix: (Units=1/GPa)
#
#
# Indices 1 2 3 4 5 6 
#
# 1 0.013357 -0.001136 -0.007762 0.000000 0.000970 0.000000
# 2 -0.001136 0.031505 -0.005987 0.000000 -0.002618 0.000000
# 3 -0.007762 -0.005987 0.023138 0.000000 -0.001626 0.000000
# 4 0.000000 0.000000 0.000000 0.039426 0.000000 0.002643
# 5 0.000970 -0.002618 -0.001626 0.000000 0.033791 0.000000
# 6 0.000000 0.000000 0.000000 0.002643 0.000000 0.030414
#
#
# Mechanical properties :
#
#
# Convention : Reuss Voigt Hill
#
# Bulk Modulus (GPa) = 26.15714 33.75120 29.95417
# Shear Modulus (GPa) = 23.34855 26.48698 24.91776
#
# Velocity S-wave (km/s) = 3.26952 3.48233 3.37760
# Velocity P-wave (km/s) = 5.12139 5.62328 5.37819
#
# Compressibility (1/GPa) = 0.03823048
#
# Stress axis : x y z
#
# Youngs Moduli (GPa) = 74.86656 31.74050 43.21840
#
# Poissons Ratio (x) = 0.03605 0.33548
# Poissons Ratio (y) = 0.08503 0.25875
# Poissons Ratio (z) = 0.58115 0.19003
#
# Static dielectric constant tensor:
#      x y z
#    x 3.953580 0.000000 -0.132430 
#    y 0.000000 3.907650 0.000000 
#    z -0.132430 0.000000 3.763380 
# 
# 
# High freq. dielectric constant tensor:
#      x y z
#    x 1.865210 0.000000 -0.016290 
#    y 0.000000 1.854880 0.000000 
#    z -0.016290 0.000000 1.848600 
# 
# From -- ./inp_files/80412.got.cif
#   From: 2010.03.12/outbox.cif.g09.slc.cpg/sg14_41_cif.got.tgz:80412.got - 2010.03.31 13:35:05.
