data_PCOD8124291
_publ_section_title
;
Structure prediction by ZEFSAII (Michael W. Deem and Ramdas Pophale) SiO2 
 PCOD8124291
Probable space group: P 21/C
;
_chemical_formula_sum "Si O2"
_cell_formula_units_Z 32
_cell_length_a 11.539238
_cell_length_b 13.181577
_cell_length_c 22.014299
_cell_angle_alpha 90.000000
_cell_angle_beta 148.768327
_cell_angle_gamma 90.000000
_cell_volume 1736.192733
_symmetry_space_group_name_H-M "P 21/C"
_symmetry_group_IT_number 14
_symmetry_cell_setting 'monoclinic'
loop_
_space_group_symop_operation_xyz
x,y,z
-x,1/2+y,1/2-z
-x,-y,-z
x,1/2-y,1/2+z
loop_
_atom_site_type_symbol
_atom_site_label
_atom_site_fract_x
_atom_site_fract_y
_atom_site_fract_z
Si Si1 0.965169 0.118549 0.330596
Si Si2 0.654716 0.719394 0.805264
Si Si3 0.007474 0.554702 0.938169
Si Si4 0.685300 0.104417 0.769485
Si Si5 0.397746 0.390762 0.943239
Si Si6 0.519316 0.607426 0.156101
Si Si7 0.860628 0.703256 0.516750
Si Si8 0.563177 0.256736 0.609200
O O1 0.757346 0.160402 0.198755
O O2 0.160272 0.110099 0.369530
O O3 0.021053 0.191294 0.412407
O O4 0.910139 0.013504 0.339549
O O5 0.453780 0.645452 0.735450
O O6 0.552726 0.790991 0.708722
O O7 0.859290 0.655033 0.870867
O O8 0.746998 0.790021 0.900368
O O9 0.258903 0.582807 0.033535
O O10 0.000000 0.500000 0.000000
O O11 0.597277 0.164478 0.671477
O O12 0.951625 0.116162 0.898594
O O13 0.644129 0.985562 0.744193
O O14 0.370940 0.372116 0.860019
O O15 0.500000 0.500000 0.000000
O O16 0.550180 0.298914 0.038203
O O17 0.666210 0.682370 0.479093
#
# Coordination Sequence:
#
# PCOD8124291 Si02
#       8
#     4   4   4   4   4   4   4   4
#     4  10  20  37  64  86 114 159 200 243 290 354
#     4  11  23  34  56  92 122 156 194 244 306 350
#     4  12  21  38  60  87 118 154 197 243 292 357
#     4  10  19  36  58  85 116 160 198 236 302 355
#     4  11  20  40  60  88 116 156 205 241 288 349
#     4  12  24  38  61  87 122 158 196 249 295 358
#     4   9  18  34  56  87 120 150 199 243 288 358
#     4   9  19  35  62  89 111 155 206 245 285 349
#
# _framework density 18.431134
#
# number of rings (size 3 to 8) (size 9 to 14) (size 15 to 20)
#    0.000    1.500    5.000    1.500    3.500    1.500 
#    0.000    1.250    0.000    1.500    0.000    0.000 
#    0.000    0.000    0.000    0.000    0.000    0.000 
#
# Total GULP energy -396815.690311 kJ/mol
# GULP energy per Si atom -12400.490322 kJ/mol
# Density = 1.838918 g / cm^3
# Si number density = 18.431134 Si / 1000 Ang^3
#
#
#
# Elastic Constant Matrix: (Units=GPa)
#
#
# Indices 1 2 3 4 5 6 
#
# 1 100.1960 47.3192 35.9931 0.0000 -8.6881 0.0000
# 2 47.3192 94.3181 47.6530 0.0000 -2.7801 0.0000
# 3 35.9931 47.6530 90.0259 0.0000 9.9021 0.0000
# 4 0.0000 0.0000 0.0000 39.1766 0.0000 -1.3379
# 5 -8.6881 -2.7801 9.9021 0.0000 32.2601 0.0000
# 6 0.0000 0.0000 0.0000 -1.3379 0.0000 28.4276
#
#
#
# Elastic Compliance Matrix: (Units=1/GPa)
#
#
# Indices 1 2 3 4 5 6 
#
# 1 0.014017 -0.005231 -0.003313 0.000000 0.004341 0.000000
# 2 -0.005231 0.016871 -0.007083 0.000000 0.002219 0.000000
# 3 -0.003313 -0.007083 0.016918 0.000000 -0.006696 0.000000
# 4 0.000000 0.000000 0.000000 0.025567 0.000000 0.001203
# 5 0.004341 0.002219 -0.006696 0.000000 0.034414 0.000000
# 6 0.000000 0.000000 0.000000 0.001203 0.000000 0.035234
#
#
# Mechanical properties :
#
#
# Convention : Reuss Voigt Hill
#
# Bulk Modulus (GPa) = 60.41239 60.71895 60.56567
# Shear Modulus (GPa) = 27.81016 30.21116 29.01066
#
# Velocity S-wave (km/s) = 3.88863 4.05302 3.97167
# Velocity P-wave (km/s) = 7.28083 7.41066 7.34603
#
# Compressibility (1/GPa) = 0.01655290
#
# Stress axis : x y z
#
# Youngs Moduli (GPa) = 71.34073 59.27486 59.10840
#
# Poissons Ratio (x) = 0.31004 0.19583
# Poissons Ratio (y) = 0.37316 0.41866
# Poissons Ratio (z) = 0.23635 0.41984
#
# Static dielectric constant tensor:
#      x y z
#    x 3.540060 0.000000 0.181060 
#    y 0.000000 3.287330 0.000000 
#    z 0.181060 0.000000 3.463530 
# 
# 
# High freq. dielectric constant tensor:
#      x y z
#    x 1.716260 0.000000 0.012380 
#    y 0.000000 1.700680 0.000000 
#    z 0.012380 0.000000 1.710990 
# 
# From -- ./inp_files/29048.got.cif
#   From: 2010.03.12/outbox.cif.g09.slc.cpg/sg14_15_cif.got.tgz:29048.got - 2010.03.31 13:35:05.
