data_PCOD8124496
_publ_section_title
;
Structure prediction by ZEFSAII (Michael W. Deem and Ramdas Pophale) SiO2 
 PCOD8124496
Probable space group: P 21/C
;
_chemical_formula_sum "Si O2"
_cell_formula_units_Z 28
_cell_length_a 9.032582
_cell_length_b 17.857447
_cell_length_c 17.532813
_cell_angle_alpha 90.000000
_cell_angle_beta 151.112493
_cell_angle_gamma 90.000000
_cell_volume 1366.193653
_symmetry_space_group_name_H-M "P 21/C"
_symmetry_group_IT_number 14
_symmetry_cell_setting 'monoclinic'
loop_
_space_group_symop_operation_xyz
x,y,z
-x,1/2+y,1/2-z
-x,-y,-z
x,1/2-y,1/2+z
loop_
_atom_site_type_symbol
_atom_site_label
_atom_site_fract_x
_atom_site_fract_y
_atom_site_fract_z
Si Si1 0.516144 0.389173 0.509999
Si Si2 0.621697 0.427079 0.322632
Si Si3 0.449883 0.491497 0.094373
Si Si4 0.999550 0.507147 0.762906
Si Si5 0.317777 0.083346 0.087266
Si Si6 0.272827 0.796973 0.022339
Si Si7 0.421984 0.346528 0.785658
O O1 0.401082 0.379248 0.544475
O O2 0.584594 0.310984 0.497885
O O3 0.832806 0.435837 0.649707
O O4 0.251546 0.428373 0.341116
O O5 0.407681 0.441301 0.151757
O O6 0.573151 0.496785 0.358801
O O7 0.554629 0.351392 0.338778
O O8 0.958665 0.420782 0.439756
O O9 0.727869 0.461461 0.167478
O O10 0.536885 0.577315 0.149546
O O11 0.129460 0.485667 0.904907
O O12 0.481712 0.135591 0.223775
O O13 0.326409 0.711854 0.070979
O O14 0.913442 0.812041 0.855361
#
# Coordination Sequence:
#
# PCOD8124496 Si02
#       7
#     4   4   4   4   4   4   4
#     4  11  20  37  58  93 113 154 191 253 290 360
#     4   9  17  36  62  84 112 157 195 241 292 347
#     4  10  19  38  59  91 117 156 194 254 293 350
#     4  10  20  32  61  91 121 140 194 251 301 339
#     4   9  18  36  62  86 113 148 201 244 288 343
#     4  11  23  40  61  83 122 161 199 235 304 362
#     4  10  23  42  59  82 120 166 192 240 298 367
#
# _framework density 20.494897999999999
#
# number of rings (size 3 to 8) (size 9 to 14) (size 15 to 20)
#    0.000    2.000    2.857    2.571    2.000    0.000 
#    2.571    7.857    0.000    0.000    0.000    0.000 
#    0.000    0.000    0.000    0.000    0.000    0.000 
#
# Total GULP energy -347078.897201 kJ/mol
# GULP energy per Si atom -12395.674900 kJ/mol
# Density = 2.044825 g / cm^3
# Si number density = 20.494898 Si / 1000 Ang^3
#
#
#
# Elastic Constant Matrix: (Units=GPa)
#
#
# Indices 1 2 3 4 5 6 
#
# 1 80.3390 -8.0037 7.3767 0.0000 -6.3410 0.0000
# 2 -8.0037 27.9447 0.6256 0.0000 9.0348 0.0000
# 3 7.3767 0.6256 100.6627 0.0000 -5.0210 0.0000
# 4 0.0000 0.0000 0.0000 23.3440 0.0000 -11.4079
# 5 -6.3410 9.0348 -5.0210 0.0000 21.4191 0.0000
# 6 0.0000 0.0000 0.0000 -11.4079 0.0000 20.2656
#
#
#
# Elastic Compliance Matrix: (Units=1/GPa)
#
#
# Indices 1 2 3 4 5 6 
#
# 1 0.013011 0.002970 -0.000852 0.000000 0.002399 0.000000
# 2 0.002970 0.042244 -0.001341 0.000000 -0.017254 0.000000
# 3 -0.000852 -0.001341 0.010139 0.000000 0.002690 0.000000
# 4 0.000000 0.000000 0.000000 0.059094 0.000000 0.033265
# 5 0.002399 -0.017254 0.002690 0.000000 0.055306 0.000000
# 6 0.000000 0.000000 0.000000 0.033265 0.000000 0.068070
#
#
# Mechanical properties :
#
#
# Convention : Reuss Voigt Hill
#
# Bulk Modulus (GPa) = 14.93712 23.21595 19.07654
# Shear Modulus (GPa) = 18.61322 26.93559 22.77440
#
# Velocity S-wave (km/s) = 3.01689 3.62920 3.33712
# Velocity P-wave (km/s) = 4.40902 5.37715 4.91697
#
# Compressibility (1/GPa) = 0.06694731
#
# Stress axis : x y z
#
# Youngs Moduli (GPa) = 76.85960 23.67206 98.62780
#
# Poissons Ratio (x) = -0.07030 0.08405
# Poissons Ratio (y) = -0.22826 0.13224
# Poissons Ratio (z) = 0.06550 0.03174
#
# Static dielectric constant tensor:
#      x y z
#    x 3.679610 0.000000 -0.225600 
#    y 0.000000 3.426110 0.000000 
#    z -0.225600 0.000000 3.791940 
# 
# 
# High freq. dielectric constant tensor:
#      x y z
#    x 1.809160 0.000000 -0.009500 
#    y 0.000000 1.760820 0.000000 
#    z -0.009500 0.000000 1.804430 
# 
# From -- ./inp_files/56166.got.cif
#   From: 2010.03.12/outbox.cif.g09.slc.cpg/sg14_29_cif.got.tgz:56166.got - 2010.03.31 13:35:05.
