data_PCOD8124056
_publ_section_title
;
Structure prediction by ZEFSAII (Michael W. Deem and Ramdas Pophale) SiO2 
 PCOD8124056
Probable space group: P 21/C
;
_chemical_formula_sum "Si O2"
_cell_formula_units_Z 20
_cell_length_a 9.315988
_cell_length_b 21.785285
_cell_length_c 5.198793
_cell_angle_alpha 90.000000
_cell_angle_beta 79.418058
_cell_angle_gamma 90.000000
_cell_volume 1037.158758
_symmetry_space_group_name_H-M "P 21/C"
_symmetry_group_IT_number 14
_symmetry_cell_setting 'monoclinic'
loop_
_space_group_symop_operation_xyz
x,y,z
-x,1/2+y,1/2-z
-x,-y,-z
x,1/2-y,1/2+z
loop_
_atom_site_type_symbol
_atom_site_label
_atom_site_fract_x
_atom_site_fract_y
_atom_site_fract_z
Si Si1 0.426412 0.788101 0.145677
Si Si2 0.762185 0.408319 0.296262
Si Si3 0.941478 0.592290 0.573959
Si Si4 0.815459 0.472652 0.769460
Si Si5 0.233570 0.288059 0.449194
O O1 0.382961 0.742091 0.389135
O O2 0.338874 0.850187 0.212160
O O3 0.596367 0.804742 0.099298
O O4 0.715894 0.446310 0.567437
O O5 0.931509 0.386551 0.268166
O O6 0.742566 0.453196 0.060049
O O7 0.826850 0.546563 0.752034
O O8 0.856842 0.649937 0.488251
O O9 0.019369 0.555460 0.311914
O O10 0.190426 0.243449 0.695730
#
# Coordination Sequence:
#
# PCOD8124056 Si02
#       5
#     4   4   4   4   4
#     4  10  21  38  53  74 109 144 172 220 265 305
#     4  10  19  34  55  79 103 136 180 209 260 318
#     4   9  21  35  58  76 113 134 174 218 262 311
#     4   9  20  34  56  81 107 137 169 219 271 299
#     4  10  23  37  54  77 107 141 177 213 265 310
#
# _framework density 19.283449999999998
#
# number of rings (size 3 to 8) (size 9 to 14) (size 15 to 20)
#    1.200    1.200    0.000    1.800    2.800    1.600 
#    0.000    2.000    0.000    0.000    0.000    0.000 
#    0.000    0.000    0.000    0.000    0.000    0.000 
#
# Total GULP energy -247918.073223 kJ/mol
# GULP energy per Si atom -12395.903661 kJ/mol
# Density = 1.923956 g / cm^3
# Si number density = 19.283450 Si / 1000 Ang^3
#
#
#
# Elastic Constant Matrix: (Units=GPa)
#
#
# Indices 1 2 3 4 5 6 
#
# 1 31.2716 37.2394 14.1300 0.0000 6.8220 0.0000
# 2 37.2394 87.7936 3.7824 0.0000 2.8601 0.0000
# 3 14.1300 3.7824 96.3874 0.0000 9.3719 0.0000
# 4 0.0000 0.0000 0.0000 20.7125 0.0000 18.9799
# 5 6.8220 2.8601 9.3719 0.0000 12.8563 0.0000
# 6 0.0000 0.0000 0.0000 18.9799 0.0000 -83.0702
#
#
#
# Elastic Compliance Matrix: (Units=1/GPa)
#
#
# Indices 1 2 3 4 5 6 
#
# 1 0.081892 -0.033413 -0.007740 0.000000 -0.030379 0.000000
# 2 -0.033413 0.025111 0.002940 0.000000 0.010000 0.000000
# 3 -0.007740 0.002940 0.011902 0.000000 -0.005223 0.000000
# 4 0.000000 0.000000 0.000000 0.039922 0.000000 0.009121
# 5 -0.030379 0.010000 -0.005223 0.000000 0.095486 0.000000
# 6 0.000000 0.000000 0.000000 0.009121 0.000000 -0.009954
#
#
# Mechanical properties :
#
#
# Convention : Reuss Voigt Hill
#
# Bulk Modulus (GPa) = 23.54075 36.19512 29.86794
# Shear Modulus (GPa) = 14.92795 0.78645 7.85720
#
# Velocity S-wave (km/s) = 2.78534 0.63932 2.02075
# Velocity P-wave (km/s) = 4.75168 4.39952 4.57898
#
# Compressibility (1/GPa) = 0.04247953
#
# Stress axis : x y z
#
# Youngs Moduli (GPa) = 12.21125 39.82385 84.02002
#
# Poissons Ratio (x) = 1.33063 0.65031
# Poissons Ratio (y) = 0.40801 -0.24706
# Poissons Ratio (z) = 0.09451 -0.11710
#
# Static dielectric constant tensor:
#      x y z
#    x 3.220050 0.000000 0.073480 
#    y 0.000000 3.303040 0.000000 
#    z 0.073480 0.000000 3.527190 
# 
# 
# High freq. dielectric constant tensor:
#      x y z
#    x 1.719150 0.000000 0.009250 
#    y 0.000000 1.748430 0.000000 
#    z 0.009250 0.000000 1.755710 
# 
# From -- ./inp_files/1189.got.cif
#   From: 2010.03.12/outbox.cif.g09.slc.cpg/sg14_1_cif.got.tgz:1189.got - 2010.03.31 13:35:05.
