data_PCOD8124040
_publ_section_title
;
Structure prediction by ZEFSAII (Michael W. Deem and Ramdas Pophale) SiO2 
 PCOD8124040
Probable space group: P 21/C
;
_chemical_formula_sum "Si O2"
_cell_formula_units_Z 28
_cell_length_a 15.026182
_cell_length_b 5.192304
_cell_length_c 25.572659
_cell_angle_alpha 90.000000
_cell_angle_beta 133.636834
_cell_angle_gamma 90.000000
_cell_volume 1443.976891
_symmetry_space_group_name_H-M "P 21/C"
_symmetry_group_IT_number 14
_symmetry_cell_setting 'monoclinic'
loop_
_space_group_symop_operation_xyz
x,y,z
-x,1/2+y,1/2-z
-x,-y,-z
x,1/2-y,1/2+z
loop_
_atom_site_type_symbol
_atom_site_label
_atom_site_fract_x
_atom_site_fract_y
_atom_site_fract_z
Si Si1 0.569363 0.608017 0.715881
Si Si2 0.073171 0.773940 0.080121
Si Si3 0.162743 0.930398 0.515951
Si Si4 0.976828 0.325157 0.272236
Si Si5 0.584815 0.893248 0.343119
Si Si6 0.976688 0.144282 0.117668
Si Si7 0.820557 0.024291 0.277948
O O1 0.471393 0.382999 0.664849
O O2 0.617208 0.592903 0.794888
O O3 0.682260 0.582389 0.720777
O O4 0.511114 0.884456 0.680714
O O5 0.148377 0.784555 0.056335
O O6 0.160296 0.632324 0.156425
O O7 0.045953 0.057112 0.092114
O O8 0.941293 0.643304 0.018619
O O9 0.144554 0.796889 0.451327
O O10 0.294100 0.067413 0.572674
O O11 0.959393 0.573032 0.227609
O O12 0.058900 0.411801 0.356788
O O13 0.843111 0.238088 0.241381
O O14 0.074308 0.311585 0.190183
#
# Coordination Sequence:
#
# PCOD8124040 Si02
#       7
#     4   4   4   4   4   4   4
#     4  10  22  36  52  80 111 162 201 233 270 318
#     4   9  19  31  52  81 120 154 191 231 283 344
#     4  10  19  34  49  83 118 163 191 233 278 336
#     4  11  22  39  59  88 117 140 181 245 310 357
#     4  10  22  35  53  76 118 160 202 234 259 321
#     4  10  21  33  58  87 115 149 188 236 293 356
#     4  10  20  36  58  84 116 150 192 237 291 352
#
# _framework density 19.390891
#
# number of rings (size 3 to 8) (size 9 to 14) (size 15 to 20)
#    0.000    2.000    2.857    0.429    6.000    1.143 
#    0.000    0.000    0.000    0.000    0.000    6.000 
#    0.000    0.000    0.000    0.000    0.000    0.000 
#
# Total GULP energy -346930.669783 kJ/mol
# GULP energy per Si atom -12390.381064 kJ/mol
# Density = 1.934676 g / cm^3
# Si number density = 19.390891 Si / 1000 Ang^3
#
#
#
# Elastic Constant Matrix: (Units=GPa)
#
#
# Indices 1 2 3 4 5 6 
#
# 1 62.3313 8.4712 17.7136 0.0000 -11.5348 0.0000
# 2 8.4712 65.2837 -0.2445 0.0000 -15.4465 0.0000
# 3 17.7136 -0.2445 42.2602 0.0000 2.0567 0.0000
# 4 0.0000 0.0000 0.0000 21.8600 0.0000 -14.2521
# 5 -11.5348 -15.4465 2.0567 0.0000 17.0345 0.0000
# 6 0.0000 0.0000 0.0000 -14.2521 0.0000 26.6638
#
#
#
# Elastic Compliance Matrix: (Units=1/GPa)
#
#
# Indices 1 2 3 4 5 6 
#
# 1 0.021888 0.001165 -0.009999 0.000000 0.017085 0.000000
# 2 0.001165 0.019588 -0.001285 0.000000 0.018706 0.000000
# 3 -0.009999 -0.001285 0.028400 0.000000 -0.011365 0.000000
# 4 0.000000 0.000000 0.000000 0.070214 0.000000 0.037530
# 5 0.017085 0.018706 -0.011365 0.000000 0.088608 0.000000
# 6 0.000000 0.000000 0.000000 0.037530 0.000000 0.057564
#
#
# Mechanical properties :
#
#
# Convention : Reuss Voigt Hill
#
# Bulk Modulus (GPa) = 20.14656 24.63953 22.39305
# Shear Modulus (GPa) = 15.47760 22.70731 19.09246
#
# Velocity S-wave (km/s) = 2.82829 3.42574 3.14125
# Velocity P-wave (km/s) = 4.59107 5.32747 4.97292
#
# Compressibility (1/GPa) = 0.04963627
#
# Stress axis : x y z
#
# Youngs Moduli (GPa) = 45.68628 51.05248 35.21134
#
# Poissons Ratio (x) = -0.05946 0.35209
# Poissons Ratio (y) = -0.05321 0.04526
# Poissons Ratio (z) = 0.45684 0.06562
#
# Static dielectric constant tensor:
#      x y z
#    x 3.405340 0.000000 -0.174130 
#    y 0.000000 3.799930 0.000000 
#    z -0.174130 0.000000 3.416090 
# 
# 
# High freq. dielectric constant tensor:
#      x y z
#    x 1.720220 0.000000 -0.007930 
#    y 0.000000 1.774800 0.000000 
#    z -0.007930 0.000000 1.723480 
# 
# From -- ./inp_files/77426.got.cif
#   From: 2010.03.12/outbox.cif.g09.slc.cpg/sg14_39_cif.got.tgz:77426.got - 2010.03.31 13:35:05.
