data_PCOD8124992
_publ_section_title
;
Structure prediction by ZEFSAII (Michael W. Deem and Ramdas Pophale) SiO2 
 PCOD8124992
Probable space group: P 21/C
;
_chemical_formula_sum "Si O2"
_cell_formula_units_Z 24
_cell_length_a 14.801535
_cell_length_b 9.161648
_cell_length_c 8.851529
_cell_angle_alpha 90.000000
_cell_angle_beta 90.131988
_cell_angle_gamma 90.000000
_cell_volume 1200.321271
_symmetry_space_group_name_H-M "P 21/C"
_symmetry_group_IT_number 14
_symmetry_cell_setting 'monoclinic'
loop_
_space_group_symop_operation_xyz
x,y,z
-x,1/2+y,1/2-z
-x,-y,-z
x,1/2-y,1/2+z
loop_
_atom_site_type_symbol
_atom_site_label
_atom_site_fract_x
_atom_site_fract_y
_atom_site_fract_z
Si Si1 0.576393 0.629026 0.832335
Si Si2 0.732096 0.124966 0.832231
Si Si3 0.717353 0.072275 0.176821
Si Si4 0.935688 0.331580 0.375293
Si Si5 0.077844 0.944925 0.797991
Si Si6 0.594977 0.928556 0.675277
O O1 0.649545 0.552921 0.726389
O O2 0.565346 0.795743 0.781846
O O3 0.480195 0.553049 0.812968
O O4 0.609235 0.626022 0.005070
O O5 0.701136 0.283812 0.776060
O O6 0.839789 0.106321 0.816771
O O7 0.689075 0.997191 0.731479
O O8 0.698293 0.112121 0.003427
O O9 0.817779 0.007446 0.199088
O O10 0.946675 0.351493 0.553510
O O11 0.942484 0.159206 0.344182
O O12 0.015556 0.413098 0.285879
#
# Coordination Sequence:
#
# PCOD8124992 Si02
#       6
#     4   4   4   4   4   4
#     4  11  24  40  59  83 111 144 181 223 272 325
#     4  10  20  36  58  82 111 146 184 227 273 323
#     4  10  20  36  58  82 111 146 184 227 273 323
#     4   9  19  35  54  79 110 144 182 223 269 320
#     4   9  19  35  54  79 110 144 182 223 269 320
#     4  11  24  40  59  83 111 144 181 223 272 325
#
# _framework density 19.994647000000001
#
# number of rings (size 3 to 8) (size 9 to 14) (size 15 to 20)
#    0.000    2.000    0.000    3.000    0.000    8.667 
#    0.000    3.333    0.000    0.000    0.000    0.000 
#    0.000    0.000    0.000    0.000    0.000    0.000 
#
# Total GULP energy -297727.051903 kJ/mol
# GULP energy per Si atom -12405.293829 kJ/mol
# Density = 1.994914 g / cm^3
# Si number density = 19.994647 Si / 1000 Ang^3
#
#
#
# Elastic Constant Matrix: (Units=GPa)
#
#
# Indices 1 2 3 4 5 6 
#
# 1 63.3688 16.2752 29.7367 0.0000 -2.4157 0.0000
# 2 16.2752 55.0768 12.3482 0.0000 7.2243 0.0000
# 3 29.7367 12.3482 65.7176 0.0000 3.9849 0.0000
# 4 0.0000 0.0000 0.0000 35.0452 0.0000 -5.7411
# 5 -2.4157 7.2243 3.9849 0.0000 28.4037 0.0000
# 6 0.0000 0.0000 0.0000 -5.7411 0.0000 38.1089
#
#
#
# Elastic Compliance Matrix: (Units=1/GPa)
#
#
# Indices 1 2 3 4 5 6 
#
# 1 0.021445 -0.004876 -0.009050 0.000000 0.004334 0.000000
# 2 -0.004876 0.020614 -0.001335 0.000000 -0.005471 0.000000
# 3 -0.009050 -0.001335 0.019757 0.000000 -0.003202 0.000000
# 4 0.000000 0.000000 0.000000 0.029257 0.000000 0.004408
# 5 0.004334 -0.005471 -0.003202 0.000000 0.037416 0.000000
# 6 0.000000 0.000000 0.000000 0.004408 0.000000 0.026905
#
#
# Mechanical properties :
#
#
# Convention : Reuss Voigt Hill
#
# Bulk Modulus (GPa) = 31.95638 33.43148 32.69393
# Shear Modulus (GPa) = 25.46494 28.69843 27.08169
#
# Velocity S-wave (km/s) = 3.57261 3.79265 3.68427
# Velocity P-wave (km/s) = 5.74763 5.99462 5.87242
#
# Compressibility (1/GPa) = 0.03129266
#
# Stress axis : x y z
#
# Youngs Moduli (GPa) = 46.63030 48.50988 50.61534
#
# Poissons Ratio (x) = 0.23656 0.45809
# Poissons Ratio (y) = 0.22739 0.06758
# Poissons Ratio (z) = 0.42202 0.06477
#
# Static dielectric constant tensor:
#      x y z
#    x 3.671470 0.000000 0.027210 
#    y 0.000000 3.491940 0.000000 
#    z 0.027210 0.000000 3.725830 
# 
# 
# High freq. dielectric constant tensor:
#      x y z
#    x 1.785180 0.000000 0.000740 
#    y 0.000000 1.771720 0.000000 
#    z 0.000740 0.000000 1.788190 
# 
# From -- ./inp_files/15011.got.cif
#   From: 2010.03.12/outbox.cif.g09.slc.cpg/sg14_8_cif.got.tgz:15011.got - 2010.03.31 13:35:05.
