data_PCOD8124984
_publ_section_title
;
Structure prediction by ZEFSAII (Michael W. Deem and Ramdas Pophale) SiO2 
 PCOD8124984
Probable space group: P 21/C
;
_chemical_formula_sum "Si O2"
_cell_formula_units_Z 24
_cell_length_a 14.385256
_cell_length_b 9.047094
_cell_length_c 18.268048
_cell_angle_alpha 90.000000
_cell_angle_beta 29.876112
_cell_angle_gamma 90.000000
_cell_volume 1184.290606
_symmetry_space_group_name_H-M "P 21/C"
_symmetry_group_IT_number 14
_symmetry_cell_setting 'monoclinic'
loop_
_space_group_symop_operation_xyz
x,y,z
-x,1/2+y,1/2-z
-x,-y,-z
x,1/2-y,1/2+z
loop_
_atom_site_type_symbol
_atom_site_label
_atom_site_fract_x
_atom_site_fract_y
_atom_site_fract_z
Si Si1 0.000305 0.171029 0.284654
Si Si2 0.637149 0.710788 0.387578
Si Si3 0.653373 0.389057 0.309543
Si Si4 0.427988 0.799197 0.394468
Si Si5 0.977767 0.644225 0.864484
Si Si6 0.381647 0.465794 0.813250
O O1 0.148281 0.250709 0.239191
O O2 0.059491 0.213871 0.161537
O O3 0.791098 0.225437 0.441492
O O4 0.017048 0.994888 0.283789
O O5 0.625975 0.551348 0.359517
O O6 0.515636 0.713729 0.545565
O O7 0.546230 0.818598 0.388788
O O8 0.655091 0.403161 0.220591
O O9 0.846341 0.318918 0.204783
O O10 0.479605 0.656745 0.311546
O O11 0.468016 0.951756 0.324550
O O12 0.809731 0.614863 0.034584
#
# Coordination Sequence:
#
# PCOD8124984 Si02
#       6
#     4   4   4   4   4   4
#     4  10  21  36  59  83 113 148 193 233 275 337
#     4   9  18  34  60  81 108 151 195 224 274 341
#     4   9  17  34  59  82 106 151 194 231 271 334
#     4  10  21  40  55  85 116 149 185 240 278 337
#     4  10  20  36  57  88 112 146 191 238 278 332
#     4  10  22  34  58  84 118 145 189 234 287 325
#
# _framework density 20.265297
#
# number of rings (size 3 to 8) (size 9 to 14) (size 15 to 20)
#    0.000    2.333    1.667    0.500    4.667    1.333 
#    0.000    5.833    0.000    0.000    0.000    0.000 
#    0.000    0.000    0.000    0.000    0.000    0.000 
#
# Total GULP energy -297503.970103 kJ/mol
# GULP energy per Si atom -12395.998754 kJ/mol
# Density = 2.021917 g / cm^3
# Si number density = 20.265297 Si / 1000 Ang^3
#
#
#
# Elastic Constant Matrix: (Units=GPa)
#
#
# Indices 1 2 3 4 5 6 
#
# 1 53.1499 -4.6326 30.9271 0.0000 -13.4863 0.0000
# 2 -4.6326 16.9112 8.6315 0.0000 -0.8226 0.0000
# 3 30.9271 8.6315 84.2215 0.0000 2.6987 0.0000
# 4 0.0000 0.0000 0.0000 16.3241 0.0000 8.8996
# 5 -13.4863 -0.8226 2.6987 0.0000 37.6694 0.0000
# 6 0.0000 0.0000 0.0000 8.8996 0.0000 31.3217
#
#
#
# Elastic Compliance Matrix: (Units=1/GPa)
#
#
# Indices 1 2 3 4 5 6 
#
# 1 0.031264 0.016078 -0.013529 0.000000 0.012513 0.000000
# 2 0.016078 0.070790 -0.013424 0.000000 0.008264 0.000000
# 3 -0.013529 -0.013424 0.018424 0.000000 -0.006457 0.000000
# 4 0.000000 0.000000 0.000000 0.072488 0.000000 -0.020597
# 5 0.012513 0.008264 -0.006457 0.000000 0.031670 0.000000
# 6 0.000000 0.000000 0.000000 -0.020597 0.000000 0.037779
#
#
# Mechanical properties :
#
#
# Convention : Reuss Voigt Hill
#
# Bulk Modulus (GPa) = 10.12881 24.90385 17.51633
# Shear Modulus (GPa) = 15.76920 25.02014 20.39467
#
# Velocity S-wave (km/s) = 2.79254 3.51754 3.17580
# Velocity P-wave (km/s) = 3.92513 5.36778 4.70211
#
# Compressibility (1/GPa) = 0.09872831
#
# Stress axis : x y z
#
# Youngs Moduli (GPa) = 31.98611 14.12625 54.27664
#
# Poissons Ratio (x) = -0.22712 0.73431
# Poissons Ratio (y) = -0.51428 0.72860
# Poissons Ratio (z) = 0.43274 0.18963
#
# Static dielectric constant tensor:
#      x y z
#    x 3.986280 0.000000 0.076530 
#    y 0.000000 3.282500 0.000000 
#    z 0.076530 0.000000 3.847270 
# 
# 
# High freq. dielectric constant tensor:
#      x y z
#    x 1.798510 0.000000 -0.002100 
#    y 0.000000 1.751000 0.000000 
#    z -0.002100 0.000000 1.799070 
# 
# From -- ./inp_files/39244.got.cif
#   From: 2010.03.12/outbox.cif.g09.slc.cpg/sg14_20_cif.got.tgz:39244.got - 2010.03.31 13:35:05.
