data_PCOD8124217
_publ_section_title
;
Structure prediction by ZEFSAII (Michael W. Deem and Ramdas Pophale) SiO2 
 PCOD8124217
Probable space group: P 21/C
;
_chemical_formula_sum "Si O2"
_cell_formula_units_Z 28
_cell_length_a 9.286992
_cell_length_b 14.947887
_cell_length_c 11.172902
_cell_angle_alpha 90.000000
_cell_angle_beta 105.808203
_cell_angle_gamma 90.000000
_cell_volume 1492.370796
_symmetry_space_group_name_H-M "P 21/C"
_symmetry_group_IT_number 14
_symmetry_cell_setting 'monoclinic'
loop_
_space_group_symop_operation_xyz
x,y,z
-x,1/2+y,1/2-z
-x,-y,-z
x,1/2-y,1/2+z
loop_
_atom_site_type_symbol
_atom_site_label
_atom_site_fract_x
_atom_site_fract_y
_atom_site_fract_z
Si Si1 0.759107 0.146161 0.674693
Si Si2 0.142762 0.453799 0.470855
Si Si3 0.595175 0.054644 0.835423
Si Si4 0.716921 0.035971 0.218347
Si Si5 0.690366 0.187194 0.034400
Si Si6 0.090838 0.589074 0.022389
Si Si7 0.960852 0.285250 0.433626
O O1 0.657155 0.072656 0.716928
O O2 0.652670 0.213939 0.574192
O O3 0.859521 0.095023 0.602873
O O4 0.866370 0.199094 0.791081
O O5 0.295639 0.483129 0.572933
O O6 0.161071 0.482500 0.335403
O O7 0.000000 0.500000 0.500000
O O8 0.111782 0.346382 0.467833
O O9 0.426985 0.023596 0.788316
O O10 0.587910 0.150538 0.903051
O O11 0.663413 0.123400 0.138947
O O12 0.773785 0.071118 0.357455
O O13 0.862114 0.185209 0.026025
O O14 0.001518 0.679220 0.044698
O O15 0.000000 0.500000 0.000000
#
# Coordination Sequence:
#
# PCOD8124217 Si02
#       7
#     4   4   4   4   4   4   4
#     4  10  19  37  59  86 115 159 201 229 298 372
#     4  11  18  34  65  93 114 149 206 251 293 352
#     4  10  22  36  60  90 120 156 198 250 303 355
#     4  11  21  38  58  88 123 154 193 254 310 351
#     4   9  17  33  60  84 107 152 201 238 281 361
#     4  11  24  37  60  86 124 161 197 249 305 356
#     4  10  19  35  60  88 110 155 202 248 287 357
#
# _framework density 18.762093
#
# number of rings (size 3 to 8) (size 9 to 14) (size 15 to 20)
#    0.000    1.714    5.714    2.571    0.000    0.571 
#    0.000    2.857    3.143    0.000    0.000    0.000 
#    0.000    0.000    0.000    0.000    0.000    0.000 
#
# Total GULP energy -346894.112661 kJ/mol
# GULP energy per Si atom -12389.075452 kJ/mol
# Density = 1.871939 g / cm^3
# Si number density = 18.762093 Si / 1000 Ang^3
#
#
#
# Elastic Constant Matrix: (Units=GPa)
#
#
# Indices 1 2 3 4 5 6 
#
# 1 63.2422 47.2255 27.8580 0.0000 -15.5567 0.0000
# 2 47.2255 131.9540 36.3824 0.0000 -7.6450 0.0000
# 3 27.8580 36.3824 72.8802 0.0000 -26.2907 0.0000
# 4 0.0000 0.0000 0.0000 29.0780 0.0000 1.2198
# 5 -15.5567 -7.6450 -26.2907 0.0000 23.9554 0.0000
# 6 0.0000 0.0000 0.0000 1.2198 0.0000 31.7032
#
#
#
# Elastic Compliance Matrix: (Units=1/GPa)
#
#
# Indices 1 2 3 4 5 6 
#
# 1 0.025460 -0.008068 -0.001107 0.000000 0.012744 0.000000
# 2 -0.008068 0.011508 -0.005340 0.000000 -0.007428 0.000000
# 3 -0.001107 -0.005340 0.026380 0.000000 0.026529 0.000000
# 4 0.000000 0.000000 0.000000 0.034446 0.000000 -0.001325
# 5 0.012744 -0.007428 0.026529 0.000000 0.076765 0.000000
# 6 0.000000 0.000000 0.000000 -0.001325 0.000000 0.031594
#
#
# Mechanical properties :
#
#
# Convention : Reuss Voigt Hill
#
# Bulk Modulus (GPa) = 29.14021 54.55646 41.84834
# Shear Modulus (GPa) = 20.27394 27.38801 23.83098
#
# Velocity S-wave (km/s) = 3.29078 3.82482 3.56781
# Velocity P-wave (km/s) = 5.47761 6.97472 6.27100
#
# Compressibility (1/GPa) = 0.03431684
#
# Stress axis : x y z
#
# Youngs Moduli (GPa) = 39.27803 86.89518 37.90730
#
# Poissons Ratio (x) = 0.70110 0.04195
# Poissons Ratio (y) = 0.31691 0.20244
# Poissons Ratio (z) = 0.04347 0.46406
#
# Static dielectric constant tensor:
#      x y z
#    x 3.208770 0.000000 -0.278640 
#    y 0.000000 3.760960 0.000000 
#    z -0.278640 0.000000 3.332160 
# 
# 
# High freq. dielectric constant tensor:
#      x y z
#    x 1.696840 0.000000 -0.028210 
#    y 0.000000 1.733120 0.000000 
#    z -0.028210 0.000000 1.731210 
# 
# From -- ./inp_files/24965.got.cif
#   From: 2010.03.12/outbox.cif.g09.slc.cpg/sg14_13_cif.got.tgz:24965.got - 2010.03.31 13:35:05.
