data_PCOD8124787
_publ_section_title
;
Structure prediction by ZEFSAII (Michael W. Deem and Ramdas Pophale) SiO2 
 PCOD8124787
Probable space group: P 21/C
;
_chemical_formula_sum "Si O2"
_cell_formula_units_Z 32
_cell_length_a 25.336541
_cell_length_b 8.915043
_cell_length_c 20.745966
_cell_angle_alpha 90.000000
_cell_angle_beta 158.054250
_cell_angle_gamma 90.000000
_cell_volume 1751.300535
_symmetry_space_group_name_H-M "P 21/C"
_symmetry_group_IT_number 14
_symmetry_cell_setting 'monoclinic'
loop_
_space_group_symop_operation_xyz
x,y,z
-x,1/2+y,1/2-z
-x,-y,-z
x,1/2-y,1/2+z
loop_
_atom_site_type_symbol
_atom_site_label
_atom_site_fract_x
_atom_site_fract_y
_atom_site_fract_z
Si Si1 0.079157 0.324676 0.154108
Si Si2 0.344479 0.674246 0.646241
Si Si3 0.664345 0.825519 0.499585
Si Si4 0.920837 0.324694 0.845875
Si Si5 0.335662 0.674499 0.000429
Si Si6 0.344470 0.325733 0.646226
Si Si7 0.913020 0.675993 0.094178
Si Si8 0.086991 0.823971 0.405847
O O1 0.225076 0.232098 0.322130
O O2 0.115881 0.499990 0.194528
O O3 0.980832 0.281284 0.102827
O O4 0.000009 0.273945 0.000001
O O5 0.507276 0.704569 0.848810
O O6 0.308835 0.732531 0.534683
O O7 0.306105 0.499990 0.604209
O O8 0.246789 0.760535 0.586881
O O9 0.691171 0.732539 0.465332
O O10 0.686738 0.000009 0.509500
O O11 0.774912 0.232126 0.677852
O O12 0.019138 0.281300 0.897120
O O13 0.492732 0.704594 0.151206
O O14 0.246776 0.239439 0.586858
O O15 0.909704 0.499980 0.101806
O O16 0.999999 0.749966 0.250011
#
# Coordination Sequence:
#
# PCOD8124787 Si02
#       8
#     4   4   4   4   4   4   4   4
#     4  10  22  39  57  79 111 149 185 224 274 331
#     4  10  20  34  54  82 113 143 180 228 276 327
#     4  10  20  34  55  82 110 144 184 226 276 325
#     4  10  22  39  57  79 111 149 185 224 274 331
#     4  10  20  34  55  82 110 144 184 226 276 325
#     4  10  20  34  54  82 113 143 180 228 276 327
#     4  11  21  34  56  84 111 142 184 230 275 323
#     4  11  21  34  56  84 111 142 184 230 275 323
#
# _framework density 18.272134999999999
#
# number of rings (size 3 to 8) (size 9 to 14) (size 15 to 20)
#    0.000    1.750    2.500    2.250    0.000    4.500 
#    0.000    1.250    0.000    7.500    0.000    0.000 
#    0.000    0.000    0.000    0.000    0.000    0.000 
#
# Total GULP energy -396927.550744 kJ/mol
# GULP energy per Si atom -12403.985961 kJ/mol
# Density = 1.823055 g / cm^3
# Si number density = 18.272135 Si / 1000 Ang^3
#
#
#
# Elastic Constant Matrix: (Units=GPa)
#
#
# Indices 1 2 3 4 5 6 
#
# 1 104.1975 51.7970 70.2544 0.0000 2.2570 0.0000
# 2 51.7970 85.7405 60.5564 0.0000 6.2699 0.0000
# 3 70.2544 60.5564 144.5498 0.0000 4.7416 0.0000
# 4 0.0000 0.0000 0.0000 35.6692 0.0000 5.5540
# 5 2.2570 6.2699 4.7416 0.0000 29.9616 0.0000
# 6 0.0000 0.0000 0.0000 5.5540 0.0000 26.5630
#
#
#
# Elastic Compliance Matrix: (Units=1/GPa)
#
#
# Indices 1 2 3 4 5 6 
#
# 1 0.016214 -0.006070 -0.005367 0.000000 0.000898 0.000000
# 2 -0.006070 0.019007 -0.004923 0.000000 -0.002741 0.000000
# 3 -0.005367 -0.004923 0.011602 0.000000 -0.000402 0.000000
# 4 0.000000 0.000000 0.000000 0.028979 0.000000 -0.006059
# 5 0.000898 -0.002741 -0.000402 0.000000 0.033946 0.000000
# 6 0.000000 0.000000 0.000000 -0.006059 0.000000 0.038913
#
#
# Mechanical properties :
#
#
# Convention : Reuss Voigt Hill
#
# Bulk Modulus (GPa) = 70.90276 77.74480 74.32378
# Shear Modulus (GPa) = 26.87008 28.56410 27.71709
#
# Velocity S-wave (km/s) = 3.83893 3.95810 3.89897
# Velocity P-wave (km/s) = 7.65101 7.97053 7.81240
#
# Compressibility (1/GPa) = 0.01410382
#
# Stress axis : x y z
#
# Youngs Moduli (GPa) = 61.67633 52.61124 86.19397
#
# Poissons Ratio (x) = 0.31936 0.46257
# Poissons Ratio (y) = 0.37439 0.42430
# Poissons Ratio (z) = 0.33100 0.25898
#
# Static dielectric constant tensor:
#      x y z
#    x 3.372940 0.000000 0.310810 
#    y 0.000000 3.446420 0.000000 
#    z 0.310810 0.000000 3.546710 
# 
# 
# High freq. dielectric constant tensor:
#      x y z
#    x 1.688520 0.000000 0.023680 
#    y 0.000000 1.720480 0.000000 
#    z 0.023680 0.000000 1.711470 
# 
# From -- ./inp_files/70534.got.cif
#   From: 2010.03.12/outbox.cif.g09.slc.cpg/sg14_36_cif.got.tgz:70534.got - 2010.03.31 13:35:05.
