data_PCOD8124813
_publ_section_title
;
Structure prediction by ZEFSAII (Michael W. Deem and Ramdas Pophale) SiO2 
 PCOD8124813
Probable space group: P 21/C
;
_chemical_formula_sum "Si O2"
_cell_formula_units_Z 12
_cell_length_a 13.769448
_cell_length_b 8.672900
_cell_length_c 5.549422
_cell_angle_alpha 90.000000
_cell_angle_beta 144.002158
_cell_angle_gamma 90.000000
_cell_volume 389.515542
_symmetry_space_group_name_H-M "P 21/C"
_symmetry_group_IT_number 14
_symmetry_cell_setting 'monoclinic'
loop_
_space_group_symop_operation_xyz
x,y,z
-x,1/2+y,1/2-z
-x,-y,-z
x,1/2-y,1/2+z
loop_
_atom_site_type_symbol
_atom_site_label
_atom_site_fract_x
_atom_site_fract_y
_atom_site_fract_z
Si Si1 0.955081 0.676137 0.393629
Si Si2 0.697163 0.187169 0.686802
Si Si3 0.610425 0.880275 0.366369
O O1 0.023383 0.767389 0.768488
O O2 0.000000 0.500000 0.500000
O O3 0.754371 0.699807 0.992957
O O4 0.779507 0.225682 0.584900
O O5 0.511013 0.255656 0.249996
O O6 0.696900 0.001786 0.732000
O O7 0.500000 0.000000 0.000000
#
# Coordination Sequence:
#
# PCOD8124813 Si02
#       3
#     4   4   4
#     4  12  28  51  76 107 149 199 253 310 371 444
#     4  10  20  34  57  91 130 170 215 274 342 412
#     4  10  22  41  68 102 140 181 232 296 363 434
#
# _framework density 30.807500999999998
#
# number of rings (size 3 to 8) (size 9 to 14) (size 15 to 20)
#    0.000    1.333    0.000    6.000    0.000   10.667 
#    0.000    0.000    0.000    0.000    0.000    0.000 
#    0.000    0.000    0.000    0.000    0.000    0.000 
#
# Total GULP energy -148883.857975 kJ/mol
# GULP energy per Si atom -12406.988165 kJ/mol
# Density = 3.073738 g / cm^3
# Si number density = 30.807501 Si / 1000 Ang^3
#
#
#
# Elastic Constant Matrix: (Units=GPa)
#
#
# Indices 1 2 3 4 5 6 
#
# 1 298.1652 117.4421 91.5036 0.0000 5.1595 0.0000
# 2 117.4421 172.3431 8.5446 0.0000 -1.0269 0.0000
# 3 91.5036 8.5446 163.4276 0.0000 4.0802 0.0000
# 4 0.0000 0.0000 0.0000 42.0825 0.0000 1.6588
# 5 5.1595 -1.0269 4.0802 0.0000 42.7910 0.0000
# 6 0.0000 0.0000 0.0000 1.6588 0.0000 56.9899
#
#
#
# Elastic Compliance Matrix: (Units=1/GPa)
#
#
# Indices 1 2 3 4 5 6 
#
# 1 0.005788 -0.003797 -0.003030 0.000000 -0.000500 0.000000
# 2 -0.003797 0.008309 0.001679 0.000000 0.000497 0.000000
# 3 -0.003030 0.001679 0.007736 0.000000 -0.000332 0.000000
# 4 0.000000 0.000000 0.000000 0.023790 0.000000 -0.000692
# 5 -0.000500 0.000497 -0.000332 0.000000 0.023473 0.000000
# 6 0.000000 0.000000 0.000000 -0.000692 0.000000 0.017567
#
#
# Mechanical properties :
#
#
# Convention : Reuss Voigt Hill
#
# Bulk Modulus (GPa) = 86.66975 118.76850 102.71913
# Shear Modulus (GPa) = 49.60111 56.13571 52.86841
#
# Velocity S-wave (km/s) = 4.01688 4.27329 4.14706
# Velocity P-wave (km/s) = 7.05035 7.93621 7.50636
#
# Compressibility (1/GPa) = 0.01153805
#
# Stress axis : x y z
#
# Youngs Moduli (GPa) = 172.77922 120.34566 129.27089
#
# Poissons Ratio (x) = 0.45693 0.39164
# Poissons Ratio (y) = 0.65601 -0.21704
# Poissons Ratio (z) = 0.52345 -0.20206
#
# Static dielectric constant tensor:
#      x y z
#    x 8.299000 0.000000 0.660400 
#    y 0.000000 7.383630 0.000000 
#    z 0.660400 0.000000 6.545270 
# 
# 
# High freq. dielectric constant tensor:
#      x y z
#    x 2.324780 0.000000 0.041030 
#    y 0.000000 2.261860 0.000000 
#    z 0.041030 0.000000 2.340220 
# 
# From -- ./inp_files/784.got.cif
#   From: 2010.03.12/outbox.cif.g09.slc.cpg/sg14_1_cif.got.tgz:784.got - 2010.03.31 13:35:05.
