data_PCOD8124719
_publ_section_title
;
Structure prediction by ZEFSAII (Michael W. Deem and Ramdas Pophale) SiO2 
 PCOD8124719
Probable space group: P 21/C
;
_chemical_formula_sum "Si O2"
_cell_formula_units_Z 32
_cell_length_a 10.768699
_cell_length_b 17.896358
_cell_length_c 10.667168
_cell_angle_alpha 90.000000
_cell_angle_beta 124.650585
_cell_angle_gamma 90.000000
_cell_volume 1691.157529
_symmetry_space_group_name_H-M "P 21/C"
_symmetry_group_IT_number 14
_symmetry_cell_setting 'monoclinic'
loop_
_space_group_symop_operation_xyz
x,y,z
-x,1/2+y,1/2-z
-x,-y,-z
x,1/2-y,1/2+z
loop_
_atom_site_type_symbol
_atom_site_label
_atom_site_fract_x
_atom_site_fract_y
_atom_site_fract_z
Si Si1 0.372684 0.159312 0.361961
Si Si2 0.666250 0.082177 0.146265
Si Si3 0.446260 0.874653 0.299719
Si Si4 0.255852 0.199714 0.914515
Si Si5 0.443852 0.792006 0.761717
Si Si6 0.870063 0.603685 0.454436
Si Si7 0.634699 0.578763 0.680609
Si Si8 0.825886 0.437604 0.487625
O O1 0.474982 0.114309 0.520255
O O2 0.249204 0.216777 0.353048
O O3 0.499112 0.199178 0.348004
O O4 0.270913 0.103231 0.222564
O O5 0.679823 0.146810 0.261254
O O6 0.708292 0.003418 0.236345
O O7 0.497497 0.075533 0.997574
O O8 0.777730 0.097830 0.093142
O O9 0.379814 0.791297 0.240877
O O10 0.581475 0.891970 0.283261
O O11 0.305031 0.929152 0.193253
O O12 0.420630 0.196348 0.066224
O O13 0.136849 0.175552 0.955108
O O14 0.240745 0.138236 0.795713
O O15 0.857912 0.525840 0.523692
O O16 0.027009 0.607565 0.471132
#
# Coordination Sequence:
#
# PCOD8124719 Si02
#       8
#     4   4   4   4   4   4   4   4
#     4  10  20  34  53  81 112 139 169 225 275 318
#     4   9  17  30  53  75 104 139 180 220 259 321
#     4  10  20  32  53  83 111 133 173 234 274 313
#     4   9  16  32  54  75 103 137 179 216 256 314
#     4   9  18  31  51  78 108 138 173 219 276 316
#     4  10  21  38  56  77 108 146 185 214 261 322
#     4   9  15  28  51  81  96 131 182 223 258 310
#     4  10  21  37  57  79 105 144 185 224 257 318
#
# _framework density 18.921949999999999
#
# number of rings (size 3 to 8) (size 9 to 14) (size 15 to 20)
#    0.000    2.500    2.500    0.000    7.000    0.500 
#    2.250    0.000    0.000    2.250    0.000    0.000 
#    0.000    0.000    0.000    0.000    0.000    0.000 
#
# Total GULP energy -396478.713363 kJ/mol
# GULP energy per Si atom -12389.959793 kJ/mol
# Density = 1.887888 g / cm^3
# Si number density = 18.921950 Si / 1000 Ang^3
#
#
#
# Elastic Constant Matrix: (Units=GPa)
#
#
# Indices 1 2 3 4 5 6 
#
# 1 78.2558 34.3636 13.4765 0.0000 -4.5978 0.0000
# 2 34.3636 61.9394 3.4855 0.0000 -14.7295 0.0000
# 3 13.4765 3.4855 48.6175 0.0000 -11.8564 0.0000
# 4 0.0000 0.0000 0.0000 20.8974 0.0000 -7.2108
# 5 -4.5978 -14.7295 -11.8564 0.0000 16.9679 0.0000
# 6 0.0000 0.0000 0.0000 -7.2108 0.0000 30.4698
#
#
#
# Elastic Compliance Matrix: (Units=1/GPa)
#
#
# Indices 1 2 3 4 5 6 
#
# 1 0.018894 -0.012636 -0.006941 0.000000 -0.010699 0.000000
# 2 -0.012636 0.029282 0.008157 0.000000 0.027695 0.000000
# 3 -0.006941 0.008157 0.027937 0.000000 0.024722 0.000000
# 4 0.000000 0.000000 0.000000 0.052108 0.000000 0.012332
# 5 -0.010699 0.027695 0.024722 0.000000 0.097352 0.000000
# 6 0.000000 0.000000 0.000000 0.012332 0.000000 0.035738
#
#
# Mechanical properties :
#
#
# Convention : Reuss Voigt Hill
#
# Bulk Modulus (GPa) = 18.77069 32.38488 25.57779
# Shear Modulus (GPa) = 16.56138 22.83281 19.69709
#
# Velocity S-wave (km/s) = 2.96167 3.47750 3.22990
# Velocity P-wave (km/s) = 4.65155 5.76855 5.23990
#
# Compressibility (1/GPa) = 0.05327453
#
# Stress axis : x y z
#
# Youngs Moduli (GPa) = 52.92697 34.15044 35.79520
#
# Poissons Ratio (x) = 0.43152 0.24844
# Poissons Ratio (y) = 0.66878 -0.29200
# Poissons Ratio (z) = 0.36735 -0.27858
#
# Static dielectric constant tensor:
#      x y z
#    x 3.393400 0.000000 -0.345980 
#    y 0.000000 3.975340 0.000000 
#    z -0.345980 0.000000 3.118780 
# 
# 
# High freq. dielectric constant tensor:
#      x y z
#    x 1.719120 0.000000 -0.038410 
#    y 0.000000 1.740540 0.000000 
#    z -0.038410 0.000000 1.691900 
# 
# From -- ./inp_files/30200.got.cif
#   From: 2010.03.12/outbox.cif.g09.slc.cpg/sg14_16_cif.got.tgz:30200.got - 2010.03.31 13:35:05.
