data_PCOD8124095
_publ_section_title
;
Structure prediction by ZEFSAII (Michael W. Deem and Ramdas Pophale) SiO2 
 PCOD8124095
Probable space group: P 21/C
;
_chemical_formula_sum "Si O2"
_cell_formula_units_Z 32
_cell_length_a 8.489887
_cell_length_b 8.500350
_cell_length_c 29.111466
_cell_angle_alpha 90.000000
_cell_angle_beta 47.003925
_cell_angle_gamma 90.000000
_cell_volume 1536.589989
_symmetry_space_group_name_H-M "P 21/C"
_symmetry_group_IT_number 14
_symmetry_cell_setting 'monoclinic'
loop_
_space_group_symop_operation_xyz
x,y,z
-x,1/2+y,1/2-z
-x,-y,-z
x,1/2-y,1/2+z
loop_
_atom_site_type_symbol
_atom_site_label
_atom_site_fract_x
_atom_site_fract_y
_atom_site_fract_z
Si Si1 0.151712 0.401771 0.147252
Si Si2 0.718558 0.655169 0.677753
Si Si3 0.692967 0.963442 0.735879
Si Si4 0.551812 0.372115 0.950790
Si Si5 0.363364 0.389091 0.651031
Si Si6 0.180762 0.957866 0.927866
Si Si7 0.846260 0.717818 0.442694
Si Si8 0.821567 0.077234 0.889007
O O1 0.338527 0.536144 0.113815
O O2 0.225346 0.261079 0.164579
O O3 0.122807 0.355087 0.100056
O O4 0.917143 0.460563 0.207839
O O5 0.716228 0.842145 0.688742
O O6 0.491046 0.588239 0.741735
O O7 0.753787 0.609913 0.616790
O O8 0.919079 0.582909 0.665939
O O9 0.618751 0.882756 0.797710
O O10 0.727340 0.238228 0.929370
O O11 0.500000 0.500000 0.000000
O O12 0.328263 0.279077 0.984459
O O13 0.614404 0.388108 0.585550
O O14 0.259654 0.542547 0.646947
O O15 0.078835 0.818024 0.917651
O O16 0.000000 0.000000 0.000000
O O17 0.748040 0.563753 0.437251
#
# Coordination Sequence:
#
# PCOD8124095 Si02
#       8
#     4   4   4   4   4   4   4   4
#     4  10  22  39  61  89 129 156 208 267 313 375
#     4  10  24  40  67  91 124 172 213 266 317 391
#     4  11  24  43  63  93 127 166 220 261 324 385
#     4  10  19  34  58  92 121 159 205 259 307 369
#     4  10  24  39  62  92 125 170 209 260 321 382
#     4  10  21  42  65  91 124 163 216 258 311 384
#     4   9  20  36  63  86 123 165 207 246 315 386
#     4  10  19  39  61  93 119 167 211 251 320 379
#
# _framework density 20.825334999999999
#
# number of rings (size 3 to 8) (size 9 to 14) (size 15 to 20)
#    0.000    2.000    1.250    1.125    8.750    5.000 
#    0.000    4.375    0.000    0.000    0.000    0.000 
#    0.000    0.000    0.000    0.000    0.000    0.000 
#
# Total GULP energy -396440.463586 kJ/mol
# GULP energy per Si atom -12388.764487 kJ/mol
# Density = 2.077794 g / cm^3
# Si number density = 20.825335 Si / 1000 Ang^3
#
#
#
# Elastic Constant Matrix: (Units=GPa)
#
#
# Indices 1 2 3 4 5 6 
#
# 1 98.8739 28.0419 25.1124 0.0000 -20.2006 0.0000
# 2 28.0419 98.6449 31.7033 0.0000 -11.4941 0.0000
# 3 25.1124 31.7033 76.6737 0.0000 -20.9415 0.0000
# 4 0.0000 0.0000 0.0000 33.2055 0.0000 -11.2456
# 5 -20.2006 -11.4941 -20.9415 0.0000 33.3665 0.0000
# 6 0.0000 0.0000 0.0000 -11.2456 0.0000 31.1968
#
#
#
# Elastic Compliance Matrix: (Units=1/GPa)
#
#
# Indices 1 2 3 4 5 6 
#
# 1 0.012331 -0.002356 -0.001505 0.000000 0.005709 0.000000
# 2 -0.002356 0.012181 -0.004234 0.000000 0.000112 0.000000
# 3 -0.001505 -0.004234 0.017667 0.000000 0.008719 0.000000
# 4 0.000000 0.000000 0.000000 0.034303 0.000000 0.012365
# 5 0.005709 0.000112 0.008719 0.000000 0.038937 0.000000
# 6 0.000000 0.000000 0.000000 0.012365 0.000000 0.036512
#
#
# Mechanical properties :
#
#
# Convention : Reuss Voigt Hill
#
# Bulk Modulus (GPa) = 38.47971 49.32309 43.90140
# Shear Modulus (GPa) = 28.28284 32.17607 30.22945
#
# Velocity S-wave (km/s) = 3.68924 3.93497 3.81408
# Velocity P-wave (km/s) = 6.05514 6.66190 6.36575
#
# Compressibility (1/GPa) = 0.02598772
#
# Stress axis : x y z
#
# Youngs Moduli (GPa) = 81.09757 82.09410 56.60173
#
# Poissons Ratio (x) = 0.19345 0.08519
# Poissons Ratio (y) = 0.19110 0.23967
# Poissons Ratio (z) = 0.12206 0.34761
#
# Static dielectric constant tensor:
#      x y z
#    x 4.045980 0.000000 -0.410880 
#    y 0.000000 3.879570 0.000000 
#    z -0.410880 0.000000 3.918170 
# 
# 
# High freq. dielectric constant tensor:
#      x y z
#    x 1.806760 0.000000 -0.030570 
#    y 0.000000 1.810060 0.000000 
#    z -0.030570 0.000000 1.813670 
# 
# From -- ./inp_files/79395.got.cif
#   From: 2010.03.12/outbox.cif.g09.slc.cpg/sg14_40_cif.got.tgz:79395.got - 2010.03.31 13:35:05.
