data_PCOD8124866
_publ_section_title
;
Structure prediction by ZEFSAII (Michael W. Deem and Ramdas Pophale) SiO2 
 PCOD8124866
Probable space group: P 21/C
;
_chemical_formula_sum "Si O2"
_cell_formula_units_Z 32
_cell_length_a 6.664644
_cell_length_b 8.460922
_cell_length_c 28.779954
_cell_angle_alpha 90.000000
_cell_angle_beta 91.993428
_cell_angle_gamma 90.000000
_cell_volume 1621.891652
_symmetry_space_group_name_H-M "P 21/C"
_symmetry_group_IT_number 14
_symmetry_cell_setting 'monoclinic'
loop_
_space_group_symop_operation_xyz
x,y,z
-x,1/2+y,1/2-z
-x,-y,-z
x,1/2-y,1/2+z
loop_
_atom_site_type_symbol
_atom_site_label
_atom_site_fract_x
_atom_site_fract_y
_atom_site_fract_z
Si Si1 0.946129 0.605985 0.413081
Si Si2 0.216220 0.179509 0.925626
Si Si3 0.377930 0.896643 0.036616
Si Si4 0.913182 0.935984 0.810524
Si Si5 0.370118 0.262465 0.755563
Si Si6 0.771311 0.422505 0.764862
Si Si7 0.969428 0.313823 0.004231
Si Si8 0.940431 0.723873 0.168896
O O1 0.762466 0.507448 0.433398
O O2 0.906191 0.657044 0.359586
O O3 0.147336 0.499880 0.415686
O O4 0.987437 0.765089 0.442291
O O5 0.458357 0.184482 0.927919
O O6 0.121897 0.294865 0.885434
O O7 0.139950 0.231822 0.975084
O O8 0.248992 0.753835 0.012602
O O9 0.500000 0.000000 0.000000
O O10 0.711621 0.895535 0.780631
O O11 0.103866 0.885248 0.780927
O O12 0.924875 0.120974 0.821430
O O13 0.604999 0.286275 0.765095
O O14 0.266069 0.271710 0.804653
O O15 0.331473 0.091947 0.733141
O O16 0.917814 0.416481 0.811149
O O17 0.000000 0.500000 0.000000
#
# Coordination Sequence:
#
# PCOD8124866 Si02
#       8
#     4   4   4   4   4   4   4   4
#     4  10  20  37  60  83 113 152 197 237 283 351
#     4  10  20  38  60  83 109 155 199 237 285 353
#     4  11  19  38  65  84 112 153 204 241 287 349
#     4   9  20  36  56  82 111 150 191 234 283 341
#     4  10  20  35  56  82 113 148 190 232 288 339
#     4  10  20  36  57  82 116 150 187 239 285 342
#     4  11  23  37  56  87 123 152 184 243 300 345
#     4   9  20  36  58  81 110 145 194 237 281 334
#
# _framework density 19.730048
#
# number of rings (size 3 to 8) (size 9 to 14) (size 15 to 20)
#    0.000    2.000    2.500    1.500    0.000    8.500 
#    0.000    0.000    0.000    0.000    0.000    0.000 
#    0.000    0.000    0.000    0.000    0.000    0.000 
#
# Total GULP energy -396713.999679 kJ/mol
# GULP energy per Si atom -12397.312490 kJ/mol
# Density = 1.968514 g / cm^3
# Si number density = 19.730048 Si / 1000 Ang^3
#
#
#
# Elastic Constant Matrix: (Units=GPa)
#
#
# Indices 1 2 3 4 5 6 
#
# 1 112.5121 23.7490 21.9884 0.0000 12.2303 0.0000
# 2 23.7490 50.5174 5.1729 0.0000 2.8520 0.0000
# 3 21.9884 5.1729 86.4507 0.0000 6.7820 0.0000
# 4 0.0000 0.0000 0.0000 27.1802 0.0000 2.2398
# 5 12.2303 2.8520 6.7820 0.0000 20.7709 0.0000
# 6 0.0000 0.0000 0.0000 2.2398 0.0000 26.5039
#
#
#
# Elastic Compliance Matrix: (Units=1/GPa)
#
#
# Indices 1 2 3 4 5 6 
#
# 1 0.010812 -0.004584 -0.002079 0.000000 -0.005058 0.000000
# 2 -0.004584 0.021979 -0.000127 0.000000 -0.000277 0.000000
# 3 -0.002079 -0.000127 0.012322 0.000000 -0.002782 0.000000
# 4 0.000000 0.000000 0.000000 0.037049 0.000000 -0.003131
# 5 -0.005058 -0.000277 -0.002782 0.000000 0.052069 0.000000
# 6 0.000000 0.000000 0.000000 -0.003131 0.000000 0.037995
#
#
# Mechanical properties :
#
#
# Convention : Reuss Voigt Hill
#
# Bulk Modulus (GPa) = 31.71437 39.03342 35.37390
# Shear Modulus (GPa) = 25.46898 28.12899 26.79898
#
# Velocity S-wave (km/s) = 3.59677 3.77993 3.68949
# Velocity P-wave (km/s) = 5.77564 6.23516 6.00979
#
# Compressibility (1/GPa) = 0.03153144
#
# Stress axis : x y z
#
# Youngs Moduli (GPa) = 92.49285 45.49804 81.15647
#
# Poissons Ratio (x) = 0.20858 0.16871
# Poissons Ratio (y) = 0.42402 0.01034
# Poissons Ratio (z) = 0.19228 0.00580
#
# Static dielectric constant tensor:
#      x y z
#    x 3.673840 0.000000 0.085730 
#    y 0.000000 3.490590 0.000000 
#    z 0.085730 0.000000 3.864480 
# 
# 
# High freq. dielectric constant tensor:
#      x y z
#    x 1.773860 0.000000 0.004570 
#    y 0.000000 1.744750 0.000000 
#    z 0.004570 0.000000 1.772750 
# 
# From -- ./inp_files/78811.got.cif
#   From: 2010.03.12/outbox.cif.g09.slc.cpg/sg14_40_cif.got.tgz:78811.got - 2010.03.31 13:35:05.
