data_PCOD8124550
_publ_section_title
;
Structure prediction by ZEFSAII (Michael W. Deem and Ramdas Pophale) SiO2 
 PCOD8124550
Probable space group: P 21/C
;
_chemical_formula_sum "Si O2"
_cell_formula_units_Z 16
_cell_length_a 11.236047
_cell_length_b 4.942904
_cell_length_c 16.499139
_cell_angle_alpha 90.000000
_cell_angle_beta 137.240143
_cell_angle_gamma 90.000000
_cell_volume 622.128543
_symmetry_space_group_name_H-M "P 21/C"
_symmetry_group_IT_number 14
_symmetry_cell_setting 'monoclinic'
loop_
_space_group_symop_operation_xyz
x,y,z
-x,1/2+y,1/2-z
-x,-y,-z
x,1/2-y,1/2+z
loop_
_atom_site_type_symbol
_atom_site_label
_atom_site_fract_x
_atom_site_fract_y
_atom_site_fract_z
Si Si1 0.500000 0.802052 0.694586
Si Si2 0.305625 0.437566 0.491883
Si Si3 1.000000 0.750000 0.558185
Si Si4 0.305625 0.562433 0.313742
O O1 0.500000 0.112482 0.723247
O O2 0.328339 0.718028 0.555492
O O3 0.671661 0.718028 0.727153
O O4 0.171713 0.242149 0.470795
O O5 0.229983 0.500000 0.364992
O O6 0.500000 0.296454 0.580878
O O7 0.000000 0.500000 0.500000
O O8 0.171713 0.742149 0.700918
O O9 0.000000 0.000000 0.500000
#
# Coordination Sequence:
#
# PCOD8124550 Si02
#       4
#     4   4   4   4
#     4  10  19  38  65  94 130 170 224 282 340 414
#     4   9  22  45  70 102 142 187 238 297 364 432
#     4  12  26  44  72 106 142 192 242 304 366 436
#     4   9  22  45  70 102 142 187 238 297 364 432
#
# _framework density 25.718156
#
# number of rings (size 3 to 8) (size 9 to 14) (size 15 to 20)
#    1.500    0.500    0.000    3.000    0.000    2.000 
#    0.000   10.000    0.000    0.000    0.000    0.000 
#    0.000    0.000    0.000    0.000    0.000    0.000 
#
# Total GULP energy -198228.300241 kJ/mol
# GULP energy per Si atom -12389.268765 kJ/mol
# Density = 2.565962 g / cm^3
# Si number density = 25.718156 Si / 1000 Ang^3
#
#
#
# Elastic Constant Matrix: (Units=GPa)
#
#
# Indices 1 2 3 4 5 6 
#
# 1 168.2346 40.9947 74.7871 0.0000 -13.8324 0.0000
# 2 40.9947 81.0313 42.2675 0.0000 -3.1234 0.0000
# 3 74.7871 42.2675 181.2222 0.0000 -18.0395 0.0000
# 4 0.0000 0.0000 0.0000 31.3328 0.0000 -5.7095
# 5 -13.8324 -3.1234 -18.0395 0.0000 59.8662 0.0000
# 6 0.0000 0.0000 0.0000 -5.7095 0.0000 29.0061
#
#
#
# Elastic Compliance Matrix: (Units=1/GPa)
#
#
# Indices 1 2 3 4 5 6 
#
# 1 0.007764 -0.002583 -0.002512 0.000000 0.000902 0.000000
# 2 -0.002583 0.014914 -0.002468 0.000000 -0.000563 0.000000
# 3 -0.002512 -0.002468 0.007278 0.000000 0.001484 0.000000
# 4 0.000000 0.000000 0.000000 0.033103 0.000000 0.006516
# 5 0.000902 -0.000563 0.001484 0.000000 0.017330 0.000000
# 6 0.000000 0.000000 0.000000 0.006516 0.000000 0.035758
#
#
# Mechanical properties :
#
#
# Convention : Reuss Voigt Hill
#
# Bulk Modulus (GPa) = 67.43384 82.95408 75.19396
# Shear Modulus (GPa) = 36.70612 42.20360 39.45486
#
# Velocity S-wave (km/s) = 3.78199 4.05533 3.92104
# Velocity P-wave (km/s) = 6.73413 7.36564 7.05695
#
# Compressibility (1/GPa) = 0.01482935
#
# Stress axis : x y z
#
# Youngs Moduli (GPa) = 128.79380 67.05298 137.39741
#
# Poissons Ratio (x) = 0.17320 0.34513
# Poissons Ratio (y) = 0.33268 0.33915
# Poissons Ratio (z) = 0.32352 0.16551
#
# Static dielectric constant tensor:
#      x y z
#    x 4.878100 0.000000 -0.134060 
#    y 0.000000 3.924580 0.000000 
#    z -0.134060 0.000000 4.932730 
# 
# 
# High freq. dielectric constant tensor:
#      x y z
#    x 2.032000 0.000000 -0.020700 
#    y 0.000000 1.991670 0.000000 
#    z -0.020700 0.000000 2.040440 
# 
# From -- ./inp_files/42529.got.cif
#   From: 2010.03.12/outbox.cif.g09.slc.cpg/sg14_22_cif.got.tgz:42529.got - 2010.03.31 13:35:05.
