data_PCOD8124608
_publ_section_title
;
Structure prediction by ZEFSAII (Michael W. Deem and Ramdas Pophale) SiO2 
 PCOD8124608
Probable space group: P 21/C
;
_chemical_formula_sum "Si O2"
_cell_formula_units_Z 28
_cell_length_a 11.473691
_cell_length_b 16.170413
_cell_length_c 7.829857
_cell_angle_alpha 90.000000
_cell_angle_beta 110.081725
_cell_angle_gamma 90.000000
_cell_volume 1364.388158
_symmetry_space_group_name_H-M "P 21/C"
_symmetry_group_IT_number 14
_symmetry_cell_setting 'monoclinic'
loop_
_space_group_symop_operation_xyz
x,y,z
-x,1/2+y,1/2-z
-x,-y,-z
x,1/2-y,1/2+z
loop_
_atom_site_type_symbol
_atom_site_label
_atom_site_fract_x
_atom_site_fract_y
_atom_site_fract_z
Si Si1 0.995532 0.151747 0.682170
Si Si2 0.356504 0.697728 0.192424
Si Si3 0.743475 0.576972 0.720666
Si Si4 0.767245 0.050339 0.533070
Si Si5 0.481170 0.848850 0.093530
Si Si6 0.877089 0.301499 0.451384
Si Si7 0.725676 0.454627 0.403065
O O1 0.135604 0.133716 0.700993
O O2 0.906956 0.080799 0.557934
O O3 0.961318 0.245219 0.612680
O O4 0.971103 0.153058 0.871017
O O5 0.321906 0.630315 0.030560
O O6 0.457526 0.760125 0.166316
O O7 0.419793 0.648368 0.376501
O O8 0.232576 0.746835 0.193437
O O9 0.731029 0.519978 0.881163
O O10 0.627641 0.638428 0.658728
O O11 0.751275 0.528834 0.545625
O O12 0.756727 0.018485 0.723671
O O13 0.418133 0.925372 0.163603
O O14 0.808494 0.377101 0.513739
#
# Coordination Sequence:
#
# PCOD8124608 Si02
#       7
#     4   4   4   4   4   4   4
#     4  10  22  39  62  93 121 160 206 250 305 361
#     4  10  19  39  66  89 118 161 217 252 286 364
#     4  12  25  40  59  95 135 155 192 258 318 363
#     4  10  22  41  67  90 117 164 211 251 299 359
#     4  11  22  39  63  93 124 161 205 252 303 362
#     4   9  19  38  65  88 113 161 215 250 287 360
#     4  10  21  41  65  91 117 165 209 250 300 359
#
# _framework density 20.522019
#
# number of rings (size 3 to 8) (size 9 to 14) (size 15 to 20)
#    0.000    1.714    1.429    5.143    2.000    4.000 
#    5.143    0.000    0.000    0.000    0.000    0.000 
#    0.000    0.000    0.000    0.000    0.000    0.000 
#
# Total GULP energy -347129.744468 kJ/mol
# GULP energy per Si atom -12397.490874 kJ/mol
# Density = 2.047531 g / cm^3
# Si number density = 20.522019 Si / 1000 Ang^3
#
#
#
# Elastic Constant Matrix: (Units=GPa)
#
#
# Indices 1 2 3 4 5 6 
#
# 1 122.8487 57.2000 50.3371 0.0000 20.7745 0.0000
# 2 57.2000 75.6285 31.1909 0.0000 1.9185 0.0000
# 3 50.3371 31.1909 82.1035 0.0000 -7.3993 0.0000
# 4 0.0000 0.0000 0.0000 19.6715 0.0000 3.2061
# 5 20.7745 1.9185 -7.3993 0.0000 30.8784 0.0000
# 6 0.0000 0.0000 0.0000 3.2061 0.0000 24.0198
#
#
#
# Elastic Compliance Matrix: (Units=1/GPa)
#
#
# Indices 1 2 3 4 5 6 
#
# 1 0.019113 -0.010343 -0.009086 0.000000 -0.014393 0.000000
# 2 -0.010343 0.021461 -0.001333 0.000000 0.005306 0.000000
# 3 -0.009086 -0.001333 0.019230 0.000000 0.010804 0.000000
# 4 0.000000 0.000000 0.000000 0.051965 0.000000 -0.006936
# 5 -0.014393 0.005306 0.010804 0.000000 0.044328 0.000000
# 6 0.000000 0.000000 0.000000 -0.006936 0.000000 0.042558
#
#
# Mechanical properties :
#
#
# Convention : Reuss Voigt Hill
#
# Bulk Modulus (GPa) = 54.70683 62.00410 58.35546
# Shear Modulus (GPa) = 20.30263 24.37080 22.33671
#
# Velocity S-wave (km/s) = 3.14874 3.44981 3.30271
# Velocity P-wave (km/s) = 6.31941 6.79318 6.56057
#
# Compressibility (1/GPa) = 0.01827925
#
# Stress axis : x y z
#
# Youngs Moduli (GPa) = 52.32030 46.59657 52.00121
#
# Poissons Ratio (x) = 0.48197 0.47247
# Poissons Ratio (y) = 0.54117 0.06933
# Poissons Ratio (z) = 0.47537 0.06212
#
# Static dielectric constant tensor:
#      x y z
#    x 3.664750 0.000000 -0.062920 
#    y 0.000000 3.551930 0.000000 
#    z -0.062920 0.000000 3.587770 
# 
# 
# High freq. dielectric constant tensor:
#      x y z
#    x 1.795200 0.000000 -0.008360 
#    y 0.000000 1.791720 0.000000 
#    z -0.008360 0.000000 1.794210 
# 
# From -- ./inp_files/13236.got.cif
#   From: 2010.03.12/outbox.cif.g09.slc.cpg/sg14_7_cif.got.tgz:13236.got - 2010.03.31 13:35:05.
