data_PCOD8124974
_publ_section_title
;
Structure prediction by ZEFSAII (Michael W. Deem and Ramdas Pophale) SiO2 
 PCOD8124974
Probable space group: P 21/C
;
_chemical_formula_sum "Si O2"
_cell_formula_units_Z 28
_cell_length_a 23.882445
_cell_length_b 9.917218
_cell_length_c 10.111434
_cell_angle_alpha 90.000000
_cell_angle_beta 32.053675
_cell_angle_gamma 90.000000
_cell_volume 1270.988212
_symmetry_space_group_name_H-M "P 21/C"
_symmetry_group_IT_number 14
_symmetry_cell_setting 'monoclinic'
loop_
_space_group_symop_operation_xyz
x,y,z
-x,1/2+y,1/2-z
-x,-y,-z
x,1/2-y,1/2+z
loop_
_atom_site_type_symbol
_atom_site_label
_atom_site_fract_x
_atom_site_fract_y
_atom_site_fract_z
Si Si1 0.430939 0.361420 0.279800
Si Si2 0.832460 0.986990 0.338615
Si Si3 0.983447 0.404713 0.181764
Si Si4 0.564481 0.881938 0.526504
Si Si5 0.024596 0.706673 0.527993
Si Si6 0.206152 0.097736 0.862005
Si Si7 0.206434 0.401042 0.820368
O O1 0.466261 0.328426 0.058807
O O2 0.453788 0.236176 0.330500
O O3 0.306098 0.395775 0.524707
O O4 0.492862 0.491341 0.210294
O O5 0.767592 0.931734 0.343965
O O6 0.761289 0.987307 0.613671
O O7 0.867357 0.138929 0.239166
O O8 0.930934 0.888178 0.165847
O O9 0.979176 0.350832 0.039163
O O10 0.969129 0.287737 0.323451
O O11 0.893967 0.516918 0.381573
O O12 0.102559 0.465275 0.959223
O O13 0.685762 0.932318 0.277304
O O14 0.174285 0.253188 0.940628
#
# Coordination Sequence:
#
# PCOD8124974 Si02
#       7
#     4   4   4   4   4   4   4
#     4  10  24  46  68  95 126 165 214 267 320 383
#     4   9  18  36  54  82 116 164 200 230 300 363
#     4  10  20  36  56  89 122 162 203 242 303 359
#     4  10  24  47  68  95 127 163 215 269 320 381
#     4   9  18  35  54  75 125 160 196 245 284 360
#     4  10  21  37  61  86 126 157 201 254 297 367
#     4  10  21  35  64  85 120 164 202 250 304 372
#
# _framework density 22.030101999999999
#
# number of rings (size 3 to 8) (size 9 to 14) (size 15 to 20)
#    0.000    2.286    1.429    0.857    8.000    0.571 
#    5.143    6.429    0.000    0.000    0.000    0.000 
#    0.000    0.000    0.000    0.000    0.000    0.000 
#
# Total GULP energy -346991.866850 kJ/mol
# GULP energy per Si atom -12392.566673 kJ/mol
# Density = 2.197996 g / cm^3
# Si number density = 22.030102 Si / 1000 Ang^3
#
#
#
# Elastic Constant Matrix: (Units=GPa)
#
#
# Indices 1 2 3 4 5 6 
#
# 1 115.4941 44.0696 40.7465 0.0000 18.0689 0.0000
# 2 44.0696 55.7441 55.0578 0.0000 -14.0970 0.0000
# 3 40.7465 55.0578 86.1275 0.0000 -8.8124 0.0000
# 4 0.0000 0.0000 0.0000 25.6775 0.0000 5.2147
# 5 18.0689 -14.0970 -8.8124 0.0000 38.1267 0.0000
# 6 0.0000 0.0000 0.0000 5.2147 0.0000 30.3543
#
#
#
# Elastic Compliance Matrix: (Units=1/GPa)
#
#
# Indices 1 2 3 4 5 6 
#
# 1 0.018405 -0.022807 0.004217 0.000000 -0.016180 0.000000
# 2 -0.022807 0.081958 -0.038302 0.000000 0.032259 0.000000
# 3 0.004217 -0.038302 0.033233 0.000000 -0.008479 0.000000
# 4 0.000000 0.000000 0.000000 0.040352 0.000000 -0.006932
# 5 -0.016180 0.032259 -0.008479 0.000000 0.043864 0.000000
# 6 0.000000 0.000000 0.000000 -0.006932 0.000000 0.034135
#
#
# Mechanical properties :
#
#
# Convention : Reuss Voigt Hill
#
# Bulk Modulus (GPa) = 50.47522 59.67927 55.07724
# Shear Modulus (GPa) = 13.42877 26.66447 20.04662
#
# Velocity S-wave (km/s) = 2.47161 3.48280 3.01984
# Velocity P-wave (km/s) = 5.57735 6.58194 6.10036
#
# Compressibility (1/GPa) = 0.01981170
#
# Stress axis : x y z
#
# Youngs Moduli (GPa) = 54.33398 12.20141 30.09068
#
# Poissons Ratio (x) = 0.27828 -0.12689
# Poissons Ratio (y) = 1.23919 1.15252
# Poissons Ratio (z) = -0.22912 0.46733
#
# Static dielectric constant tensor:
#      x y z
#    x 4.177760 0.000000 0.211750 
#    y 0.000000 3.818230 0.000000 
#    z 0.211750 0.000000 3.943610 
# 
# 
# High freq. dielectric constant tensor:
#      x y z
#    x 1.874720 0.000000 0.020900 
#    y 0.000000 1.845440 0.000000 
#    z 0.020900 0.000000 1.856450 
# 
# From -- ./inp_files/36148.got.cif
#   From: 2010.03.12/outbox.cif.g09.slc.cpg/sg14_19_cif.got.tgz:36148.got - 2010.03.31 13:35:05.
