data_PCOD8124640
_publ_section_title
;
Structure prediction by ZEFSAII (Michael W. Deem and Ramdas Pophale) SiO2 
 PCOD8124640
Probable space group: P 21/C
;
_chemical_formula_sum "Si O2"
_cell_formula_units_Z 28
_cell_length_a 23.790828
_cell_length_b 9.900093
_cell_length_c 13.547167
_cell_angle_alpha 90.000000
_cell_angle_beta 159.552022
_cell_angle_gamma 90.000000
_cell_volume 1114.721796
_symmetry_space_group_name_H-M "P 21/C"
_symmetry_group_IT_number 14
_symmetry_cell_setting 'monoclinic'
loop_
_space_group_symop_operation_xyz
x,y,z
-x,1/2+y,1/2-z
-x,-y,-z
x,1/2-y,1/2+z
loop_
_atom_site_type_symbol
_atom_site_label
_atom_site_fract_x
_atom_site_fract_y
_atom_site_fract_z
Si Si1 0.515980 0.296703 0.563768
Si Si2 0.796494 0.933941 0.136275
Si Si3 0.406672 0.076251 0.702915
Si Si4 0.088775 0.323364 0.594262
Si Si5 0.562342 0.415003 0.925189
Si Si6 0.769805 0.894442 0.874674
Si Si7 0.761408 0.231464 0.108508
O O1 0.560876 0.439925 0.684570
O O2 0.508934 0.309216 0.431752
O O3 0.344762 0.238233 0.317542
O O4 0.662204 0.204173 0.842713
O O5 0.614211 0.876870 0.829018
O O6 0.860856 0.914586 0.129072
O O7 0.887220 0.838298 0.362993
O O8 0.825261 0.080180 0.234164
O O9 0.215259 0.109452 0.379675
O O10 0.466539 0.050793 0.690280
O O11 0.102950 0.377508 0.505545
O O12 0.905230 0.342081 0.331086
O O13 0.669072 0.466275 0.192283
O O14 0.644841 0.291461 0.001432
#
# Coordination Sequence:
#
# PCOD8124640 Si02
#       7
#     4   4   4   4   4   4   4
#     4  10  19  40  65 101 129 179 242 283 337 419
#     4  12  24  45  71 100 143 189 239 296 356 431
#     4   9  20  37  69  96 134 178 229 288 343 414
#     4  11  24  45  68 102 149 184 227 298 370 425
#     4  10  23  42  70 101 133 185 241 293 345 419
#     4  11  23  43  71 101 138 191 238 296 356 424
#     4  11  25  44  70 104 142 187 239 294 363 427
#
# _framework density 25.118376999999999
#
# number of rings (size 3 to 8) (size 9 to 14) (size 15 to 20)
#    0.000    1.429    2.857    2.571    2.000    5.143 
#    2.571    5.714    0.000    0.000    0.000    0.000 
#    0.000    0.000    0.000    0.000    0.000    0.000 
#
# Total GULP energy -346883.775538 kJ/mol
# GULP energy per Si atom -12388.706269 kJ/mol
# Density = 2.506121 g / cm^3
# Si number density = 25.118377 Si / 1000 Ang^3
#
#
#
# Elastic Constant Matrix: (Units=GPa)
#
#
# Indices 1 2 3 4 5 6 
#
# 1 105.6392 16.8835 25.3890 0.0000 -5.5768 0.0000
# 2 16.8835 76.7571 17.5018 0.0000 -0.4444 0.0000
# 3 25.3890 17.5018 44.0755 0.0000 -0.2408 0.0000
# 4 0.0000 0.0000 0.0000 11.2233 0.0000 9.3030
# 5 -5.5768 -0.4444 -0.2408 0.0000 32.3826 0.0000
# 6 0.0000 0.0000 0.0000 9.3030 0.0000 27.3469
#
#
#
# Elastic Compliance Matrix: (Units=1/GPa)
#
#
# Indices 1 2 3 4 5 6 
#
# 1 0.011179 -0.001080 -0.006001 0.000000 0.001866 0.000000
# 2 -0.001080 0.014430 -0.005108 0.000000 -0.000026 0.000000
# 3 -0.006001 -0.005108 0.028168 0.000000 -0.000894 0.000000
# 4 0.000000 0.000000 0.000000 0.124092 0.000000 -0.042214
# 5 0.001866 -0.000026 -0.000894 0.000000 0.031195 0.000000
# 6 0.000000 0.000000 0.000000 -0.042214 0.000000 0.050928
#
#
# Mechanical properties :
#
#
# Convention : Reuss Voigt Hill
#
# Bulk Modulus (GPa) = 34.01297 38.44672 36.22984
# Shear Modulus (GPa) = 16.99695 25.30373 21.15034
#
# Velocity S-wave (km/s) = 2.60412 3.17737 2.90492
# Velocity P-wave (km/s) = 4.75525 5.36659 5.07014
#
# Compressibility (1/GPa) = 0.02940055
#
# Stress axis : x y z
#
# Youngs Moduli (GPa) = 89.44965 69.29897 35.50077
#
# Poissons Ratio (x) = 0.07484 0.21303
# Poissons Ratio (y) = 0.09660 0.18134
# Poissons Ratio (z) = 0.53676 0.35399
#
# Static dielectric constant tensor:
#      x y z
#    x 4.539490 0.000000 -0.381920 
#    y 0.000000 4.813860 0.000000 
#    z -0.381920 0.000000 4.831150 
# 
# 
# High freq. dielectric constant tensor:
#      x y z
#    x 1.987090 0.000000 -0.014530 
#    y 0.000000 2.030880 0.000000 
#    z -0.014530 0.000000 1.986940 
# 
# From -- ./inp_files/51995.got.cif
#   From: 2010.03.12/outbox.cif.g09.slc.cpg/sg14_26_cif.got.tgz:51995.got - 2010.03.31 13:35:05.
