data_PCOD8124674
_publ_section_title
;
Structure prediction by ZEFSAII (Michael W. Deem and Ramdas Pophale) SiO2 
 PCOD8124674
Probable space group: P 21/C
;
_chemical_formula_sum "Si O2"
_cell_formula_units_Z 32
_cell_length_a 12.001649
_cell_length_b 16.053502
_cell_length_c 16.053335
_cell_angle_alpha 90.000000
_cell_angle_beta 152.713104
_cell_angle_gamma 90.000000
_cell_volume 1417.961557
_symmetry_space_group_name_H-M "P 21/C"
_symmetry_group_IT_number 14
_symmetry_cell_setting 'monoclinic'
loop_
_space_group_symop_operation_xyz
x,y,z
-x,1/2+y,1/2-z
-x,-y,-z
x,1/2-y,1/2+z
loop_
_atom_site_type_symbol
_atom_site_label
_atom_site_fract_x
_atom_site_fract_y
_atom_site_fract_z
Si Si1 0.802761 0.088262 0.316599
Si Si2 0.833807 0.898481 0.316891
Si Si3 0.007761 0.909638 0.964998
Si Si4 0.058375 0.659386 0.672909
Si Si5 0.575946 0.903232 0.549287
Si Si6 0.722697 0.931412 0.060767
Si Si7 0.064175 0.167384 0.341438
Si Si8 0.668656 0.386943 0.470502
O O1 0.914831 0.133209 0.474136
O O2 0.981896 0.105658 0.359421
O O3 0.786378 0.990435 0.321264
O O4 0.528374 0.120435 0.119150
O O5 0.849283 0.894866 0.227764
O O6 0.601640 0.848126 0.200341
O O7 0.761621 0.888178 0.749652
O O8 0.047447 0.842879 0.065306
O O9 0.251235 0.905830 0.070470
O O10 0.000000 0.000000 0.000000
O O11 0.907760 0.580702 0.607640
O O12 0.907971 0.740056 0.603498
O O13 0.332695 0.653359 0.891826
O O14 0.700774 0.874604 0.545277
O O15 0.500000 0.000000 0.500000
O O16 0.677299 0.030311 0.036298
O O17 0.856349 0.178341 0.133570
#
# Coordination Sequence:
#
# PCOD8124674 Si02
#       8
#     4   4   4   4   4   4   4   4
#     4  10  21  37  62  98 127 171 223 277 352 412
#     4  10  20  35  67  97 122 170 226 280 338 409
#     4  11  22  44  70 103 133 178 242 297 344 422
#     4  12  27  44  67 100 142 186 230 297 361 419
#     4  11  25  46  78 104 136 197 250 289 354 448
#     4  11  20  41  65  92 138 175 223 290 339 414
#     4  11  24  44  66  96 146 179 230 302 363 413
#     4  10  19  41  68  93 134 176 225 286 343 415
#
# _framework density 22.567606999999999
#
# number of rings (size 3 to 8) (size 9 to 14) (size 15 to 20)
#    0.000    1.250    5.000    1.500    3.500    1.000 
#    6.750    0.000    0.000    0.000    0.000    0.000 
#    0.000    0.000    0.000    0.000    0.000    0.000 
#
# Total GULP energy -396575.208273 kJ/mol
# GULP energy per Si atom -12392.975259 kJ/mol
# Density = 2.251624 g / cm^3
# Si number density = 22.567607 Si / 1000 Ang^3
#
#
#
# Elastic Constant Matrix: (Units=GPa)
#
#
# Indices 1 2 3 4 5 6 
#
# 1 123.9163 17.8614 52.4742 0.0000 -8.5503 0.0000
# 2 17.8614 56.2719 11.1296 0.0000 -0.1863 0.0000
# 3 52.4742 11.1296 141.8120 0.0000 -10.9168 0.0000
# 4 0.0000 0.0000 0.0000 16.9419 0.0000 1.4911
# 5 -8.5503 -0.1863 -10.9168 0.0000 38.4662 0.0000
# 6 0.0000 0.0000 0.0000 1.4911 0.0000 31.2482
#
#
#
# Elastic Compliance Matrix: (Units=1/GPa)
#
#
# Indices 1 2 3 4 5 6 
#
# 1 0.009949 -0.002483 -0.003391 0.000000 0.001237 0.000000
# 2 -0.002483 0.018675 -0.000595 0.000000 -0.000630 0.000000
# 3 -0.003391 -0.000595 0.008480 0.000000 0.001650 0.000000
# 4 0.000000 0.000000 0.000000 0.059274 0.000000 -0.002829
# 5 0.001237 -0.000630 0.001650 0.000000 0.026737 0.000000
# 6 0.000000 0.000000 0.000000 -0.002829 0.000000 0.032137
#
#
# Mechanical properties :
#
#
# Convention : Reuss Voigt Hill
#
# Bulk Modulus (GPa) = 41.38302 53.88116 47.63209
# Shear Modulus (GPa) = 28.36927 33.36693 30.86810
#
# Velocity S-wave (km/s) = 3.54938 3.84934 3.70240
# Velocity P-wave (km/s) = 5.93082 6.60937 6.27927
#
# Compressibility (1/GPa) = 0.02416450
#
# Stress axis : x y z
#
# Youngs Moduli (GPa) = 100.50856 53.54833 117.92111
#
# Poissons Ratio (x) = 0.13297 0.39992
# Poissons Ratio (y) = 0.24958 0.07020
# Poissons Ratio (z) = 0.34087 0.03188
#
# Static dielectric constant tensor:
#      x y z
#    x 4.111680 0.000000 0.043450 
#    y 0.000000 3.623430 0.000000 
#    z 0.043450 0.000000 4.664780 
# 
# 
# High freq. dielectric constant tensor:
#      x y z
#    x 1.895410 0.000000 -0.000240 
#    y 0.000000 1.849640 0.000000 
#    z -0.000240 0.000000 1.901230 
# 
# From -- ./inp_files/45460.got.cif
#   From: 2010.03.12/outbox.cif.g09.slc.cpg/sg14_23_cif.got.tgz:45460.got - 2010.03.31 13:35:05.
