data_PCOD8124184
_publ_section_title
;
Structure prediction by ZEFSAII (Michael W. Deem and Ramdas Pophale) SiO2 
 PCOD8124184
Probable space group: P 21/C
;
_chemical_formula_sum "Si O2"
_cell_formula_units_Z 32
_cell_length_a 8.643024
_cell_length_b 16.028652
_cell_length_c 12.529107
_cell_angle_alpha 90.000000
_cell_angle_beta 93.040044
_cell_angle_gamma 90.000000
_cell_volume 1733.289994
_symmetry_space_group_name_H-M "P 21/C"
_symmetry_group_IT_number 14
_symmetry_cell_setting 'monoclinic'
loop_
_space_group_symop_operation_xyz
x,y,z
-x,1/2+y,1/2-z
-x,-y,-z
x,1/2-y,1/2+z
loop_
_atom_site_type_symbol
_atom_site_label
_atom_site_fract_x
_atom_site_fract_y
_atom_site_fract_z
Si Si1 0.334304 0.542420 0.513689
Si Si2 0.349376 0.286463 0.639499
Si Si3 0.203456 0.045025 0.213676
Si Si4 0.160386 0.963312 0.791867
Si Si5 0.613899 0.157518 0.291252
Si Si6 0.547512 0.001275 0.624977
Si Si7 0.344937 0.380892 0.232293
Si Si8 0.510352 0.299735 0.433642
O O1 0.500000 0.500000 0.500000
O O2 0.265546 0.516156 0.624549
O O3 0.215207 0.522890 0.415176
O O4 0.356176 0.642044 0.513101
O O5 0.241908 0.361307 0.676495
O O6 0.521792 0.295516 0.694645
O O7 0.268826 0.200722 0.674977
O O8 0.376341 0.278137 0.514215
O O9 0.274154 0.016657 0.332397
O O10 0.022255 0.037147 0.220805
O O11 0.217265 0.873853 0.743376
O O12 0.218607 0.045414 0.730718
O O13 0.537448 0.069772 0.312492
O O14 0.602700 0.218261 0.393552
O O15 0.500000 0.000000 0.500000
O O16 0.491785 0.090309 0.666570
O O17 0.413044 0.354758 0.347740
#
# Coordination Sequence:
#
# PCOD8124184 Si02
#       8
#     4   4   4   4   4   4   4   4
#     4  12  18  36  62  87 112 151 199 237 276 338
#     4  10  19  35  58  82 111 148 194 244 282 327
#     4  11  22  36  57  88 121 150 183 241 299 341
#     4  11  21  38  57  86 126 151 182 234 303 350
#     4   9  20  34  55  81 109 150 188 237 278 333
#     4  10  19  37  59  79 107 151 203 231 278 339
#     4  10  20  35  59  86 110 150 200 240 273 349
#     4  11  18  33  62  85 109 141 207 242 271 323
#
# _framework density 18.461998999999999
#
# number of rings (size 3 to 8) (size 9 to 14) (size 15 to 20)
#    0.000    1.500    5.000    1.875    0.000    0.000 
#    2.250    2.500    5.500    0.000    0.000    0.000 
#    0.000    0.000    0.000    0.000    0.000    0.000 
#
# Total GULP energy -396471.296193 kJ/mol
# GULP energy per Si atom -12389.728006 kJ/mol
# Density = 1.841998 g / cm^3
# Si number density = 18.461999 Si / 1000 Ang^3
#
#
#
# Elastic Constant Matrix: (Units=GPa)
#
#
# Indices 1 2 3 4 5 6 
#
# 1 125.2427 32.4929 42.8489 0.0000 2.3977 0.0000
# 2 32.4929 102.9747 28.6130 0.0000 -5.9964 0.0000
# 3 42.8489 28.6130 111.9869 0.0000 5.6026 0.0000
# 4 0.0000 0.0000 0.0000 34.3798 0.0000 -3.6681
# 5 2.3977 -5.9964 5.6026 0.0000 21.9359 0.0000
# 6 0.0000 0.0000 0.0000 -3.6681 0.0000 17.6938
#
#
#
# Elastic Compliance Matrix: (Units=1/GPa)
#
#
# Indices 1 2 3 4 5 6 
#
# 1 0.009632 -0.002238 -0.003070 0.000000 -0.000880 0.000000
# 2 -0.002238 0.011259 -0.002215 0.000000 0.003888 0.000000
# 3 -0.003070 -0.002215 0.010822 0.000000 -0.003034 0.000000
# 4 0.000000 0.000000 0.000000 0.029745 0.000000 0.006166
# 5 -0.000880 0.003888 -0.003034 0.000000 0.047521 0.000000
# 6 0.000000 0.000000 0.000000 0.006166 0.000000 0.057795
#
#
# Mechanical properties :
#
#
# Convention : Reuss Voigt Hill
#
# Bulk Modulus (GPa) = 59.99427 60.90155 60.44791
# Shear Modulus (GPa) = 26.68436 30.55185 28.61811
#
# Velocity S-wave (km/s) = 3.80592 4.07240 3.94141
# Velocity P-wave (km/s) = 7.20278 7.42777 7.31614
#
# Compressibility (1/GPa) = 0.01666826
#
# Stress axis : x y z
#
# Youngs Moduli (GPa) = 103.81932 88.81698 92.40517
#
# Poissons Ratio (x) = 0.19874 0.28366
# Poissons Ratio (y) = 0.23231 0.20468
# Poissons Ratio (z) = 0.31869 0.19674
#
# Static dielectric constant tensor:
#      x y z
#    x 3.168620 0.000000 0.073190 
#    y 0.000000 3.751660 0.000000 
#    z 0.073190 0.000000 3.726820 
# 
# 
# High freq. dielectric constant tensor:
#      x y z
#    x 1.674930 0.000000 -0.004920 
#    y 0.000000 1.731380 0.000000 
#    z -0.004920 0.000000 1.722870 
# 
# From -- ./inp_files/26092.got.cif
#   From: 2010.03.12/outbox.cif.g09.slc.cpg/sg14_14_cif.got.tgz:26092.got - 2010.03.31 13:35:05.
