data_PCOD8124197
_publ_section_title
;
Structure prediction by ZEFSAII (Michael W. Deem and Ramdas Pophale) SiO2 
 PCOD8124197
Probable space group: P 21/C
;
_chemical_formula_sum "Si O2"
_cell_formula_units_Z 28
_cell_length_a 14.695497
_cell_length_b 9.512666
_cell_length_c 20.316744
_cell_angle_alpha 90.000000
_cell_angle_beta 29.993949
_cell_angle_gamma 90.000000
_cell_volume 1419.813130
_symmetry_space_group_name_H-M "P 21/C"
_symmetry_group_IT_number 14
_symmetry_cell_setting 'monoclinic'
loop_
_space_group_symop_operation_xyz
x,y,z
-x,1/2+y,1/2-z
-x,-y,-z
x,1/2-y,1/2+z
loop_
_atom_site_type_symbol
_atom_site_label
_atom_site_fract_x
_atom_site_fract_y
_atom_site_fract_z
Si Si1 0.090545 0.581885 0.229745
Si Si2 0.380709 0.237313 0.653355
Si Si3 0.834004 0.075223 0.518694
Si Si4 0.998240 0.293058 0.326403
Si Si5 0.371955 0.757837 0.626321
Si Si6 0.237167 0.513564 0.792672
Si Si7 0.594850 0.981798 0.558913
O O1 0.949134 0.456190 0.339079
O O2 0.178175 0.662419 0.237340
O O3 0.990852 0.693660 0.244880
O O4 0.259146 0.505886 0.089403
O O5 0.195052 0.197101 0.734636
O O6 0.533199 0.268454 0.503167
O O7 0.346173 0.366519 0.724876
O O8 0.448202 0.107576 0.655017
O O9 0.755851 0.090706 0.641051
O O10 0.698003 0.972213 0.564191
O O11 0.851352 0.226481 0.469940
O O12 0.030953 0.004249 0.397601
O O13 0.337631 0.605461 0.676101
O O14 0.493238 0.838812 0.604094
#
# Coordination Sequence:
#
# PCOD8124197 Si02
#       7
#     4   4   4   4   4   4   4
#     4  10  20  33  56  87 113 147 180 232 290 330
#     4  10  19  36  58  84 113 140 182 236 285 324
#     4   9  22  40  57  75 115 157 186 217 288 331
#     4  10  19  35  59  80 115 147 185 228 280 341
#     4  11  20  34  59  86 111 141 189 236 286 321
#     4  10  22  38  58  80 111 151 191 230 265 343
#     4  10  19  37  58  79 115 148 178 233 289 333
#
# _framework density 19.720904999999998
#
# number of rings (size 3 to 8) (size 9 to 14) (size 15 to 20)
#    0.000    2.000    2.857    1.286    6.000    1.143 
#    2.571    0.714    0.000    0.000    0.000    0.000 
#    0.000    0.000    0.000    0.000    0.000    0.000 
#
# Total GULP energy -347086.571066 kJ/mol
# GULP energy per Si atom -12395.948967 kJ/mol
# Density = 1.967602 g / cm^3
# Si number density = 19.720905 Si / 1000 Ang^3
#
#
#
# Elastic Constant Matrix: (Units=GPa)
#
#
# Indices 1 2 3 4 5 6 
#
# 1 91.2697 24.3650 19.8887 0.0000 -0.1083 0.0000
# 2 24.3650 79.7701 21.9941 0.0000 0.7428 0.0000
# 3 19.8887 21.9941 47.7758 0.0000 4.7235 0.0000
# 4 0.0000 0.0000 0.0000 25.8970 0.0000 -0.8882
# 5 -0.1083 0.7428 4.7235 0.0000 18.8327 0.0000
# 6 0.0000 0.0000 0.0000 -0.8882 0.0000 16.7462
#
#
#
# Elastic Compliance Matrix: (Units=1/GPa)
#
#
# Indices 1 2 3 4 5 6 
#
# 1 0.012579 -0.002722 -0.004103 0.000000 0.001209 0.000000
# 2 -0.002722 0.014971 -0.005844 0.000000 0.000860 0.000000
# 3 -0.004103 -0.005844 0.025952 0.000000 -0.006302 0.000000
# 4 0.000000 0.000000 0.000000 0.038685 0.000000 0.002052
# 5 0.001209 0.000860 -0.006302 0.000000 0.054653 0.000000
# 6 0.000000 0.000000 0.000000 0.002052 0.000000 0.059824
#
#
# Mechanical properties :
#
#
# Convention : Reuss Voigt Hill
#
# Bulk Modulus (GPa) = 35.50560 39.03459 37.27009
# Shear Modulus (GPa) = 20.71347 22.46636 21.58992
#
# Velocity S-wave (km/s) = 3.24440 3.37889 3.31233
# Velocity P-wave (km/s) = 5.66374 5.92106 5.79383
#
# Compressibility (1/GPa) = 0.02816457
#
# Stress axis : x y z
#
# Youngs Moduli (GPa) = 79.49956 66.79734 38.53216
#
# Poissons Ratio (x) = 0.18183 0.15809
# Poissons Ratio (y) = 0.21640 0.22517
# Poissons Ratio (z) = 0.32617 0.39034
#
# Static dielectric constant tensor:
#      x y z
#    x 3.728610 0.000000 -0.127190 
#    y 0.000000 3.696370 0.000000 
#    z -0.127190 0.000000 3.401710 
# 
# 
# High freq. dielectric constant tensor:
#      x y z
#    x 1.773800 0.000000 -0.015510 
#    y 0.000000 1.766180 0.000000 
#    z -0.015510 0.000000 1.736010 
# 
# From -- ./inp_files/43470.got.cif
#   From: 2010.03.12/outbox.cif.g09.slc.cpg/sg14_22_cif.got.tgz:43470.got - 2010.03.31 13:35:05.
