data_PCOD8124310
_publ_section_title
;
Structure prediction by ZEFSAII (Michael W. Deem and Ramdas Pophale) SiO2 
 PCOD8124310
Probable space group: P 21/C
;
_chemical_formula_sum "Si O2"
_cell_formula_units_Z 32
_cell_length_a 15.004143
_cell_length_b 8.408625
_cell_length_c 22.551886
_cell_angle_alpha 90.000000
_cell_angle_beta 150.435109
_cell_angle_gamma 90.000000
_cell_volume 1403.867410
_symmetry_space_group_name_H-M "P 21/C"
_symmetry_group_IT_number 14
_symmetry_cell_setting 'monoclinic'
loop_
_space_group_symop_operation_xyz
x,y,z
-x,1/2+y,1/2-z
-x,-y,-z
x,1/2-y,1/2+z
loop_
_atom_site_type_symbol
_atom_site_label
_atom_site_fract_x
_atom_site_fract_y
_atom_site_fract_z
Si Si1 0.024447 0.051060 0.396955
Si Si2 0.268702 0.874486 0.913858
Si Si3 0.952567 0.068491 0.714906
Si Si4 0.179911 0.020148 0.239138
Si Si5 0.360717 0.710233 0.347067
Si Si6 0.181596 0.294341 0.157349
Si Si7 0.152425 0.138766 0.020484
Si Si8 0.461421 0.520571 0.634305
O O1 0.986108 0.910655 0.423170
O O2 0.113340 0.985546 0.388231
O O3 0.835215 0.133996 0.274922
O O4 0.164563 0.180603 0.502914
O O5 0.101977 0.751219 0.809030
O O6 0.415227 0.835400 0.946774
O O7 0.357400 0.858546 0.029924
O O8 0.170194 0.046271 0.848205
O O9 0.859961 0.966060 0.714043
O O10 0.348051 0.898894 0.327819
O O11 0.233755 0.194014 0.246406
O O12 0.006229 0.959148 0.101989
O O13 0.501459 0.636121 0.383348
O O14 0.122618 0.165139 0.073627
O O15 0.357230 0.394580 0.237291
O O16 0.337770 0.039298 0.117121
#
# Coordination Sequence:
#
# PCOD8124310 Si02
#       8
#     4   4   4   4   4   4   4   4
#     4   9  20  39  65  93 119 162 213 256 314 374
#     4  10  19  36  59  91 124 159 203 254 329 378
#     4  10  19  36  65  96 120 152 207 275 305 379
#     4  10  20  41  65  91 122 162 216 258 316 377
#     4   8  19  37  60  86 126 160 193 256 327 385
#     4  11  24  42  63  92 128 168 213 268 311 371
#     4  11  23  42  64  88 121 174 219 255 306 372
#     4  11  23  41  57  90 128 166 207 259 322 372
#
# _framework density 22.794174999999999
#
# number of rings (size 3 to 8) (size 9 to 14) (size 15 to 20)
#    0.000    2.000    1.250    2.625    0.000    1.000 
#    6.750    2.500    0.000    0.000    0.000    0.000 
#    0.000    0.000    0.000    0.000    0.000    0.000 
#
# Total GULP energy -396583.184257 kJ/mol
# GULP energy per Si atom -12393.224508 kJ/mol
# Density = 2.274229 g / cm^3
# Si number density = 22.794175 Si / 1000 Ang^3
#
#
#
# Elastic Constant Matrix: (Units=GPa)
#
#
# Indices 1 2 3 4 5 6 
#
# 1 105.6924 27.5198 16.1818 0.0000 -10.9079 0.0000
# 2 27.5198 71.7126 8.7931 0.0000 7.3257 0.0000
# 3 16.1818 8.7931 41.5027 0.0000 -2.1089 0.0000
# 4 0.0000 0.0000 0.0000 28.6356 0.0000 -3.3811
# 5 -10.9079 7.3257 -2.1089 0.0000 22.7524 0.0000
# 6 0.0000 0.0000 0.0000 -3.3811 0.0000 36.9900
#
#
#
# Elastic Compliance Matrix: (Units=1/GPa)
#
#
# Indices 1 2 3 4 5 6 
#
# 1 0.011963 -0.004906 -0.003269 0.000000 0.007012 0.000000
# 2 -0.004906 0.016897 -0.002073 0.000000 -0.007985 0.000000
# 3 -0.003269 -0.002073 0.025885 0.000000 0.001500 0.000000
# 4 0.000000 0.000000 0.000000 0.035303 0.000000 0.003227
# 5 0.007012 -0.007985 0.001500 0.000000 0.050023 0.000000
# 6 0.000000 0.000000 0.000000 0.003227 0.000000 0.027329
#
#
# Mechanical properties :
#
#
# Convention : Reuss Voigt Hill
#
# Bulk Modulus (GPa) = 29.19748 35.98855 32.59302
# Shear Modulus (GPa) = 25.08637 28.76980 26.92808
#
# Velocity S-wave (km/s) = 3.32107 3.55654 3.44082
# Velocity P-wave (km/s) = 5.24814 5.71735 5.48776
#
# Compressibility (1/GPa) = 0.03424953
#
# Stress axis : x y z
#
# Youngs Moduli (GPa) = 83.59095 59.18136 38.63308
#
# Poissons Ratio (x) = 0.29037 0.12627
# Poissons Ratio (y) = 0.41013 0.08008
# Poissons Ratio (z) = 0.27322 0.12267
#
# Static dielectric constant tensor:
#      x y z
#    x 4.199420 0.000000 -0.149860 
#    y 0.000000 4.277270 0.000000 
#    z -0.149860 0.000000 3.682940 
# 
# 
# High freq. dielectric constant tensor:
#      x y z
#    x 1.901420 0.000000 -0.010750 
#    y 0.000000 1.900870 0.000000 
#    z -0.010750 0.000000 1.861710 
# 
# From -- ./inp_files/73865.got.cif
#   From: 2010.03.12/outbox.cif.g09.slc.cpg/sg14_37_cif.got.tgz:73865.got - 2010.03.31 13:35:05.
