data_PCOD8124875
_publ_section_title
;
Structure prediction by ZEFSAII (Michael W. Deem and Ramdas Pophale) SiO2 
 PCOD8124875
Probable space group: P 21/C
;
_chemical_formula_sum "Si O2"
_cell_formula_units_Z 28
_cell_length_a 24.973395
_cell_length_b 9.975435
_cell_length_c 8.251076
_cell_angle_alpha 90.000000
_cell_angle_beta 136.921906
_cell_angle_gamma 90.000000
_cell_volume 1403.903514
_symmetry_space_group_name_H-M "P 21/C"
_symmetry_group_IT_number 14
_symmetry_cell_setting 'monoclinic'
loop_
_space_group_symop_operation_xyz
x,y,z
-x,1/2+y,1/2-z
-x,-y,-z
x,1/2-y,1/2+z
loop_
_atom_site_type_symbol
_atom_site_label
_atom_site_fract_x
_atom_site_fract_y
_atom_site_fract_z
Si Si1 0.079286 0.431000 0.120828
Si Si2 0.358101 0.587306 0.930708
Si Si3 0.528950 0.895903 0.195326
Si Si4 0.890298 0.110107 0.822059
Si Si5 0.821527 0.142287 0.012577
Si Si6 0.554363 0.186841 0.678277
Si Si7 0.932260 0.654215 0.270188
O O1 0.149177 0.539481 0.284521
O O2 0.101552 0.303061 0.280652
O O3 0.070179 0.380302 0.921151
O O4 0.000000 0.500000 0.000000
O O5 0.265770 0.604038 0.729042
O O6 0.391341 0.600814 0.821726
O O7 0.382854 0.440049 0.056716
O O8 0.392692 0.697639 0.127811
O O9 0.477936 0.906214 0.248805
O O10 0.518544 0.749820 0.089235
O O11 0.500000 0.000000 0.000000
O O12 0.878548 0.123341 0.986761
O O13 0.828107 0.205248 0.591277
O O14 0.879241 0.954702 0.748257
O O15 0.978191 0.154164 0.966689
#
# Coordination Sequence:
#
# PCOD8124875 Si02
#       7
#     4   4   4   4   4   4   4
#     4  12  23  39  60  83 115 155 200 244 294 355
#     4  10  20  35  56  88 119 148 188 242 294 343
#     4   9  18  34  58  85 112 153 194 232 282 353
#     4  11  22  37  60  84 113 150 197 246 299 348
#     4  12  23  37  59  90 121 154 194 252 305 350
#     4   9  18  35  59  84 116 152 193 233 282 353
#     4  11  23  39  60  83 109 151 204 250 287 349
#
# _framework density 19.944389999999999
#
# number of rings (size 3 to 8) (size 9 to 14) (size 15 to 20)
#    0.000    1.429    2.857    3.000    2.000    0.000 
#    0.000    2.857    0.000    3.429    0.000    0.000 
#    0.000    0.000    0.000    0.000    0.000    0.000 
#
# Total GULP energy -347102.943415 kJ/mol
# GULP energy per Si atom -12396.533693 kJ/mol
# Density = 1.989900 g / cm^3
# Si number density = 19.944390 Si / 1000 Ang^3
#
#
#
# Elastic Constant Matrix: (Units=GPa)
#
#
# Indices 1 2 3 4 5 6 
#
# 1 63.1542 32.5324 28.9787 0.0000 -18.3709 0.0000
# 2 32.5324 106.3083 37.3889 0.0000 1.0513 0.0000
# 3 28.9787 37.3889 99.3940 0.0000 7.7425 0.0000
# 4 0.0000 0.0000 0.0000 38.0939 0.0000 -5.5054
# 5 -18.3709 1.0513 7.7425 0.0000 40.4337 0.0000
# 6 0.0000 0.0000 0.0000 -5.5054 0.0000 29.3794
#
#
#
# Elastic Compliance Matrix: (Units=1/GPa)
#
#
# Indices 1 2 3 4 5 6 
#
# 1 0.025389 -0.005694 -0.006264 0.000000 0.012883 0.000000
# 2 -0.005694 0.012128 -0.002717 0.000000 -0.002382 0.000000
# 3 -0.006264 -0.002717 0.013324 0.000000 -0.005327 0.000000
# 4 0.000000 0.000000 0.000000 0.026982 0.000000 0.005056
# 5 0.012883 -0.002382 -0.005327 0.000000 0.031667 0.000000
# 6 0.000000 0.000000 0.000000 0.005056 0.000000 0.034985
#
#
# Mechanical properties :
#
#
# Convention : Reuss Voigt Hill
#
# Bulk Modulus (GPa) = 46.52808 51.85070 49.18939
# Shear Modulus (GPa) = 27.62616 32.91183 30.26900
#
# Velocity S-wave (km/s) = 3.72581 4.06665 3.89995
# Velocity P-wave (km/s) = 6.47213 6.93572 6.70793
#
# Compressibility (1/GPa) = 0.02149240
#
# Stress axis : x y z
#
# Youngs Moduli (GPa) = 39.38693 82.45379 75.05215
#
# Poissons Ratio (x) = 0.46948 0.47012
# Poissons Ratio (y) = 0.22427 0.20388
# Poissons Ratio (z) = 0.24672 0.22399
#
# Static dielectric constant tensor:
#      x y z
#    x 3.551380 0.000000 -0.289420 
#    y 0.000000 3.960060 0.000000 
#    z -0.289420 0.000000 3.794830 
# 
# 
# High freq. dielectric constant tensor:
#      x y z
#    x 1.765280 0.000000 -0.032240 
#    y 0.000000 1.780670 0.000000 
#    z -0.032240 0.000000 1.772240 
# 
# From -- ./inp_files/17550.got.cif
#   From: 2010.03.12/outbox.cif.g09.slc.cpg/sg14_9_cif.got.tgz:17550.got - 2010.03.31 13:35:05.
