data_PCOD8124330
_publ_section_title
;
Structure prediction by ZEFSAII (Michael W. Deem and Ramdas Pophale) SiO2 
 PCOD8124330
Probable space group: P 21/C
;
_chemical_formula_sum "Si O2"
_cell_formula_units_Z 24
_cell_length_a 14.748894
_cell_length_b 14.905408
_cell_length_c 8.836558
_cell_angle_alpha 90.000000
_cell_angle_beta 145.270499
_cell_angle_gamma 90.000000
_cell_volume 1106.712409
_symmetry_space_group_name_H-M "P 21/C"
_symmetry_group_IT_number 14
_symmetry_cell_setting 'monoclinic'
loop_
_space_group_symop_operation_xyz
x,y,z
-x,1/2+y,1/2-z
-x,-y,-z
x,1/2-y,1/2+z
loop_
_atom_site_type_symbol
_atom_site_label
_atom_site_fract_x
_atom_site_fract_y
_atom_site_fract_z
Si Si1 0.247350 0.160077 0.698101
Si Si2 0.664863 0.021514 0.351984
Si Si3 0.604437 0.406420 0.458890
Si Si4 0.884474 0.171097 0.189818
Si Si5 0.232999 0.659809 0.796367
Si Si6 0.567775 0.772240 0.770770
O O1 0.267209 0.067208 0.634797
O O2 0.297590 0.246794 0.667549
O O3 0.063766 0.164430 0.493754
O O4 0.352777 0.165024 0.993653
O O5 0.499522 0.996141 0.211885
O O6 0.783060 0.064083 0.638867
O O7 0.630924 0.098128 0.178423
O O8 0.775551 0.409292 0.610020
O O9 0.503379 0.321221 0.262745
O O10 0.814977 0.265118 0.149052
O O11 0.882603 0.163047 0.005633
O O12 0.416829 0.673306 0.995474
#
# Coordination Sequence:
#
# PCOD8124330 Si02
#       6
#     4   4   4   4   4   4
#     4  11  23  39  60  90 124 158 198 256 313 361
#     4  10  21  39  62  88 123 159 203 258 303 349
#     4   9  19  38  60  86 116 155 202 243 296 360
#     4  11  23  38  60  89 123 160 201 248 311 372
#     4  11  21  39  63  85 117 162 208 252 296 366
#     4  10  19  36  61  83 111 157 204 239 291 364
#
# _framework density 21.685852000000001
#
# number of rings (size 3 to 8) (size 9 to 14) (size 15 to 20)
#    0.000    1.667    0.000    8.000    0.000    2.000 
#    0.000    5.000    0.000    0.000    0.000    0.000 
#    0.000    0.000    0.000    0.000    0.000    0.000 
#
# Total GULP energy -297411.777612 kJ/mol
# GULP energy per Si atom -12392.157400 kJ/mol
# Density = 2.163649 g / cm^3
# Si number density = 21.685852 Si / 1000 Ang^3
#
#
#
# Elastic Constant Matrix: (Units=GPa)
#
#
# Indices 1 2 3 4 5 6 
#
# 1 62.7623 20.9576 14.1646 0.0000 23.8066 0.0000
# 2 20.9576 67.6368 15.7894 0.0000 0.7919 0.0000
# 3 14.1646 15.7894 89.2670 0.0000 10.8187 0.0000
# 4 0.0000 0.0000 0.0000 23.0195 0.0000 -8.8889
# 5 23.8066 0.7919 10.8187 0.0000 38.5920 0.0000
# 6 0.0000 0.0000 0.0000 -8.8889 0.0000 32.1308
#
#
#
# Elastic Compliance Matrix: (Units=1/GPa)
#
#
# Indices 1 2 3 4 5 6 
#
# 1 0.023931 -0.007059 -0.000804 0.000000 -0.014392 0.000000
# 2 -0.007059 0.017512 -0.002548 0.000000 0.004709 0.000000
# 3 -0.000804 -0.002548 0.012126 0.000000 -0.002851 0.000000
# 4 0.000000 0.000000 0.000000 0.048637 0.000000 0.013455
# 5 -0.014392 0.004709 -0.002851 0.000000 0.035493 0.000000
# 6 0.000000 0.000000 0.000000 0.013455 0.000000 0.034845
#
#
# Mechanical properties :
#
#
# Convention : Reuss Voigt Hill
#
# Bulk Modulus (GPa) = 30.53804 35.72104 33.12954
# Shear Modulus (GPa) = 24.47593 29.99877 27.23735
#
# Velocity S-wave (km/s) = 3.36320 3.72335 3.54785
# Velocity P-wave (km/s) = 5.40315 5.91543 5.66508
#
# Compressibility (1/GPa) = 0.03274605
#
# Stress axis : x y z
#
# Youngs Moduli (GPa) = 41.78698 57.10445 82.46593
#
# Poissons Ratio (x) = 0.40309 0.06634
# Poissons Ratio (y) = 0.29497 0.21014
# Poissons Ratio (z) = 0.03362 0.14551
#
# Static dielectric constant tensor:
#      x y z
#    x 4.001110 0.000000 0.152290 
#    y 0.000000 3.816370 0.000000 
#    z 0.152290 0.000000 3.785580 
# 
# 
# High freq. dielectric constant tensor:
#      x y z
#    x 1.842760 0.000000 0.006080 
#    y 0.000000 1.842930 0.000000 
#    z 0.006080 0.000000 1.841120 
# 
# From -- ./inp_files/16320.got.cif
#   From: 2010.03.12/outbox.cif.g09.slc.cpg/sg14_9_cif.got.tgz:16320.got - 2010.03.31 13:35:05.
