data_PCOD8124176
_publ_section_title
;
Structure prediction by ZEFSAII (Michael W. Deem and Ramdas Pophale) SiO2 
 PCOD8124176
Probable space group: P 21/C
;
_chemical_formula_sum "Si O2"
_cell_formula_units_Z 32
_cell_length_a 11.275798
_cell_length_b 23.955247
_cell_length_c 11.385806
_cell_angle_alpha 90.000000
_cell_angle_beta 34.209535
_cell_angle_gamma 90.000000
_cell_volume 1729.094747
_symmetry_space_group_name_H-M "P 21/C"
_symmetry_group_IT_number 14
_symmetry_cell_setting 'monoclinic'
loop_
_space_group_symop_operation_xyz
x,y,z
-x,1/2+y,1/2-z
-x,-y,-z
x,1/2-y,1/2+z
loop_
_atom_site_type_symbol
_atom_site_label
_atom_site_fract_x
_atom_site_fract_y
_atom_site_fract_z
Si Si1 0.530803 0.259005 0.831682
Si Si2 0.945882 0.284412 0.097951
Si Si3 0.145408 0.606252 0.952972
Si Si4 0.177314 0.831558 0.060059
Si Si5 0.791810 0.689831 0.726519
Si Si6 0.257074 0.441808 0.624499
Si Si7 0.567554 0.643890 0.697467
Si Si8 0.354109 0.934505 0.048335
O O1 0.717672 0.243058 0.767009
O O2 0.627668 0.294246 0.644405
O O3 0.418020 0.204052 0.875461
O O4 0.358013 0.294110 0.043204
O O5 0.974431 0.337992 0.990795
O O6 0.949301 0.301064 0.231490
O O7 0.137780 0.243412 0.908800
O O8 0.325520 0.622935 0.899632
O O9 0.242164 0.573950 0.764244
O O10 0.987027 0.563370 0.142818
O O11 0.277514 0.890317 0.015280
O O12 0.002327 0.840682 0.102319
O O13 0.663704 0.647026 0.749214
O O14 0.293863 0.399210 0.489092
O O15 0.397002 0.428227 0.626406
O O16 0.302910 0.504231 0.540832
#
# Coordination Sequence:
#
# PCOD8124176 Si02
#       8
#     4   4   4   4   4   4   4   4
#     4  10  20  34  53  76 107 142 175 215 259 310
#     4   9  19  33  51  78 107 135 175 217 260 310
#     4   9  18  33  55  80 103 131 169 217 266 309
#     4  10  21  35  52  78 107 138 175 216 261 313
#     4  11  21  33  51  75 108 146 174 208 260 314
#     4  10  19  35  58  77 102 135 168 223 273 302
#     4  10  21  33  50  80 107 134 177 210 253 318
#     4   9  20  36  55  81 102 128 177 220 264 317
#
# _framework density 18.506792999999998
#
# number of rings (size 3 to 8) (size 9 to 14) (size 15 to 20)
#    0.000    2.250    0.000    3.375    0.000    7.000 
#    0.000    0.625    0.000    1.500    0.000    0.000 
#    0.000    0.000    0.000    0.000    0.000    0.000 
#
# Total GULP energy -396812.300853 kJ/mol
# GULP energy per Si atom -12400.384402 kJ/mol
# Density = 1.846467 g / cm^3
# Si number density = 18.506793 Si / 1000 Ang^3
#
#
#
# Elastic Constant Matrix: (Units=GPa)
#
#
# Indices 1 2 3 4 5 6 
#
# 1 94.3949 48.7399 24.9900 0.0000 -1.5561 0.0000
# 2 48.7399 96.2807 33.8320 0.0000 2.0144 0.0000
# 3 24.9900 33.8320 67.1693 0.0000 -0.4667 0.0000
# 4 0.0000 0.0000 0.0000 20.5837 0.0000 -4.0744
# 5 -1.5561 2.0144 -0.4667 0.0000 18.2940 0.0000
# 6 0.0000 0.0000 0.0000 -4.0744 0.0000 24.7618
#
#
#
# Elastic Compliance Matrix: (Units=1/GPa)
#
#
# Indices 1 2 3 4 5 6 
#
# 1 0.014645 -0.006736 -0.002042 0.000000 0.001935 0.000000
# 2 -0.006736 0.015763 -0.005450 0.000000 -0.002448 0.000000
# 3 -0.002042 -0.005450 0.018399 0.000000 0.000896 0.000000
# 4 0.000000 0.000000 0.000000 0.050218 0.000000 0.008263
# 5 0.001935 -0.002448 0.000896 0.000000 0.055120 0.000000
# 6 0.000000 0.000000 0.000000 0.008263 0.000000 0.041744
#
#
# Mechanical properties :
#
#
# Convention : Reuss Voigt Hill
#
# Bulk Modulus (GPa) = 49.14242 52.55209 50.84726
# Shear Modulus (GPa) = 21.63300 22.74677 22.18988
#
# Velocity S-wave (km/s) = 3.42266 3.50966 3.46643
# Velocity P-wave (km/s) = 6.49853 6.69936 6.59971
#
# Compressibility (1/GPa) = 0.02034902
#
# Stress axis : x y z
#
# Youngs Moduli (GPa) = 68.28460 63.44034 54.35123
#
# Poissons Ratio (x) = 0.42736 0.11098
# Poissons Ratio (y) = 0.46000 0.29623
# Poissons Ratio (z) = 0.13943 0.34576
#
# Static dielectric constant tensor:
#      x y z
#    x 3.373560 0.000000 -0.155310 
#    y 0.000000 3.324660 0.000000 
#    z -0.155310 0.000000 3.291900 
# 
# 
# High freq. dielectric constant tensor:
#      x y z
#    x 1.710320 0.000000 -0.015320 
#    y 0.000000 1.705690 0.000000 
#    z -0.015320 0.000000 1.717970 
# 
# From -- ./inp_files/22093.got.cif
#   From: 2010.03.12/outbox.cif.g09.slc.cpg/sg14_12_cif.got.tgz:22093.got - 2010.03.31 13:35:05.
