data_PCOD8124245
_publ_section_title
;
Structure prediction by ZEFSAII (Michael W. Deem and Ramdas Pophale) SiO2 
 PCOD8124245
Probable space group: P 21/C
;
_chemical_formula_sum "Si O2"
_cell_formula_units_Z 32
_cell_length_a 9.298916
_cell_length_b 19.548140
_cell_length_c 17.752962
_cell_angle_alpha 90.000000
_cell_angle_beta 148.129208
_cell_angle_gamma 90.000000
_cell_volume 1703.911443
_symmetry_space_group_name_H-M "P 21/C"
_symmetry_group_IT_number 14
_symmetry_cell_setting 'monoclinic'
loop_
_space_group_symop_operation_xyz
x,y,z
-x,1/2+y,1/2-z
-x,-y,-z
x,1/2-y,1/2+z
loop_
_atom_site_type_symbol
_atom_site_label
_atom_site_fract_x
_atom_site_fract_y
_atom_site_fract_z
Si Si1 0.194092 0.691887 0.670361
Si Si2 0.750127 0.553015 0.184321
Si Si3 0.182077 0.059304 0.611279
Si Si4 0.132962 0.805818 0.314261
Si Si5 0.795245 0.693958 0.965969
Si Si6 0.878655 0.052410 0.626331
Si Si7 0.720992 0.802666 0.613305
Si Si8 0.194289 0.965123 0.145690
O O1 0.170598 0.714664 0.745389
O O2 0.511820 0.705753 0.794267
O O3 0.100972 0.613282 0.618137
O O4 0.996781 0.742851 0.535727
O O5 0.910839 0.517803 0.186286
O O6 0.824484 0.632562 0.208202
O O7 0.849082 0.514580 0.302568
O O8 0.424606 0.547738 0.041105
O O9 0.092433 0.124545 0.521376
O O10 0.495873 0.038196 0.744328
O O11 0.107179 0.066963 0.665619
O O12 0.000000 0.000000 0.500000
O O13 0.081085 0.886262 0.296701
O O14 0.400149 0.787363 0.482304
O O15 0.874461 0.760012 0.222340
O O16 0.762458 0.684119 0.041719
O O17 0.000000 0.000000 0.000000
#
# Coordination Sequence:
#
# PCOD8124245 Si02
#       8
#     4   4   4   4   4   4   4   4
#     4   9  18  37  58  80 109 154 191 226 280 347
#     4  10  19  37  62  84 108 155 194 227 292 342
#     4  11  21  37  58  88 113 147 199 240 277 338
#     4   9  17  34  55  81 111 142 190 234 280 330
#     4   9  19  34  57  85 113 147 192 233 283 341
#     4  10  19  35  63  86 110 145 198 244 270 336
#     4   9  18  33  58  83 107 148 189 235 278 343
#     4  11  23  40  57  83 122 155 185 238 299 346
#
# _framework density 18.780318999999999
#
# number of rings (size 3 to 8) (size 9 to 14) (size 15 to 20)
#    0.000    2.250    2.500    0.750    3.500    1.000 
#    4.500    5.625    0.000    0.000    0.000    0.000 
#    0.000    0.000    0.000    0.000    0.000    0.000 
#
# Total GULP energy -396432.855796 kJ/mol
# GULP energy per Si atom -12388.526744 kJ/mol
# Density = 1.873757 g / cm^3
# Si number density = 18.780319 Si / 1000 Ang^3
#
#
#
# Elastic Constant Matrix: (Units=GPa)
#
#
# Indices 1 2 3 4 5 6 
#
# 1 43.9566 0.0967 14.6379 0.0000 0.3035 0.0000
# 2 0.0967 116.9924 78.0029 0.0000 1.6353 0.0000
# 3 14.6379 78.0029 87.2973 0.0000 -2.4716 0.0000
# 4 0.0000 0.0000 0.0000 39.7413 0.0000 0.6563
# 5 0.3035 1.6353 -2.4716 0.0000 19.7346 0.0000
# 6 0.0000 0.0000 0.0000 0.6563 0.0000 28.2558
#
#
#
# Elastic Compliance Matrix: (Units=1/GPa)
#
#
# Indices 1 2 3 4 5 6 
#
# 1 0.026472 0.007464 -0.011177 0.000000 -0.002425 0.000000
# 2 0.007464 0.023590 -0.022468 0.000000 -0.004884 0.000000
# 3 -0.011177 -0.022468 0.033582 0.000000 0.006240 0.000000
# 4 0.000000 0.000000 0.000000 0.025172 0.000000 -0.000585
# 5 -0.002425 -0.004884 0.006240 0.000000 0.051896 0.000000
# 6 0.000000 0.000000 0.000000 -0.000585 0.000000 0.035404
#
#
# Mechanical properties :
#
#
# Convention : Reuss Voigt Hill
#
# Bulk Modulus (GPa) = 31.96738 48.19124 40.07931
# Shear Modulus (GPa) = 19.31202 27.91360 23.61281
#
# Velocity S-wave (km/s) = 3.21021 3.85947 3.54971
# Velocity P-wave (km/s) = 5.54971 6.75106 6.17965
#
# Compressibility (1/GPa) = 0.03128189
#
# Stress axis : x y z
#
# Youngs Moduli (GPa) = 37.77582 42.39076 29.77787
#
# Poissons Ratio (x) = -0.31640 0.33282
# Poissons Ratio (y) = -0.28196 0.66906
# Poissons Ratio (z) = 0.42221 0.95245
#
# Static dielectric constant tensor:
#      x y z
#    x 2.925200 0.000000 0.106170 
#    y 0.000000 3.737740 0.000000 
#    z 0.106170 0.000000 3.393650 
# 
# 
# High freq. dielectric constant tensor:
#      x y z
#    x 1.713550 0.000000 0.005030 
#    y 0.000000 1.740830 0.000000 
#    z 0.005030 0.000000 1.713340 
# 
# From -- ./inp_files/56238.got.cif
#   From: 2010.03.12/outbox.cif.g09.slc.cpg/sg14_29_cif.got.tgz:56238.got - 2010.03.31 13:35:05.
