data_PCOD8124697
_publ_section_title
;
Structure prediction by ZEFSAII (Michael W. Deem and Ramdas Pophale) SiO2 
 PCOD8124697
Probable space group: P 21/C
;
_chemical_formula_sum "Si O2"
_cell_formula_units_Z 32
_cell_length_a 11.343188
_cell_length_b 17.432074
_cell_length_c 13.473736
_cell_angle_alpha 90.000000
_cell_angle_beta 146.977806
_cell_angle_gamma 90.000000
_cell_volume 1451.910771
_symmetry_space_group_name_H-M "P 21/C"
_symmetry_group_IT_number 14
_symmetry_cell_setting 'monoclinic'
loop_
_space_group_symop_operation_xyz
x,y,z
-x,1/2+y,1/2-z
-x,-y,-z
x,1/2-y,1/2+z
loop_
_atom_site_type_symbol
_atom_site_label
_atom_site_fract_x
_atom_site_fract_y
_atom_site_fract_z
Si Si1 0.382717 0.628768 0.526887
Si Si2 0.465976 0.053507 0.686879
Si Si3 0.450503 0.306169 0.547283
Si Si4 0.946211 0.542733 0.236387
Si Si5 0.349375 0.850141 0.333345
Si Si6 0.363205 0.419083 0.813261
Si Si7 0.985525 0.134537 0.757698
Si Si8 0.412536 0.702523 0.135084
O O1 0.530925 0.566666 0.692197
O O2 0.468720 0.630545 0.474542
O O3 0.400684 0.710076 0.594106
O O4 0.136365 0.601922 0.349231
O O5 0.227770 0.058965 0.472998
O O6 0.620199 0.124149 0.758014
O O7 0.588872 0.976362 0.743593
O O8 0.503793 0.223477 0.537124
O O9 0.196159 0.315646 0.384391
O O10 0.580271 0.309298 0.741709
O O11 0.858955 0.561976 0.286131
O O12 0.034839 0.456095 0.291678
O O13 0.444101 0.921567 0.467423
O O14 0.101132 0.839932 0.193199
O O15 0.375207 0.336002 0.767196
O O16 0.801684 0.155824 0.548357
#
# Coordination Sequence:
#
# PCOD8124697 Si02
#       8
#     4   4   4   4   4   4   4   4
#     4  12  28  42  68 106 141 182 237 279 358 427
#     4  11  21  43  71 105 136 175 228 307 336 392
#     4  12  27  47  65 101 147 183 225 290 344 433
#     4  11  24  44  75 105 133 181 234 297 341 403
#     4  10  19  42  73 100 133 173 235 285 343 396
#     4  10  20  42  76  99 135 176 239 295 337 391
#     4  11  24  46  74 100 136 183 230 283 355 406
#     4  11  25  46  68 103 139 185 230 291 350 411
#
# _framework density 22.039921
#
# number of rings (size 3 to 8) (size 9 to 14) (size 15 to 20)
#    0.000    1.000    7.500    0.750    5.250    3.000 
#    2.250    1.250    0.000    0.000    0.000    0.000 
#    0.000    0.000    0.000    0.000    0.000    0.000 
#
# Total GULP energy -396599.531590 kJ/mol
# GULP energy per Si atom -12393.735362 kJ/mol
# Density = 2.198976 g / cm^3
# Si number density = 22.039921 Si / 1000 Ang^3
#
#
#
# Elastic Constant Matrix: (Units=GPa)
#
#
# Indices 1 2 3 4 5 6 
#
# 1 78.0323 25.6065 35.7444 0.0000 12.1293 0.0000
# 2 25.6065 79.5746 28.0219 0.0000 19.2009 0.0000
# 3 35.7444 28.0219 81.4370 0.0000 8.8990 0.0000
# 4 0.0000 0.0000 0.0000 20.9668 0.0000 1.2749
# 5 12.1293 19.2009 8.8990 0.0000 43.0828 0.0000
# 6 0.0000 0.0000 0.0000 1.2749 0.0000 40.1659
#
#
#
# Elastic Compliance Matrix: (Units=1/GPa)
#
#
# Indices 1 2 3 4 5 6 
#
# 1 0.016915 -0.002695 -0.006249 0.000000 -0.002270 0.000000
# 2 -0.002695 0.016116 -0.003745 0.000000 -0.005650 0.000000
# 3 -0.006249 -0.003745 0.016304 0.000000 0.000061 0.000000
# 4 0.000000 0.000000 0.000000 0.047787 0.000000 -0.001517
# 5 -0.002270 -0.005650 0.000061 0.000000 0.026356 0.000000
# 6 0.000000 0.000000 0.000000 -0.001517 0.000000 0.024945
#
#
# Mechanical properties :
#
#
# Convention : Reuss Voigt Hill
#
# Bulk Modulus (GPa) = 41.74050 46.42106 44.08078
# Shear Modulus (GPa) = 27.50474 30.82115 29.16295
#
# Velocity S-wave (km/s) = 3.53647 3.74361 3.64151
# Velocity P-wave (km/s) = 5.97120 6.30826 6.14204
#
# Compressibility (1/GPa) = 0.02395755
#
# Stress axis : x y z
#
# Youngs Moduli (GPa) = 59.11957 62.04916 61.33337
#
# Poissons Ratio (x) = 0.16720 0.38327
# Poissons Ratio (y) = 0.15931 0.22971
# Poissons Ratio (z) = 0.36944 0.23239
#
# Static dielectric constant tensor:
#      x y z
#    x 4.206730 0.000000 -0.119410 
#    y 0.000000 4.100890 0.000000 
#    z -0.119410 0.000000 3.715600 
# 
# 
# High freq. dielectric constant tensor:
#      x y z
#    x 1.867350 0.000000 -0.010170 
#    y 0.000000 1.876300 0.000000 
#    z -0.010170 0.000000 1.846040 
# 
# From -- ./inp_files/45472.got.cif
#   From: 2010.03.12/outbox.cif.g09.slc.cpg/sg14_23_cif.got.tgz:45472.got - 2010.03.31 13:35:05.
