data_PCOD8124645
_publ_section_title
;
Structure prediction by ZEFSAII (Michael W. Deem and Ramdas Pophale) SiO2 
 PCOD8124645
Probable space group: P 21/C
;
_chemical_formula_sum "Si O2"
_cell_formula_units_Z 28
_cell_length_a 6.406618
_cell_length_b 18.401776
_cell_length_c 10.979362
_cell_angle_alpha 90.000000
_cell_angle_beta 58.293164
_cell_angle_gamma 90.000000
_cell_volume 1101.201564
_symmetry_space_group_name_H-M "P 21/C"
_symmetry_group_IT_number 14
_symmetry_cell_setting 'monoclinic'
loop_
_space_group_symop_operation_xyz
x,y,z
-x,1/2+y,1/2-z
-x,-y,-z
x,1/2-y,1/2+z
loop_
_atom_site_type_symbol
_atom_site_label
_atom_site_fract_x
_atom_site_fract_y
_atom_site_fract_z
Si Si1 0.255729 0.733392 0.834891
Si Si2 0.823916 0.642190 0.320396
Si Si3 0.567600 0.877535 0.129872
Si Si4 0.163296 0.649042 0.547437
Si Si5 0.775626 0.803439 0.332381
Si Si6 0.559938 0.455384 0.685983
Si Si7 0.372002 0.639521 0.124620
O O1 0.477955 0.672897 0.773136
O O2 0.377981 0.791684 0.709449
O O3 0.998905 0.702265 0.862039
O O4 0.215444 0.769569 0.979391
O O5 0.814595 0.643046 0.474562
O O6 0.714600 0.720194 0.310268
O O7 0.662775 0.574709 0.326612
O O8 0.086715 0.627368 0.178444
O O9 0.345413 0.863625 0.103596
O O10 0.577043 0.959318 0.172126
O O11 0.193163 0.584129 0.440462
O O12 0.880477 0.648806 0.683856
O O13 0.544071 0.846233 0.457030
O O14 0.526469 0.432092 0.836811
#
# Coordination Sequence:
#
# PCOD8124645 Si02
#       7
#     4   4   4   4   4   4   4
#     4   9  19  37  62  90 122 169 214 266 324 374
#     4  10  20  36  63  92 130 169 213 274 319 381
#     4  10  19  40  66  96 130 169 219 271 323 393
#     4   9  19  36  62  92 124 170 214 263 325 384
#     4  10  20  35  60  91 133 161 214 281 310 382
#     4  10  22  39  69  93 132 175 216 263 334 395
#     4  10  21  39  60  94 129 166 220 268 317 389
#
# _framework density 25.426772
#
# number of rings (size 3 to 8) (size 9 to 14) (size 15 to 20)
#    0.000    2.286    1.429    1.714    4.000    0.571 
#    0.000    4.286    3.143    7.714    0.000   12.000 
#    0.000    0.000    0.000    0.000    0.000    0.000 
#
# Total GULP energy -347072.400043 kJ/mol
# GULP energy per Si atom -12395.442859 kJ/mol
# Density = 2.536890 g / cm^3
# Si number density = 25.426772 Si / 1000 Ang^3
#
#
#
# Elastic Constant Matrix: (Units=GPa)
#
#
# Indices 1 2 3 4 5 6 
#
# 1 54.4690 22.0622 48.4134 0.0000 -23.0525 0.0000
# 2 22.0622 166.7715 70.1340 0.0000 -5.7787 0.0000
# 3 48.4134 70.1340 184.9932 0.0000 -23.1384 0.0000
# 4 0.0000 0.0000 0.0000 28.9302 0.0000 4.6184
# 5 -23.0525 -5.7787 -23.1384 0.0000 49.6212 0.0000
# 6 0.0000 0.0000 0.0000 4.6184 0.0000 31.6019
#
#
#
# Elastic Compliance Matrix: (Units=1/GPa)
#
#
# Indices 1 2 3 4 5 6 
#
# 1 0.028207 -0.000967 -0.005724 0.000000 0.010322 0.000000
# 2 -0.000967 0.007176 -0.002569 0.000000 -0.000811 0.000000
# 3 -0.005724 -0.002569 0.007973 0.000000 0.000759 0.000000
# 4 0.000000 0.000000 0.000000 0.035392 0.000000 -0.005172
# 5 0.010322 -0.000811 0.000759 0.000000 0.025208 0.000000
# 6 0.000000 0.000000 0.000000 -0.005172 0.000000 0.032400
#
#
# Mechanical properties :
#
#
# Convention : Reuss Voigt Hill
#
# Bulk Modulus (GPa) = 40.26416 76.38367 58.32391
# Shear Modulus (GPa) = 30.64586 39.73894 35.19240
#
# Velocity S-wave (km/s) = 3.47545 3.95761 3.72434
# Velocity P-wave (km/s) = 5.65462 7.14069 6.44066
#
# Compressibility (1/GPa) = 0.02483598
#
# Stress axis : x y z
#
# Youngs Moduli (GPa) = 35.45191 139.34477 125.42815
#
# Poissons Ratio (x) = 0.13468 0.71800
# Poissons Ratio (y) = 0.03427 0.32226
# Poissons Ratio (z) = 0.20294 0.35801
#
# Static dielectric constant tensor:
#      x y z
#    x 4.855980 0.000000 -0.110190 
#    y 0.000000 4.345570 0.000000 
#    z -0.110190 0.000000 5.176330 
# 
# 
# High freq. dielectric constant tensor:
#      x y z
#    x 2.056290 0.000000 -0.008240 
#    y 0.000000 1.983050 0.000000 
#    z -0.008240 0.000000 2.023990 
# 
# From -- ./inp_files/41772.got.cif
#   From: 2010.03.12/outbox.cif.g09.slc.cpg/sg14_21_cif.got.tgz:41772.got - 2010.03.31 13:35:05.
