data_PCOD8124131
_publ_section_title
;
Structure prediction by ZEFSAII (Michael W. Deem and Ramdas Pophale) SiO2 
 PCOD8124131
Probable space group: P 21/C
;
_chemical_formula_sum "Si O2"
_cell_formula_units_Z 28
_cell_length_a 21.154879
_cell_length_b 8.545818
_cell_length_c 13.937644
_cell_angle_alpha 90.000000
_cell_angle_beta 35.333423
_cell_angle_gamma 90.000000
_cell_volume 1457.243030
_symmetry_space_group_name_H-M "P 21/C"
_symmetry_group_IT_number 14
_symmetry_cell_setting 'monoclinic'
loop_
_space_group_symop_operation_xyz
x,y,z
-x,1/2+y,1/2-z
-x,-y,-z
x,1/2-y,1/2+z
loop_
_atom_site_type_symbol
_atom_site_label
_atom_site_fract_x
_atom_site_fract_y
_atom_site_fract_z
Si Si1 0.657293 0.917601 0.951201
Si Si2 0.687801 0.271054 0.866932
Si Si3 0.743423 0.712841 0.679950
Si Si4 0.250277 0.320887 0.027259
Si Si5 0.593255 0.063162 0.319001
Si Si6 0.541793 0.485510 0.183391
Si Si7 0.128259 0.484745 0.336157
O O1 0.662771 0.813513 0.847721
O O2 0.736103 0.845659 0.935610
O O3 0.701804 0.090820 0.875205
O O4 0.530343 0.914325 0.140979
O O5 0.646408 0.286386 0.807067
O O6 0.806488 0.353623 0.727169
O O7 0.600260 0.352316 0.046916
O O8 0.790270 0.812222 0.532637
O O9 0.681640 0.573806 0.702766
O O10 0.840842 0.645197 0.623273
O O11 0.159473 0.424750 0.191917
O O12 0.369398 0.400380 0.881677
O O13 0.542554 0.092039 0.276363
O O14 0.500000 0.000000 0.500000
O O15 0.000000 0.500000 0.500000
#
# Coordination Sequence:
#
# PCOD8124131 Si02
#       7
#     4   4   4   4   4   4   4
#     4  11  20  34  55  83 118 151 191 237 276 341
#     4   9  20  35  54  84 109 146 198 233 283 346
#     4  10  21  38  56  83 116 150 196 239 289 343
#     4  10  21  39  55  85 117 152 192 239 288 342
#     4   9  17  34  50  73 114 157 186 221 278 340
#     4  10  19  35  53  77 123 159 186 218 288 345
#     4   9  20  43  65  77 110 152 191 245 306 343
#
# _framework density 19.214365999999998
#
# number of rings (size 3 to 8) (size 9 to 14) (size 15 to 20)
#    0.000    2.286    1.429    3.429    2.000    0.571 
#    7.714    5.714    0.000    0.000    0.000    0.000 
#    0.000    0.000    0.000    0.000    0.000    0.000 
#
# Total GULP energy -347005.614796 kJ/mol
# GULP energy per Si atom -12393.057671 kJ/mol
# Density = 1.917063 g / cm^3
# Si number density = 19.214366 Si / 1000 Ang^3
#
#
#
# Elastic Constant Matrix: (Units=GPa)
#
#
# Indices 1 2 3 4 5 6 
#
# 1 85.2436 24.6588 57.2975 0.0000 9.7740 0.0000
# 2 24.6588 86.9421 29.9264 0.0000 -0.6688 0.0000
# 3 57.2975 29.9264 112.2183 0.0000 -8.9361 0.0000
# 4 0.0000 0.0000 0.0000 19.4375 0.0000 5.3295
# 5 9.7740 -0.6688 -8.9361 0.0000 35.7872 0.0000
# 6 0.0000 0.0000 0.0000 5.3295 0.0000 14.9473
#
#
#
# Elastic Compliance Matrix: (Units=1/GPa)
#
#
# Indices 1 2 3 4 5 6 
#
# 1 0.020336 -0.002237 -0.010440 0.000000 -0.008203 0.000000
# 2 -0.002237 0.012924 -0.002282 0.000000 0.000283 0.000000
# 3 -0.010440 -0.002282 0.015380 0.000000 0.006649 0.000000
# 4 0.000000 0.000000 0.000000 0.057022 0.000000 -0.020331
# 5 -0.008203 0.000283 0.006649 0.000000 0.031849 0.000000
# 6 0.000000 0.000000 0.000000 -0.020331 0.000000 0.074151
#
#
# Mechanical properties :
#
#
# Convention : Reuss Voigt Hill
#
# Bulk Modulus (GPa) = 53.41353 56.46328 54.93841
# Shear Modulus (GPa) = 20.17595 25.53583 22.85589
#
# Velocity S-wave (km/s) = 3.24395 3.64950 3.45268
# Velocity P-wave (km/s) = 6.47226 6.87082 6.67451
#
# Compressibility (1/GPa) = 0.01872185
#
# Stress axis : x y z
#
# Youngs Moduli (GPa) = 49.17344 77.37527 65.02078
#
# Poissons Ratio (x) = 0.17312 0.67882
# Poissons Ratio (y) = 0.11002 0.14836
# Poissons Ratio (z) = 0.51337 0.17655
#
# Static dielectric constant tensor:
#      x y z
#    x 3.732830 0.000000 0.377420 
#    y 0.000000 3.506960 0.000000 
#    z 0.377420 0.000000 3.346920 
# 
# 
# High freq. dielectric constant tensor:
#      x y z
#    x 1.737190 0.000000 0.026240 
#    y 0.000000 1.742190 0.000000 
#    z 0.026240 0.000000 1.726740 
# 
# From -- ./inp_files/51111.got.cif
#   From: 2010.03.12/outbox.cif.g09.slc.cpg/sg14_26_cif.got.tgz:51111.got - 2010.03.31 13:35:05.
