data_PCOD8124966
_publ_section_title
;
Structure prediction by ZEFSAII (Michael W. Deem and Ramdas Pophale) SiO2 
 PCOD8124966
Probable space group: P 21/C
;
_chemical_formula_sum "Si O2"
_cell_formula_units_Z 32
_cell_length_a 20.071999
_cell_length_b 10.177469
_cell_length_c 8.526856
_cell_angle_alpha 90.000000
_cell_angle_beta 77.736575
_cell_angle_gamma 90.000000
_cell_volume 1702.137029
_symmetry_space_group_name_H-M "P 21/C"
_symmetry_group_IT_number 14
_symmetry_cell_setting 'monoclinic'
loop_
_space_group_symop_operation_xyz
x,y,z
-x,1/2+y,1/2-z
-x,-y,-z
x,1/2-y,1/2+z
loop_
_atom_site_type_symbol
_atom_site_label
_atom_site_fract_x
_atom_site_fract_y
_atom_site_fract_z
Si Si1 0.704706 0.109595 0.711925
Si Si2 0.451302 0.887616 0.208980
Si Si3 0.451303 0.887616 0.839718
Si Si4 0.198061 0.110259 0.835954
Si Si5 0.801939 0.889741 0.534015
Si Si6 0.050582 0.108229 0.410055
Si Si7 0.050582 0.391771 0.539362
Si Si8 0.295294 0.609595 0.416631
O O1 0.626424 0.085904 0.701385
O O2 0.729856 0.250000 0.635072
O O3 0.746877 0.998003 0.604745
O O4 0.715745 0.102738 0.892127
O O5 0.478058 0.750000 0.260971
O O6 0.500000 0.000000 0.256065
O O7 0.457795 0.883148 0.021103
O O8 0.373576 0.914096 0.827809
O O9 0.188401 0.120261 0.655800
O O10 0.253123 0.001997 0.851622
O O11 0.223850 0.250000 0.888075
O O12 0.126434 0.070642 0.948325
O O13 0.873566 0.929358 0.574759
O O14 0.028424 0.250000 0.485788
O O15 0.046951 0.111510 0.226524
O O16 0.000000 0.000000 0.500000
O O17 0.000000 0.500000 0.500000
#
# Coordination Sequence:
#
# PCOD8124966 Si02
#       8
#     4   4   4   4   4   4   4   4
#     4  10  20  36  56  80 110 144 183 227 274 325
#     4   9  19  35  54  78 108 141 179 223 270 322
#     4   9  19  35  54  78 108 141 179 223 270 322
#     4  11  22  38  58  82 111 145 183 225 273 324
#     4  11  22  38  58  82 111 145 183 225 273 324
#     4  11  22  39  60  85 114 146 183 225 272 322
#     4  11  22  39  60  85 114 146 183 225 272 322
#     4  10  20  36  56  80 110 144 183 227 274 325
#
# _framework density 18.799897000000001
#
# number of rings (size 3 to 8) (size 9 to 14) (size 15 to 20)
#    0.000    1.750    0.000    6.750    0.000    3.500 
#    0.000    7.500    0.000    0.000    0.000    0.000 
#    0.000    0.000    0.000    0.000    0.000    0.000 
#
# Total GULP energy -396920.011963 kJ/mol
# GULP energy per Si atom -12403.750374 kJ/mol
# Density = 1.875711 g / cm^3
# Si number density = 18.799897 Si / 1000 Ang^3
#
#
#
# Elastic Constant Matrix: (Units=GPa)
#
#
# Indices 1 2 3 4 5 6 
#
# 1 96.6383 98.2618 42.2323 0.0000 -1.2709 0.0000
# 2 98.2618 170.2864 54.3613 0.0000 -9.0306 0.0000
# 3 42.2323 54.3613 122.2486 0.0000 6.5391 0.0000
# 4 0.0000 0.0000 0.0000 37.4783 0.0000 0.2719
# 5 -1.2709 -9.0306 6.5391 0.0000 25.7204 0.0000
# 6 0.0000 0.0000 0.0000 0.2719 0.0000 36.1565
#
#
#
# Elastic Compliance Matrix: (Units=1/GPa)
#
#
# Indices 1 2 3 4 5 6 
#
# 1 0.026006 -0.014405 -0.002410 0.000000 -0.003160 0.000000
# 2 -0.014405 0.015097 -0.002010 0.000000 0.005100 0.000000
# 3 -0.002410 -0.002010 0.010087 0.000000 -0.003389 0.000000
# 4 0.000000 0.000000 0.000000 0.026684 0.000000 -0.000201
# 5 -0.003160 0.005100 -0.003389 0.000000 0.041376 0.000000
# 6 0.000000 0.000000 0.000000 -0.000201 0.000000 0.027659
#
#
# Mechanical properties :
#
#
# Convention : Reuss Voigt Hill
#
# Bulk Modulus (GPa) = 73.84391 86.54268 80.19329
# Shear Modulus (GPa) = 26.44506 32.82555 29.63531
#
# Velocity S-wave (km/s) = 3.75462 4.18311 3.97464
# Velocity P-wave (km/s) = 7.62629 8.33455 7.98827
#
# Compressibility (1/GPa) = 0.01354208
#
# Stress axis : x y z
#
# Youngs Moduli (GPa) = 38.45206 66.23965 99.13391
#
# Poissons Ratio (x) = 0.95419 0.23887
# Poissons Ratio (y) = 0.55390 0.19921
# Poissons Ratio (z) = 0.09265 0.13311
#
# Static dielectric constant tensor:
#      x y z
#    x 3.456650 0.000000 0.020020 
#    y 0.000000 3.617300 0.000000 
#    z 0.020020 0.000000 3.554000 
# 
# 
# High freq. dielectric constant tensor:
#      x y z
#    x 1.729650 0.000000 0.003160 
#    y 0.000000 1.740950 0.000000 
#    z 0.003160 0.000000 1.745010 
# 
# From -- ./inp_files/18611.got.cif
#   From: 2010.03.12/outbox.cif.g09.slc.cpg/sg14_10_cif.got.tgz:18611.got - 2010.03.31 13:35:05.
