data_PCOD8124047
_publ_section_title
;
Structure prediction by ZEFSAII (Michael W. Deem and Ramdas Pophale) SiO2 
 PCOD8124047
Probable space group: P 21/C
;
_chemical_formula_sum "Si O2"
_cell_formula_units_Z 28
_cell_length_a 7.675166
_cell_length_b 11.492100
_cell_length_c 16.846228
_cell_angle_alpha 90.000000
_cell_angle_beta 69.750056
_cell_angle_gamma 90.000000
_cell_volume 1394.059860
_symmetry_space_group_name_H-M "P 21/C"
_symmetry_group_IT_number 14
_symmetry_cell_setting 'monoclinic'
loop_
_space_group_symop_operation_xyz
x,y,z
-x,1/2+y,1/2-z
-x,-y,-z
x,1/2-y,1/2+z
loop_
_atom_site_type_symbol
_atom_site_label
_atom_site_fract_x
_atom_site_fract_y
_atom_site_fract_z
Si Si1 0.804651 0.264227 0.871363
Si Si2 0.521982 0.691135 0.476722
Si Si3 0.660570 0.362980 0.251374
Si Si4 0.931334 0.940780 0.168937
Si Si5 0.364415 0.477080 0.411748
Si Si6 0.340048 0.216216 0.697729
Si Si7 0.101129 0.429722 0.777166
O O1 0.754783 0.240692 0.786689
O O2 0.924885 0.155867 0.884721
O O3 0.924584 0.382954 0.855490
O O4 0.619635 0.275264 0.953380
O O5 0.404179 0.602981 0.441041
O O6 0.654928 0.619355 0.515462
O O7 0.647589 0.771591 0.399633
O O8 0.533334 0.439319 0.329637
O O9 0.547833 0.306232 0.197392
O O10 0.818401 0.452814 0.194524
O O11 0.824956 0.986045 0.108175
O O12 0.792152 0.890471 0.258266
O O13 0.042581 0.044197 0.194869
O O14 0.260524 0.332119 0.751095
#
# Coordination Sequence:
#
# PCOD8124047 Si02
#       7
#     4   4   4   4   4   4   4
#     4   9  20  34  52  81 112 137 178 232 281 322
#     4  10  19  34  53  83 113 140 181 228 275 324
#     4   9  18  34  55  80 103 147 195 214 261 344
#     4   9  20  36  54  84 107 145 188 220 271 331
#     4   9  18  33  56  80 111 143 178 233 278 310
#     4  10  20  35  58  81 107 149 190 218 270 334
#     4  10  19  36  55  77 114 141 183 238 267 314
#
# _framework density 20.08522
#
# number of rings (size 3 to 8) (size 9 to 14) (size 15 to 20)
#    0.000    2.571    1.429    0.000    4.000    0.571 
#    0.000    1.429    0.000    0.000    0.000    0.000 
#    0.000    0.000    0.000    0.000    0.000    0.000 
#
# Total GULP energy -347130.787438 kJ/mol
# GULP energy per Si atom -12397.528123 kJ/mol
# Density = 2.003951 g / cm^3
# Si number density = 20.085220 Si / 1000 Ang^3
#
#
#
# Elastic Constant Matrix: (Units=GPa)
#
#
# Indices 1 2 3 4 5 6 
#
# 1 82.4073 21.9736 0.7586 0.0000 21.0184 0.0000
# 2 21.9736 55.9304 23.0758 0.0000 5.3624 0.0000
# 3 0.7586 23.0758 55.8912 0.0000 -2.5305 0.0000
# 4 0.0000 0.0000 0.0000 23.2535 0.0000 -1.3095
# 5 21.0184 5.3624 -2.5305 0.0000 31.9218 0.0000
# 6 0.0000 0.0000 0.0000 -1.3095 0.0000 29.0608
#
#
#
# Elastic Compliance Matrix: (Units=1/GPa)
#
#
# Indices 1 2 3 4 5 6 
#
# 1 0.016198 -0.006255 0.001934 0.000000 -0.009461 0.000000
# 2 -0.006255 0.024582 -0.010101 0.000000 -0.000812 0.000000
# 3 0.001934 -0.010101 0.022135 0.000000 0.002178 0.000000
# 4 0.000000 0.000000 0.000000 0.043114 0.000000 0.001943
# 5 -0.009461 -0.000812 0.002178 0.000000 0.037865 0.000000
# 6 0.000000 0.000000 0.000000 0.001943 0.000000 0.034498
#
#
# Mechanical properties :
#
#
# Convention : Reuss Voigt Hill
#
# Bulk Modulus (GPa) = 29.34998 31.76054 30.55526
# Shear Modulus (GPa) = 22.87367 26.74195 24.80781
#
# Velocity S-wave (km/s) = 3.37832 3.65283 3.51825
# Velocity P-wave (km/s) = 5.46460 5.79983 5.63471
#
# Compressibility (1/GPa) = 0.03407157
#
# Stress axis : x y z
#
# Youngs Moduli (GPa) = 61.73613 40.68020 45.17795
#
# Poissons Ratio (x) = 0.25444 -0.08738
# Poissons Ratio (y) = 0.38614 0.45634
# Poissons Ratio (z) = -0.11941 0.41091
#
# Static dielectric constant tensor:
#      x y z
#    x 3.864870 0.000000 -0.022770 
#    y 0.000000 3.446020 0.000000 
#    z -0.022770 0.000000 3.465870 
# 
# 
# High freq. dielectric constant tensor:
#      x y z
#    x 1.791970 0.000000 -0.003090 
#    y 0.000000 1.764250 0.000000 
#    z -0.003090 0.000000 1.753970 
# 
# From -- ./inp_files/40009.got.cif
#   From: 2010.03.12/outbox.cif.g09.slc.cpg/sg14_21_cif.got.tgz:40009.got - 2010.03.31 13:35:05.
