data_PCOD8124555
_publ_section_title
;
Structure prediction by ZEFSAII (Michael W. Deem and Ramdas Pophale) SiO2 
 PCOD8124555
Probable space group: P 21/C
;
_chemical_formula_sum "Si O2"
_cell_formula_units_Z 32
_cell_length_a 11.257598
_cell_length_b 15.615974
_cell_length_c 8.893106
_cell_angle_alpha 90.000000
_cell_angle_beta 68.767999
_cell_angle_gamma 90.000000
_cell_volume 1457.272910
_symmetry_space_group_name_H-M "P 21/C"
_symmetry_group_IT_number 14
_symmetry_cell_setting 'monoclinic'
loop_
_space_group_symop_operation_xyz
x,y,z
-x,1/2+y,1/2-z
-x,-y,-z
x,1/2-y,1/2+z
loop_
_atom_site_type_symbol
_atom_site_label
_atom_site_fract_x
_atom_site_fract_y
_atom_site_fract_z
Si Si1 0.247803 0.353122 0.360158
Si Si2 0.184794 0.190207 0.213954
Si Si3 0.218786 0.505666 0.176042
Si Si4 0.259498 0.721748 0.762760
Si Si5 0.572098 0.127237 0.387807
Si Si6 0.463522 0.607564 0.753761
Si Si7 0.664308 0.932257 0.654340
Si Si8 0.895730 0.322976 0.879351
O O1 0.248646 0.279683 0.232430
O O2 0.172456 0.318133 0.539596
O O3 0.176326 0.436857 0.322308
O O4 0.389388 0.376519 0.349898
O O5 0.269697 0.111837 0.234450
O O6 0.043771 0.185522 0.348025
O O7 0.365287 0.531922 0.151065
O O8 0.128253 0.589051 0.204707
O O9 0.223732 0.460526 0.010620
O O10 0.332946 0.812063 0.750716
O O11 0.374806 0.656415 0.670864
O O12 0.151910 0.737762 0.686440
O O13 0.185434 0.677210 0.932750
O O14 0.569107 0.148689 0.567287
O O15 0.430197 0.133907 0.387164
O O16 0.426307 0.508897 0.750640
#
# Coordination Sequence:
#
# PCOD8124555 Si02
#       8
#     4   4   4   4   4   4   4   4
#     4  12  25  45  67  98 136 177 222 284 356 398
#     4  12  29  44  64  97 136 185 233 277 329 406
#     4  10  20  43  72  93 132 180 219 279 350 398
#     4  11  21  40  68  96 129 176 223 271 332 399
#     4  10  19  38  67 102 134 168 210 278 344 408
#     4  11  21  39  69 104 132 167 218 276 354 406
#     4  11  20  43  67 102 135 168 217 282 343 411
#     4  11  25  47  64  96 136 185 239 270 324 407
#
# _framework density 21.958822999999999
#
# number of rings (size 3 to 8) (size 9 to 14) (size 15 to 20)
#    0.000    1.000    6.250    3.000    1.750    2.500 
#    6.750    0.000    0.000    0.000    0.000    0.000 
#    0.000    0.000    0.000    0.000    0.000    0.000 
#
# Total GULP energy -396606.608919 kJ/mol
# GULP energy per Si atom -12393.956529 kJ/mol
# Density = 2.190884 g / cm^3
# Si number density = 21.958823 Si / 1000 Ang^3
#
#
#
# Elastic Constant Matrix: (Units=GPa)
#
#
# Indices 1 2 3 4 5 6 
#
# 1 91.2859 25.3488 -8.2176 0.0000 -5.1242 0.0000
# 2 25.3488 78.0851 9.7439 0.0000 3.8992 0.0000
# 3 -8.2176 9.7439 39.0992 0.0000 -1.6214 0.0000
# 4 0.0000 0.0000 0.0000 36.8383 0.0000 7.9074
# 5 -5.1242 3.8992 -1.6214 0.0000 26.4778 0.0000
# 6 0.0000 0.0000 0.0000 7.9074 0.0000 29.5992
#
#
#
# Elastic Compliance Matrix: (Units=1/GPa)
#
#
# Indices 1 2 3 4 5 6 
#
# 1 0.012861 -0.004854 0.004056 0.000000 0.003452 0.000000
# 2 -0.004854 0.015173 -0.004946 0.000000 -0.003477 0.000000
# 3 0.004056 -0.004946 0.027794 0.000000 0.003215 0.000000
# 4 0.000000 0.000000 0.000000 0.028797 0.000000 -0.007693
# 5 0.003452 -0.003477 0.003215 0.000000 0.039144 0.000000
# 6 0.000000 0.000000 0.000000 -0.007693 0.000000 0.035840
#
#
# Mechanical properties :
#
#
# Convention : Reuss Voigt Hill
#
# Bulk Modulus (GPa) = 22.55212 29.13560 25.84386
# Shear Modulus (GPa) = 26.89951 30.68940 28.79446
#
# Velocity S-wave (km/s) = 3.50379 3.74249 3.62511
# Velocity P-wave (km/s) = 5.16345 5.65438 5.41449
#
# Compressibility (1/GPa) = 0.04434173
#
# Stress axis : x y z
#
# Youngs Moduli (GPa) = 77.75273 65.90689 35.97869
#
# Poissons Ratio (x) = 0.31989 -0.14592
# Poissons Ratio (y) = 0.37739 0.17793
# Poissons Ratio (z) = -0.31535 0.32594
#
# Static dielectric constant tensor:
#      x y z
#    x 3.985910 0.000000 0.124510 
#    y 0.000000 3.941240 0.000000 
#    z 0.124510 0.000000 3.649720 
# 
# 
# High freq. dielectric constant tensor:
#      x y z
#    x 1.863100 0.000000 0.001370 
#    y 0.000000 1.865990 0.000000 
#    z 0.001370 0.000000 1.835350 
# 
# From -- ./inp_files/13280.got.cif
#   From: 2010.03.12/outbox.cif.g09.slc.cpg/sg14_7_cif.got.tgz:13280.got - 2010.03.31 13:35:05.
