data_PCOD8124006
_publ_section_title
;
Structure prediction by ZEFSAII (Michael W. Deem and Ramdas Pophale) SiO2 
 PCOD8124006
Probable space group: P 21/C
;
_chemical_formula_sum "Si O2"
_cell_formula_units_Z 32
_cell_length_a 8.190775
_cell_length_b 16.180477
_cell_length_c 14.207614
_cell_angle_alpha 90.000000
_cell_angle_beta 118.883908
_cell_angle_gamma 90.000000
_cell_volume 1648.706428
_symmetry_space_group_name_H-M "P 21/C"
_symmetry_group_IT_number 14
_symmetry_cell_setting 'monoclinic'
loop_
_space_group_symop_operation_xyz
x,y,z
-x,1/2+y,1/2-z
-x,-y,-z
x,1/2-y,1/2+z
loop_
_atom_site_type_symbol
_atom_site_label
_atom_site_fract_x
_atom_site_fract_y
_atom_site_fract_z
Si Si1 0.557016 0.254906 0.173334
Si Si2 0.798714 0.099568 0.697950
Si Si3 0.098976 0.660542 0.173789
Si Si4 0.455305 0.267183 0.930677
Si Si5 0.846935 0.312519 0.014804
Si Si6 0.819788 0.811644 0.889524
Si Si7 0.869918 0.828463 0.116110
Si Si8 0.794252 0.586581 0.204714
O O1 0.663271 0.341709 0.223234
O O2 0.697514 0.177108 0.224741
O O3 0.374465 0.237924 0.187203
O O4 0.478696 0.261656 0.048063
O O5 0.806655 0.128635 0.591666
O O6 0.007117 0.100528 0.800781
O O7 0.720513 0.007089 0.680965
O O8 0.984305 0.744253 0.149389
O O9 0.987765 0.590299 0.199322
O O10 0.109675 0.634285 0.066619
O O11 0.314637 0.190197 0.870909
O O12 0.366039 0.356082 0.883138
O O13 0.657744 0.259492 0.937657
O O14 0.011403 0.250054 0.085906
O O15 0.836891 0.888115 0.823698
O O16 0.823622 0.850964 0.994964
#
# Coordination Sequence:
#
# PCOD8124006 Si02
#       8
#     4   4   4   4   4   4   4   4
#     4   9  18  35  56  76 101 138 183 223 258 313
#     4  10  21  35  53  80 114 140 170 224 280 320
#     4   9  18  33  52  76 104 139 183 216 255 318
#     4   9  17  32  55  75 100 135 177 220 261 311
#     4  10  19  33  56  79 102 141 185 225 261 309
#     4  10  19  34  58  77  99 142 189 224 260 314
#     4   8  17  34  54  76  99 132 181 226 260 312
#     4  11  21  33  52  81 115 144 170 216 277 328
#
# _framework density 19.409154999999998
#
# number of rings (size 3 to 8) (size 9 to 14) (size 15 to 20)
#    0.000    2.500    0.000    4.500    0.000    3.000 
#    0.000    2.500    0.000    6.750    0.000    0.000 
#    0.000    0.000    0.000    0.000    0.000    0.000 
#
# Total GULP energy -396564.808110 kJ/mol
# GULP energy per Si atom -12392.650253 kJ/mol
# Density = 1.936498 g / cm^3
# Si number density = 19.409155 Si / 1000 Ang^3
#
#
#
# Elastic Constant Matrix: (Units=GPa)
#
#
# Indices 1 2 3 4 5 6 
#
# 1 123.4380 23.9647 26.9728 0.0000 11.7665 0.0000
# 2 23.9647 58.4364 19.3122 0.0000 0.4856 0.0000
# 3 26.9728 19.3122 76.5006 0.0000 6.5569 0.0000
# 4 0.0000 0.0000 0.0000 12.2839 0.0000 2.1096
# 5 11.7665 0.4856 6.5569 0.0000 36.6675 0.0000
# 6 0.0000 0.0000 0.0000 2.1096 0.0000 15.2181
#
#
#
# Elastic Compliance Matrix: (Units=1/GPa)
#
#
# Indices 1 2 3 4 5 6 
#
# 1 0.009456 -0.003085 -0.002334 0.000000 -0.002576 0.000000
# 2 -0.003085 0.019690 -0.004007 0.000000 0.001446 0.000000
# 3 -0.002334 -0.004007 0.015069 0.000000 -0.001892 0.000000
# 4 0.000000 0.000000 0.000000 0.083393 0.000000 -0.011560
# 5 -0.002576 0.001446 -0.001892 0.000000 0.028418 0.000000
# 6 0.000000 0.000000 0.000000 -0.011560 0.000000 0.067314
#
#
# Mechanical properties :
#
#
# Convention : Reuss Voigt Hill
#
# Bulk Modulus (GPa) = 39.42914 44.31938 41.87426
# Shear Modulus (GPa) = 19.94856 25.37560 22.66208
#
# Velocity S-wave (km/s) = 3.20940 3.61973 3.42072
# Velocity P-wave (km/s) = 5.83887 6.35246 6.10107
#
# Compressibility (1/GPa) = 0.02536196
#
# Stress axis : x y z
#
# Youngs Moduli (GPa) = 105.75521 50.78742 66.36337
#
# Poissons Ratio (x) = 0.15668 0.15492
# Poissons Ratio (y) = 0.32625 0.26591
# Poissons Ratio (z) = 0.24687 0.20350
#
# Static dielectric constant tensor:
#      x y z
#    x 4.229660 0.000000 0.192240 
#    y 0.000000 3.030100 0.000000 
#    z 0.192240 0.000000 3.800730 
# 
# 
# High freq. dielectric constant tensor:
#      x y z
#    x 1.767980 0.000000 0.007820 
#    y 0.000000 1.694470 0.000000 
#    z 0.007820 0.000000 1.775270 
# 
# From -- ./inp_files/41248.got.cif
#   From: 2010.03.12/outbox.cif.g09.slc.cpg/sg14_21_cif.got.tgz:41248.got - 2010.03.31 13:35:05.
