data_PCOD8124559
_publ_section_title
;
Structure prediction by ZEFSAII (Michael W. Deem and Ramdas Pophale) SiO2 
 PCOD8124559
Probable space group: P 21/C
;
_chemical_formula_sum "Si O2"
_cell_formula_units_Z 32
_cell_length_a 11.282995
_cell_length_b 18.601220
_cell_length_c 13.646316
_cell_angle_alpha 90.000000
_cell_angle_beta 147.276589
_cell_angle_gamma 90.000000
_cell_volume 1548.262266
_symmetry_space_group_name_H-M "P 21/C"
_symmetry_group_IT_number 14
_symmetry_cell_setting 'monoclinic'
loop_
_space_group_symop_operation_xyz
x,y,z
-x,1/2+y,1/2-z
-x,-y,-z
x,1/2-y,1/2+z
loop_
_atom_site_type_symbol
_atom_site_label
_atom_site_fract_x
_atom_site_fract_y
_atom_site_fract_z
Si Si1 0.241035 0.917199 0.198992
Si Si2 0.042040 0.528889 0.748778
Si Si3 0.505693 0.446455 0.840831
Si Si4 0.822756 0.924452 0.283289
Si Si5 0.426201 0.675072 0.483711
Si Si6 0.270778 0.577777 0.202113
Si Si7 0.066888 0.870215 0.878758
Si Si8 0.416443 0.334321 0.940004
O O1 0.061340 0.928581 0.159815
O O2 0.453537 0.875739 0.385023
O O3 0.310421 0.995664 0.207284
O O4 0.130834 0.870419 0.037498
O O5 0.893099 0.575854 0.718183
O O6 0.936999 0.450940 0.664669
O O7 0.282485 0.517276 0.962016
O O8 0.552969 0.423678 0.762577
O O9 0.432113 0.376031 0.848093
O O10 0.027003 0.905180 0.494492
O O11 0.721495 0.001438 0.238838
O O12 0.640574 0.864582 0.174222
O O13 0.337415 0.639755 0.322822
O O14 0.243589 0.674677 0.440883
O O15 0.481893 0.756509 0.500141
O O16 0.836671 0.829768 0.704553
#
# Coordination Sequence:
#
# PCOD8124559 Si02
#       8
#     4   4   4   4   4   4   4   4
#     4  11  22  40  70  99 121 168 222 274 313 373
#     4  10  19  38  68  99 128 157 212 276 319 364
#     4  10  20  40  69  94 127 164 220 270 320 367
#     4  10  22  40  66 100 128 166 215 271 318 379
#     4  12  27  42  64  93 138 172 212 257 328 405
#     4  10  22  40  68  95 129 167 215 267 325 375
#     4  12  24  41  69  95 126 167 221 264 324 376
#     4  11  26  44  60  93 135 172 206 267 322 389
#
# _framework density 20.668334000000002
#
# number of rings (size 3 to 8) (size 9 to 14) (size 15 to 20)
#    0.000    1.250    3.750    2.250    1.750    6.000 
#    0.000    0.000    0.000    0.000    0.000    0.000 
#    0.000    0.000    0.000    0.000    0.000    0.000 
#
# Total GULP energy -397011.189263 kJ/mol
# GULP energy per Si atom -12406.599664 kJ/mol
# Density = 2.062129 g / cm^3
# Si number density = 20.668334 Si / 1000 Ang^3
#
#
#
# Elastic Constant Matrix: (Units=GPa)
#
#
# Indices 1 2 3 4 5 6 
#
# 1 97.7470 39.8023 28.6958 0.0000 2.3146 0.0000
# 2 39.8023 114.8210 40.8242 0.0000 1.0441 0.0000
# 3 28.6958 40.8242 62.4310 0.0000 -2.9634 0.0000
# 4 0.0000 0.0000 0.0000 16.5920 0.0000 10.6350
# 5 2.3146 1.0441 -2.9634 0.0000 34.3866 0.0000
# 6 0.0000 0.0000 0.0000 10.6350 0.0000 20.4366
#
#
#
# Elastic Compliance Matrix: (Units=1/GPa)
#
#
# Indices 1 2 3 4 5 6 
#
# 1 0.012614 -0.002974 -0.003905 0.000000 -0.001095 0.000000
# 2 -0.002974 0.012082 -0.006568 0.000000 -0.000733 0.000000
# 3 -0.003905 -0.006568 0.022221 0.000000 0.002377 0.000000
# 4 0.000000 0.000000 0.000000 0.090436 0.000000 -0.047062
# 5 -0.001095 -0.000733 0.002377 0.000000 0.029382 0.000000
# 6 0.000000 0.000000 0.000000 -0.047062 0.000000 0.073423
#
#
# Mechanical properties :
#
#
# Convention : Reuss Voigt Hill
#
# Bulk Modulus (GPa) = 49.94631 54.84930 52.39781
# Shear Modulus (GPa) = 18.26643 25.32814 21.79729
#
# Velocity S-wave (km/s) = 2.97608 3.50445 3.25102
# Velocity P-wave (km/s) = 6.00229 6.55518 6.28482
#
# Compressibility (1/GPa) = 0.02002150
#
# Stress axis : x y z
#
# Youngs Moduli (GPa) = 79.27758 82.76610 45.00334
#
# Poissons Ratio (x) = 0.24616 0.17574
# Poissons Ratio (y) = 0.23579 0.29560
# Poissons Ratio (z) = 0.30958 0.54364
#
# Static dielectric constant tensor:
#      x y z
#    x 4.008680 0.000000 0.042510 
#    y 0.000000 3.475290 0.000000 
#    z 0.042510 0.000000 3.855150 
# 
# 
# High freq. dielectric constant tensor:
#      x y z
#    x 1.822720 0.000000 0.002860 
#    y 0.000000 1.780920 0.000000 
#    z 0.002860 0.000000 1.821960 
# 
# From -- ./inp_files/45403.got.cif
#   From: 2010.03.12/outbox.cif.g09.slc.cpg/sg14_23_cif.got.tgz:45403.got - 2010.03.31 13:35:05.
