data_PCOD8124913
_publ_section_title
;
Structure prediction by ZEFSAII (Michael W. Deem and Ramdas Pophale) SiO2 
 PCOD8124913
Probable space group: P 21/C
;
_chemical_formula_sum "Si O2"
_cell_formula_units_Z 24
_cell_length_a 20.401898
_cell_length_b 8.639456
_cell_length_c 20.484150
_cell_angle_alpha 90.000000
_cell_angle_beta 19.796880
_cell_angle_gamma 90.000000
_cell_volume 1222.849582
_symmetry_space_group_name_H-M "P 21/C"
_symmetry_group_IT_number 14
_symmetry_cell_setting 'monoclinic'
loop_
_space_group_symop_operation_xyz
x,y,z
-x,1/2+y,1/2-z
-x,-y,-z
x,1/2-y,1/2+z
loop_
_atom_site_type_symbol
_atom_site_label
_atom_site_fract_x
_atom_site_fract_y
_atom_site_fract_z
Si Si1 0.187865 0.552828 0.288059
Si Si2 0.470182 0.142300 0.444273
Si Si3 0.866841 0.286904 0.273585
Si Si4 0.583407 0.403469 0.120903
Si Si5 0.696718 0.871860 0.627010
Si Si6 0.535008 0.507810 0.544439
O O1 0.326860 0.637504 0.208582
O O2 0.113032 0.670512 0.304599
O O3 0.000000 0.500000 0.500000
O O4 0.296676 0.405876 0.155043
O O5 0.442590 0.318928 0.449314
O O6 0.475081 0.030721 0.377722
O O7 0.771157 0.196625 0.424256
O O8 0.736567 0.429686 0.373751
O O9 0.075413 0.352443 0.097070
O O10 0.402296 0.289457 0.300360
O O11 0.624882 0.487617 0.149580
O O12 0.639781 0.917514 0.754816
O O13 0.500000 0.500000 0.500000
#
# Coordination Sequence:
#
# PCOD8124913 Si02
#       6
#     4   4   4   4   4   4
#     4  10  20  35  60  87 118 163 203 251 311 363
#     4  10  21  38  59  86 126 159 202 258 305 366
#     4  10  23  40  62  93 122 161 213 261 303 381
#     4  10  23  42  62  90 122 164 210 258 315 374
#     4  11  24  42  66  89 127 168 208 259 318 372
#     4  11  23  40  62  93 130 165 206 259 313 368
#
# _framework density 19.626289
#
# number of rings (size 3 to 8) (size 9 to 14) (size 15 to 20)
#    0.000    1.667    1.667    2.000    4.667    6.000 
#    0.000    3.333    0.000    0.000    0.000    0.000 
#    0.000    0.000    0.000    0.000    0.000    0.000 
#
# Total GULP energy -297673.288079 kJ/mol
# GULP energy per Si atom -12403.053670 kJ/mol
# Density = 1.958162 g / cm^3
# Si number density = 19.626289 Si / 1000 Ang^3
#
#
#
# Elastic Constant Matrix: (Units=GPa)
#
#
# Indices 1 2 3 4 5 6 
#
# 1 86.0596 29.2568 33.3363 0.0000 5.1881 0.0000
# 2 29.2568 127.6156 46.2917 0.0000 -7.5907 0.0000
# 3 33.3363 46.2917 116.0606 0.0000 -6.1362 0.0000
# 4 0.0000 0.0000 0.0000 20.0557 0.0000 2.7199
# 5 5.1881 -7.5907 -6.1362 0.0000 21.5590 0.0000
# 6 0.0000 0.0000 0.0000 2.7199 0.0000 30.0763
#
#
#
# Elastic Compliance Matrix: (Units=1/GPa)
#
#
# Indices 1 2 3 4 5 6 
#
# 1 0.014020 -0.002293 -0.003385 0.000000 -0.005144 0.000000
# 2 -0.002293 0.009642 -0.003024 0.000000 0.003086 0.000000
# 3 -0.003385 -0.003024 0.010946 0.000000 0.002865 0.000000
# 4 0.000000 0.000000 0.000000 0.050480 0.000000 -0.004565
# 5 -0.005144 0.003086 0.002865 0.000000 0.049524 0.000000
# 6 0.000000 0.000000 0.000000 -0.004565 0.000000 0.033662
#
#
# Mechanical properties :
#
#
# Convention : Reuss Voigt Hill
#
# Bulk Modulus (GPa) = 58.11985 60.83393 59.47689
# Shear Modulus (GPa) = 26.12152 29.06161 27.59157
#
# Velocity S-wave (km/s) = 3.65217 3.85223 3.75353
# Velocity P-wave (km/s) = 6.88927 7.13089 7.01112
#
# Compressibility (1/GPa) = 0.01720583
#
# Stress axis : x y z
#
# Youngs Moduli (GPa) = 71.32431 103.71112 91.35664
#
# Poissons Ratio (x) = 0.23776 0.30922
# Poissons Ratio (y) = 0.16351 0.27628
# Poissons Ratio (z) = 0.24141 0.31365
#
# Static dielectric constant tensor:
#      x y z
#    x 3.481270 0.000000 0.156610 
#    y 0.000000 3.868080 0.000000 
#    z 0.156610 0.000000 3.576750 
# 
# 
# High freq. dielectric constant tensor:
#      x y z
#    x 1.763190 0.000000 0.006900 
#    y 0.000000 1.780610 0.000000 
#    z 0.006900 0.000000 1.767120 
# 
# From -- ./inp_files/69730.got.cif
#   From: 2010.03.12/outbox.cif.g09.slc.cpg/sg14_35_cif.got.tgz:69730.got - 2010.03.31 13:35:05.
