data_PCOD8124428
_publ_section_title
;
Structure prediction by ZEFSAII (Michael W. Deem and Ramdas Pophale) SiO2 
 PCOD8124428
Probable space group: P 21/C
;
_chemical_formula_sum "Si O2"
_cell_formula_units_Z 20
_cell_length_a 9.240574
_cell_length_b 9.271202
_cell_length_c 8.594832
_cell_angle_alpha 90.000000
_cell_angle_beta 71.756775
_cell_angle_gamma 90.000000
_cell_volume 699.319042
_symmetry_space_group_name_H-M "P 21/C"
_symmetry_group_IT_number 14
_symmetry_cell_setting 'monoclinic'
loop_
_space_group_symop_operation_xyz
x,y,z
-x,1/2+y,1/2-z
-x,-y,-z
x,1/2-y,1/2+z
loop_
_atom_site_type_symbol
_atom_site_label
_atom_site_fract_x
_atom_site_fract_y
_atom_site_fract_z
Si Si1 0.281200 0.422478 0.673917
Si Si2 0.348850 0.635695 0.149222
Si Si3 0.153152 0.305030 0.423430
Si Si4 0.939592 0.339191 0.228992
Si Si5 0.506831 0.384676 0.229315
O O1 0.262254 0.407856 0.492422
O O2 0.137452 0.510848 0.791062
O O3 0.433180 0.508245 0.656131
O O4 0.276810 0.269677 0.765412
O O5 0.182569 0.707497 0.226867
O O6 0.352830 0.470062 0.217441
O O7 0.486290 0.728503 0.185397
O O8 0.378989 0.628039 0.954967
O O9 0.013878 0.371986 0.373669
O O10 0.076764 0.192689 0.567534
#
# Coordination Sequence:
#
# PCOD8124428 Si02
#       5
#     4   4   4   4   4
#     4  10  21  37  57  86 122 158 204 254 306 363
#     4  10  22  41  65  93 125 162 205 255 305 364
#     4  10  21  36  58  87 120 160 204 252 305 365
#     4  10  19  37  61  88 120 160 203 251 308 365
#     4  10  23  43  64  92 124 161 207 254 308 360
#
# _framework density 28.599249
#
# number of rings (size 3 to 8) (size 9 to 14) (size 15 to 20)
#    0.000    2.000    0.000    3.600    0.000    5.600 
#    0.000   16.000    0.000    0.000    0.000    0.000 
#    0.000    0.000    0.000    0.000    0.000    0.000 
#
# Total GULP energy -247780.347616 kJ/mol
# GULP energy per Si atom -12389.017381 kJ/mol
# Density = 2.853416 g / cm^3
# Si number density = 28.599249 Si / 1000 Ang^3
#
#
#
# Elastic Constant Matrix: (Units=GPa)
#
#
# Indices 1 2 3 4 5 6 
#
# 1 108.8247 14.2103 23.7261 0.0000 24.5382 0.0000
# 2 14.2103 109.0657 21.1374 0.0000 16.7753 0.0000
# 3 23.7261 21.1374 135.3493 0.0000 18.9076 0.0000
# 4 0.0000 0.0000 0.0000 43.9068 0.0000 12.7581
# 5 24.5382 16.7753 18.9076 0.0000 39.4647 0.0000
# 6 0.0000 0.0000 0.0000 12.7581 0.0000 57.4871
#
#
#
# Elastic Compliance Matrix: (Units=1/GPa)
#
#
# Indices 1 2 3 4 5 6 
#
# 1 0.010826 -0.000273 -0.000998 0.000000 -0.006137 0.000000
# 2 -0.000273 0.009950 -0.001006 0.000000 -0.003577 0.000000
# 3 -0.000998 -0.001006 0.008117 0.000000 -0.002841 0.000000
# 4 0.000000 0.000000 0.000000 0.024345 0.000000 -0.005403
# 5 -0.006137 -0.003577 -0.002841 0.000000 0.032037 0.000000
# 6 0.000000 0.000000 0.000000 -0.005403 0.000000 0.018594
#
#
# Mechanical properties :
#
#
# Convention : Reuss Voigt Hill
#
# Bulk Modulus (GPa) = 41.08694 52.37637 46.73166
# Shear Modulus (GPa) = 42.90494 47.78280 45.34387
#
# Velocity S-wave (km/s) = 3.87746 4.09194 3.98614
# Velocity P-wave (km/s) = 5.86889 6.37801 6.12874
#
# Compressibility (1/GPa) = 0.02433863
#
# Stress axis : x y z
#
# Youngs Moduli (GPa) = 92.36890 100.50641 123.19537
#
# Poissons Ratio (x) = 0.02746 0.12292
# Poissons Ratio (y) = 0.02524 0.12396
# Poissons Ratio (z) = 0.09216 0.10113
#
# Static dielectric constant tensor:
#      x y z
#    x 5.371300 0.000000 0.563350 
#    y 0.000000 5.418670 0.000000 
#    z 0.563350 0.000000 5.371890 
# 
# 
# High freq. dielectric constant tensor:
#      x y z
#    x 2.176830 0.000000 0.019120 
#    y 0.000000 2.165940 0.000000 
#    z 0.019120 0.000000 2.178190 
# 
# From -- ./inp_files/11782.got.cif
#   From: 2010.03.12/outbox.cif.g09.slc.cpg/sg14_6_cif.got.tgz:11782.got - 2010.03.31 13:35:05.
