data_PCOD8124194
_publ_section_title
;
Structure prediction by ZEFSAII (Michael W. Deem and Ramdas Pophale) SiO2 
 PCOD8124194
Probable space group: P 21/C
;
_chemical_formula_sum "Si O2"
_cell_formula_units_Z 32
_cell_length_a 7.848365
_cell_length_b 10.258770
_cell_length_c 24.512167
_cell_angle_alpha 90.000000
_cell_angle_beta 43.206720
_cell_angle_gamma 90.000000
_cell_volume 1351.181737
_symmetry_space_group_name_H-M "P 21/C"
_symmetry_group_IT_number 14
_symmetry_cell_setting 'monoclinic'
loop_
_space_group_symop_operation_xyz
x,y,z
-x,1/2+y,1/2-z
-x,-y,-z
x,1/2-y,1/2+z
loop_
_atom_site_type_symbol
_atom_site_label
_atom_site_fract_x
_atom_site_fract_y
_atom_site_fract_z
Si Si1 0.323666 0.582079 0.824506
Si Si2 0.316310 0.851893 0.950677
Si Si3 0.967486 0.057018 0.242661
Si Si4 0.883443 0.986361 0.911532
Si Si5 0.098609 0.255324 0.030390
Si Si6 0.723828 0.703932 0.806288
Si Si7 0.580399 0.843262 0.631578
Si Si8 0.607117 0.553436 0.657529
O O1 0.079754 0.669126 0.886426
O O2 0.572495 0.659963 0.787447
O O3 0.267806 0.453313 0.872117
O O4 0.360891 0.542577 0.752704
O O5 0.057568 0.807744 0.983653
O O6 0.518246 0.734700 0.901362
O O7 0.430589 0.974594 0.889755
O O8 0.269003 0.893981 0.024804
O O9 0.710286 0.131697 0.291761
O O10 0.130300 0.021761 0.150550
O O11 0.122928 0.162332 0.242113
O O12 0.902235 0.915705 0.285025
O O13 0.769033 0.855971 0.964744
O O14 0.171896 0.989782 0.859834
O O15 0.318307 0.346628 0.954631
O O16 0.657594 0.703826 0.635879
#
# Coordination Sequence:
#
# PCOD8124194 Si02
#       8
#     4   4   4   4   4   4   4   4
#     4  10  22  35  58  90 127 158 208 252 320 370
#     4  10  21  37  64  92 128 152 208 257 321 365
#     4  11  25  42  66  86 129 168 223 245 309 372
#     4  11  19  39  61  95 121 161 210 260 299 392
#     4  10  19  35  58  92 129 155 197 257 322 377
#     4  10  24  43  60  91 121 174 208 264 295 375
#     4  11  20  35  59  88 127 165 194 260 319 370
#     4  11  19  35  60  98 120 155 196 265 318 374
#
# _framework density 23.682970999999998
#
# number of rings (size 3 to 8) (size 9 to 14) (size 15 to 20)
#    0.000    1.500    5.000    1.875    5.250    0.500 
#    0.000    0.000    0.000    3.750    0.000    0.000 
#    0.000    0.000    0.000    0.000    0.000    0.000 
#
# Total GULP energy -396519.807591 kJ/mol
# GULP energy per Si atom -12391.243987 kJ/mol
# Density = 2.362907 g / cm^3
# Si number density = 23.682971 Si / 1000 Ang^3
#
#
#
# Elastic Constant Matrix: (Units=GPa)
#
#
# Indices 1 2 3 4 5 6 
#
# 1 25.9099 17.0357 9.7367 0.0000 1.8614 0.0000
# 2 17.0357 117.4603 45.5573 0.0000 -0.2924 0.0000
# 3 9.7367 45.5573 159.1004 0.0000 18.1336 0.0000
# 4 0.0000 0.0000 0.0000 48.8481 0.0000 -2.1498
# 5 1.8614 -0.2924 18.1336 0.0000 17.7309 0.0000
# 6 0.0000 0.0000 0.0000 -2.1498 0.0000 13.9999
#
#
#
# Elastic Compliance Matrix: (Units=1/GPa)
#
#
# Indices 1 2 3 4 5 6 
#
# 1 0.043060 -0.006096 -0.000411 0.000000 -0.004201 0.000000
# 2 -0.006096 0.010620 -0.003125 0.000000 0.004011 0.000000
# 3 -0.000411 -0.003125 0.008157 0.000000 -0.008351 0.000000
# 4 0.000000 0.000000 0.000000 0.020611 0.000000 0.003165
# 5 -0.004201 0.004011 -0.008351 0.000000 0.065446 0.000000
# 6 0.000000 0.000000 0.000000 0.003165 0.000000 0.071915
#
#
# Mechanical properties :
#
#
# Convention : Reuss Voigt Hill
#
# Bulk Modulus (GPa) = 23.48930 49.68113 36.58522
# Shear Modulus (GPa) = 19.74224 31.45848 25.60036
#
# Velocity S-wave (km/s) = 2.89035 3.64856 3.29136
# Velocity P-wave (km/s) = 4.59115 6.22675 5.47042
#
# Compressibility (1/GPa) = 0.04257257
#
# Stress axis : x y z
#
# Youngs Moduli (GPa) = 23.22351 94.16463 122.59293
#
# Poissons Ratio (x) = 0.57405 0.05036
# Poissons Ratio (y) = 0.14158 0.38310
# Poissons Ratio (z) = 0.00954 0.29426
#
# Static dielectric constant tensor:
#      x y z
#    x 3.728510 0.000000 -0.108730 
#    y 0.000000 4.555160 0.000000 
#    z -0.108730 0.000000 4.588120 
# 
# 
# High freq. dielectric constant tensor:
#      x y z
#    x 1.887980 0.000000 -0.014270 
#    y 0.000000 1.944340 0.000000 
#    z -0.014270 0.000000 1.953130 
# 
# From -- ./inp_files/76613.got.cif
#   From: 2010.03.12/outbox.cif.g09.slc.cpg/sg14_39_cif.got.tgz:76613.got - 2010.03.31 13:35:05.
