data_PCOD8124865
_publ_section_title
;
Structure prediction by ZEFSAII (Michael W. Deem and Ramdas Pophale) SiO2 
 PCOD8124865
Probable space group: P 21/C
;
_chemical_formula_sum "Si O2"
_cell_formula_units_Z 32
_cell_length_a 23.188277
_cell_length_b 12.476712
_cell_length_c 16.908642
_cell_angle_alpha 90.000000
_cell_angle_beta 19.393241
_cell_angle_gamma 90.000000
_cell_volume 1624.353922
_symmetry_space_group_name_H-M "P 21/C"
_symmetry_group_IT_number 14
_symmetry_cell_setting 'monoclinic'
loop_
_space_group_symop_operation_xyz
x,y,z
-x,1/2+y,1/2-z
-x,-y,-z
x,1/2-y,1/2+z
loop_
_atom_site_type_symbol
_atom_site_label
_atom_site_fract_x
_atom_site_fract_y
_atom_site_fract_z
Si Si1 0.913151 0.772493 0.001859
Si Si2 0.960160 0.025884 0.246330
Si Si3 0.270993 0.603285 0.294246
Si Si4 0.426433 0.556613 0.478998
Si Si5 0.762758 0.556611 0.142659
Si Si6 0.256845 0.772535 0.658153
Si Si7 0.401478 0.103377 0.533256
Si Si8 0.626833 0.474169 0.079667
O O1 0.070098 0.763466 0.859823
O O2 0.882398 0.659838 0.999564
O O3 0.741015 0.803639 0.273724
O O4 0.952160 0.858570 0.882038
O O5 0.868334 0.026446 0.450695
O O6 0.822366 0.002325 0.355263
O O7 0.098877 0.929373 0.064676
O O8 0.229513 0.696299 0.285216
O O9 0.337404 0.499991 0.162551
O O10 0.415332 0.645477 0.169312
O O11 0.582924 0.591974 0.334167
O O12 0.274271 0.500048 0.725752
O O13 0.353746 0.659893 0.528251
O O14 0.493578 0.473589 0.325459
O O15 0.379479 0.858625 0.454730
O O16 0.426032 0.070681 0.410383
#
# Coordination Sequence:
#
# PCOD8124865 Si02
#       8
#     4   4   4   4   4   4   4   4
#     4  10  20  35  56  82 112 146 184 228 278 328
#     4   9  19  36  56  79 109 145 185 229 276 327
#     4   9  17  31  54  82 108 137 178 226 273 324
#     4  10  22  39  56  78 112 150 185 224 273 328
#     4  10  22  39  56  78 112 150 185 224 273 328
#     4  10  20  35  56  82 112 146 184 228 278 328
#     4   9  17  31  54  82 108 137 178 226 273 324
#     4   9  19  36  56  79 109 145 185 229 276 327
#
# _framework density 19.700140000000001
#
# number of rings (size 3 to 8) (size 9 to 14) (size 15 to 20)
#    0.000    2.500    0.000    1.500    0.000    7.500 
#    0.000    2.500    0.000    0.000    0.000    0.000 
#    0.000    0.000    0.000    0.000    0.000    0.000 
#
# Total GULP energy -396857.352087 kJ/mol
# GULP energy per Si atom -12401.792253 kJ/mol
# Density = 1.965530 g / cm^3
# Si number density = 19.700140 Si / 1000 Ang^3
#
#
#
# Elastic Constant Matrix: (Units=GPa)
#
#
# Indices 1 2 3 4 5 6 
#
# 1 102.6182 47.0778 53.6505 0.0000 5.1778 0.0000
# 2 47.0778 94.6840 46.8631 0.0000 -0.6014 0.0000
# 3 53.6505 46.8631 107.6468 0.0000 8.4707 0.0000
# 4 0.0000 0.0000 0.0000 29.2566 0.0000 -3.7196
# 5 5.1778 -0.6014 8.4707 0.0000 34.3005 0.0000
# 6 0.0000 0.0000 0.0000 -3.7196 0.0000 30.6430
#
#
#
# Elastic Compliance Matrix: (Units=1/GPa)
#
#
# Indices 1 2 3 4 5 6 
#
# 1 0.014675 -0.004745 -0.005168 0.000000 -0.001022 0.000000
# 2 -0.004745 0.015096 -0.004369 0.000000 0.002060 0.000000
# 3 -0.005168 -0.004369 0.013984 0.000000 -0.002750 0.000000
# 4 0.000000 0.000000 0.000000 0.034716 0.000000 0.004214
# 5 -0.001022 0.002060 -0.002750 0.000000 0.030024 0.000000
# 6 0.000000 0.000000 0.000000 0.004214 0.000000 0.033145
#
#
# Mechanical properties :
#
#
# Convention : Reuss Voigt Hill
#
# Bulk Modulus (GPa) = 65.82932 66.68129 66.25530
# Shear Modulus (GPa) = 28.52765 29.33054 28.92909
#
# Velocity S-wave (km/s) = 3.80951 3.86275 3.83622
# Velocity P-wave (km/s) = 7.26898 7.33594 7.30254
#
# Compressibility (1/GPa) = 0.01519080
#
# Stress axis : x y z
#
# Youngs Moduli (GPa) = 68.14193 66.24071 71.51212
#
# Poissons Ratio (x) = 0.31434 0.36956
# Poissons Ratio (y) = 0.32336 0.31244
# Poissons Ratio (z) = 0.35214 0.28941
#
# Static dielectric constant tensor:
#      x y z
#    x 3.621760 0.000000 -0.057030 
#    y 0.000000 3.357350 0.000000 
#    z -0.057030 0.000000 3.599110 
# 
# 
# High freq. dielectric constant tensor:
#      x y z
#    x 1.767660 0.000000 -0.002580 
#    y 0.000000 1.748950 0.000000 
#    z -0.002580 0.000000 1.766620 
# 
# From -- ./inp_files/61999.got.cif
#   From: 2010.03.12/outbox.cif.g09.slc.cpg/sg14_31_cif.got.tgz:61999.got - 2010.03.31 13:35:05.
