data_PCOD8124724
_publ_section_title
;
Structure prediction by ZEFSAII (Michael W. Deem and Ramdas Pophale) SiO2 
 PCOD8124724
Probable space group: P 21/C
;
_chemical_formula_sum "Si O2"
_cell_formula_units_Z 32
_cell_length_a 13.069026
_cell_length_b 17.019677
_cell_length_c 13.428335
_cell_angle_alpha 90.000000
_cell_angle_beta 31.000245
_cell_angle_gamma 90.000000
_cell_volume 1538.364076
_symmetry_space_group_name_H-M "P 21/C"
_symmetry_group_IT_number 14
_symmetry_cell_setting 'monoclinic'
loop_
_space_group_symop_operation_xyz
x,y,z
-x,1/2+y,1/2-z
-x,-y,-z
x,1/2-y,1/2+z
loop_
_atom_site_type_symbol
_atom_site_label
_atom_site_fract_x
_atom_site_fract_y
_atom_site_fract_z
Si Si1 0.506044 0.227534 0.961697
Si Si2 0.640102 0.625491 0.030650
Si Si3 0.681903 0.729722 0.178135
Si Si4 0.081389 0.787914 0.906422
Si Si5 0.305210 0.376236 0.481214
Si Si6 0.894387 0.568319 0.659203
Si Si7 0.102467 0.584949 0.240586
Si Si8 0.535830 0.968271 0.316499
O O1 0.391499 0.303388 0.018476
O O2 0.728752 0.233103 0.730177
O O3 0.403052 0.148756 0.003745
O O4 0.492450 0.224984 0.093267
O O5 0.671112 0.652738 0.118146
O O6 0.457799 0.562978 0.177241
O O7 0.836027 0.582669 0.824252
O O8 0.665868 0.806754 0.123864
O O9 0.890596 0.731228 0.063418
O O10 0.126268 0.827525 0.762866
O O11 0.049995 0.861948 0.006992
O O12 0.418710 0.449284 0.336463
O O13 0.076735 0.404428 0.689424
O O14 0.975645 0.476407 0.603120
O O15 0.691964 0.572139 0.761823
O O16 0.312095 0.561093 0.022249
#
# Coordination Sequence:
#
# PCOD8124724 Si02
#       8
#     4   4   4   4   4   4   4   4
#     4  11  22  39  58  83 116 166 193 240 292 347
#     4  10  21  37  61  87 120 154 190 246 294 348
#     4  10  21  41  54  83 124 151 201 239 281 361
#     4  11  20  34  60  85 116 153 190 240 299 344
#     4  10  22  37  56  86 118 153 202 238 297 352
#     4  11  19  35  61  95 121 142 190 250 309 347
#     4  10  20  32  58  87 123 147 180 249 305 349
#     4  11  20  37  59  92 123 147 193 248 299 349
#
# _framework density 20.801318999999999
#
# number of rings (size 3 to 8) (size 9 to 14) (size 15 to 20)
#    0.000    1.500    3.750    4.125    1.750    1.000 
#    6.750    0.625    0.000    3.750    0.000    0.000 
#    0.000    0.000    0.000    0.000    0.000    0.000 
#
# Total GULP energy -396511.932940 kJ/mol
# GULP energy per Si atom -12390.997904 kJ/mol
# Density = 2.075397 g / cm^3
# Si number density = 20.801319 Si / 1000 Ang^3
#
#
#
# Elastic Constant Matrix: (Units=GPa)
#
#
# Indices 1 2 3 4 5 6 
#
# 1 57.6047 25.0366 37.2028 0.0000 3.0557 0.0000
# 2 25.0366 53.1233 25.5978 0.0000 2.0438 0.0000
# 3 37.2028 25.5978 103.4711 0.0000 -10.5590 0.0000
# 4 0.0000 0.0000 0.0000 20.9817 0.0000 -7.1715
# 5 3.0557 2.0438 -10.5590 0.0000 29.8672 0.0000
# 6 0.0000 0.0000 0.0000 -7.1715 0.0000 32.0673
#
#
#
# Elastic Compliance Matrix: (Units=1/GPa)
#
#
# Indices 1 2 3 4 5 6 
#
# 1 0.026394 -0.008442 -0.007903 0.000000 -0.004917 0.000000
# 2 -0.008442 0.024421 -0.003204 0.000000 -0.001940 0.000000
# 3 -0.007903 -0.003204 0.013905 0.000000 0.005944 0.000000
# 4 0.000000 0.000000 0.000000 0.051605 0.000000 0.011541
# 5 -0.004917 -0.001940 0.005944 0.000000 0.036219 0.000000
# 6 0.000000 0.000000 0.000000 0.011541 0.000000 0.033765
#
#
# Mechanical properties :
#
#
# Convention : Reuss Voigt Hill
#
# Bulk Modulus (GPa) = 39.02926 43.31928 41.17427
# Shear Modulus (GPa) = 21.37220 25.00736 23.18978
#
# Velocity S-wave (km/s) = 3.20885 3.47104 3.34252
# Velocity P-wave (km/s) = 5.70374 6.07739 5.89352
#
# Compressibility (1/GPa) = 0.02562180
#
# Stress axis : x y z
#
# Youngs Moduli (GPa) = 37.88803 40.94778 71.91463
#
# Poissons Ratio (x) = 0.34567 0.56835
# Poissons Ratio (y) = 0.31984 0.23044
# Poissons Ratio (z) = 0.29943 0.13121
#
# Static dielectric constant tensor:
#      x y z
#    x 3.520980 0.000000 0.005390 
#    y 0.000000 3.921820 0.000000 
#    z 0.005390 0.000000 3.920450 
# 
# 
# High freq. dielectric constant tensor:
#      x y z
#    x 1.768150 0.000000 -0.004690 
#    y 0.000000 1.802040 0.000000 
#    z -0.004690 0.000000 1.827980 
# 
# From -- ./inp_files/47528.got.cif
#   From: 2010.03.12/outbox.cif.g09.slc.cpg/sg14_24_cif.got.tgz:47528.got - 2010.03.31 13:35:05.
