data_PCOD8124453
_publ_section_title
;
Structure prediction by ZEFSAII (Michael W. Deem and Ramdas Pophale) SiO2 
 PCOD8124453
Probable space group: P 21/C
;
_chemical_formula_sum "Si O2"
_cell_formula_units_Z 28
_cell_length_a 6.304908
_cell_length_b 17.009778
_cell_length_c 15.856849
_cell_angle_alpha 90.000000
_cell_angle_beta 123.875385
_cell_angle_gamma 90.000000
_cell_volume 1411.900616
_symmetry_space_group_name_H-M "P 21/C"
_symmetry_group_IT_number 14
_symmetry_cell_setting 'monoclinic'
loop_
_space_group_symop_operation_xyz
x,y,z
-x,1/2+y,1/2-z
-x,-y,-z
x,1/2-y,1/2+z
loop_
_atom_site_type_symbol
_atom_site_label
_atom_site_fract_x
_atom_site_fract_y
_atom_site_fract_z
Si Si1 0.299010 0.492270 0.069403
Si Si2 0.574959 0.578643 0.466995
Si Si3 0.573280 0.371524 0.026039
Si Si4 0.604175 0.506107 0.717134
Si Si5 0.023885 0.363969 0.245419
Si Si6 0.495204 0.787805 0.079062
Si Si7 0.148037 0.878508 0.109237
O O1 0.387259 0.404747 0.058962
O O2 0.399199 0.510082 0.184976
O O3 0.418037 0.558689 0.038298
O O4 0.000000 0.500000 0.000000
O O5 0.500000 0.500000 0.500000
O O6 0.431746 0.574684 0.344159
O O7 0.477324 0.653502 0.496129
O O8 0.877666 0.588259 0.518580
O O9 0.845300 0.345110 0.125845
O O10 0.464488 0.297942 0.951055
O O11 0.864649 0.548485 0.745019
O O12 0.363064 0.558080 0.635392
O O13 0.258183 0.303005 0.306208
O O14 0.854369 0.360937 0.291893
O O15 0.237110 0.799311 0.078042
#
# Coordination Sequence:
#
# PCOD8124453 Si02
#       7
#     4   4   4   4   4   4   4
#     4  11  24  42  69  89 119 172 213 270 312 383
#     4  11  20  36  62  96 126 161 213 259 311 386
#     4  11  24  46  62  92 127 165 220 260 320 386
#     4  11  20  37  62  94 120 163 217 250 321 374
#     4  10  20  40  65  86 127 168 202 264 319 378
#     4  10  24  41  59  97 128 166 209 262 325 378
#     4  10  19  37  64  90 123 167 198 260 323 364
#
# _framework density 19.831423999999998
#
# number of rings (size 3 to 8) (size 9 to 14) (size 15 to 20)
#    0.000    1.429    7.143    0.429    0.000    2.286 
#    7.714    0.000    0.000    0.000    0.000    0.000 
#    0.000    0.000    0.000    0.000    0.000    0.000 
#
# Total GULP energy -347064.886428 kJ/mol
# GULP energy per Si atom -12395.174515 kJ/mol
# Density = 1.978629 g / cm^3
# Si number density = 19.831424 Si / 1000 Ang^3
#
#
#
# Elastic Constant Matrix: (Units=GPa)
#
#
# Indices 1 2 3 4 5 6 
#
# 1 105.6956 33.2241 34.9367 0.0000 -6.6191 0.0000
# 2 33.2241 95.3819 42.0195 0.0000 -2.5912 0.0000
# 3 34.9367 42.0195 131.4949 0.0000 -6.9356 0.0000
# 4 0.0000 0.0000 0.0000 27.6053 0.0000 -2.2295
# 5 -6.6191 -2.5912 -6.9356 0.0000 34.6841 0.0000
# 6 0.0000 0.0000 0.0000 -2.2295 0.0000 21.1234
#
#
#
# Elastic Compliance Matrix: (Units=1/GPa)
#
#
# Indices 1 2 3 4 5 6 
#
# 1 0.011131 -0.002989 -0.001922 0.000000 0.001517 0.000000
# 2 -0.002989 0.013005 -0.003376 0.000000 -0.000274 0.000000
# 3 -0.001922 -0.003376 0.009259 0.000000 0.001233 0.000000
# 4 0.000000 0.000000 0.000000 0.036536 0.000000 0.003856
# 5 0.001517 -0.000274 0.001233 0.000000 0.029347 0.000000
# 6 0.000000 0.000000 0.000000 0.003856 0.000000 0.047748
#
#
# Mechanical properties :
#
#
# Convention : Reuss Voigt Hill
#
# Bulk Modulus (GPa) = 59.45063 61.43699 60.44381
# Shear Modulus (GPa) = 29.54922 31.50869 30.52895
#
# Velocity S-wave (km/s) = 3.86427 3.99033 3.92780
# Velocity P-wave (km/s) = 7.06775 7.23030 7.14949
#
# Compressibility (1/GPa) = 0.01682068
#
# Stress axis : x y z
#
# Youngs Moduli (GPa) = 89.83832 76.89190 107.99824
#
# Poissons Ratio (x) = 0.22985 0.20759
# Poissons Ratio (y) = 0.26855 0.36461
# Poissons Ratio (z) = 0.17269 0.25959
#
# Static dielectric constant tensor:
#      x y z
#    x 3.751980 0.000000 -0.023940 
#    y 0.000000 3.263620 0.000000 
#    z -0.023940 0.000000 3.532620 
# 
# 
# High freq. dielectric constant tensor:
#      x y z
#    x 1.784130 0.000000 -0.009630 
#    y 0.000000 1.739280 0.000000 
#    z -0.009630 0.000000 1.781700 
# 
# From -- ./inp_files/37735.got.cif
#   From: 2010.03.12/outbox.cif.g09.slc.cpg/sg14_19_cif.got.tgz:37735.got - 2010.03.31 13:35:05.
