data_PCOD8124063
_publ_section_title
;
Structure prediction by ZEFSAII (Michael W. Deem and Ramdas Pophale) SiO2 
 PCOD8124063
Probable space group: P 21/C
;
_chemical_formula_sum "Si O2"
_cell_formula_units_Z 32
_cell_length_a 10.711372
_cell_length_b 14.209516
_cell_length_c 14.386424
_cell_angle_alpha 90.000000
_cell_angle_beta 47.813133
_cell_angle_gamma 90.000000
_cell_volume 1622.449374
_symmetry_space_group_name_H-M "P 21/C"
_symmetry_group_IT_number 14
_symmetry_cell_setting 'monoclinic'
loop_
_space_group_symop_operation_xyz
x,y,z
-x,1/2+y,1/2-z
-x,-y,-z
x,1/2-y,1/2+z
loop_
_atom_site_type_symbol
_atom_site_label
_atom_site_fract_x
_atom_site_fract_y
_atom_site_fract_z
Si Si1 0.873989 0.668213 0.434661
Si Si2 0.991774 0.523922 0.610716
Si Si3 0.174850 0.197295 0.242328
Si Si4 0.310500 0.358318 0.282007
Si Si5 0.174849 0.697294 0.582822
Si Si6 0.008225 0.523923 0.102491
Si Si7 0.689500 0.141682 0.592508
Si Si8 0.873988 0.168212 0.691351
O O1 0.983759 0.575598 0.348531
O O2 0.771223 0.697602 0.393466
O O3 0.747241 0.646862 0.581725
O O4 0.000001 0.750001 0.405091
O O5 0.148768 0.591747 0.557615
O O6 0.000000 0.500000 0.500000
O O7 0.809100 0.572278 0.719348
O O8 0.310599 0.253956 0.235933
O O9 0.000002 0.250001 0.342457
O O10 0.148769 0.091748 0.293617
O O11 0.500000 0.397926 0.184886
O O12 0.310597 0.753955 0.453466
O O13 0.228778 0.697602 0.664687
O O14 0.983757 0.424403 0.167711
O O15 0.190899 0.572278 0.028448
O O16 0.000000 0.500000 0.000000
O O17 0.747240 0.146862 0.671036
#
# Coordination Sequence:
#
# PCOD8124063 Si02
#       8
#     4   4   4   4   4   4   4   4
#     4  10  19  34  56  77 103 144 188 221 257 321
#     4   9  17  33  55  76 103 140 184 219 256 317
#     4   9  18  33  55  78 102 139 181 219 262 317
#     4  10  20  34  53  81 113 138 170 225 282 322
#     4   9  18  33  55  78 102 139 181 219 262 317
#     4   9  17  33  55  76 103 140 184 219 256 317
#     4  10  20  34  53  81 113 138 170 225 282 322
#     4  10  19  34  56  77 103 144 188 221 257 321
#
# _framework density 19.723265000000001
#
# number of rings (size 3 to 8) (size 9 to 14) (size 15 to 20)
#    0.000    2.500    0.000    4.500    0.000    1.000 
#    0.000   11.250    0.000   27.000    0.000    0.000 
#    0.000    0.000    0.000    0.000    0.000    0.000 
#
# Total GULP energy -396579.892461 kJ/mol
# GULP energy per Si atom -12393.121639 kJ/mol
# Density = 1.967837 g / cm^3
# Si number density = 19.723265 Si / 1000 Ang^3
#
#
#
# Elastic Constant Matrix: (Units=GPa)
#
#
# Indices 1 2 3 4 5 6 
#
# 1 62.9940 24.8861 39.5608 0.0000 -5.3880 0.0000
# 2 24.8861 122.8680 21.2542 0.0000 -11.6610 0.0000
# 3 39.5608 21.2542 61.9002 0.0000 1.8834 0.0000
# 4 0.0000 0.0000 0.0000 23.4921 0.0000 7.4576
# 5 -5.3880 -11.6610 1.8834 0.0000 34.2261 0.0000
# 6 0.0000 0.0000 0.0000 7.4576 0.0000 21.1699
#
#
#
# Elastic Compliance Matrix: (Units=1/GPa)
#
#
# Indices 1 2 3 4 5 6 
#
# 1 0.027994 -0.002249 -0.017259 0.000000 0.004590 0.000000
# 2 -0.002249 0.009179 -0.001802 0.000000 0.002872 0.000000
# 3 -0.017259 -0.001802 0.027952 0.000000 -0.004869 0.000000
# 4 0.000000 0.000000 0.000000 0.047927 0.000000 -0.016883
# 5 0.004590 0.002872 -0.004869 0.000000 0.031187 0.000000
# 6 0.000000 0.000000 0.000000 -0.016883 0.000000 0.053184
#
#
# Mechanical properties :
#
#
# Convention : Reuss Voigt Hill
#
# Bulk Modulus (GPa) = 44.43236 46.57380 45.50308
# Shear Modulus (GPa) = 20.19844 26.58168 23.39006
#
# Velocity S-wave (km/s) = 3.20362 3.67513 3.44744
# Velocity P-wave (km/s) = 6.02171 6.45552 6.24238
#
# Compressibility (1/GPa) = 0.02250612
#
# Stress axis : x y z
#
# Youngs Moduli (GPa) = 35.72159 108.94926 35.77561
#
# Poissons Ratio (x) = 0.24502 0.61744
# Poissons Ratio (y) = 0.08033 0.06446
# Poissons Ratio (z) = 0.61651 0.19629
#
# Static dielectric constant tensor:
#      x y z
#    x 3.421370 0.000000 0.263440 
#    y 0.000000 4.747080 0.000000 
#    z 0.263440 0.000000 3.503410 
# 
# 
# High freq. dielectric constant tensor:
#      x y z
#    x 1.741340 0.000000 0.032860 
#    y 0.000000 1.781580 0.000000 
#    z 0.032860 0.000000 1.751570 
# 
# From -- ./inp_files/41207.got.cif
#   From: 2010.03.12/outbox.cif.g09.slc.cpg/sg14_21_cif.got.tgz:41207.got - 2010.03.31 13:35:05.
