data_PCOD8124568
_publ_section_title
;
Structure prediction by ZEFSAII (Michael W. Deem and Ramdas Pophale) SiO2 
 PCOD8124568
Probable space group: P 21/C
;
_chemical_formula_sum "Si O2"
_cell_formula_units_Z 28
_cell_length_a 27.491869
_cell_length_b 8.478674
_cell_length_c 20.883898
_cell_angle_alpha 90.000000
_cell_angle_beta 16.732300
_cell_angle_gamma 90.000000
_cell_volume 1401.477380
_symmetry_space_group_name_H-M "P 21/C"
_symmetry_group_IT_number 14
_symmetry_cell_setting 'monoclinic'
loop_
_space_group_symop_operation_xyz
x,y,z
-x,1/2+y,1/2-z
-x,-y,-z
x,1/2-y,1/2+z
loop_
_atom_site_type_symbol
_atom_site_label
_atom_site_fract_x
_atom_site_fract_y
_atom_site_fract_z
Si Si1 0.548596 0.978344 0.835024
Si Si2 0.094629 0.370098 0.155519
Si Si3 0.970985 0.761903 0.023475
Si Si4 0.976447 0.549478 0.191726
Si Si5 0.084734 0.539192 0.496425
Si Si6 0.682311 0.186718 0.772348
Si Si7 0.775015 0.014464 0.826334
O O1 0.707803 0.895082 0.602971
O O2 0.602642 0.141242 0.803150
O O3 0.453638 0.858643 0.002881
O O4 0.424997 0.005764 0.930791
O O5 0.999713 0.399422 0.207968
O O6 0.057452 0.190888 0.217480
O O7 0.025179 0.479934 0.300722
O O8 0.852354 0.610417 0.178723
O O9 0.975898 0.858149 0.083212
O O10 0.158482 0.693008 0.771600
O O11 0.892237 0.867225 0.064791
O O12 0.818047 0.525517 0.345271
O O13 0.145432 0.583383 0.936584
O O14 0.263051 0.628140 0.289330
#
# Coordination Sequence:
#
# PCOD8124568 Si02
#       7
#     4   4   4   4   4   4   4
#     4  10  20  35  63  89 122 156 196 250 313 350
#     4  10  22  40  59  87 119 157 193 254 297 352
#     4  10  20  34  65  85 116 160 207 245 286 366
#     4  10  21  39  63  82 118 157 207 232 291 374
#     4  10  19  39  59  89 119 159 202 252 290 357
#     4   9  17  38  60  82 117 160 203 241 289 369
#     4  11  19  38  60  93 110 161 206 243 292 374
#
# _framework density 19.978916000000002
#
# number of rings (size 3 to 8) (size 9 to 14) (size 15 to 20)
#    0.000    2.000    4.286    0.857    2.000    0.000 
#    2.571    0.714    6.286    0.000    0.000    0.000 
#    0.000    0.000    0.000    0.000    0.000    0.000 
#
# Total GULP energy -347015.869082 kJ/mol
# GULP energy per Si atom -12393.423896 kJ/mol
# Density = 1.993344 g / cm^3
# Si number density = 19.978916 Si / 1000 Ang^3
#
#
#
# Elastic Constant Matrix: (Units=GPa)
#
#
# Indices 1 2 3 4 5 6 
#
# 1 114.0428 39.9848 55.5238 0.0000 -18.1121 0.0000
# 2 39.9848 89.2681 36.4357 0.0000 -2.3908 0.0000
# 3 55.5238 36.4357 108.5955 0.0000 -4.1049 0.0000
# 4 0.0000 0.0000 0.0000 16.1008 0.0000 -3.8920
# 5 -18.1121 -2.3908 -4.1049 0.0000 39.0632 0.0000
# 6 0.0000 0.0000 0.0000 -3.8920 0.0000 43.2460
#
#
#
# Elastic Compliance Matrix: (Units=1/GPa)
#
#
# Indices 1 2 3 4 5 6 
#
# 1 0.013629 -0.003705 -0.005517 0.000000 0.005513 0.000000
# 2 -0.003705 0.013992 -0.002844 0.000000 -0.001161 0.000000
# 3 -0.005517 -0.002844 0.012931 0.000000 -0.001373 0.000000
# 4 0.000000 0.000000 0.000000 0.063490 0.000000 0.005714
# 5 0.005513 -0.001161 -0.001373 0.000000 0.027940 0.000000
# 6 0.000000 0.000000 0.000000 0.005714 0.000000 0.023638
#
#
# Mechanical properties :
#
#
# Convention : Reuss Voigt Hill
#
# Bulk Modulus (GPa) = 60.90059 63.97723 62.43891
# Shear Modulus (GPa) = 26.99407 31.67948 29.33678
#
# Velocity S-wave (km/s) = 3.67976 3.98634 3.83611
# Velocity P-wave (km/s) = 6.97157 7.29930 7.13731
#
# Compressibility (1/GPa) = 0.01642020
#
# Stress axis : x y z
#
# Youngs Moduli (GPa) = 73.37088 71.47170 77.33074
#
# Poissons Ratio (x) = 0.26483 0.42663
# Poissons Ratio (y) = 0.27187 0.21991
# Poissons Ratio (z) = 0.40478 0.20325
#
# Static dielectric constant tensor:
#      x y z
#    x 3.803810 0.000000 -0.122130 
#    y 0.000000 3.600270 0.000000 
#    z -0.122130 0.000000 3.609610 
# 
# 
# High freq. dielectric constant tensor:
#      x y z
#    x 1.792720 0.000000 0.001030 
#    y 0.000000 1.766190 0.000000 
#    z 0.001030 0.000000 1.754360 
# 
# From -- ./inp_files/70416.got.cif
#   From: 2010.03.12/outbox.cif.g09.slc.cpg/sg14_36_cif.got.tgz:70416.got - 2010.03.31 13:35:05.
