data_PCOD8124969
_publ_section_title
;
Structure prediction by ZEFSAII (Michael W. Deem and Ramdas Pophale) SiO2 
 PCOD8124969
Probable space group: P 21/C
;
_chemical_formula_sum "Si O2"
_cell_formula_units_Z 32
_cell_length_a 24.294035
_cell_length_b 9.225518
_cell_length_c 8.870587
_cell_angle_alpha 90.000000
_cell_angle_beta 123.209456
_cell_angle_gamma 90.000000
_cell_volume 1663.408865
_symmetry_space_group_name_H-M "P 21/C"
_symmetry_group_IT_number 14
_symmetry_cell_setting 'monoclinic'
loop_
_space_group_symop_operation_xyz
x,y,z
-x,1/2+y,1/2-z
-x,-y,-z
x,1/2-y,1/2+z
loop_
_atom_site_type_symbol
_atom_site_label
_atom_site_fract_x
_atom_site_fract_y
_atom_site_fract_z
Si Si1 0.935472 0.595406 0.228283
Si Si2 0.701958 0.597406 0.728231
Si Si3 0.554650 0.902838 0.655097
Si Si4 0.935472 0.595406 0.578134
Si Si5 0.445350 0.097162 0.991147
Si Si6 0.177174 0.906951 0.587367
Si Si7 0.701958 0.597406 0.377643
Si Si8 0.177174 0.593049 0.444154
O O1 0.917219 0.616244 0.375828
O O2 0.948717 0.750000 0.173075
O O3 1.000000 0.500000 0.304579
O O4 0.876551 0.516825 0.055183
O O5 0.628456 0.542638 0.659219
O O6 0.751858 0.471362 0.853726
O O7 0.708521 0.628302 0.562782
O O8 0.720137 0.750000 0.830205
O O9 0.543408 0.750000 0.565111
O O10 0.543001 0.894129 0.814501
O O11 0.628456 0.957362 0.726150
O O12 0.500000 0.000000 0.500000
O O13 0.876551 0.516825 0.574470
O O14 0.500000 0.000000 0.000000
O O15 0.168119 0.750000 0.502178
O O16 0.169183 0.892451 0.753774
O O17 0.751858 0.471362 0.401849
#
# Coordination Sequence:
#
# PCOD8124969 Si02
#       8
#     4   4   4   4   4   4   4   4
#     4  11  24  41  62  88 118 152 189 231 279 331
#     4   9  20  37  57  81 110 145 186 231 280 335
#     4  10  20  36  56  81 112 147 187 231 281 335
#     4  11  24  41  62  88 118 152 189 231 279 331
#     4  10  20  36  56  81 112 147 187 231 281 335
#     4  11  23  39  59  85 116 150 189 233 281 333
#     4   9  20  37  57  81 110 145 186 231 280 335
#     4  11  23  39  59  85 116 150 189 233 281 333
#
# _framework density 19.237603
#
# number of rings (size 3 to 8) (size 9 to 14) (size 15 to 20)
#    0.000    1.750    0.000    3.750    0.000   10.000 
#    0.000    2.500    0.000    0.000    0.000    0.000 
#    0.000    0.000    0.000    0.000    0.000    0.000 
#
# Total GULP energy -396836.428099 kJ/mol
# GULP energy per Si atom -12401.138378 kJ/mol
# Density = 1.919382 g / cm^3
# Si number density = 19.237603 Si / 1000 Ang^3
#
#
#
# Elastic Constant Matrix: (Units=GPa)
#
#
# Indices 1 2 3 4 5 6 
#
# 1 123.8202 68.5216 58.4307 0.0000 3.0899 0.0000
# 2 68.5216 120.6436 65.5086 0.0000 3.1094 0.0000
# 3 58.4307 65.5086 113.8575 0.0000 7.1914 0.0000
# 4 0.0000 0.0000 0.0000 36.6580 0.0000 -1.9266
# 5 3.0899 3.1094 7.1914 0.0000 26.9650 0.0000
# 6 0.0000 0.0000 0.0000 -1.9266 0.0000 34.7915
#
#
#
# Elastic Compliance Matrix: (Units=1/GPa)
#
#
# Indices 1 2 3 4 5 6 
#
# 1 0.012635 -0.005315 -0.003431 0.000000 0.000080 0.000000
# 2 -0.005315 0.014297 -0.005525 0.000000 0.000434 0.000000
# 3 -0.003431 -0.005525 0.013892 0.000000 -0.002675 0.000000
# 4 0.000000 0.000000 0.000000 0.027359 0.000000 0.001515
# 5 0.000080 0.000434 -0.002675 0.000000 0.037739 0.000000
# 6 0.000000 0.000000 0.000000 0.001515 0.000000 0.028827
#
#
# Mechanical properties :
#
#
# Convention : Reuss Voigt Hill
#
# Bulk Modulus (GPa) = 81.43333 82.58258 82.00796
# Shear Modulus (GPa) = 29.87139 30.74026 30.30582
#
# Velocity S-wave (km/s) = 3.94478 4.00174 3.97336
# Velocity P-wave (km/s) = 7.94799 8.02327 7.98572
#
# Compressibility (1/GPa) = 0.01227998
#
# Stress axis : x y z
#
# Youngs Moduli (GPa) = 79.14718 69.94557 71.98545
#
# Poissons Ratio (x) = 0.37177 0.24698
# Poissons Ratio (y) = 0.42068 0.39775
# Poissons Ratio (z) = 0.27155 0.38648
#
# Static dielectric constant tensor:
#      x y z
#    x 3.749300 0.000000 0.021970 
#    y 0.000000 3.342340 0.000000 
#    z 0.021970 0.000000 3.728010 
# 
# 
# High freq. dielectric constant tensor:
#      x y z
#    x 1.765220 0.000000 0.002040 
#    y 0.000000 1.751450 0.000000 
#    z 0.002040 0.000000 1.763250 
# 
# From -- ./inp_files/19374.got.cif
#   From: 2010.03.12/outbox.cif.g09.slc.cpg/sg14_10_cif.got.tgz:19374.got - 2010.03.31 13:35:05.
