data_PCOD8124552
_publ_section_title
;
Structure prediction by ZEFSAII (Michael W. Deem and Ramdas Pophale) SiO2 
 PCOD8124552
Probable space group: P 21/C
;
_chemical_formula_sum "Si O2"
_cell_formula_units_Z 32
_cell_length_a 10.977351
_cell_length_b 16.027931
_cell_length_c 10.361143
_cell_angle_alpha 90.000000
_cell_angle_beta 117.279039
_cell_angle_gamma 90.000000
_cell_volume 1620.240121
_symmetry_space_group_name_H-M "P 21/C"
_symmetry_group_IT_number 14
_symmetry_cell_setting 'monoclinic'
loop_
_space_group_symop_operation_xyz
x,y,z
-x,1/2+y,1/2-z
-x,-y,-z
x,1/2-y,1/2+z
loop_
_atom_site_type_symbol
_atom_site_label
_atom_site_fract_x
_atom_site_fract_y
_atom_site_fract_z
Si Si1 0.937875 0.425410 0.890010
Si Si2 0.269627 0.728840 0.854988
Si Si3 0.079746 0.000450 0.233244
Si Si4 0.370860 0.950368 0.380171
Si Si5 0.648251 0.090780 0.146114
Si Si6 0.368163 0.028181 0.102619
Si Si7 0.086288 0.747011 0.020235
Si Si8 0.899760 0.891491 0.998786
O O1 0.773645 0.426247 0.804268
O O2 0.984794 0.340196 0.978665
O O3 0.998226 0.430753 0.775470
O O4 0.000000 0.500000 0.000000
O O5 0.372911 0.649158 0.913335
O O6 0.360235 0.812641 0.900907
O O7 0.190536 0.721654 0.680764
O O8 0.161518 0.737545 0.919729
O O9 0.226246 0.981461 0.371716
O O10 0.099716 0.032580 0.100125
O O11 0.990675 0.915033 0.170207
O O12 0.365606 0.968743 0.225955
O O13 0.500000 0.000000 0.500000
O O14 0.515793 0.069737 0.164716
O O15 0.665705 0.032778 0.031185
O O16 0.262410 0.107312 0.045207
O O17 0.955927 0.809339 0.954842
#
# Coordination Sequence:
#
# PCOD8124552 Si02
#       8
#     4   4   4   4   4   4   4   4
#     4  11  23  37  62  94 128 160 204 265 321 372
#     4  11  23  40  65  94 122 166 214 264 315 386
#     4  10  20  38  61  88 117 160 205 255 307 373
#     4  11  24  39  64  90 129 164 210 262 333 379
#     4  10  22  41  64  90 127 168 218 250 312 393
#     4  10  22  41  64  89 123 176 210 253 318 382
#     4  11  23  38  68  94 126 162 217 264 321 374
#     4  10  19  38  66  88 117 159 219 256 296 378
#
# _framework density 19.750160000000001
#
# number of rings (size 3 to 8) (size 9 to 14) (size 15 to 20)
#    0.000    1.500    2.500    3.000    7.000    0.000 
#    2.250    0.000    5.500    0.000    0.000    0.000 
#    0.000    0.000    0.000    0.000    0.000    0.000 
#
# Total GULP energy -396561.542622 kJ/mol
# GULP energy per Si atom -12392.548207 kJ/mol
# Density = 1.970521 g / cm^3
# Si number density = 19.750160 Si / 1000 Ang^3
#
#
#
# Elastic Constant Matrix: (Units=GPa)
#
#
# Indices 1 2 3 4 5 6 
#
# 1 126.5989 64.3080 40.8547 0.0000 12.4476 0.0000
# 2 64.3080 146.4109 31.9048 0.0000 15.9437 0.0000
# 3 40.8547 31.9048 70.8182 0.0000 11.8546 0.0000
# 4 0.0000 0.0000 0.0000 27.8589 0.0000 1.1244
# 5 12.4476 15.9437 11.8546 0.0000 35.0014 0.0000
# 6 0.0000 0.0000 0.0000 1.1244 0.0000 39.8563
#
#
#
# Elastic Compliance Matrix: (Units=1/GPa)
#
#
# Indices 1 2 3 4 5 6 
#
# 1 0.011500 -0.003943 -0.004743 0.000000 -0.000687 0.000000
# 2 -0.003943 0.009126 -0.001458 0.000000 -0.002261 0.000000
# 3 -0.004743 -0.001458 0.018149 0.000000 -0.003796 0.000000
# 4 0.000000 0.000000 0.000000 0.035936 0.000000 -0.001014
# 5 -0.000687 -0.002261 -0.003796 0.000000 0.031130 0.000000
# 6 0.000000 0.000000 0.000000 -0.001014 0.000000 0.025119
#
#
# Mechanical properties :
#
#
# Convention : Reuss Voigt Hill
#
# Bulk Modulus (GPa) = 54.09194 68.66255 61.37724
# Shear Modulus (GPa) = 31.76412 34.32736 33.04574
#
# Velocity S-wave (km/s) = 4.01471 4.17355 4.09490
# Velocity P-wave (km/s) = 6.99557 7.62009 7.31450
#
# Compressibility (1/GPa) = 0.01848704
#
# Stress axis : x y z
#
# Youngs Moduli (GPa) = 86.95731 109.57888 55.09869
#
# Poissons Ratio (x) = 0.43204 0.26133
# Poissons Ratio (y) = 0.34285 0.08035
# Poissons Ratio (z) = 0.41243 0.15980
#
# Static dielectric constant tensor:
#      x y z
#    x 3.975080 0.000000 -0.109310 
#    y 0.000000 3.703010 0.000000 
#    z -0.109310 0.000000 3.690090 
# 
# 
# High freq. dielectric constant tensor:
#      x y z
#    x 1.771970 0.000000 -0.008220 
#    y 0.000000 1.766760 0.000000 
#    z -0.008220 0.000000 1.768260 
# 
# From -- ./inp_files/29828.got.cif
#   From: 2010.03.12/outbox.cif.g09.slc.cpg/sg14_15_cif.got.tgz:29828.got - 2010.03.31 13:35:05.
