data_PCOD8124117
_publ_section_title
;
Structure prediction by ZEFSAII (Michael W. Deem and Ramdas Pophale) SiO2 
 PCOD8124117
Probable space group: P 21/C
;
_chemical_formula_sum "Si O2"
_cell_formula_units_Z 32
_cell_length_a 14.228972
_cell_length_b 12.171357
_cell_length_c 17.533482
_cell_angle_alpha 90.000000
_cell_angle_beta 150.018307
_cell_angle_gamma 90.000000
_cell_volume 1517.435590
_symmetry_space_group_name_H-M "P 21/C"
_symmetry_group_IT_number 14
_symmetry_cell_setting 'monoclinic'
loop_
_space_group_symop_operation_xyz
x,y,z
-x,1/2+y,1/2-z
-x,-y,-z
x,1/2-y,1/2+z
loop_
_atom_site_type_symbol
_atom_site_label
_atom_site_fract_x
_atom_site_fract_y
_atom_site_fract_z
Si Si1 0.016837 0.720754 0.764551
Si Si2 0.318900 0.005624 0.773173
Si Si3 0.915613 0.787917 0.365244
Si Si4 0.587045 0.662632 0.090243
Si Si5 0.672545 0.311511 0.832737
Si Si6 0.335586 0.171843 0.528533
Si Si7 0.332773 0.868519 0.929822
Si Si8 0.314272 0.566299 0.004943
O O1 0.157144 0.826160 0.857074
O O2 0.922780 0.700028 0.779506
O O3 0.840955 0.745152 0.583810
O O4 0.128519 0.606503 0.826419
O O5 0.161450 0.099659 0.650878
O O6 0.332976 0.928911 0.710366
O O7 0.259167 0.936258 0.805452
O O8 0.529401 0.054447 0.924859
O O9 0.764203 0.691087 0.270498
O O10 0.122547 0.758307 0.542287
O O11 0.484649 0.564483 0.063652
O O12 0.647178 0.632319 0.047268
O O13 0.450461 0.765913 0.981723
O O14 0.516968 0.226134 0.694306
O O15 0.651416 0.336287 0.908184
O O16 0.294531 0.050595 0.534846
#
# Coordination Sequence:
#
# PCOD8124117 Si02
#       8
#     4   4   4   4   4   4   4   4
#     4   9  21  37  58  88 116 154 202 248 297 361
#     4  10  19  34  61  87 116 157 202 253 306 361
#     4   9  20  36  58  81 123 155 196 249 308 356
#     4   9  18  41  60  82 112 161 200 246 297 368
#     4  11  23  38  54  91 125 155 200 256 307 361
#     4  11  22  39  63  85 120 160 204 250 301 368
#     4   9  18  33  61  88 112 148 203 253 296 348
#     4  10  23  40  60  88 122 156 200 255 312 357
#
# _framework density 21.088208999999999
#
# number of rings (size 3 to 8) (size 9 to 14) (size 15 to 20)
#    0.000    2.250    1.250    0.750    5.250    4.000 
#    2.250    1.875    0.000    0.000    0.000    0.000 
#    0.000    0.000    0.000    0.000    0.000    0.000 
#
# Total GULP energy -396439.067406 kJ/mol
# GULP energy per Si atom -12388.720856 kJ/mol
# Density = 2.104021 g / cm^3
# Si number density = 21.088209 Si / 1000 Ang^3
#
#
#
# Elastic Constant Matrix: (Units=GPa)
#
#
# Indices 1 2 3 4 5 6 
#
# 1 44.6675 4.8511 8.7928 0.0000 10.7768 0.0000
# 2 4.8511 84.7741 49.4218 0.0000 8.9041 0.0000
# 3 8.7928 49.4218 134.2669 0.0000 23.0282 0.0000
# 4 0.0000 0.0000 0.0000 23.3827 0.0000 2.8007
# 5 10.7768 8.9041 23.0282 0.0000 26.9457 0.0000
# 6 0.0000 0.0000 0.0000 2.8007 0.0000 31.3292
#
#
#
# Elastic Compliance Matrix: (Units=1/GPa)
#
#
# Indices 1 2 3 4 5 6 
#
# 1 0.024799 -0.000537 0.000286 0.000000 -0.009985 0.000000
# 2 -0.000537 0.015032 -0.005487 0.000000 -0.000063 0.000000
# 3 0.000286 -0.005487 0.010730 0.000000 -0.007472 0.000000
# 4 0.000000 0.000000 0.000000 0.043230 0.000000 -0.003865
# 5 -0.009985 -0.000063 -0.007472 0.000000 0.047511 0.000000
# 6 0.000000 0.000000 0.000000 -0.003865 0.000000 0.032265
#
#
# Mechanical properties :
#
#
# Convention : Reuss Voigt Hill
#
# Bulk Modulus (GPa) = 25.58511 43.31555 34.45033
# Shear Modulus (GPa) = 25.24340 29.70770 27.47555
#
# Velocity S-wave (km/s) = 3.46358 3.75738 3.61347
# Velocity P-wave (km/s) = 5.30603 6.27763 5.81217
#
# Compressibility (1/GPa) = 0.03908524
#
# Stress axis : x y z
#
# Youngs Moduli (GPa) = 40.32461 66.52307 93.19374
#
# Poissons Ratio (x) = 0.03574 -0.02668
# Poissons Ratio (y) = 0.02166 0.51137
# Poissons Ratio (z) = -0.01155 0.36503
#
# Static dielectric constant tensor:
#      x y z
#    x 3.715950 0.000000 0.312780 
#    y 0.000000 3.753290 0.000000 
#    z 0.312780 0.000000 4.024220 
# 
# 
# High freq. dielectric constant tensor:
#      x y z
#    x 1.814020 0.000000 0.021010 
#    y 0.000000 1.818780 0.000000 
#    z 0.021010 0.000000 1.821350 
# 
# From -- ./inp_files/59510.got.cif
#   From: 2010.03.12/outbox.cif.g09.slc.cpg/sg14_30_cif.got.tgz:59510.got - 2010.03.31 13:35:05.
