data_PCOD8124583
_publ_section_title
;
Structure prediction by ZEFSAII (Michael W. Deem and Ramdas Pophale) SiO2 
 PCOD8124583
Probable space group: P 21/C
;
_chemical_formula_sum "Si O2"
_cell_formula_units_Z 32
_cell_length_a 29.627592
_cell_length_b 11.193274
_cell_length_c 15.029488
_cell_angle_alpha 90.000000
_cell_angle_beta 19.953613
_cell_angle_gamma 90.000000
_cell_volume 1700.913034
_symmetry_space_group_name_H-M "P 21/C"
_symmetry_group_IT_number 14
_symmetry_cell_setting 'monoclinic'
loop_
_space_group_symop_operation_xyz
x,y,z
-x,1/2+y,1/2-z
-x,-y,-z
x,1/2-y,1/2+z
loop_
_atom_site_type_symbol
_atom_site_label
_atom_site_fract_x
_atom_site_fract_y
_atom_site_fract_z
Si Si1 0.185099 0.297989 0.959245
Si Si2 0.019463 0.642604 0.270633
Si Si3 0.399717 0.332969 0.169084
Si Si4 0.438342 0.883812 0.071901
Si Si5 0.659850 0.054472 0.111002
Si Si6 0.813524 0.276492 0.876703
Si Si7 0.022551 0.576067 0.545331
Si Si8 0.724795 0.039045 0.786015
O O1 0.293966 0.207057 0.792400
O O2 0.256842 0.399817 0.769508
O O3 0.081492 0.229581 0.089713
O O4 0.111829 0.355691 0.179790
O O5 0.073580 0.711365 0.257616
O O6 0.944226 0.518717 0.437385
O O7 0.139957 0.612118 0.981062
O O8 0.326956 0.423348 0.371235
O O9 0.455552 0.223098 0.123737
O O10 0.515002 0.395559 0.899819
O O11 0.312113 0.855498 0.365937
O O12 0.393409 0.906243 0.054209
O O13 0.500000 0.000000 0.000000
O O14 0.773921 0.137953 0.941830
O O15 0.678442 0.050489 0.971985
O O16 0.863588 0.327116 0.687813
O O17 0.000000 0.500000 0.500000
#
# Coordination Sequence:
#
# PCOD8124583 Si02
#       8
#     4   4   4   4   4   4   4   4
#     4  11  21  37  58  85 120 151 195 246 294 346
#     4   9  20  36  57  86 119 152 194 245 289 345
#     4  10  23  40  58  82 120 156 188 249 301 355
#     4  10  19  39  63  81 111 154 196 245 294 335
#     4  10  22  40  57  85 119 152 196 240 304 357
#     4   9  19  38  60  81 117 158 193 233 296 351
#     4   9  19  35  55  83 113 151 197 238 281 350
#     4  10  21  38  60  86 114 151 204 242 284 359
#
# _framework density 18.813424000000001
#
# number of rings (size 3 to 8) (size 9 to 14) (size 15 to 20)
#    0.000    2.250    1.250    1.500    0.000    5.000 
#    2.250    3.125    0.000    0.000    0.000    0.000 
#    0.000    0.000    0.000    0.000    0.000    0.000 
#
# Total GULP energy -396776.385415 kJ/mol
# GULP energy per Si atom -12399.262044 kJ/mol
# Density = 1.877060 g / cm^3
# Si number density = 18.813424 Si / 1000 Ang^3
#
#
#
# Elastic Constant Matrix: (Units=GPa)
#
#
# Indices 1 2 3 4 5 6 
#
# 1 114.5143 66.0104 57.0041 0.0000 -1.7949 0.0000
# 2 66.0104 135.3741 52.2858 0.0000 -7.2587 0.0000
# 3 57.0041 52.2858 70.0028 0.0000 3.3811 0.0000
# 4 0.0000 0.0000 0.0000 31.9436 0.0000 -1.0812
# 5 -1.7949 -7.2587 3.3811 0.0000 37.3708 0.0000
# 6 0.0000 0.0000 0.0000 -1.0812 0.0000 32.5527
#
#
#
# Elastic Compliance Matrix: (Units=1/GPa)
#
#
# Indices 1 2 3 4 5 6 
#
# 1 0.016061 -0.003810 -0.010279 0.000000 0.000961 0.000000
# 2 -0.003810 0.011570 -0.005664 0.000000 0.002577 0.000000
# 3 -0.010279 -0.005664 0.027082 0.000000 -0.004044 0.000000
# 4 0.000000 0.000000 0.000000 0.031340 0.000000 0.001041
# 5 0.000961 0.002577 -0.004044 0.000000 0.027671 0.000000
# 6 0.000000 0.000000 0.000000 0.001041 0.000000 0.030754
#
#
# Mechanical properties :
#
#
# Convention : Reuss Voigt Hill
#
# Bulk Modulus (GPa) = 65.76225 74.49909 70.13067
# Shear Modulus (GPa) = 26.44746 30.01281 28.23014
#
# Velocity S-wave (km/s) = 3.75344 3.99844 3.87787
# Velocity P-wave (km/s) = 7.33589 7.81035 7.57683
#
# Compressibility (1/GPa) = 0.01520629
#
# Stress axis : x y z
#
# Youngs Moduli (GPa) = 62.26435 86.42680 36.92516
#
# Poissons Ratio (x) = 0.32925 0.37957
# Poissons Ratio (y) = 0.23720 0.20916
# Poissons Ratio (z) = 0.64003 0.48955
#
# Static dielectric constant tensor:
#      x y z
#    x 3.322000 0.000000 0.022630 
#    y 0.000000 3.666590 0.000000 
#    z 0.022630 0.000000 3.186650 
# 
# 
# High freq. dielectric constant tensor:
#      x y z
#    x 1.718350 0.000000 0.005920 
#    y 0.000000 1.744770 0.000000 
#    z 0.005920 0.000000 1.731130 
# 
# From -- ./inp_files/52308.got.cif
#   From: 2010.03.12/outbox.cif.g09.slc.cpg/sg14_27_cif.got.tgz:52308.got - 2010.03.31 13:35:05.
