data_PCOD8124841
_publ_section_title
;
Structure prediction by ZEFSAII (Michael W. Deem and Ramdas Pophale) SiO2 
 PCOD8124841
Probable space group: P 21/C
;
_chemical_formula_sum "Si O2"
_cell_formula_units_Z 32
_cell_length_a 19.546513
_cell_length_b 10.257393
_cell_length_c 8.911867
_cell_angle_alpha 90.000000
_cell_angle_beta 76.822528
_cell_angle_gamma 90.000000
_cell_volume 1739.747234
_symmetry_space_group_name_H-M "P 21/C"
_symmetry_group_IT_number 14
_symmetry_cell_setting 'monoclinic'
loop_
_space_group_symop_operation_xyz
x,y,z
-x,1/2+y,1/2-z
-x,-y,-z
x,1/2-y,1/2+z
loop_
_atom_site_type_symbol
_atom_site_label
_atom_site_fract_x
_atom_site_fract_y
_atom_site_fract_z
Si Si1 0.541304 0.383956 0.403143
Si Si2 0.209171 0.115003 0.718704
Si Si3 0.952416 0.616962 0.699533
Si Si4 0.047583 0.383042 0.651954
Si Si5 0.790830 0.614998 0.427869
Si Si6 0.541304 0.383957 0.055553
Si Si7 0.705659 0.115523 0.821416
Si Si8 0.294341 0.615518 0.027079
O O1 0.500000 0.500000 0.500000
O O2 0.521238 0.376888 0.239381
O O3 0.516977 0.250000 0.491512
O O4 0.623449 0.408163 0.386977
O O5 0.128151 0.087662 0.718519
O O6 0.234396 0.250005 0.632808
O O7 0.254572 0.000430 0.627593
O O8 0.221853 0.122958 0.889076
O O9 0.978930 0.750003 0.760531
O O10 0.963181 0.632846 0.518408
O O11 0.999999 0.500003 0.739817
O O12 0.128150 0.412344 0.653334
O O13 0.745429 0.500421 0.382166
O O14 0.500000 0.500000 0.000000
O O15 0.623449 0.408165 0.989571
O O16 0.725992 0.120174 0.637002
O O17 0.729873 0.250004 0.885057
#
# Coordination Sequence:
#
# PCOD8124841 Si02
#       8
#     4   4   4   4   4   4   4   4
#     4  10  21  37  57  80 107 139 175 216 261 310
#     4  10  20  35  55  78 106 140 177 218 262 310
#     4   9  19  35  53  76 105 136 173 215 259 308
#     4   9  19  35  53  76 105 136 173 215 259 308
#     4  10  20  35  55  78 106 140 177 218 262 310
#     4  10  21  37  57  80 107 139 175 216 261 310
#     4  10  21  37  56  79 107 139 175 216 262 311
#     4  10  21  37  56  79 107 139 175 216 262 311
#
# _framework density 18.393477000000001
#
# number of rings (size 3 to 8) (size 9 to 14) (size 15 to 20)
#    0.000    2.250    0.000    2.250    0.000    6.500 
#    0.000    2.500    0.000    0.000    0.000    0.000 
#    0.000    0.000    0.000    0.000    0.000    0.000 
#
# Total GULP energy -396934.180554 kJ/mol
# GULP energy per Si atom -12404.193142 kJ/mol
# Density = 1.835161 g / cm^3
# Si number density = 18.393477 Si / 1000 Ang^3
#
#
#
# Elastic Constant Matrix: (Units=GPa)
#
#
# Indices 1 2 3 4 5 6 
#
# 1 62.0597 82.8265 53.0854 0.0000 5.9791 0.0000
# 2 82.8265 203.4634 93.1427 0.0000 2.1411 0.0000
# 3 53.0854 93.1427 114.4678 0.0000 4.8578 0.0000
# 4 0.0000 0.0000 0.0000 43.7008 0.0000 -0.3400
# 5 5.9791 2.1411 4.8578 0.0000 18.7159 0.0000
# 6 0.0000 0.0000 0.0000 -0.3400 0.0000 45.3476
#
#
#
# Elastic Compliance Matrix: (Units=1/GPa)
#
#
# Indices 1 2 3 4 5 6 
#
# 1 0.041418 -0.012993 -0.008228 0.000000 -0.009610 0.000000
# 2 -0.012993 0.011919 -0.003834 0.000000 0.003782 0.000000
# 3 -0.008228 -0.003834 0.015714 0.000000 -0.001012 0.000000
# 4 0.000000 0.000000 0.000000 0.022884 0.000000 0.000172
# 5 -0.009610 0.003782 -0.001012 0.000000 0.056330 0.000000
# 6 0.000000 0.000000 0.000000 0.000172 0.000000 0.022053
#
#
# Mechanical properties :
#
#
# Convention : Reuss Voigt Hill
#
# Bulk Modulus (GPa) = 52.79072 93.12221 72.95647
# Shear Modulus (GPa) = 22.05149 31.61527 26.83338
#
# Velocity S-wave (km/s) = 3.46623 4.15038 3.82364
# Velocity P-wave (km/s) = 6.69199 8.58518 7.69701
#
# Compressibility (1/GPa) = 0.01894272
#
# Stress axis : x y z
#
# Youngs Moduli (GPa) = 24.14417 83.89787 63.63663
#
# Poissons Ratio (x) = 1.09007 0.52359
# Poissons Ratio (y) = 0.31370 0.24396
# Poissons Ratio (z) = 0.19865 0.32164
#
# Static dielectric constant tensor:
#      x y z
#    x 3.384910 0.000000 0.097810 
#    y 0.000000 3.527380 0.000000 
#    z 0.097810 0.000000 3.858300 
# 
# 
# High freq. dielectric constant tensor:
#      x y z
#    x 1.707180 0.000000 0.003900 
#    y 0.000000 1.726760 0.000000 
#    z 0.003900 0.000000 1.726040 
# 
# From -- ./inp_files/18598.got.cif
#   From: 2010.03.12/outbox.cif.g09.slc.cpg/sg14_10_cif.got.tgz:18598.got - 2010.03.31 13:35:05.
