data_PCOD8124157
_publ_section_title
;
Structure prediction by ZEFSAII (Michael W. Deem and Ramdas Pophale) SiO2 
 PCOD8124157
Probable space group: P 21/C
;
_chemical_formula_sum "Si O2"
_cell_formula_units_Z 28
_cell_length_a 12.491817
_cell_length_b 5.274994
_cell_length_c 21.344180
_cell_angle_alpha 90.000000
_cell_angle_beta 96.198284
_cell_angle_gamma 90.000000
_cell_volume 1398.237060
_symmetry_space_group_name_H-M "P 21/C"
_symmetry_group_IT_number 14
_symmetry_cell_setting 'monoclinic'
loop_
_space_group_symop_operation_xyz
x,y,z
-x,1/2+y,1/2-z
-x,-y,-z
x,1/2-y,1/2+z
loop_
_atom_site_type_symbol
_atom_site_label
_atom_site_fract_x
_atom_site_fract_y
_atom_site_fract_z
Si Si1 0.255844 0.536996 0.775233
Si Si2 0.143173 0.563257 0.565315
Si Si3 0.873653 0.739963 0.820467
Si Si4 0.914043 0.792740 0.054293
Si Si5 0.513946 0.884879 0.711621
Si Si6 0.294922 0.840844 0.650246
Si Si7 0.104531 0.805698 0.368196
O O1 0.169799 0.316582 0.751171
O O2 0.367218 0.424789 0.810216
O O3 0.284265 0.682963 0.713646
O O4 0.200346 0.712989 0.823589
O O5 0.110421 0.477526 0.632962
O O6 0.154449 0.343807 0.513770
O O7 0.257862 0.702600 0.583297
O O8 0.040005 0.741820 0.541347
O O9 0.783189 0.577911 0.849321
O O10 0.993232 0.619518 0.824434
O O11 0.870176 0.535166 0.082128
O O12 0.896400 0.037427 0.097301
O O13 0.512835 0.601739 0.739402
O O14 0.421482 0.910656 0.651998
#
# Coordination Sequence:
#
# PCOD8124157 Si02
#       7
#     4   4   4   4   4   4   4
#     4  10  23  35  54  82 119 149 178 225 280 346
#     4   9  20  35  56  81 109 140 193 233 276 306
#     4  10  20  33  55  83 110 145 179 230 271 335
#     4  10  22  37  55  81 111 150 183 229 268 338
#     4  10  20  36  55  80 109 146 187 229 272 324
#     4  10  19  35  56  82 108 141 190 231 275 316
#     4  11  24  35  55  82 118 149 179 212 288 337
#
# _framework density 20.025214999999999
#
# number of rings (size 3 to 8) (size 9 to 14) (size 15 to 20)
#    0.000    2.000    2.857    0.000    6.000    1.714 
#    0.000    0.000    0.000    1.714    0.000    0.000 
#    0.000    0.000    0.000    0.000    0.000    0.000 
#
# Total GULP energy -346873.830657 kJ/mol
# GULP energy per Si atom -12388.351095 kJ/mol
# Density = 1.997964 g / cm^3
# Si number density = 20.025215 Si / 1000 Ang^3
#
#
#
# Elastic Constant Matrix: (Units=GPa)
#
#
# Indices 1 2 3 4 5 6 
#
# 1 112.7728 -0.7121 43.0581 0.0000 18.4323 0.0000
# 2 -0.7121 47.8758 -2.3607 0.0000 1.2509 0.0000
# 3 43.0581 -2.3607 45.0886 0.0000 9.2788 0.0000
# 4 0.0000 0.0000 0.0000 20.0605 0.0000 1.7343
# 5 18.4323 1.2509 9.2788 0.0000 24.0237 0.0000
# 6 0.0000 0.0000 0.0000 1.7343 0.0000 22.0690
#
#
#
# Elastic Compliance Matrix: (Units=1/GPa)
#
#
# Indices 1 2 3 4 5 6 
#
# 1 0.014815 -0.000246 -0.012845 0.000000 -0.006393 0.000000
# 2 -0.000246 0.021005 0.001652 0.000000 -0.001543 0.000000
# 3 -0.012845 0.001652 0.035330 0.000000 -0.003876 0.000000
# 4 0.000000 0.000000 0.000000 0.050190 0.000000 -0.003944
# 5 -0.006393 -0.001543 -0.003876 0.000000 0.048108 0.000000
# 6 0.000000 0.000000 0.000000 -0.003944 0.000000 0.045622
#
#
# Mechanical properties :
#
#
# Convention : Reuss Voigt Hill
#
# Bulk Modulus (GPa) = 20.71589 31.74532 26.23061
# Shear Modulus (GPa) = 19.68198 24.28078 21.98138
#
# Velocity S-wave (km/s) = 3.13846 3.48589 3.31673
# Velocity P-wave (km/s) = 4.84774 5.66471 5.27208
#
# Compressibility (1/GPa) = 0.04827212
#
# Stress axis : x y z
#
# Youngs Moduli (GPa) = 67.49802 47.60660 28.30493
#
# Poissons Ratio (x) = 0.01171 0.36359
# Poissons Ratio (y) = 0.01660 -0.04677
# Poissons Ratio (z) = 0.86704 -0.07866
#
# Static dielectric constant tensor:
#      x y z
#    x 4.107420 0.000000 0.503860 
#    y 0.000000 3.628270 0.000000 
#    z 0.503860 0.000000 3.525050 
# 
# 
# High freq. dielectric constant tensor:
#      x y z
#    x 1.770220 0.000000 0.031430 
#    y 0.000000 1.782350 0.000000 
#    z 0.031430 0.000000 1.748310 
# 
# From -- ./inp_files/66281.got.cif
#   From: 2010.03.12/outbox.cif.g09.slc.cpg/sg14_34_cif.got.tgz:66281.got - 2010.03.31 13:35:05.
