data_PCOD8124295
_publ_section_title
;
Structure prediction by ZEFSAII (Michael W. Deem and Ramdas Pophale) SiO2 
 PCOD8124295
Probable space group: P 21/C
;
_chemical_formula_sum "Si O2"
_cell_formula_units_Z 32
_cell_length_a 11.910374
_cell_length_b 9.288224
_cell_length_c 14.656791
_cell_angle_alpha 90.000000
_cell_angle_beta 106.906959
_cell_angle_gamma 90.000000
_cell_volume 1551.344597
_symmetry_space_group_name_H-M "P 21/C"
_symmetry_group_IT_number 14
_symmetry_cell_setting 'monoclinic'
loop_
_space_group_symop_operation_xyz
x,y,z
-x,1/2+y,1/2-z
-x,-y,-z
x,1/2-y,1/2+z
loop_
_atom_site_type_symbol
_atom_site_label
_atom_site_fract_x
_atom_site_fract_y
_atom_site_fract_z
Si Si1 0.138228 0.390298 0.387478
Si Si2 0.731768 0.402148 0.719551
Si Si3 0.699541 0.132439 0.416407
Si Si4 0.127952 0.609802 0.733348
Si Si5 0.220026 0.423821 0.903868
Si Si6 0.522841 0.603859 0.423511
Si Si7 0.538356 0.860319 0.558032
Si Si8 0.756027 0.456283 0.420989
O O1 0.216267 0.463659 0.325510
O O2 0.172723 0.229482 0.423166
O O3 0.154305 0.479689 0.483802
O O4 0.005453 0.373497 0.325927
O O5 0.730300 0.438651 0.826485
O O6 0.810540 0.259881 0.723056
O O7 0.596442 0.373057 0.661294
O O8 0.560606 0.174787 0.390657
O O9 0.758761 0.286806 0.445056
O O10 0.746319 0.019648 0.500818
O O11 0.126069 0.508276 0.821400
O O12 0.195916 0.526301 0.669457
O O13 0.334922 0.391850 0.867475
O O14 0.500000 0.500000 0.500000
O O15 0.560140 0.751063 0.479585
O O16 0.629398 0.535553 0.390517
O O17 0.500000 0.000000 0.500000
#
# Coordination Sequence:
#
# PCOD8124295 Si02
#       8
#     4   4   4   4   4   4   4   4
#     4  12  23  45  67  94 132 176 227 273 324 397
#     4  11  24  43  68  98 130 176 221 268 338 401
#     4  10  23  41  65  96 134 170 212 271 339 395
#     4  11  26  44  66  94 133 179 223 274 327 394
#     4  11  23  41  63  96 130 171 221 272 331 385
#     4  12  20  40  68  94 129 171 211 267 333 394
#     4  10  19  36  58  90 130 166 197 263 325 380
#     4  11  23  42  67  98 129 175 223 269 337 399
#
# _framework density 20.627268999999998
#
# number of rings (size 3 to 8) (size 9 to 14) (size 15 to 20)
#    0.000    1.000    3.750    3.375    1.750    1.000 
#    2.250    6.875    0.000    0.000    0.000    0.000 
#    0.000    0.000    0.000    0.000    0.000    0.000 
#
# Total GULP energy -396533.876608 kJ/mol
# GULP energy per Si atom -12391.683644 kJ/mol
# Density = 2.058032 g / cm^3
# Si number density = 20.627269 Si / 1000 Ang^3
#
#
#
# Elastic Constant Matrix: (Units=GPa)
#
#
# Indices 1 2 3 4 5 6 
#
# 1 74.1129 18.5633 22.4451 0.0000 17.2919 0.0000
# 2 18.5633 109.4219 44.9703 0.0000 2.8207 0.0000
# 3 22.4451 44.9703 86.3300 0.0000 9.8864 0.0000
# 4 0.0000 0.0000 0.0000 21.5331 0.0000 9.1680
# 5 17.2919 2.8207 9.8864 0.0000 45.0652 0.0000
# 6 0.0000 0.0000 0.0000 9.1680 0.0000 25.4430
#
#
#
# Elastic Compliance Matrix: (Units=1/GPa)
#
#
# Indices 1 2 3 4 5 6 
#
# 1 0.015959 -0.001422 -0.002787 0.000000 -0.005423 0.000000
# 2 -0.001422 0.011772 -0.005888 0.000000 0.001101 0.000000
# 3 -0.002787 -0.005888 0.015603 0.000000 -0.001985 0.000000
# 4 0.000000 0.000000 0.000000 0.054856 0.000000 -0.019766
# 5 -0.005423 0.001101 -0.001985 0.000000 0.024637 0.000000
# 6 0.000000 0.000000 0.000000 -0.019766 0.000000 0.046426
#
#
# Mechanical properties :
#
#
# Convention : Reuss Voigt Hill
#
# Bulk Modulus (GPa) = 43.21959 49.09136 46.15547
# Shear Modulus (GPa) = 25.36002 30.66733 28.01368
#
# Velocity S-wave (km/s) = 3.51014 3.86001 3.68922
# Velocity P-wave (km/s) = 6.11770 6.61189 6.36959
#
# Compressibility (1/GPa) = 0.02313766
#
# Stress axis : x y z
#
# Youngs Moduli (GPa) = 62.66243 84.94849 64.09110
#
# Poissons Ratio (x) = 0.12080 0.17864
# Poissons Ratio (y) = 0.08911 0.37740
# Poissons Ratio (z) = 0.17466 0.50021
#
# Static dielectric constant tensor:
#      x y z
#    x -0.448000 0.000000 -0.482760 
#    y 0.000000 3.638610 0.000000 
#    z -0.482760 0.000000 3.464930 
# 
# 
# High freq. dielectric constant tensor:
#      x y z
#    x 1.809930 0.000000 0.009870 
#    y 0.000000 1.821450 0.000000 
#    z 0.009870 0.000000 1.801930 
# 
# From -- ./inp_files/43764.got.cif
#   From: 2010.03.12/outbox.cif.g09.slc.cpg/sg14_22_cif.got.tgz:43764.got - 2010.03.31 13:35:05.
