data_PCOD8124700
_publ_section_title
;
Structure prediction by ZEFSAII (Michael W. Deem and Ramdas Pophale) SiO2 
 PCOD8124700
Probable space group: P 21/C
;
_chemical_formula_sum "Si O2"
_cell_formula_units_Z 20
_cell_length_a 9.443279
_cell_length_b 16.629177
_cell_length_c 7.706896
_cell_angle_alpha 90.000000
_cell_angle_beta 50.171950
_cell_angle_gamma 90.000000
_cell_volume 929.431447
_symmetry_space_group_name_H-M "P 21/C"
_symmetry_group_IT_number 14
_symmetry_cell_setting 'monoclinic'
loop_
_space_group_symop_operation_xyz
x,y,z
-x,1/2+y,1/2-z
-x,-y,-z
x,1/2-y,1/2+z
loop_
_atom_site_type_symbol
_atom_site_label
_atom_site_fract_x
_atom_site_fract_y
_atom_site_fract_z
Si Si1 0.930828 0.583918 0.851351
Si Si2 0.521756 0.655182 0.685803
Si Si3 0.123051 0.900424 0.558358
Si Si4 0.105804 0.335648 0.462414
Si Si5 0.348958 0.189833 0.278707
O O1 0.999548 0.622487 0.616004
O O2 0.058863 0.611888 0.910629
O O3 0.930132 0.488540 0.832690
O O4 0.723168 0.617760 0.043056
O O5 0.342175 0.610262 0.893543
O O6 0.702400 0.617628 0.638832
O O7 0.549022 0.646033 0.458986
O O8 0.508454 0.752024 0.731956
O O9 0.027894 0.837347 0.764681
O O10 0.167296 0.243858 0.366368
#
# Coordination Sequence:
#
# PCOD8124700 Si02
#       5
#     4   4   4   4   4
#     4  11  22  44  67  95 133 170 205 274 326 366
#     4  10  22  42  64  93 125 170 218 259 317 389
#     4  11  25  41  66  99 130 166 220 258 325 393
#     4  10  21  44  66  89 132 169 210 271 308 381
#     4  10  19  43  64  87 129 170 207 267 315 366
#
# _framework density 21.518532
#
# number of rings (size 3 to 8) (size 9 to 14) (size 15 to 20)
#    1.200    0.400    4.000    0.600    0.000    3.200 
#    7.200    0.000    0.000    0.000    0.000    0.000 
#    0.000    0.000    0.000    0.000    0.000    0.000 
#
# Total GULP energy -247822.941735 kJ/mol
# GULP energy per Si atom -12391.147087 kJ/mol
# Density = 2.146955 g / cm^3
# Si number density = 21.518532 Si / 1000 Ang^3
#
#
#
# Elastic Constant Matrix: (Units=GPa)
#
#
# Indices 1 2 3 4 5 6 
#
# 1 61.1159 1.6525 38.4116 0.0000 6.6866 0.0000
# 2 1.6525 30.3181 11.6689 0.0000 -8.0028 0.0000
# 3 38.4116 11.6689 114.6220 0.0000 7.0370 0.0000
# 4 0.0000 0.0000 0.0000 22.8385 0.0000 1.1158
# 5 6.6866 -8.0028 7.0370 0.0000 27.5704 0.0000
# 6 0.0000 0.0000 0.0000 1.1158 0.0000 23.4684
#
#
#
# Elastic Compliance Matrix: (Units=1/GPa)
#
#
# Indices 1 2 3 4 5 6 
#
# 1 0.021042 0.000693 -0.006930 0.000000 -0.003133 0.000000
# 2 0.000693 0.038004 -0.004844 0.000000 0.012100 0.000000
# 3 -0.006930 -0.004844 0.011706 0.000000 -0.002713 0.000000
# 4 0.000000 0.000000 0.000000 0.043888 0.000000 -0.002087
# 5 -0.003133 0.012100 -0.002713 0.000000 0.041235 0.000000
# 6 0.000000 0.000000 0.000000 -0.002087 0.000000 0.042710
#
#
# Mechanical properties :
#
#
# Convention : Reuss Voigt Hill
#
# Bulk Modulus (GPa) = 20.57994 34.39132 27.48563
# Shear Modulus (GPa) = 21.10211 25.06364 23.08288
#
# Velocity S-wave (km/s) = 3.13493 3.41654 3.27876
# Velocity P-wave (km/s) = 4.76322 5.61966 5.20907
#
# Compressibility (1/GPa) = 0.04859100
#
# Stress axis : x y z
#
# Youngs Moduli (GPa) = 47.52462 26.31295 85.42435
#
# Poissons Ratio (x) = -0.01824 0.59196
# Poissons Ratio (y) = -0.03294 0.41380
# Poissons Ratio (z) = 0.32933 0.12746
#
# Static dielectric constant tensor:
#      x y z
#    x 3.657820 0.000000 0.180800 
#    y 0.000000 3.610880 0.000000 
#    z 0.180800 0.000000 3.657620 
# 
# 
# High freq. dielectric constant tensor:
#      x y z
#    x 1.823730 0.000000 0.021200 
#    y 0.000000 1.823140 0.000000 
#    z 0.021200 0.000000 1.844570 
# 
# From -- ./inp_files/13652.got.cif
#   From: 2010.03.12/outbox.cif.g09.slc.cpg/sg14_7_cif.got.tgz:13652.got - 2010.03.31 13:35:05.
