data_PCOD8124580
_publ_section_title
;
Structure prediction by ZEFSAII (Michael W. Deem and Ramdas Pophale) SiO2 
 PCOD8124580
Probable space group: P 21/C
;
_chemical_formula_sum "Si O2"
_cell_formula_units_Z 28
_cell_length_a 19.840944
_cell_length_b 9.953036
_cell_length_c 21.646744
_cell_angle_alpha 90.000000
_cell_angle_beta 19.163109
_cell_angle_gamma 90.000000
_cell_volume 1403.222369
_symmetry_space_group_name_H-M "P 21/C"
_symmetry_group_IT_number 14
_symmetry_cell_setting 'monoclinic'
loop_
_space_group_symop_operation_xyz
x,y,z
-x,1/2+y,1/2-z
-x,-y,-z
x,1/2-y,1/2+z
loop_
_atom_site_type_symbol
_atom_site_label
_atom_site_fract_x
_atom_site_fract_y
_atom_site_fract_z
Si Si1 0.896396 0.164064 0.129692
Si Si2 0.603959 0.187163 0.202821
Si Si3 0.386126 0.452317 0.537952
Si Si4 0.021051 0.105361 0.890210
Si Si5 0.997278 0.454715 0.072756
Si Si6 0.468003 0.153842 0.451172
Si Si7 0.556324 0.499837 0.265744
O O1 0.661823 0.106913 0.325280
O O2 0.906192 0.304152 0.157462
O O3 0.022887 0.052368 0.058368
O O4 0.004239 0.186459 0.969426
O O5 0.504338 0.112186 0.348583
O O6 0.543542 0.345615 0.252000
O O7 0.520015 0.107758 0.217240
O O8 0.851810 0.166892 0.990414
O O9 0.500000 0.500000 0.500000
O O10 0.486976 0.312460 0.434593
O O11 0.423740 0.534129 0.442136
O O12 0.145731 0.447392 0.762336
O O13 0.247684 0.109264 0.665588
O O14 0.213615 0.462469 0.917261
O O15 0.000000 0.500000 0.000000
#
# Coordination Sequence:
#
# PCOD8124580 Si02
#       7
#     4   4   4   4   4   4   4
#     4  10  21  34  58  97 120 157 207 248 313 366
#     4  10  24  44  60  88 121 169 208 243 309 370
#     4  11  20  37  62  94 119 151 203 262 306 361
#     4  10  21  38  60  85 130 162 195 259 305 362
#     4  12  21  37  63  93 122 157 206 262 316 356
#     4  10  19  39  62  86 126 158 198 253 309 363
#     4  11  25  42  64  90 127 165 208 256 303 376
#
# _framework density 19.954070999999999
#
# number of rings (size 3 to 8) (size 9 to 14) (size 15 to 20)
#    0.000    1.429    2.857    3.857    2.000    1.143 
#    2.571    0.000    0.000    0.000    0.000    0.000 
#    0.000    0.000    0.000    0.000    0.000    0.000 
#
# Total GULP energy -347043.903282 kJ/mol
# GULP energy per Si atom -12394.425117 kJ/mol
# Density = 1.990866 g / cm^3
# Si number density = 19.954071 Si / 1000 Ang^3
#
#
#
# Elastic Constant Matrix: (Units=GPa)
#
#
# Indices 1 2 3 4 5 6 
#
# 1 121.6166 45.1463 50.9060 0.0000 -3.7818 0.0000
# 2 45.1463 70.0867 14.8985 0.0000 -6.3462 0.0000
# 3 50.9060 14.8985 136.8677 0.0000 9.8016 0.0000
# 4 0.0000 0.0000 0.0000 27.8776 0.0000 -4.3341
# 5 -3.7818 -6.3462 9.8016 0.0000 25.6163 0.0000
# 6 0.0000 0.0000 0.0000 -4.3341 0.0000 33.0472
#
#
#
# Elastic Compliance Matrix: (Units=1/GPa)
#
#
# Indices 1 2 3 4 5 6 
#
# 1 0.012600 -0.007111 -0.004030 0.000000 0.001640 0.000000
# 2 -0.007111 0.019106 0.000310 0.000000 0.003565 0.000000
# 3 -0.004030 0.000310 0.009057 0.000000 -0.003984 0.000000
# 4 0.000000 0.000000 0.000000 0.036618 0.000000 0.004802
# 5 0.001640 0.003565 -0.003984 0.000000 0.041687 0.000000
# 6 0.000000 0.000000 0.000000 0.004802 0.000000 0.030890
#
#
# Mechanical properties :
#
#
# Convention : Reuss Voigt Hill
#
# Bulk Modulus (GPa) = 52.35544 61.16362 56.75953
# Shear Modulus (GPa) = 28.09208 31.81624 29.95416
#
# Velocity S-wave (km/s) = 3.75619 3.99742 3.87868
# Velocity P-wave (km/s) = 6.71616 7.21280 6.96891
#
# Compressibility (1/GPa) = 0.01910021
#
# Stress axis : x y z
#
# Youngs Moduli (GPa) = 79.36380 52.34052 110.41536
#
# Poissons Ratio (x) = 0.37221 0.44496
# Poissons Ratio (y) = 0.56438 -0.03422
# Poissons Ratio (z) = 0.31982 -0.01622
#
# Static dielectric constant tensor:
#      x y z
#    x 3.408170 0.000000 0.252140 
#    y 0.000000 2.875840 0.000000 
#    z 0.252140 0.000000 4.210110 
# 
# 
# High freq. dielectric constant tensor:
#      x y z
#    x 1.760220 0.000000 0.004710 
#    y 0.000000 1.778290 0.000000 
#    z 0.004710 0.000000 1.790090 
# 
# From -- ./inp_files/69259.got.cif
#   From: 2010.03.12/outbox.cif.g09.slc.cpg/sg14_35_cif.got.tgz:69259.got - 2010.03.31 13:35:05.
