data_PCOD8124956
_publ_section_title
;
Structure prediction by ZEFSAII (Michael W. Deem and Ramdas Pophale) SiO2 
 PCOD8124956
Probable space group: P 21/C
;
_chemical_formula_sum "Si O2"
_cell_formula_units_Z 28
_cell_length_a 19.948965
_cell_length_b 15.095933
_cell_length_c 15.947426
_cell_angle_alpha 90.000000
_cell_angle_beta 19.630489
_cell_angle_gamma 90.000000
_cell_volume 1613.426619
_symmetry_space_group_name_H-M "P 21/C"
_symmetry_group_IT_number 14
_symmetry_cell_setting 'monoclinic'
loop_
_space_group_symop_operation_xyz
x,y,z
-x,1/2+y,1/2-z
-x,-y,-z
x,1/2-y,1/2+z
loop_
_atom_site_type_symbol
_atom_site_label
_atom_site_fract_x
_atom_site_fract_y
_atom_site_fract_z
Si Si1 0.265381 0.922424 0.422301
Si Si2 0.672093 0.983626 0.979121
Si Si3 0.005063 0.243496 0.260746
Si Si4 0.920749 0.683763 0.148632
Si Si5 0.351046 0.878726 0.138826
Si Si6 0.230931 0.298068 0.844010
Si Si7 0.026530 0.928273 0.262245
O O1 0.177269 0.824107 0.538562
O O2 0.335692 0.933518 0.243114
O O3 0.097438 0.995913 0.640761
O O4 0.460993 0.935658 0.250538
O O5 0.832932 0.915241 0.753624
O O6 0.617326 0.055931 0.974990
O O7 0.765595 0.030607 0.950459
O O8 0.120900 0.228588 0.212046
O O9 0.923306 0.345069 0.357890
O O10 0.160241 0.229943 0.000333
O O11 0.820301 0.737139 0.189650
O O12 0.156046 0.680907 0.854715
O O13 0.533932 0.810627 0.925923
O O14 0.109408 0.390994 0.000479
#
# Coordination Sequence:
#
# PCOD8124956 Si02
#       7
#     4   4   4   4   4   4   4
#     4  11  20  33  54  80 115 141 175 222 275 336
#     4  12  18  30  55  82 108 141 170 224 295 328
#     4   9  22  38  48  82 119 141 181 225 266 330
#     4  11  20  33  54  78 114 146 173 219 283 329
#     4  11  18  30  54  87 109 132 173 221 291 339
#     4  10  20  36  52  80 117 140 175 227 271 331
#     4  10  20  36  51  80 117 137 179 224 267 333
#
# _framework density 17.354368999999998
#
# number of rings (size 3 to 8) (size 9 to 14) (size 15 to 20)
#    0.857    0.571    7.143    1.714    0.000    0.000 
#    7.714    0.000    0.000    0.857    0.000    5.000 
#    0.000    0.000    0.000    0.000    0.000    0.000 
#
# Total GULP energy -347013.161896 kJ/mol
# GULP energy per Si atom -12393.327211 kJ/mol
# Density = 1.731487 g / cm^3
# Si number density = 17.354369 Si / 1000 Ang^3
#
#
#
# Elastic Constant Matrix: (Units=GPa)
#
#
# Indices 1 2 3 4 5 6 
#
# 1 104.8124 31.0522 54.1893 0.0000 -9.7311 0.0000
# 2 31.0522 48.9628 50.0028 0.0000 1.5066 0.0000
# 3 54.1893 50.0028 101.1611 0.0000 -30.3735 0.0000
# 4 0.0000 0.0000 0.0000 28.0324 0.0000 1.5133
# 5 -9.7311 1.5066 -30.3735 0.0000 25.7995 0.0000
# 6 0.0000 0.0000 0.0000 1.5133 0.0000 26.0883
#
#
#
# Elastic Compliance Matrix: (Units=1/GPa)
#
#
# Indices 1 2 3 4 5 6 
#
# 1 0.013774 0.003859 -0.012054 0.000000 -0.009222 0.000000
# 2 0.003859 0.127894 -0.103770 0.000000 -0.128180 0.000000
# 3 -0.012054 -0.103770 0.105316 0.000000 0.125500 0.000000
# 4 0.000000 0.000000 0.000000 0.035785 0.000000 -0.002076
# 5 -0.009222 -0.128180 0.125500 0.000000 0.190517 0.000000
# 6 0.000000 0.000000 0.000000 -0.002076 0.000000 0.038452
#
#
# Mechanical properties :
#
#
# Convention : Reuss Voigt Hill
#
# Bulk Modulus (GPa) = 43.37722 58.38053 50.87888
# Shear Modulus (GPa) = 6.72629 23.96352 15.34491
#
# Velocity S-wave (km/s) = 1.97085 3.71999 2.97679
# Velocity P-wave (km/s) = 5.49802 7.22249 6.41844
#
# Compressibility (1/GPa) = 0.02305358
#
# Stress axis : x y z
#
# Youngs Moduli (GPa) = 72.60211 7.81897 9.49525
#
# Poissons Ratio (x) = -0.03017 0.11446
# Poissons Ratio (y) = -0.28017 0.98532
# Poissons Ratio (z) = 0.87518 0.81137
#
# Static dielectric constant tensor:
#      x y z
#    x 3.193060 0.000000 -0.238800 
#    y 0.000000 2.958020 0.000000 
#    z -0.238800 0.000000 3.210400 
# 
# 
# High freq. dielectric constant tensor:
#      x y z
#    x 1.654850 0.000000 -0.028080 
#    y 0.000000 1.639320 0.000000 
#    z -0.028080 0.000000 1.663610 
# 
# From -- ./inp_files/61405.got.cif
#   From: 2010.03.12/outbox.cif.g09.slc.cpg/sg14_31_cif.got.tgz:61405.got - 2010.03.31 13:35:05.
