data_PCOD8124099
_publ_section_title
;
Structure prediction by ZEFSAII (Michael W. Deem and Ramdas Pophale) SiO2 
 PCOD8124099
Probable space group: P 21/C
;
_chemical_formula_sum "Si O2"
_cell_formula_units_Z 20
_cell_length_a 7.701504
_cell_length_b 7.496054
_cell_length_c 17.793905
_cell_angle_alpha 90.000000
_cell_angle_beta 71.091126
_cell_angle_gamma 90.000000
_cell_volume 971.822177
_symmetry_space_group_name_H-M "P 21/C"
_symmetry_group_IT_number 14
_symmetry_cell_setting 'monoclinic'
loop_
_space_group_symop_operation_xyz
x,y,z
-x,1/2+y,1/2-z
-x,-y,-z
x,1/2-y,1/2+z
loop_
_atom_site_type_symbol
_atom_site_label
_atom_site_fract_x
_atom_site_fract_y
_atom_site_fract_z
Si Si1 0.228065 0.609596 0.735003
Si Si2 0.234427 0.871001 0.406422
Si Si3 0.174839 0.138551 0.538438
Si Si4 0.171783 0.501487 0.193545
Si Si5 0.596518 0.811027 0.877164
O O1 0.272306 0.573420 0.815557
O O2 0.252043 0.819114 0.716951
O O3 0.371120 0.505473 0.662147
O O4 0.023910 0.544555 0.741488
O O5 0.379280 0.722617 0.413756
O O6 0.031236 0.787394 0.447667
O O7 0.260750 0.051153 0.452003
O O8 0.308266 0.293508 0.553013
O O9 0.152182 0.983265 0.605485
O O10 0.312570 0.338481 0.191067
#
# Coordination Sequence:
#
# PCOD8124099 Si02
#       5
#     4   4   4   4   4
#     4  11  19  36  57  84 110 145 187 228 275 325
#     4  10  19  34  59  83 106 148 184 223 280 320
#     4   8  19  38  58  76 113 146 180 228 275 328
#     4   9  19  35  57  77 111 145 181 224 277 324
#     4  10  21  34  58  79 110 147 180 225 277 327
#
# _framework density 20.579896999999999
#
# number of rings (size 3 to 8) (size 9 to 14) (size 15 to 20)
#    1.200    1.200    2.000    0.600    2.800    0.000 
#    0.000    1.000    4.400    4.800    0.000    0.000 
#    0.000    0.000    0.000    0.000    0.000    0.000 
#
# Total GULP energy -247859.915175 kJ/mol
# GULP energy per Si atom -12392.995759 kJ/mol
# Density = 2.053306 g / cm^3
# Si number density = 20.579897 Si / 1000 Ang^3
#
#
#
# Elastic Constant Matrix: (Units=GPa)
#
#
# Indices 1 2 3 4 5 6 
#
# 1 81.3232 -4.2140 -3.5836 0.0000 -3.8497 0.0000
# 2 -4.2140 56.0135 -2.8832 0.0000 -1.9441 0.0000
# 3 -3.5836 -2.8832 45.0384 0.0000 10.5856 0.0000
# 4 0.0000 0.0000 0.0000 17.9485 0.0000 -7.7715
# 5 -3.8497 -1.9441 10.5856 0.0000 21.7011 0.0000
# 6 0.0000 0.0000 0.0000 -7.7715 0.0000 15.8113
#
#
#
# Elastic Compliance Matrix: (Units=1/GPa)
#
#
# Indices 1 2 3 4 5 6 
#
# 1 0.012472 0.001038 0.000584 0.000000 0.002021 0.000000
# 2 0.001038 0.018025 0.000919 0.000000 0.001351 0.000000
# 3 0.000584 0.000919 0.025148 0.000000 -0.012081 0.000000
# 4 0.000000 0.000000 0.000000 0.070778 0.000000 0.034789
# 5 0.002021 0.001351 -0.012081 0.000000 0.052453 0.000000
# 6 0.000000 0.000000 0.000000 0.034789 0.000000 0.080345
#
#
# Mechanical properties :
#
#
# Convention : Reuss Voigt Hill
#
# Bulk Modulus (GPa) = 16.46690 17.89039 17.17865
# Shear Modulus (GPa) = 18.22283 23.96256 21.09270
#
# Velocity S-wave (km/s) = 2.97891 3.41598 3.20491
# Velocity P-wave (km/s) = 4.45541 4.92652 4.69688
#
# Compressibility (1/GPa) = 0.06072787
#
# Stress axis : x y z
#
# Youngs Moduli (GPa) = 80.18084 55.47799 39.76459
#
# Poissons Ratio (x) = -0.05761 -0.02322
# Poissons Ratio (y) = -0.08327 -0.03655
# Poissons Ratio (z) = -0.04682 -0.05099
#
# Static dielectric constant tensor:
#      x y z
#    x 3.762760 0.000000 0.038390 
#    y 0.000000 3.175360 0.000000 
#    z 0.038390 0.000000 3.507110 
# 
# 
# High freq. dielectric constant tensor:
#      x y z
#    x 1.812610 0.000000 0.001890 
#    y 0.000000 1.759580 0.000000 
#    z 0.001890 0.000000 1.787810 
# 
# From -- ./inp_files/54261.got.cif
#   From: 2010.03.12/outbox.cif.g09.slc.cpg/sg14_28_cif.got.tgz:54261.got - 2010.03.31 13:35:05.
