data_PCOD8124068
_publ_section_title
;
Structure prediction by ZEFSAII (Michael W. Deem and Ramdas Pophale) SiO2 
 PCOD8124068
Probable space group: P 21/C
;
_chemical_formula_sum "Si O2"
_cell_formula_units_Z 32
_cell_length_a 11.805645
_cell_length_b 18.666288
_cell_length_c 9.446443
_cell_angle_alpha 90.000000
_cell_angle_beta 61.669358
_cell_angle_gamma 90.000000
_cell_volume 1832.352563
_symmetry_space_group_name_H-M "P 21/C"
_symmetry_group_IT_number 14
_symmetry_cell_setting 'monoclinic'
loop_
_space_group_symop_operation_xyz
x,y,z
-x,1/2+y,1/2-z
-x,-y,-z
x,1/2-y,1/2+z
loop_
_atom_site_type_symbol
_atom_site_label
_atom_site_fract_x
_atom_site_fract_y
_atom_site_fract_z
Si Si1 0.271588 0.181456 0.542076
Si Si2 0.159204 0.966052 0.712433
Si Si3 0.208429 0.937010 0.990940
Si Si4 0.300590 0.179673 0.192042
Si Si5 0.603965 0.967730 0.541502
Si Si6 0.488683 0.565507 0.404346
Si Si7 0.104664 0.407350 0.626104
Si Si8 0.056256 0.380576 0.343649
O O1 0.268444 0.194644 0.375649
O O2 0.333095 0.248074 0.588047
O O3 0.356278 0.112024 0.531913
O O4 0.127076 0.171224 0.690104
O O5 0.227354 0.933356 0.810344
O O6 0.041166 0.917356 0.725976
O O7 0.268255 0.981595 0.530192
O O8 0.092800 0.037684 0.804051
O O9 0.341023 0.909418 0.980110
O O10 0.097191 0.879114 0.095457
O O11 0.178230 0.017243 0.063839
O O12 0.428811 0.133218 0.095256
O O13 0.178450 0.139974 0.197111
O O14 0.544104 0.967537 0.729283
O O15 0.500000 0.000000 0.500000
O O16 0.500000 0.500000 0.500000
O O17 0.094467 0.362932 0.484183
#
# Coordination Sequence:
#
# PCOD8124068 Si02
#       8
#     4   4   4   4   4   4   4   4
#     4  10  22  36  52  79 102 142 187 220 273 319
#     4   8  15  29  52  81 101 134 172 209 261 307
#     4   9  15  30  53  78 111 136 169 212 266 319
#     4  11  22  36  55  76 107 143 181 225 267 326
#     4  10  19  34  56  79 108 141 182 224 262 326
#     4  11  21  32  51  85 113 142 178 219 274 319
#     4   9  16  30  54  79 103 137 173 216 260 314
#     4   8  16  31  54  76 100 136 173 212 260 310
#
# _framework density 17.463888000000001
#
# number of rings (size 3 to 8) (size 9 to 14) (size 15 to 20)
#    0.000    2.500    2.500    2.250    0.000    1.000 
#    2.250    2.500    2.750    1.500    0.000    0.000 
#    0.000    0.000    0.000    0.000    0.000    0.000 
#
# Total GULP energy -396578.599296 kJ/mol
# GULP energy per Si atom -12393.081228 kJ/mol
# Density = 1.742414 g / cm^3
# Si number density = 17.463888 Si / 1000 Ang^3
#
#
#
# Elastic Constant Matrix: (Units=GPa)
#
#
# Indices 1 2 3 4 5 6 
#
# 1 142.7915 54.4916 56.7324 0.0000 -10.2866 0.0000
# 2 54.4916 79.5048 50.7312 0.0000 3.3116 0.0000
# 3 56.7324 50.7312 103.4859 0.0000 -6.2368 0.0000
# 4 0.0000 0.0000 0.0000 22.9476 0.0000 4.7391
# 5 -10.2866 3.3116 -6.2368 0.0000 25.3449 0.0000
# 6 0.0000 0.0000 0.0000 4.7391 0.0000 27.1261
#
#
#
# Elastic Compliance Matrix: (Units=1/GPa)
#
#
# Indices 1 2 3 4 5 6 
#
# 1 0.010576 -0.005672 -0.002755 0.000000 0.004356 0.000000
# 2 -0.005672 0.021907 -0.008060 0.000000 -0.007148 0.000000
# 3 -0.002755 -0.008060 0.015348 0.000000 0.003712 0.000000
# 4 0.000000 0.000000 0.000000 0.045209 0.000000 -0.007898
# 5 0.004356 -0.007148 0.003712 0.000000 0.043071 0.000000
# 6 0.000000 0.000000 0.000000 -0.007898 0.000000 0.038245
#
#
# Mechanical properties :
#
#
# Convention : Reuss Voigt Hill
#
# Bulk Modulus (GPa) = 67.31130 72.18806 69.74968
# Shear Modulus (GPa) = 23.55355 26.00552 24.77954
#
# Velocity S-wave (km/s) = 3.67645 3.86308 3.77092
# Velocity P-wave (km/s) = 7.52652 7.83091 7.68022
#
# Compressibility (1/GPa) = 0.01485635
#
# Stress axis : x y z
#
# Youngs Moduli (GPa) = 94.55196 45.64847 65.15367
#
# Poissons Ratio (x) = 0.25894 0.17948
# Poissons Ratio (y) = 0.53634 0.52515
# Poissons Ratio (z) = 0.26047 0.36793
#
# Static dielectric constant tensor:
#      x y z
#    x 3.416620 0.000000 -0.188220 
#    y 0.000000 3.012090 0.000000 
#    z -0.188220 0.000000 3.250180 
# 
# 
# High freq. dielectric constant tensor:
#      x y z
#    x 1.678400 0.000000 -0.007670 
#    y 0.000000 1.644030 0.000000 
#    z -0.007670 0.000000 1.674020 
# 
# From -- ./inp_files/13877.got.cif
#   From: 2010.03.12/outbox.cif.g09.slc.cpg/sg14_7_cif.got.tgz:13877.got - 2010.03.31 13:35:05.
