data_PCOD8124655
_publ_section_title
;
Structure prediction by ZEFSAII (Michael W. Deem and Ramdas Pophale) SiO2 
 PCOD8124655
Probable space group: P 21/C
;
_chemical_formula_sum "Si O2"
_cell_formula_units_Z 24
_cell_length_a 8.020666
_cell_length_b 16.309238
_cell_length_c 17.753155
_cell_angle_alpha 90.000000
_cell_angle_beta 31.488077
_cell_angle_gamma 90.000000
_cell_volume 1212.990043
_symmetry_space_group_name_H-M "P 21/C"
_symmetry_group_IT_number 14
_symmetry_cell_setting 'monoclinic'
loop_
_space_group_symop_operation_xyz
x,y,z
-x,1/2+y,1/2-z
-x,-y,-z
x,1/2-y,1/2+z
loop_
_atom_site_type_symbol
_atom_site_label
_atom_site_fract_x
_atom_site_fract_y
_atom_site_fract_z
Si Si1 0.289828 0.929717 0.671872
Si Si2 0.058874 0.515968 0.063438
Si Si3 0.721230 0.037344 0.825880
Si Si4 0.953128 0.841226 0.202293
Si Si5 0.714598 0.321408 0.961075
Si Si6 0.008109 0.502496 0.586300
O O1 0.319078 0.843942 0.615770
O O2 0.608352 0.980745 0.533914
O O3 0.986744 0.976597 0.755666
O O4 0.213492 0.928849 0.792040
O O5 0.065614 0.612691 0.079631
O O6 0.000000 0.500000 0.000000
O O7 0.771149 0.467462 0.216200
O O8 0.792502 0.126963 0.833054
O O9 0.364875 0.008437 0.981614
O O10 0.629252 0.814118 0.367844
O O11 0.108195 0.764772 0.099747
O O12 0.879498 0.910482 0.167326
O O13 0.000000 0.500000 0.500000
#
# Coordination Sequence:
#
# PCOD8124655 Si02
#       6
#     4   4   4   4   4   4
#     4  10  19  41  61  85 115 158 208 243 286 367
#     4  11  20  38  66  88 118 161 203 251 302 362
#     4  10  20  37  63  87 115 158 206 243 291 358
#     4  11  23  40  60  90 124 158 207 253 300 358
#     4  11  23  39  61  90 121 161 206 254 302 356
#     4  11  23  39  64  93 123 158 203 253 304 362
#
# _framework density 19.785817000000002
#
# number of rings (size 3 to 8) (size 9 to 14) (size 15 to 20)
#    0.000    1.333    5.000    4.000    7.000    0.000 
#    0.000    3.333    0.000    0.000    0.000    0.000 
#    0.000    0.000    0.000    0.000    0.000    0.000 
#
# Total GULP energy -297416.923319 kJ/mol
# GULP energy per Si atom -12392.371805 kJ/mol
# Density = 1.974078 g / cm^3
# Si number density = 19.785817 Si / 1000 Ang^3
#
#
#
# Elastic Constant Matrix: (Units=GPa)
#
#
# Indices 1 2 3 4 5 6 
#
# 1 60.6469 32.8631 19.9187 0.0000 20.8473 0.0000
# 2 32.8631 82.4377 44.3109 0.0000 7.4451 0.0000
# 3 19.9187 44.3109 138.1463 0.0000 10.4895 0.0000
# 4 0.0000 0.0000 0.0000 37.2166 0.0000 1.0037
# 5 20.8473 7.4451 10.4895 0.0000 44.9430 0.0000
# 6 0.0000 0.0000 0.0000 1.0037 0.0000 14.9049
#
#
#
# Elastic Compliance Matrix: (Units=1/GPa)
#
#
# Indices 1 2 3 4 5 6 
#
# 1 0.024799 -0.009023 0.000080 0.000000 -0.010027 0.000000
# 2 -0.009023 0.018022 -0.004653 0.000000 0.002286 0.000000
# 3 0.000080 -0.004653 0.008820 0.000000 -0.001325 0.000000
# 4 0.000000 0.000000 0.000000 0.026919 0.000000 -0.001813
# 5 -0.010027 0.002286 -0.001325 0.000000 0.026832 0.000000
# 6 0.000000 0.000000 0.000000 -0.001813 0.000000 0.067214
#
#
# Mechanical properties :
#
#
# Convention : Reuss Voigt Hill
#
# Bulk Modulus (GPa) = 40.90267 52.82402 46.86334
# Shear Modulus (GPa) = 24.04439 31.68879 27.86659
#
# Velocity S-wave (km/s) = 3.48980 4.00633 3.75695
# Velocity P-wave (km/s) = 6.07914 6.93951 6.52352
#
# Compressibility (1/GPa) = 0.02444828
#
# Stress axis : x y z
#
# Youngs Moduli (GPa) = 40.32426 55.48745 113.37480
#
# Poissons Ratio (x) = 0.50068 -0.00907
# Poissons Ratio (y) = 0.36386 0.52756
# Poissons Ratio (z) = -0.00322 0.25819
#
# Static dielectric constant tensor:
#      x y z
#    x 3.617840 0.000000 0.344520 
#    y 0.000000 3.423800 0.000000 
#    z 0.344520 0.000000 4.441170 
# 
# 
# High freq. dielectric constant tensor:
#      x y z
#    x 1.756260 0.000000 0.009650 
#    y 0.000000 1.732800 0.000000 
#    z 0.009650 0.000000 1.811090 
# 
# From -- ./inp_files/8595.got.cif
#   From: 2010.03.12/outbox.cif.g09.slc.cpg/sg14_5_cif.got.tgz:8595.got - 2010.03.31 13:35:05.
