data_PCOD8124324
_publ_section_title
;
Structure prediction by ZEFSAII (Michael W. Deem and Ramdas Pophale) SiO2 
 PCOD8124324
Probable space group: P 21/C
;
_chemical_formula_sum "Si O2"
_cell_formula_units_Z 24
_cell_length_a 8.517974
_cell_length_b 24.630910
_cell_length_c 5.214319
_cell_angle_alpha 90.000000
_cell_angle_beta 89.593753
_cell_angle_gamma 90.000000
_cell_volume 1093.965050
_symmetry_space_group_name_H-M "P 21/C"
_symmetry_group_IT_number 14
_symmetry_cell_setting 'monoclinic'
loop_
_space_group_symop_operation_xyz
x,y,z
-x,1/2+y,1/2-z
-x,-y,-z
x,1/2-y,1/2+z
loop_
_atom_site_type_symbol
_atom_site_label
_atom_site_fract_x
_atom_site_fract_y
_atom_site_fract_z
Si Si1 0.989818 0.276234 0.761258
Si Si2 0.738992 0.925527 0.265914
Si Si3 0.392354 0.605163 0.723139
Si Si4 0.356746 0.770949 0.249722
Si Si5 0.070471 0.400415 0.735779
Si Si6 0.259462 0.949158 0.723819
O O1 0.072042 0.251650 0.506813
O O2 0.006230 0.340379 0.777428
O O3 0.806148 0.262190 0.764249
O O4 0.579668 0.891716 0.237569
O O5 0.803473 0.915152 0.549653
O O6 0.698795 0.988476 0.228603
O O7 0.859491 0.905498 0.049044
O O8 0.324309 0.665267 0.764186
O O9 0.343243 0.585448 0.442856
O O10 0.321622 0.566904 0.942966
O O11 0.451937 0.747797 0.494489
O O12 0.927528 0.442375 0.763158
#
# Coordination Sequence:
#
# PCOD8124324 Si02
#       6
#     4   4   4   4   4   4
#     4  10  19  36  60  88 115 158 217 266 309 377
#     4  12  26  43  63 101 141 170 211 275 339 381
#     4  12  24  43  69  98 131 172 220 273 324 386
#     4  10  20  37  62  92 119 157 217 270 308 373
#     4  12  24  42  66  95 133 173 217 273 327 390
#     4  12  23  43  70  96 129 182 226 259 313 401
#
# _framework density 21.938542999999999
#
# number of rings (size 3 to 8) (size 9 to 14) (size 15 to 20)
#    0.000    0.667    0.000   11.000    0.000    0.000 
#    0.000    5.000    0.000    0.000    0.000    0.000 
#    0.000    0.000    0.000    0.000    0.000    0.000 
#
# Total GULP energy -297684.191117 kJ/mol
# GULP energy per Si atom -12403.507963 kJ/mol
# Density = 2.188861 g / cm^3
# Si number density = 21.938543 Si / 1000 Ang^3
#
#
#
# Elastic Constant Matrix: (Units=GPa)
#
#
# Indices 1 2 3 4 5 6 
#
# 1 74.1218 12.9054 12.4686 0.0000 0.1484 0.0000
# 2 12.9054 115.0772 18.5212 0.0000 2.1024 0.0000
# 3 12.4686 18.5212 150.6984 0.0000 5.9700 0.0000
# 4 0.0000 0.0000 0.0000 45.3247 0.0000 0.0224
# 5 0.1484 2.1024 5.9700 0.0000 34.1544 0.0000
# 6 0.0000 0.0000 0.0000 0.0224 0.0000 13.4812
#
#
#
# Elastic Compliance Matrix: (Units=1/GPa)
#
#
# Indices 1 2 3 4 5 6 
#
# 1 0.013901 -0.001404 -0.000985 0.000000 0.000198 0.000000
# 2 -0.001404 0.009011 -0.000976 0.000000 -0.000378 0.000000
# 3 -0.000985 -0.000976 0.006882 0.000000 -0.001139 0.000000
# 4 0.000000 0.000000 0.000000 0.022063 0.000000 -0.000037
# 5 0.000198 -0.000378 -0.001139 0.000000 0.029500 0.000000
# 6 0.000000 0.000000 0.000000 -0.000037 0.000000 0.074177
#
#
# Mechanical properties :
#
#
# Convention : Reuss Voigt Hill
#
# Bulk Modulus (GPa) = 43.35903 47.52084 45.43994
# Shear Modulus (GPa) = 29.41961 38.32556 33.87259
#
# Velocity S-wave (km/s) = 3.66594 4.18419 3.93361
# Velocity P-wave (km/s) = 6.14212 6.71202 6.43338
#
# Compressibility (1/GPa) = 0.02306325
#
# Stress axis : x y z
#
# Youngs Moduli (GPa) = 71.93664 110.97156 145.29794
#
# Poissons Ratio (x) = 0.15580 0.14319
# Poissons Ratio (y) = 0.10100 0.14187
# Poissons Ratio (z) = 0.07089 0.10835
#
# Static dielectric constant tensor:
#      x y z
#    x 3.674060 0.000000 -0.116010 
#    y 0.000000 3.993990 0.000000 
#    z -0.116010 0.000000 8.382880 
# 
# 
# High freq. dielectric constant tensor:
#      x y z
#    x 1.833570 0.000000 0.000820 
#    y 0.000000 1.875130 0.000000 
#    z 0.000820 0.000000 1.898980 
# 
# From -- ./inp_files/1650.got.cif
#   From: 2010.03.12/outbox.cif.g09.slc.cpg/sg14_1_cif.got.tgz:1650.got - 2010.03.31 13:35:05.
