data_PCOD8124964
_publ_section_title
;
Structure prediction by ZEFSAII (Michael W. Deem and Ramdas Pophale) SiO2 
 PCOD8124964
Probable space group: P 21/C
;
_chemical_formula_sum "Si O2"
_cell_formula_units_Z 32
_cell_length_a 9.842587
_cell_length_b 20.077623
_cell_length_c 8.666770
_cell_angle_alpha 90.000000
_cell_angle_beta 89.990370
_cell_angle_gamma 90.000000
_cell_volume 1712.690239
_symmetry_space_group_name_H-M "P 21/C"
_symmetry_group_IT_number 14
_symmetry_cell_setting 'monoclinic'
loop_
_space_group_symop_operation_xyz
x,y,z
-x,1/2+y,1/2-z
-x,-y,-z
x,1/2-y,1/2+z
loop_
_atom_site_type_symbol
_atom_site_label
_atom_site_fract_x
_atom_site_fract_y
_atom_site_fract_z
Si Si1 0.155572 0.574237 0.927846
Si Si2 0.362417 0.179211 0.567779
Si Si3 0.155723 0.925850 0.072278
Si Si4 0.362243 0.179293 0.932309
Si Si5 0.349349 0.679746 0.069047
Si Si6 0.842789 0.935161 0.429033
Si Si7 0.842962 0.564932 0.570734
Si Si8 0.349536 0.679640 0.430957
O O1 0.192189 0.587017 0.750057
O O2 0.997121 0.586161 0.961921
O O3 0.236212 0.625236 0.034083
O O4 0.197933 0.499366 0.971609
O O5 0.371550 0.185483 0.750040
O O6 0.316361 0.249925 0.499935
O O7 0.508183 0.156780 0.503771
O O8 0.252229 0.124975 0.515882
O O9 0.997357 0.913799 0.038002
O O10 0.236698 0.875023 0.965909
O O11 0.197801 0.000802 0.028857
O O12 0.251842 0.125161 0.984237
O O13 0.507852 0.156764 0.996517
O O14 0.368813 0.687968 0.249999
O O15 0.301263 0.750095 0.000159
O O16 0.821423 0.952610 0.249851
#
# Coordination Sequence:
#
# PCOD8124964 Si02
#       8
#     4   4   4   4   4   4   4   4
#     4  10  20  36  57  81 109 141 178 220 266 315
#     4  10  20  36  56  79 108 139 176 220 266 316
#     4  10  20  36  57  81 109 141 178 220 266 315
#     4  10  20  36  56  79 108 139 176 220 266 316
#     4  11  22  37  56  79 108 141 179 220 265 316
#     4   9  20  37  56  80 109 141 178 220 265 316
#     4   9  20  37  56  80 109 141 178 220 265 316
#     4  11  22  37  56  79 108 141 179 220 265 316
#
# _framework density 18.684056000000002
#
# number of rings (size 3 to 8) (size 9 to 14) (size 15 to 20)
#    0.000    2.000    0.000    5.250    0.000    5.000 
#    0.000    2.500    0.000    0.000    0.000    0.000 
#    0.000    0.000    0.000    0.000    0.000    0.000 
#
# Total GULP energy -396952.892428 kJ/mol
# GULP energy per Si atom -12404.777888 kJ/mol
# Density = 1.864153 g / cm^3
# Si number density = 18.684056 Si / 1000 Ang^3
#
#
#
# Elastic Constant Matrix: (Units=GPa)
#
#
# Indices 1 2 3 4 5 6 
#
# 1 93.3623 81.6699 37.0454 0.0000 -3.2347 0.0000
# 2 81.6699 120.3035 46.2324 0.0000 -2.6833 0.0000
# 3 37.0454 46.2324 85.3889 0.0000 3.3126 0.0000
# 4 0.0000 0.0000 0.0000 36.5032 0.0000 -0.1881
# 5 -3.2347 -2.6833 3.3126 0.0000 8.9781 0.0000
# 6 0.0000 0.0000 0.0000 -0.1881 0.0000 37.9681
#
#
#
# Elastic Compliance Matrix: (Units=1/GPa)
#
#
# Indices 1 2 3 4 5 6 
#
# 1 0.026968 -0.017180 -0.002613 0.000000 0.005546 0.000000
# 2 -0.017180 0.021696 -0.004368 0.000000 0.001906 0.000000
# 3 -0.002613 -0.004368 0.015519 0.000000 -0.007973 0.000000
# 4 0.000000 0.000000 0.000000 0.027396 0.000000 0.000136
# 5 0.005546 0.001906 -0.007973 0.000000 0.116891 0.000000
# 6 0.000000 0.000000 0.000000 0.000136 0.000000 0.026339
#
#
# Mechanical properties :
#
#
# Convention : Reuss Voigt Hill
#
# Bulk Modulus (GPa) = 63.04492 69.88335 66.46413
# Shear Modulus (GPa) = 17.33596 25.63036 21.48316
#
# Velocity S-wave (km/s) = 3.04936 3.70777 3.39457
# Velocity P-wave (km/s) = 6.79809 7.47087 7.14241
#
# Compressibility (1/GPa) = 0.01586171
#
# Stress axis : x y z
#
# Youngs Moduli (GPa) = 37.08035 46.09119 64.43714
#
# Poissons Ratio (x) = 0.79184 0.16841
# Poissons Ratio (y) = 0.63704 0.28143
# Poissons Ratio (z) = 0.09691 0.20131
#
# Static dielectric constant tensor:
#      x y z
#    x 3.432220 0.000000 0.005620 
#    y 0.000000 3.462140 0.000000 
#    z 0.005620 0.000000 3.488590 
# 
# 
# High freq. dielectric constant tensor:
#      x y z
#    x 1.725010 0.000000 0.001240 
#    y 0.000000 1.729030 0.000000 
#    z 0.001240 0.000000 1.737890 
# 
# From -- ./inp_files/10219.got.cif
#   From: 2010.03.12/outbox.cif.g09.slc.cpg/sg14_6_cif.got.tgz:10219.got - 2010.03.31 13:35:05.
