data_PCOD8124740
_publ_section_title
;
Structure prediction by ZEFSAII (Michael W. Deem and Ramdas Pophale) SiO2 
 PCOD8124740
Probable space group: P 21/C
;
_chemical_formula_sum "Si O2"
_cell_formula_units_Z 32
_cell_length_a 27.477046
_cell_length_b 9.074406
_cell_length_c 22.160288
_cell_angle_alpha 90.000000
_cell_angle_beta 161.913921
_cell_angle_gamma 90.000000
_cell_volume 1715.335134
_symmetry_space_group_name_H-M "P 21/C"
_symmetry_group_IT_number 14
_symmetry_cell_setting 'monoclinic'
loop_
_space_group_symop_operation_xyz
x,y,z
-x,1/2+y,1/2-z
-x,-y,-z
x,1/2-y,1/2+z
loop_
_atom_site_type_symbol
_atom_site_label
_atom_site_fract_x
_atom_site_fract_y
_atom_site_fract_z
Si Si1 0.429729 0.672033 0.758222
Si Si2 0.651623 0.825590 0.216710
Si Si3 0.966737 0.326122 0.026891
Si Si4 0.286085 0.670910 0.461862
Si Si5 0.570270 0.827968 0.741777
Si Si6 0.713914 0.829092 0.038137
Si Si7 0.966736 0.826121 0.526889
Si Si8 0.348376 0.825591 0.783289
O O1 0.319641 0.706240 0.571089
O O2 0.445124 0.500001 0.789241
O O3 0.349095 0.750288 0.719271
O O4 0.602439 0.736260 0.950647
O O5 0.650903 0.750287 0.280728
O O6 0.804208 0.763823 0.361696
O O7 0.658164 1.000000 0.234046
O O8 0.500000 0.777950 0.999999
O O9 0.949919 0.500000 0.000808
O O10 0.107651 0.283189 0.238011
O O11 0.804209 0.263824 0.861697
O O12 0.000001 0.257499 0.000001
O O13 0.397560 0.763742 0.549351
O O14 0.316552 0.500001 0.482636
O O15 0.107650 0.716812 0.238009
O O16 0.680358 0.793762 0.928910
#
# Coordination Sequence:
#
# PCOD8124740 Si02
#       8
#     4   4   4   4   4   4   4   4
#     4  10  20  33  51  76 105 135 166 205 252 298
#     4  10  20  34  54  77 100 131 170 209 250 299
#     4   9  17  31  53  77  98 126 169 214 249 289
#     4   9  18  34  54  75 101 134 171 207 245 295
#     4  10  20  33  51  76 105 135 166 205 252 298
#     4   9  18  34  54  75 101 134 171 207 245 295
#     4   9  17  31  53  77  98 126 169 214 249 289
#     4  10  20  34  54  77 100 131 170 209 250 299
#
# _framework density 18.655246000000002
#
# number of rings (size 3 to 8) (size 9 to 14) (size 15 to 20)
#    0.000    2.500    0.000    2.250    0.000    6.500 
#    0.000    1.250    0.000    3.000    0.000    0.000 
#    0.000    0.000    0.000    0.000    0.000    0.000 
#
# Total GULP energy -396866.942122 kJ/mol
# GULP energy per Si atom -12402.091941 kJ/mol
# Density = 1.861279 g / cm^3
# Si number density = 18.655246 Si / 1000 Ang^3
#
#
#
# Elastic Constant Matrix: (Units=GPa)
#
#
# Indices 1 2 3 4 5 6 
#
# 1 170.7253 42.4186 83.3152 0.0000 16.0386 0.0000
# 2 42.4186 37.3502 32.4828 0.0000 1.8698 0.0000
# 3 83.3152 32.4828 155.1913 0.0000 19.4011 0.0000
# 4 0.0000 0.0000 0.0000 17.4883 0.0000 -2.1020
# 5 16.0386 1.8698 19.4011 0.0000 28.3004 0.0000
# 6 0.0000 0.0000 0.0000 -2.1020 0.0000 33.3283
#
#
#
# Elastic Compliance Matrix: (Units=1/GPa)
#
#
# Indices 1 2 3 4 5 6 
#
# 1 0.009668 -0.008105 -0.003145 0.000000 -0.002787 0.000000
# 2 -0.008105 0.039726 -0.004605 0.000000 0.005125 0.000000
# 3 -0.003145 -0.004605 0.009663 0.000000 -0.004538 0.000000
# 4 0.000000 0.000000 0.000000 0.057618 0.000000 0.003634
# 5 -0.002787 0.005125 -0.004538 0.000000 0.039687 0.000000
# 6 0.000000 0.000000 0.000000 0.003634 0.000000 0.030234
#
#
# Mechanical properties :
#
#
# Convention : Reuss Voigt Hill
#
# Bulk Modulus (GPa) = 36.56604 75.52223 56.04413
# Shear Modulus (GPa) = 21.98558 29.49343 25.73950
#
# Velocity S-wave (km/s) = 3.43668 3.98046 3.71852
# Velocity P-wave (km/s) = 5.94905 7.85470 6.96734
#
# Compressibility (1/GPa) = 0.02734778
#
# Stress axis : x y z
#
# Youngs Moduli (GPa) = 103.43478 25.17229 103.48354
#
# Poissons Ratio (x) = 0.20402 0.32550
# Poissons Ratio (y) = 0.83832 0.47651
# Poissons Ratio (z) = 0.32535 0.11591
#
# Static dielectric constant tensor:
#      x y z
#    x 3.528480 0.000000 0.035190 
#    y 0.000000 3.147040 0.000000 
#    z 0.035190 0.000000 3.573030 
# 
# 
# High freq. dielectric constant tensor:
#      x y z
#    x 1.731710 0.000000 -0.003200 
#    y 0.000000 1.692920 0.000000 
#    z -0.003200 0.000000 1.732860 
# 
# From -- ./inp_files/70508.got.cif
#   From: 2010.03.12/outbox.cif.g09.slc.cpg/sg14_36_cif.got.tgz:70508.got - 2010.03.31 13:35:05.
