data_PCOD8124085
_publ_section_title
;
Structure prediction by ZEFSAII (Michael W. Deem and Ramdas Pophale) SiO2 
 PCOD8124085
Probable space group: P 21/C
;
_chemical_formula_sum "Si O2"
_cell_formula_units_Z 32
_cell_length_a 6.702195
_cell_length_b 13.729848
_cell_length_c 19.155794
_cell_angle_alpha 90.000000
_cell_angle_beta 68.122900
_cell_angle_gamma 90.000000
_cell_volume 1635.776719
_symmetry_space_group_name_H-M "P 21/C"
_symmetry_group_IT_number 14
_symmetry_cell_setting 'monoclinic'
loop_
_space_group_symop_operation_xyz
x,y,z
-x,1/2+y,1/2-z
-x,-y,-z
x,1/2-y,1/2+z
loop_
_atom_site_type_symbol
_atom_site_label
_atom_site_fract_x
_atom_site_fract_y
_atom_site_fract_z
Si Si1 0.309236 0.262746 0.375426
Si Si2 0.477307 0.238760 0.131250
Si Si3 0.150378 0.510830 0.189925
Si Si4 0.183041 0.141953 0.575217
Si Si5 0.550082 0.907685 0.256175
Si Si6 0.429448 0.863563 0.563095
Si Si7 0.286170 0.402674 0.763786
Si Si8 0.886073 0.271982 0.999224
O O1 0.407700 0.354010 0.322305
O O2 0.471529 0.236335 0.417218
O O3 0.286548 0.167261 0.330274
O O4 0.072822 0.291225 0.436913
O O5 0.281868 0.265106 0.104116
O O6 0.526153 0.331485 0.174701
O O7 0.419818 0.144145 0.183306
O O8 0.691828 0.210429 0.059409
O O9 0.073800 0.432952 0.142523
O O10 0.223467 0.456420 0.250801
O O11 0.363019 0.566277 0.134800
O O12 0.958773 0.585362 0.230866
O O13 0.381617 0.089165 0.508870
O O14 0.996305 0.167361 0.546240
O O15 0.372353 0.990123 0.269278
O O16 0.217945 0.843515 0.544576
#
# Coordination Sequence:
#
# PCOD8124085 Si02
#       8
#     4   4   4   4   4   4   4   4
#     4  10  21  38  58  83 115 149 191 233 283 339
#     4   9  21  38  56  83 118 146 189 238 278 337
#     4  11  20  34  55  86 116 146 186 227 289 343
#     4   9  20  34  54  85 115 145 184 232 284 339
#     4  10  22  38  56  85 118 148 187 237 282 337
#     4  10  19  34  57  84 113 147 181 231 282 346
#     4  11  21  37  57  84 114 153 190 229 286 340
#     4  10  19  37  59  80 111 158 186 229 289 331
#
# _framework density 19.562571999999999
#
# number of rings (size 3 to 8) (size 9 to 14) (size 15 to 20)
#    0.000    2.000    2.500    1.125    0.000    2.500 
#    2.250    0.625    0.000    7.500    0.000    0.000 
#    0.000    0.000    0.000    0.000    0.000    0.000 
#
# Total GULP energy -396695.405559 kJ/mol
# GULP energy per Si atom -12396.731424 kJ/mol
# Density = 1.951805 g / cm^3
# Si number density = 19.562572 Si / 1000 Ang^3
#
#
#
# Elastic Constant Matrix: (Units=GPa)
#
#
# Indices 1 2 3 4 5 6 
#
# 1 95.8324 23.9461 29.5872 0.0000 2.4828 0.0000
# 2 23.9461 59.2613 26.2015 0.0000 -3.0479 0.0000
# 3 29.5872 26.2015 84.1694 0.0000 -8.5938 0.0000
# 4 0.0000 0.0000 0.0000 22.1706 0.0000 -2.1131
# 5 2.4828 -3.0479 -8.5938 0.0000 27.7792 0.0000
# 6 0.0000 0.0000 0.0000 -2.1131 0.0000 19.3175
#
#
#
# Elastic Compliance Matrix: (Units=1/GPa)
#
#
# Indices 1 2 3 4 5 6 
#
# 1 0.012498 -0.003623 -0.003532 0.000000 -0.002607 0.000000
# 2 -0.003623 0.020620 -0.005041 0.000000 0.001027 0.000000
# 3 -0.003532 -0.005041 0.015146 0.000000 0.004448 0.000000
# 4 0.000000 0.000000 0.000000 0.045580 0.000000 0.004986
# 5 -0.002607 0.001027 0.004448 0.000000 0.037720 0.000000
# 6 0.000000 0.000000 0.000000 0.004986 0.000000 0.052312
#
#
# Mechanical properties :
#
#
# Convention : Reuss Voigt Hill
#
# Bulk Modulus (GPa) = 41.88789 44.30364 43.09577
# Shear Modulus (GPa) = 23.12431 24.48868 23.80649
#
# Velocity S-wave (km/s) = 3.44185 3.54193 3.49225
# Velocity P-wave (km/s) = 6.10360 6.27880 6.19182
#
# Compressibility (1/GPa) = 0.02387325
#
# Stress axis : x y z
#
# Youngs Moduli (GPa) = 80.01248 48.49733 66.02617
#
# Poissons Ratio (x) = 0.17569 0.23319
# Poissons Ratio (y) = 0.28986 0.33281
# Poissons Ratio (z) = 0.28258 0.24445
#
# Static dielectric constant tensor:
#      x y z
#    x 3.585350 0.000000 0.027560 
#    y 0.000000 3.181310 0.000000 
#    z 0.027560 0.000000 3.686640 
# 
# 
# High freq. dielectric constant tensor:
#      x y z
#    x 1.773030 0.000000 0.001450 
#    y 0.000000 1.720000 0.000000 
#    z 0.001450 0.000000 1.767050 
# 
# From -- ./inp_files/53311.got.cif
#   From: 2010.03.12/outbox.cif.g09.slc.cpg/sg14_27_cif.got.tgz:53311.got - 2010.03.31 13:35:05.
