data_PCOD8124676
_publ_section_title
;
Structure prediction by ZEFSAII (Michael W. Deem and Ramdas Pophale) SiO2 
 PCOD8124676
Probable space group: P 21/C
;
_chemical_formula_sum "Si O2"
_cell_formula_units_Z 20
_cell_length_a 21.159965
_cell_length_b 8.279625
_cell_length_c 27.161150
_cell_angle_alpha 90.000000
_cell_angle_beta 10.627541
_cell_angle_gamma 90.000000
_cell_volume 877.588151
_symmetry_space_group_name_H-M "P 21/C"
_symmetry_group_IT_number 14
_symmetry_cell_setting 'monoclinic'
loop_
_space_group_symop_operation_xyz
x,y,z
-x,1/2+y,1/2-z
-x,-y,-z
x,1/2-y,1/2+z
loop_
_atom_site_type_symbol
_atom_site_label
_atom_site_fract_x
_atom_site_fract_y
_atom_site_fract_z
Si Si1 0.774119 0.137374 0.787509
Si Si2 0.483604 0.413661 0.064019
Si Si3 0.766859 0.394538 0.020646
Si Si4 0.404131 0.264701 0.980976
Si Si5 0.294860 0.848096 0.846412
O O1 0.724236 0.223217 0.772591
O O2 0.718841 0.254961 0.877195
O O3 0.131632 0.046442 0.521795
O O4 0.500000 0.000000 0.000000
O O5 0.646243 0.539264 0.978301
O O6 0.094693 0.362787 0.373913
O O7 0.500000 0.500000 0.000000
O O8 0.064690 0.335975 0.754880
O O9 0.668548 0.243306 0.129561
O O10 0.444851 0.468148 0.237085
O O11 0.507072 0.236742 0.845445
#
# Coordination Sequence:
#
# PCOD8124676 Si02
#       5
#     4   4   4   4   4
#     4   9  18  42  66  89 131 166 206 271 314 374
#     4  10  19  41  70  89 130 166 216 265 314 387
#     4  11  26  42  63  96 136 166 214 276 324 380
#     4  10  23  43  66  96 125 171 223 258 319 394
#     4  12  25  42  67  97 129 176 212 266 338 373
#
# _framework density 22.789732999999998
#
# number of rings (size 3 to 8) (size 9 to 14) (size 15 to 20)
#    0.000    1.600    6.000    0.600    5.600    4.000 
#    0.000    0.000    0.000    0.000    0.000    0.000 
#    0.000    0.000    0.000    0.000    0.000    0.000 
#
# Total GULP energy -247770.974426 kJ/mol
# GULP energy per Si atom -12388.548721 kJ/mol
# Density = 2.273786 g / cm^3
# Si number density = 22.789733 Si / 1000 Ang^3
#
#
#
# Elastic Constant Matrix: (Units=GPa)
#
#
# Indices 1 2 3 4 5 6 
#
# 1 47.1783 6.8929 30.2508 0.0000 22.2758 0.0000
# 2 6.8929 100.9740 27.2155 0.0000 1.0803 0.0000
# 3 30.2508 27.2155 88.9301 0.0000 19.5644 0.0000
# 4 0.0000 0.0000 0.0000 48.4459 0.0000 -11.4155
# 5 22.2758 1.0803 19.5644 0.0000 34.6091 0.0000
# 6 0.0000 0.0000 0.0000 -11.4155 0.0000 33.1945
#
#
#
# Elastic Compliance Matrix: (Units=1/GPa)
#
#
# Indices 1 2 3 4 5 6 
#
# 1 0.034679 -0.000062 -0.007843 0.000000 -0.017885 0.000000
# 2 -0.000062 0.010887 -0.003706 0.000000 0.001795 0.000000
# 3 -0.007843 -0.003706 0.015886 0.000000 -0.003817 0.000000
# 4 0.000000 0.000000 0.000000 0.022462 0.000000 0.007725
# 5 -0.017885 0.001795 -0.003817 0.000000 0.042507 0.000000
# 6 0.000000 0.000000 0.000000 0.007725 0.000000 0.032782
#
#
# Mechanical properties :
#
#
# Convention : Reuss Voigt Hill
#
# Bulk Modulus (GPa) = 26.15646 40.64452 33.40049
# Shear Modulus (GPa) = 25.61891 34.76479 30.19185
#
# Velocity S-wave (km/s) = 3.35646 3.90995 3.64373
# Velocity P-wave (km/s) = 5.15008 6.18522 5.69123
#
# Compressibility (1/GPa) = 0.03823148
#
# Stress axis : x y z
#
# Youngs Moduli (GPa) = 28.83609 91.84970 62.94708
#
# Poissons Ratio (x) = 0.00571 0.49368
# Poissons Ratio (y) = 0.00179 0.23326
# Poissons Ratio (z) = 0.22615 0.34036
#
# Static dielectric constant tensor:
#      x y z
#    x 2.774310 0.000000 0.972210 
#    y 0.000000 3.464330 0.000000 
#    z 0.972210 0.000000 3.056460 
# 
# 
# High freq. dielectric constant tensor:
#      x y z
#    x 1.872810 0.000000 0.005200 
#    y 0.000000 1.914500 0.000000 
#    z 0.005200 0.000000 1.887090 
# 
# From -- ./inp_files/80623.got.cif
#   From: 2010.03.12/outbox.cif.g09.slc.cpg/sg14_41_cif.got.tgz:80623.got - 2010.03.31 13:35:05.
