data_PCOD8124561
_publ_section_title
;
Structure prediction by ZEFSAII (Michael W. Deem and Ramdas Pophale) SiO2 
 PCOD8124561
Probable space group: P 21/C
;
_chemical_formula_sum "Si O2"
_cell_formula_units_Z 32
_cell_length_a 10.859669
_cell_length_b 8.946451
_cell_length_c 17.841214
_cell_angle_alpha 90.000000
_cell_angle_beta 124.853165
_cell_angle_gamma 90.000000
_cell_volume 1422.438502
_symmetry_space_group_name_H-M "P 21/C"
_symmetry_group_IT_number 14
_symmetry_cell_setting 'monoclinic'
loop_
_space_group_symop_operation_xyz
x,y,z
-x,1/2+y,1/2-z
-x,-y,-z
x,1/2-y,1/2+z
loop_
_atom_site_type_symbol
_atom_site_label
_atom_site_fract_x
_atom_site_fract_y
_atom_site_fract_z
Si Si1 0.970393 0.221283 0.839488
Si Si2 0.395597 0.068946 0.707347
Si Si3 0.505073 0.256704 0.521454
Si Si4 0.639955 0.972760 0.138912
Si Si5 0.209929 0.697296 0.967041
Si Si6 0.234500 0.133088 0.509282
Si Si7 0.682864 0.245526 0.839706
Si Si8 0.945108 0.085717 0.186919
O O1 0.816706 0.264734 0.826755
O O2 0.002913 0.336240 0.782770
O O3 0.948531 0.049636 0.804093
O O4 0.111604 0.241397 0.945055
O O5 0.320538 0.071934 0.762894
O O6 0.287034 0.161201 0.613436
O O7 0.566957 0.123771 0.768809
O O8 0.406359 0.900251 0.681269
O O9 0.442916 0.332043 0.424894
O O10 0.534738 0.379821 0.597173
O O11 0.659903 0.179070 0.550526
O O12 0.384656 0.139513 0.510706
O O13 0.787464 0.003220 0.142607
O O14 0.070160 0.785250 0.881421
O O15 0.159477 0.530928 0.973809
O O16 0.256596 0.795067 0.056334
#
# Coordination Sequence:
#
# PCOD8124561 Si02
#       8
#     4   4   4   4   4   4   4   4
#     4  12  26  47  67  99 137 180 225 276 341 402
#     4  11  23  43  67 100 134 179 222 277 335 397
#     4  10  19  38  69  95 131 173 230 286 329 389
#     4  10  19  39  70  93 126 180 228 278 336 386
#     4  10  23  41  67  99 133 174 226 279 329 402
#     4  11  24  40  65  99 137 176 222 274 342 400
#     4  11  25  45  68 100 138 173 223 276 339 402
#     4  11  24  46  69  93 133 179 226 280 332 405
#
# _framework density 22.496580000000002
#
# number of rings (size 3 to 8) (size 9 to 14) (size 15 to 20)
#    0.000    1.250    3.750    1.875    1.750    3.500 
#    9.000    0.000    0.000    0.000    0.000    0.000 
#    0.000    0.000    0.000    0.000    0.000    0.000 
#
# Total GULP energy -396835.738381 kJ/mol
# GULP energy per Si atom -12401.116824 kJ/mol
# Density = 2.244538 g / cm^3
# Si number density = 22.496580 Si / 1000 Ang^3
#
#
#
# Elastic Constant Matrix: (Units=GPa)
#
#
# Indices 1 2 3 4 5 6 
#
# 1 57.6691 24.1449 32.0939 0.0000 -3.7055 0.0000
# 2 24.1449 78.0149 37.6168 0.0000 -5.5966 0.0000
# 3 32.0939 37.6168 144.8990 0.0000 -14.7689 0.0000
# 4 0.0000 0.0000 0.0000 35.7775 0.0000 6.8612
# 5 -3.7055 -5.5966 -14.7689 0.0000 26.2004 0.0000
# 6 0.0000 0.0000 0.0000 6.8612 0.0000 27.0503
#
#
#
# Elastic Compliance Matrix: (Units=1/GPa)
#
#
# Indices 1 2 3 4 5 6 
#
# 1 0.021323 -0.004940 -0.003438 0.000000 0.000022 0.000000
# 2 -0.004940 0.015824 -0.002908 0.000000 0.001042 0.000000
# 3 -0.003438 -0.002908 0.008811 0.000000 0.003859 0.000000
# 4 0.000000 0.000000 0.000000 0.029380 0.000000 -0.007452
# 5 0.000022 0.001042 0.003859 0.000000 0.040569 0.000000
# 6 0.000000 0.000000 0.000000 -0.007452 0.000000 0.038858
#
#
# Mechanical properties :
#
#
# Convention : Reuss Voigt Hill
#
# Bulk Modulus (GPa) = 42.75926 52.03269 47.39597
# Shear Modulus (GPa) = 27.00777 30.25414 28.63095
#
# Velocity S-wave (km/s) = 3.46862 3.67117 3.57133
# Velocity P-wave (km/s) = 5.92369 6.41478 6.17412
#
# Compressibility (1/GPa) = 0.02338675
#
# Stress axis : x y z
#
# Youngs Moduli (GPa) = 46.89669 63.19648 113.49355
#
# Poissons Ratio (x) = 0.31219 0.39022
# Poissons Ratio (y) = 0.23167 0.32998
# Poissons Ratio (z) = 0.16124 0.18374
#
# Static dielectric constant tensor:
#      x y z
#    x 3.674200 0.000000 -0.064860 
#    y 0.000000 4.010120 0.000000 
#    z -0.064860 0.000000 4.254120 
# 
# 
# High freq. dielectric constant tensor:
#      x y z
#    x 1.861510 0.000000 -0.005280 
#    y 0.000000 1.878420 0.000000 
#    z -0.005280 0.000000 1.901960 
# 
# From -- ./inp_files/57301.got.cif
#   From: 2010.03.12/outbox.cif.g09.slc.cpg/sg14_29_cif.got.tgz:57301.got - 2010.03.31 13:35:05.
