data_PCOD8124709
_publ_section_title
;
Structure prediction by ZEFSAII (Michael W. Deem and Ramdas Pophale) SiO2 
 PCOD8124709
Probable space group: P 21/C
;
_chemical_formula_sum "Si O2"
_cell_formula_units_Z 32
_cell_length_a 16.378665
_cell_length_b 11.585166
_cell_length_c 14.457959
_cell_angle_alpha 90.000000
_cell_angle_beta 147.068473
_cell_angle_gamma 90.000000
_cell_volume 1491.407260
_symmetry_space_group_name_H-M "P 21/C"
_symmetry_group_IT_number 14
_symmetry_cell_setting 'monoclinic'
loop_
_space_group_symop_operation_xyz
x,y,z
-x,1/2+y,1/2-z
-x,-y,-z
x,1/2-y,1/2+z
loop_
_atom_site_type_symbol
_atom_site_label
_atom_site_fract_x
_atom_site_fract_y
_atom_site_fract_z
Si Si1 0.678429 0.054163 0.085976
Si Si2 0.118106 0.291418 0.015229
Si Si3 0.178433 0.554158 0.085970
Si Si4 0.548910 0.744167 0.147409
Si Si5 0.381893 0.208575 0.984779
Si Si6 0.048909 0.255826 0.647421
Si Si7 0.118260 0.835815 0.855148
Si Si8 0.381742 0.664175 0.144842
O O1 0.749995 0.100220 0.250002
O O2 0.809812 0.055249 0.130838
O O3 0.614693 0.926655 0.039809
O O4 0.542893 0.136813 0.926157
O O5 0.114696 0.426651 0.039809
O O6 0.286999 0.256038 0.150451
O O7 0.062170 0.217308 0.050974
O O8 0.005855 0.268780 0.824664
O O9 0.309810 0.555239 0.130824
O O10 0.042895 0.636806 0.926150
O O11 0.562171 0.717306 0.050961
O O12 0.463843 0.640503 0.123513
O O13 0.213001 0.243950 0.849559
O O14 0.494139 0.231205 0.175342
O O15 0.963847 0.359489 0.623530
O O16 0.250003 0.749998 0.000001
#
# Coordination Sequence:
#
# PCOD8124709 Si02
#       8
#     4   4   4   4   4   4   4   4
#     4  11  18  33  55  83 113 141 178 227 278 316
#     4  11  19  33  56  80 111 140 184 230 271 316
#     4  11  18  33  55  83 113 141 178 227 278 316
#     4  10  20  31  51  83 114 145 174 226 278 319
#     4  11  19  33  56  80 111 140 184 230 271 316
#     4  10  20  31  51  83 114 145 174 226 278 319
#     4  10  22  33  49  81 117 144 177 222 281 326
#     4  10  22  33  49  81 117 144 177 222 281 326
#
# _framework density 21.456244999999999
#
# number of rings (size 3 to 8) (size 9 to 14) (size 15 to 20)
#    0.000    1.500    5.000    3.000    0.000    0.000 
#    0.000    0.000    0.000    0.000    0.000   59.500 
#    0.000    0.000    0.000    0.000    0.000    0.000 
#
# Total GULP energy -396418.453786 kJ/mol
# GULP energy per Si atom -12388.076681 kJ/mol
# Density = 2.140741 g / cm^3
# Si number density = 21.456245 Si / 1000 Ang^3
#
#
#
# Elastic Constant Matrix: (Units=GPa)
#
#
# Indices 1 2 3 4 5 6 
#
# 1 170.5335 25.9511 39.6297 0.0000 -3.9892 0.0000
# 2 25.9511 17.6908 8.7001 0.0000 -6.0922 0.0000
# 3 39.6297 8.7001 142.8757 0.0000 7.8265 0.0000
# 4 0.0000 0.0000 0.0000 19.4791 0.0000 3.8040
# 5 -3.9892 -6.0922 7.8265 0.0000 29.6447 0.0000
# 6 0.0000 0.0000 0.0000 3.8040 0.0000 14.4613
#
#
#
# Elastic Compliance Matrix: (Units=1/GPa)
#
#
# Indices 1 2 3 4 5 6 
#
# 1 0.007877 -0.011126 -0.001461 0.000000 -0.000841 0.000000
# 2 -0.011126 0.079473 -0.002604 0.000000 0.015523 0.000000
# 3 -0.001461 -0.002604 0.007715 0.000000 -0.002768 0.000000
# 4 0.000000 0.000000 0.000000 0.054117 0.000000 -0.014235
# 5 -0.000841 0.015523 -0.002768 0.000000 0.037541 0.000000
# 6 0.000000 0.000000 0.000000 -0.014235 0.000000 0.072895
#
#
# Mechanical properties :
#
#
# Convention : Reuss Voigt Hill
#
# Bulk Modulus (GPa) = 15.45990 53.29576 34.37783
# Shear Modulus (GPa) = 16.04828 29.83829 22.94328
#
# Velocity S-wave (km/s) = 2.73784 3.73320 3.27357
# Velocity P-wave (km/s) = 4.14914 6.59360 5.50867
#
# Compressibility (1/GPa) = 0.06468347
#
# Stress axis : x y z
#
# Youngs Moduli (GPa) = 126.95273 12.58281 129.62401
#
# Poissons Ratio (x) = 0.13999 0.18942
# Poissons Ratio (y) = 1.41245 0.33750
# Poissons Ratio (z) = 0.18552 0.03276
#
# Static dielectric constant tensor:
#      x y z
#    x 4.823340 0.000000 0.104580 
#    y 0.000000 3.274170 0.000000 
#    z 0.104580 0.000000 4.192760 
# 
# 
# High freq. dielectric constant tensor:
#      x y z
#    x 1.873900 0.000000 0.015930 
#    y 0.000000 1.751350 0.000000 
#    z 0.015930 0.000000 1.863280 
# 
# From -- ./inp_files/19072.got.cif
#   From: 2010.03.12/outbox.cif.g09.slc.cpg/sg14_10_cif.got.tgz:19072.got - 2010.03.31 13:35:05.
