data_PCOD8124777
_publ_section_title
;
Structure prediction by ZEFSAII (Michael W. Deem and Ramdas Pophale) SiO2 
 PCOD8124777
Probable space group: P 21/C
;
_chemical_formula_sum "Si O2"
_cell_formula_units_Z 28
_cell_length_a 30.838181
_cell_length_b 8.590074
_cell_length_c 10.451896
_cell_angle_alpha 90.000000
_cell_angle_beta 32.077873
_cell_angle_gamma 90.000000
_cell_volume 1470.393737
_symmetry_space_group_name_H-M "P 21/C"
_symmetry_group_IT_number 14
_symmetry_cell_setting 'monoclinic'
loop_
_space_group_symop_operation_xyz
x,y,z
-x,1/2+y,1/2-z
-x,-y,-z
x,1/2-y,1/2+z
loop_
_atom_site_type_symbol
_atom_site_label
_atom_site_fract_x
_atom_site_fract_y
_atom_site_fract_z
Si Si1 0.609310 0.038287 0.118592
Si Si2 0.212696 0.874614 0.616448
Si Si3 0.515587 0.749994 0.461030
Si Si4 0.212635 0.874589 0.320166
Si Si5 0.926705 0.882892 0.327790
Si Si6 0.390752 0.538296 0.664846
Si Si7 0.926621 0.617053 0.538881
O O1 0.546179 0.183888 0.276424
O O2 0.573528 0.890740 0.280050
O O3 0.696607 0.085820 0.958128
O O4 0.625214 0.981123 0.937026
O O5 0.212577 0.811850 0.468530
O O6 0.176750 0.750060 0.808109
O O7 0.303487 0.914008 0.440825
O O8 0.159094 0.029159 0.760025
O O9 0.453956 0.683791 0.506821
O O10 0.573521 0.609310 0.352491
O O11 0.158936 0.028993 0.444824
O O12 0.930256 0.749933 0.424324
O O13 0.935069 0.813922 0.162307
O O14 0.000103 0.999827 0.172110
#
# Coordination Sequence:
#
# PCOD8124777 Si02
#       7
#     4   4   4   4   4   4   4
#     4  10  20  35  53  77 108 143 184 233 278 327
#     4  10  21  38  57  82 115 147 187 231 277 330
#     4  10  20  34  54  76 104 144 186 230 276 338
#     4  10  21  38  57  82 115 147 187 231 277 330
#     4  10  22  39  61  88 117 148 184 228 274 330
#     4  10  20  35  53  77 108 143 184 233 278 327
#     4  10  22  39  61  88 117 148 184 228 274 330
#
# _framework density 19.042518999999999
#
# number of rings (size 3 to 8) (size 9 to 14) (size 15 to 20)
#    0.000    2.000    1.429    1.714    2.000    1.714 
#    0.000    1.429    0.000    0.000    0.000    0.000 
#    0.000    0.000    0.000    0.000    0.000    0.000 
#
# Total GULP energy -347016.963992 kJ/mol
# GULP energy per Si atom -12393.463000 kJ/mol
# Density = 1.899918 g / cm^3
# Si number density = 19.042519 Si / 1000 Ang^3
#
#
#
# Elastic Constant Matrix: (Units=GPa)
#
#
# Indices 1 2 3 4 5 6 
#
# 1 102.6866 60.0221 46.4698 0.0000 8.2619 0.0000
# 2 60.0221 91.5821 49.5768 0.0000 17.2283 0.0000
# 3 46.4698 49.5768 94.8522 0.0000 4.5278 0.0000
# 4 0.0000 0.0000 0.0000 27.4964 0.0000 4.8962
# 5 8.2619 17.2283 4.5278 0.0000 31.8932 0.0000
# 6 0.0000 0.0000 0.0000 4.8962 0.0000 30.3467
#
#
#
# Elastic Compliance Matrix: (Units=1/GPa)
#
#
# Indices 1 2 3 4 5 6 
#
# 1 0.016576 -0.009290 -0.003322 0.000000 0.001196 0.000000
# 2 -0.009290 0.022244 -0.006661 0.000000 -0.008663 0.000000
# 3 -0.003322 -0.006661 0.015544 0.000000 0.002252 0.000000
# 4 0.000000 0.000000 0.000000 0.037444 0.000000 -0.006041
# 5 0.001196 -0.008663 0.002252 0.000000 0.035405 0.000000
# 6 0.000000 0.000000 0.000000 -0.006041 0.000000 0.033927
#
#
# Mechanical properties :
#
#
# Convention : Reuss Voigt Hill
#
# Bulk Modulus (GPa) = 63.22407 66.80649 65.01528
# Shear Modulus (GPa) = 24.39506 26.81741 25.60623
#
# Velocity S-wave (km/s) = 3.58311 3.75679 3.67098
# Velocity P-wave (km/s) = 7.09872 7.34690 7.22388
#
# Compressibility (1/GPa) = 0.01581676
#
# Stress axis : x y z
#
# Youngs Moduli (GPa) = 60.32869 44.95673 64.33200
#
# Poissons Ratio (x) = 0.41766 0.21372
# Poissons Ratio (y) = 0.56047 0.42852
# Poissons Ratio (z) = 0.20042 0.29946
#
# Static dielectric constant tensor:
#      x y z
#    x 3.660970 0.000000 -0.109300 
#    y 0.000000 3.342930 0.000000 
#    z -0.109300 0.000000 3.726340 
# 
# 
# High freq. dielectric constant tensor:
#      x y z
#    x 1.744740 0.000000 -0.012180 
#    y 0.000000 1.727670 0.000000 
#    z -0.012180 0.000000 1.751990 
# 
# From -- ./inp_files/19682.got.cif
#   From: 2010.03.12/outbox.cif.g09.slc.cpg/sg14_10_cif.got.tgz:19682.got - 2010.03.31 13:35:05.
