data_PCOD8124936
_publ_section_title
;
Structure prediction by ZEFSAII (Michael W. Deem and Ramdas Pophale) SiO2 
 PCOD8124936
Probable space group: P 21/C
;
_chemical_formula_sum "Si O2"
_cell_formula_units_Z 32
_cell_length_a 8.955434
_cell_length_b 19.965143
_cell_length_c 12.169267
_cell_angle_alpha 90.000000
_cell_angle_beta 131.644575
_cell_angle_gamma 90.000000
_cell_volume 1625.951631
_symmetry_space_group_name_H-M "P 21/C"
_symmetry_group_IT_number 14
_symmetry_cell_setting 'monoclinic'
loop_
_space_group_symop_operation_xyz
x,y,z
-x,1/2+y,1/2-z
-x,-y,-z
x,1/2-y,1/2+z
loop_
_atom_site_type_symbol
_atom_site_label
_atom_site_fract_x
_atom_site_fract_y
_atom_site_fract_z
Si Si1 0.563904 0.489157 0.181988
Si Si2 0.004781 0.485396 0.376498
Si Si3 0.866564 0.836039 0.044340
Si Si4 0.507828 0.385337 0.981770
Si Si5 0.790703 0.788790 0.767049
Si Si6 0.831535 0.272588 0.164202
Si Si7 0.601178 0.041838 0.954576
Si Si8 0.474566 0.314836 0.452109
O O1 0.451954 0.556717 0.089906
O O2 0.562157 0.487672 0.313373
O O3 0.780140 0.494979 0.225811
O O4 0.477730 0.420211 0.087308
O O5 0.084211 0.410936 0.395076
O O6 0.161718 0.538367 0.401085
O O7 0.000000 0.500000 0.500000
O O8 0.674185 0.815096 0.018650
O O9 0.055989 0.789185 0.166752
O O10 0.818614 0.828242 0.893721
O O11 0.300976 0.343963 0.862038
O O12 0.703788 0.338032 0.065700
O O13 0.619876 0.731229 0.690593
O O14 0.999163 0.752806 0.838269
O O15 0.679704 0.211681 0.104914
O O16 0.516478 0.115706 0.913886
O O17 0.500000 0.000000 0.000000
#
# Coordination Sequence:
#
# PCOD8124936 Si02
#       8
#     4   4   4   4   4   4   4   4
#     4  10  22  38  68  88 125 169 202 263 304 376
#     4  10  20  35  62  89 114 159 202 250 301 363
#     4  11  21  42  60  87 126 156 204 255 309 365
#     4  10  21  41  62  97 124 159 214 250 318 366
#     4  10  23  39  64  88 122 164 207 253 306 376
#     4  10  23  39  61  89 122 159 208 254 304 369
#     4  11  22  38  62  93 124 157 209 256 312 361
#     4  10  24  39  59  90 123 160 201 260 309 364
#
# _framework density 19.680782000000001
#
# number of rings (size 3 to 8) (size 9 to 14) (size 15 to 20)
#    0.000    1.750    2.500    1.500    5.250    5.000 
#    0.000    0.000    0.000    6.000    0.000    0.000 
#    0.000    0.000    0.000    0.000    0.000    0.000 
#
# Total GULP energy -396454.183153 kJ/mol
# GULP energy per Si atom -12389.193224 kJ/mol
# Density = 1.963599 g / cm^3
# Si number density = 19.680782 Si / 1000 Ang^3
#
#
#
# Elastic Constant Matrix: (Units=GPa)
#
#
# Indices 1 2 3 4 5 6 
#
# 1 88.6530 35.0457 50.2161 0.0000 11.2495 0.0000
# 2 35.0457 100.3707 30.9915 0.0000 5.9373 0.0000
# 3 50.2161 30.9915 95.8609 0.0000 5.6330 0.0000
# 4 0.0000 0.0000 0.0000 37.0770 0.0000 5.0844
# 5 11.2495 5.9373 5.6330 0.0000 30.2752 0.0000
# 6 0.0000 0.0000 0.0000 5.0844 0.0000 33.6879
#
#
#
# Elastic Compliance Matrix: (Units=1/GPa)
#
#
# Indices 1 2 3 4 5 6 
#
# 1 0.017677 -0.003479 -0.007876 0.000000 -0.004421 0.000000
# 2 -0.003479 0.011822 -0.001961 0.000000 -0.000661 0.000000
# 3 -0.007876 -0.001961 0.015163 0.000000 0.000490 0.000000
# 4 0.000000 0.000000 0.000000 0.027541 0.000000 -0.004157
# 5 -0.004421 -0.000661 0.000490 0.000000 0.034711 0.000000
# 6 0.000000 0.000000 0.000000 -0.004157 0.000000 0.030312
#
#
# Mechanical properties :
#
#
# Convention : Reuss Voigt Hill
#
# Bulk Modulus (GPa) = 55.45923 57.48793 56.47358
# Shear Modulus (GPa) = 29.43477 31.45012 30.44245
#
# Velocity S-wave (km/s) = 3.87151 4.00185 3.93722
# Velocity P-wave (km/s) = 6.94444 7.11524 7.03036
#
# Compressibility (1/GPa) = 0.01803126
#
# Stress axis : x y z
#
# Youngs Moduli (GPa) = 56.57005 84.58557 65.95217
#
# Poissons Ratio (x) = 0.29427 0.51941
# Poissons Ratio (y) = 0.19681 0.12932
# Poissons Ratio (z) = 0.44552 0.16586
#
# Static dielectric constant tensor:
#      x y z
#    x 4.174830 0.000000 1.047860 
#    y 0.000000 3.818670 0.000000 
#    z 1.047860 0.000000 4.437750 
# 
# 
# High freq. dielectric constant tensor:
#      x y z
#    x 1.746550 0.000000 0.021470 
#    y 0.000000 1.785330 0.000000 
#    z 0.021470 0.000000 1.770350 
# 
# From -- ./inp_files/26829.got.cif
#   From: 2010.03.12/outbox.cif.g09.slc.cpg/sg14_14_cif.got.tgz:26829.got - 2010.03.31 13:35:05.
