data_PCOD8124081
_publ_section_title
;
Structure prediction by ZEFSAII (Michael W. Deem and Ramdas Pophale) SiO2 
 PCOD8124081
Probable space group: P 21/C
;
_chemical_formula_sum "Si O2"
_cell_formula_units_Z 28
_cell_length_a 15.347221
_cell_length_b 7.780228
_cell_length_c 13.298028
_cell_angle_alpha 90.000000
_cell_angle_beta 119.915185
_cell_angle_gamma 90.000000
_cell_volume 1376.291674
_symmetry_space_group_name_H-M "P 21/C"
_symmetry_group_IT_number 14
_symmetry_cell_setting 'monoclinic'
loop_
_space_group_symop_operation_xyz
x,y,z
-x,1/2+y,1/2-z
-x,-y,-z
x,1/2-y,1/2+z
loop_
_atom_site_type_symbol
_atom_site_label
_atom_site_fract_x
_atom_site_fract_y
_atom_site_fract_z
Si Si1 0.046055 0.168905 0.474366
Si Si2 0.534005 0.020410 0.906062
Si Si3 0.226166 0.980952 0.527825
Si Si4 0.197042 0.061567 0.113683
Si Si5 0.242141 0.633542 0.446093
Si Si6 0.611446 0.775155 0.319932
Si Si7 0.830852 0.285134 0.804396
O O1 0.099917 0.313576 0.577611
O O2 0.950764 0.247086 0.362382
O O3 0.136030 0.114414 0.450503
O O4 0.000000 0.000000 0.500000
O O5 0.457253 0.144937 0.805700
O O6 0.541531 0.836246 0.854470
O O7 0.641345 0.108503 0.966960
O O8 0.500000 0.000000 0.000000
O O9 0.219753 0.834893 0.442083
O O10 0.206157 0.904157 0.626498
O O11 0.334091 0.074753 0.584770
O O12 0.301408 0.164084 0.183127
O O13 0.209549 0.909117 0.202567
O O14 0.181284 0.980903 0.991934
O O15 0.209596 0.603095 0.312841
#
# Coordination Sequence:
#
# PCOD8124081 Si02
#       7
#     4   4   4   4   4   4   4
#     4   9  18  34  57  81 110 149 185 223 272 331
#     4  11  23  38  59  84 109 146 193 236 286 350
#     4   9  19  37  54  77 111 143 181 226 277 333
#     4   9  20  37  56  81 114 148 186 230 282 339
#     4  10  21  35  54  81 111 144 184 231 283 337
#     4  10  21  39  58  78 112 149 181 237 292 334
#     4  10  19  34  57  82 110 145 183 229 276 330
#
# _framework density 20.344525000000001
#
# number of rings (size 3 to 8) (size 9 to 14) (size 15 to 20)
#    0.000    2.286    0.000    2.143    0.000    4.571 
#    0.000    9.286    0.000    0.000    0.000    0.000 
#    0.000    0.000    0.000    0.000    0.000    0.000 
#
# Total GULP energy -346932.011602 kJ/mol
# GULP energy per Si atom -12390.428986 kJ/mol
# Density = 2.029822 g / cm^3
# Si number density = 20.344525 Si / 1000 Ang^3
#
#
#
# Elastic Constant Matrix: (Units=GPa)
#
#
# Indices 1 2 3 4 5 6 
#
# 1 74.4658 37.8366 46.0569 0.0000 11.0958 0.0000
# 2 37.8366 105.2042 30.7513 0.0000 4.6724 0.0000
# 3 46.0569 30.7513 78.0169 0.0000 5.2004 0.0000
# 4 0.0000 0.0000 0.0000 31.1543 0.0000 8.8631
# 5 11.0958 4.6724 5.2004 0.0000 31.9816 0.0000
# 6 0.0000 0.0000 0.0000 8.8631 0.0000 36.5538
#
#
#
# Elastic Compliance Matrix: (Units=1/GPa)
#
#
# Indices 1 2 3 4 5 6 
#
# 1 0.024186 -0.004953 -0.011944 0.000000 -0.005725 0.000000
# 2 -0.004953 0.011783 -0.001739 0.000000 0.000280 0.000000
# 3 -0.011944 -0.001739 0.020483 0.000000 0.001067 0.000000
# 4 0.000000 0.000000 0.000000 0.034477 0.000000 -0.008359
# 5 -0.005725 0.000280 0.001067 0.000000 0.033040 0.000000
# 6 0.000000 0.000000 0.000000 -0.008359 0.000000 0.029384
#
#
# Mechanical properties :
#
#
# Convention : Reuss Voigt Hill
#
# Bulk Modulus (GPa) = 52.13858 54.10849 53.12353
# Shear Modulus (GPa) = 25.37841 29.47408 27.42625
#
# Velocity S-wave (km/s) = 3.53573 3.81037 3.67562
# Velocity P-wave (km/s) = 6.50784 6.78324 6.64697
#
# Compressibility (1/GPa) = 0.01917966
#
# Stress axis : x y z
#
# Youngs Moduli (GPa) = 41.34581 84.87154 48.82036
#
# Poissons Ratio (x) = 0.42036 0.58313
# Poissons Ratio (y) = 0.20478 0.08489
# Poissons Ratio (z) = 0.49385 0.14759
#
# Static dielectric constant tensor:
#      x y z
#    x 3.871690 0.000000 0.286690 
#    y 0.000000 3.954440 0.000000 
#    z 0.286690 0.000000 3.410830 
# 
# 
# High freq. dielectric constant tensor:
#      x y z
#    x 1.795870 0.000000 0.022560 
#    y 0.000000 1.813250 0.000000 
#    z 0.022560 0.000000 1.766900 
# 
# From -- ./inp_files/31890.got.cif
#   From: 2010.03.12/outbox.cif.g09.slc.cpg/sg14_16_cif.got.tgz:31890.got - 2010.03.31 13:35:05.
