data_PCOD8124596
_publ_section_title
;
Structure prediction by ZEFSAII (Michael W. Deem and Ramdas Pophale) SiO2 
 PCOD8124596
Probable space group: P 21/C
;
_chemical_formula_sum "Si O2"
_cell_formula_units_Z 32
_cell_length_a 11.618774
_cell_length_b 8.433537
_cell_length_c 23.780449
_cell_angle_alpha 90.000000
_cell_angle_beta 135.456695
_cell_angle_gamma 90.000000
_cell_volume 1634.502853
_symmetry_space_group_name_H-M "P 21/C"
_symmetry_group_IT_number 14
_symmetry_cell_setting 'monoclinic'
loop_
_space_group_symop_operation_xyz
x,y,z
-x,1/2+y,1/2-z
-x,-y,-z
x,1/2-y,1/2+z
loop_
_atom_site_type_symbol
_atom_site_label
_atom_site_fract_x
_atom_site_fract_y
_atom_site_fract_z
Si Si1 0.403128 0.281763 0.735210
Si Si2 0.282093 0.373752 0.961836
Si Si3 0.981325 0.297806 0.305353
Si Si4 0.378750 0.226722 0.105365
Si Si5 0.599302 0.218881 0.504066
Si Si6 0.665400 0.358376 0.258274
Si Si7 0.448037 0.087365 0.856487
Si Si8 0.813801 0.086042 0.159109
O O1 0.301766 0.246168 0.641608
O O2 0.363510 0.457637 0.740330
O O3 0.596389 0.252427 0.785511
O O4 0.362796 0.158694 0.770788
O O5 0.291421 0.562912 0.966764
O O6 0.124058 0.324096 0.871433
O O7 0.261825 0.299843 0.017213
O O8 0.446576 0.304216 0.992271
O O9 0.853593 0.315140 0.312408
O O10 0.894653 0.233651 0.219146
O O11 0.045032 0.473124 0.315366
O O12 0.556940 0.315541 0.164798
O O13 0.410404 0.039572 0.107988
O O14 0.534645 0.271650 0.420795
O O15 0.711267 0.354851 0.569909
O O16 0.300153 0.013457 0.839402
#
# Coordination Sequence:
#
# PCOD8124596 Si02
#       8
#     4   4   4   4   4   4   4   4
#     4  10  21  39  67  92 115 168 223 258 306 373
#     4  11  22  40  62  92 129 168 211 263 317 372
#     4  12  25  38  62  92 138 163 199 268 330 379
#     4  10  19  39  64  87 120 161 213 263 295 372
#     4  11  23  39  64  92 123 173 221 249 306 393
#     4  10  21  40  62  93 118 165 214 264 311 370
#     4  12  20  37  67  90 122 161 214 264 297 374
#     4  12  24  41  58  97 133 169 202 257 329 380
#
# _framework density 19.577817
#
# number of rings (size 3 to 8) (size 9 to 14) (size 15 to 20)
#    0.750    0.250    5.000    2.625    1.750    2.000 
#    0.000    0.625    0.000    3.750    0.000    0.000 
#    0.000    0.000    0.000    0.000    0.000    0.000 
#
# Total GULP energy -396666.963382 kJ/mol
# GULP energy per Si atom -12395.842606 kJ/mol
# Density = 1.953326 g / cm^3
# Si number density = 19.577817 Si / 1000 Ang^3
#
#
#
# Elastic Constant Matrix: (Units=GPa)
#
#
# Indices 1 2 3 4 5 6 
#
# 1 51.1702 36.1045 21.1236 0.0000 -8.5663 0.0000
# 2 36.1045 90.3027 20.7752 0.0000 -2.5361 0.0000
# 3 21.1236 20.7752 62.9459 0.0000 -12.3313 0.0000
# 4 0.0000 0.0000 0.0000 39.0668 0.0000 -5.1785
# 5 -8.5663 -2.5361 -12.3313 0.0000 34.3296 0.0000
# 6 0.0000 0.0000 0.0000 -5.1785 0.0000 31.0252
#
#
#
# Elastic Compliance Matrix: (Units=1/GPa)
#
#
# Indices 1 2 3 4 5 6 
#
# 1 0.030177 -0.010622 -0.005701 0.000000 0.004698 0.000000
# 2 -0.010622 0.015733 -0.002065 0.000000 -0.002230 0.000000
# 3 -0.005701 -0.002065 0.019548 0.000000 0.005447 0.000000
# 4 0.000000 0.000000 0.000000 0.026176 0.000000 0.004369
# 5 0.004698 -0.002230 0.005447 0.000000 0.032093 0.000000
# 6 0.000000 0.000000 0.000000 0.004369 0.000000 0.032961
#
#
# Mechanical properties :
#
#
# Convention : Reuss Voigt Hill
#
# Bulk Modulus (GPa) = 34.86388 40.04726 37.45557
# Shear Modulus (GPa) = 24.62748 29.31203 26.96975
#
# Velocity S-wave (km/s) = 3.55058 3.87357 3.71559
# Velocity P-wave (km/s) = 5.88687 6.36443 6.13030
#
# Compressibility (1/GPa) = 0.02868298
#
# Stress axis : x y z
#
# Youngs Moduli (GPa) = 33.13805 63.56047 51.15507
#
# Poissons Ratio (x) = 0.67512 0.29163
# Poissons Ratio (y) = 0.35198 0.10564
# Poissons Ratio (z) = 0.18892 0.13126
#
# Static dielectric constant tensor:
#      x y z
#    x 3.516610 0.000000 -0.198350 
#    y 0.000000 3.687390 0.000000 
#    z -0.198350 0.000000 3.483580 
# 
# 
# High freq. dielectric constant tensor:
#      x y z
#    x 1.746130 0.000000 -0.020500 
#    y 0.000000 1.778010 0.000000 
#    z -0.020500 0.000000 1.748400 
# 
# From -- ./inp_files/73112.got.cif
#   From: 2010.03.12/outbox.cif.g09.slc.cpg/sg14_37_cif.got.tgz:73112.got - 2010.03.31 13:35:05.
