data_PCOD8124511
_publ_section_title
;
Structure prediction by ZEFSAII (Michael W. Deem and Ramdas Pophale) SiO2 
 PCOD8124511
Probable space group: P 21/C
;
_chemical_formula_sum "Si O2"
_cell_formula_units_Z 24
_cell_length_a 10.020258
_cell_length_b 8.918461
_cell_length_c 17.960042
_cell_angle_alpha 90.000000
_cell_angle_beta 47.311791
_cell_angle_gamma 90.000000
_cell_volume 1179.764970
_symmetry_space_group_name_H-M "P 21/C"
_symmetry_group_IT_number 14
_symmetry_cell_setting 'monoclinic'
loop_
_space_group_symop_operation_xyz
x,y,z
-x,1/2+y,1/2-z
-x,-y,-z
x,1/2-y,1/2+z
loop_
_atom_site_type_symbol
_atom_site_label
_atom_site_fract_x
_atom_site_fract_y
_atom_site_fract_z
Si Si1 0.421758 0.136239 0.433080
Si Si2 0.625518 0.593930 0.645463
Si Si3 0.621523 0.652027 0.883003
Si Si4 0.252170 0.793249 0.964693
Si Si5 0.268950 0.970979 0.361950
Si Si6 0.123663 0.267602 0.836169
O O1 0.475730 0.292925 0.373372
O O2 0.336866 0.171770 0.545744
O O3 0.596733 0.025468 0.374079
O O4 0.265422 0.057318 0.442693
O O5 0.731797 0.467051 0.560401
O O6 0.475291 0.519883 0.754852
O O7 0.771634 0.678906 0.639534
O O8 0.436611 0.737577 0.932500
O O9 0.790136 0.726358 0.775988
O O10 0.209527 0.699440 0.904120
O O11 0.087674 0.775500 0.085353
O O12 0.141366 0.054223 0.349747
#
# Coordination Sequence:
#
# PCOD8124511 Si02
#       6
#     4   4   4   4   4   4
#     4   9  20  36  63  79 115 159 191 230 298 346
#     4  11  19  37  60  87 111 152 197 239 285 339
#     4  10  20  40  59  80 120 159 187 234 296 353
#     4  11  21  35  60  87 117 148 194 245 288 335
#     4  10  19  38  61  84 113 157 193 235 294 345
#     4  11  21  36  60  86 115 150 196 241 285 348
#
# _framework density 20.343036000000001
#
# number of rings (size 3 to 8) (size 9 to 14) (size 15 to 20)
#    0.000    1.667    5.000    2.000    0.000    0.667 
#    0.000    5.000    7.333    0.000    0.000    0.000 
#    0.000    0.000    0.000    0.000    0.000    0.000 
#
# Total GULP energy -297521.546660 kJ/mol
# GULP energy per Si atom -12396.731111 kJ/mol
# Density = 2.029673 g / cm^3
# Si number density = 20.343036 Si / 1000 Ang^3
#
#
#
# Elastic Constant Matrix: (Units=GPa)
#
#
# Indices 1 2 3 4 5 6 
#
# 1 29.5293 21.3726 39.7314 0.0000 13.3021 0.0000
# 2 21.3726 88.3273 20.1921 0.0000 15.6911 0.0000
# 3 39.7314 20.1921 133.2962 0.0000 -0.0471 0.0000
# 4 0.0000 0.0000 0.0000 24.6066 0.0000 1.5697
# 5 13.3021 15.6911 -0.0471 0.0000 39.7328 0.0000
# 6 0.0000 0.0000 0.0000 1.5697 0.0000 19.4315
#
#
#
# Elastic Compliance Matrix: (Units=1/GPa)
#
#
# Indices 1 2 3 4 5 6 
#
# 1 0.083784 -0.010695 -0.023362 0.000000 -0.023854 0.000000
# 2 -0.010695 0.014013 0.001064 0.000000 -0.001952 0.000000
# 3 -0.023362 0.001064 0.014307 0.000000 0.007418 0.000000
# 4 0.000000 0.000000 0.000000 0.040850 0.000000 -0.003300
# 5 -0.023854 -0.001952 0.007418 0.000000 0.033934 0.000000
# 6 0.000000 0.000000 0.000000 -0.003300 0.000000 0.051729
#
#
# Mechanical properties :
#
#
# Convention : Reuss Voigt Hill
#
# Bulk Modulus (GPa) = 21.68294 45.97167 33.82731
# Shear Modulus (GPa) = 15.62624 28.07796 21.85210
#
# Velocity S-wave (km/s) = 2.77454 3.71917 3.28103
# Velocity P-wave (km/s) = 4.57666 6.41017 5.56939
#
# Compressibility (1/GPa) = 0.04611920
#
# Stress axis : x y z
#
# Youngs Moduli (GPa) = 11.93544 71.36308 69.89657
#
# Poissons Ratio (x) = 0.76323 1.63290
# Poissons Ratio (y) = 0.12765 -0.07440
# Poissons Ratio (z) = 0.27883 -0.07596
#
# Static dielectric constant tensor:
#      x y z
#    x 3.369830 0.000000 0.192140 
#    y 0.000000 4.041780 0.000000 
#    z 0.192140 0.000000 3.664690 
# 
# 
# High freq. dielectric constant tensor:
#      x y z
#    x 1.756360 0.000000 0.011280 
#    y 0.000000 1.804920 0.000000 
#    z 0.011280 0.000000 1.790760 
# 
# From -- ./inp_files/46357.got.cif
#   From: 2010.03.12/outbox.cif.g09.slc.cpg/sg14_24_cif.got.tgz:46357.got - 2010.03.31 13:35:05.
