data_PCOD8124612
_publ_section_title
;
Structure prediction by ZEFSAII (Michael W. Deem and Ramdas Pophale) SiO2 
 PCOD8124612
Probable space group: P 21/C
;
_chemical_formula_sum "Si O2"
_cell_formula_units_Z 32
_cell_length_a 11.694898
_cell_length_b 8.376717
_cell_length_c 19.843305
_cell_angle_alpha 90.000000
_cell_angle_beta 48.654050
_cell_angle_gamma 90.000000
_cell_volume 1459.387805
_symmetry_space_group_name_H-M "P 21/C"
_symmetry_group_IT_number 14
_symmetry_cell_setting 'monoclinic'
loop_
_space_group_symop_operation_xyz
x,y,z
-x,1/2+y,1/2-z
-x,-y,-z
x,1/2-y,1/2+z
loop_
_atom_site_type_symbol
_atom_site_label
_atom_site_fract_x
_atom_site_fract_y
_atom_site_fract_z
Si Si1 0.147101 0.662664 0.484139
Si Si2 0.454893 0.637822 0.177985
Si Si3 0.231923 0.029226 0.458113
Si Si4 0.145725 0.890656 0.725449
Si Si5 0.237497 0.056611 0.304150
Si Si6 0.021008 0.295781 0.318197
Si Si7 0.566340 0.985085 0.174654
Si Si8 0.034783 0.766826 0.391392
O O1 0.047585 0.618873 0.588352
O O2 0.289939 0.540450 0.426044
O O3 0.047473 0.656282 0.453757
O O4 0.204011 0.842479 0.469740
O O5 0.595863 0.555857 0.083631
O O6 0.319261 0.651237 0.177271
O O7 0.395808 0.524156 0.261824
O O8 0.524920 0.801022 0.180403
O O9 0.210526 0.107188 0.392218
O O10 0.109599 0.115879 0.552706
O O11 0.113335 0.795355 0.669440
O O12 0.023434 0.840965 0.830125
O O13 0.109439 0.079790 0.734875
O O14 0.412979 0.080484 0.214391
O O15 0.142414 0.162932 0.290834
O O16 0.189690 0.869933 0.319925
#
# Coordination Sequence:
#
# PCOD8124612 Si02
#       8
#     4   4   4   4   4   4   4   4
#     4  11  22  41  69 105 133 174 226 283 337 395
#     4  11  24  41  66 104 140 175 219 281 342 406
#     4  10  21  36  69 102 137 169 218 283 341 387
#     4  12  28  45  67  96 137 181 231 270 341 411
#     4  10  19  39  67  95 132 180 214 271 337 391
#     4  12  27  45  68  94 136 182 230 275 335 402
#     4  11  22  38  67 101 139 170 222 281 340 390
#     4  11  19  42  68 100 134 170 229 281 325 404
#
# _framework density 21.927001000000001
#
# number of rings (size 3 to 8) (size 9 to 14) (size 15 to 20)
#    0.000    1.000    5.000    3.000    7.000    0.500 
#    0.000    2.500    0.000    0.000    0.000    0.000 
#    0.000    0.000    0.000    0.000    0.000    0.000 
#
# Total GULP energy -396714.909191 kJ/mol
# GULP energy per Si atom -12397.340912 kJ/mol
# Density = 2.187709 g / cm^3
# Si number density = 21.927001 Si / 1000 Ang^3
#
#
#
# Elastic Constant Matrix: (Units=GPa)
#
#
# Indices 1 2 3 4 5 6 
#
# 1 86.7992 3.3885 4.0941 0.0000 3.6756 0.0000
# 2 3.3885 39.4807 -9.2911 0.0000 9.2061 0.0000
# 3 4.0941 -9.2911 47.1675 0.0000 1.8926 0.0000
# 4 0.0000 0.0000 0.0000 30.5382 0.0000 2.6265
# 5 3.6756 9.2061 1.8926 0.0000 24.0309 0.0000
# 6 0.0000 0.0000 0.0000 2.6265 0.0000 27.6074
#
#
#
# Elastic Compliance Matrix: (Units=1/GPa)
#
#
# Indices 1 2 3 4 5 6 
#
# 1 0.011669 -0.000963 -0.001149 0.000000 -0.001325 0.000000
# 2 -0.000963 0.029648 0.006394 0.000000 -0.011714 0.000000
# 3 -0.001149 0.006394 0.022723 0.000000 -0.004063 0.000000
# 4 0.000000 0.000000 0.000000 0.033016 0.000000 -0.003141
# 5 -0.001325 -0.011714 -0.004063 0.000000 0.046623 0.000000
# 6 0.000000 0.000000 0.000000 -0.003141 0.000000 0.036521
#
#
# Mechanical properties :
#
#
# Convention : Reuss Voigt Hill
#
# Bulk Modulus (GPa) = 13.77363 18.87003 16.32183
# Shear Modulus (GPa) = 25.53129 28.11903 26.82516
#
# Velocity S-wave (km/s) = 3.41600 3.58494 3.50149
# Velocity P-wave (km/s) = 4.67482 5.07545 4.87925
#
# Compressibility (1/GPa) = 0.07260251
#
# Stress axis : x y z
#
# Youngs Moduli (GPa) = 85.69882 33.72950 44.00774
#
# Poissons Ratio (x) = 0.03248 0.05058
# Poissons Ratio (y) = 0.08252 -0.28137
# Poissons Ratio (z) = 0.09850 -0.21566
#
# Static dielectric constant tensor:
#      x y z
#    x 3.841230 0.000000 -0.215890 
#    y 0.000000 3.990660 0.000000 
#    z -0.215890 0.000000 3.978900 
# 
# 
# High freq. dielectric constant tensor:
#      x y z
#    x 1.846000 0.000000 -0.023410 
#    y 0.000000 1.875380 0.000000 
#    z -0.023410 0.000000 1.845530 
# 
# From -- ./inp_files/67036.got.cif
#   From: 2010.03.12/outbox.cif.g09.slc.cpg/sg14_34_cif.got.tgz:67036.got - 2010.03.31 13:35:05.
