data_PCOD8124052
_publ_section_title
;
Structure prediction by ZEFSAII (Michael W. Deem and Ramdas Pophale) SiO2 
 PCOD8124052
Probable space group: P 21/C
;
_chemical_formula_sum "Si O2"
_cell_formula_units_Z 28
_cell_length_a 10.388205
_cell_length_b 5.257784
_cell_length_c 24.715506
_cell_angle_alpha 90.000000
_cell_angle_beta 94.593082
_cell_angle_gamma 90.000000
_cell_volume 1345.599449
_symmetry_space_group_name_H-M "P 21/C"
_symmetry_group_IT_number 14
_symmetry_cell_setting 'monoclinic'
loop_
_space_group_symop_operation_xyz
x,y,z
-x,1/2+y,1/2-z
-x,-y,-z
x,1/2-y,1/2+z
loop_
_atom_site_type_symbol
_atom_site_label
_atom_site_fract_x
_atom_site_fract_y
_atom_site_fract_z
Si Si1 0.447909 0.056978 0.372933
Si Si2 0.720370 0.676446 0.553534
Si Si3 0.131147 0.939121 0.572001
Si Si4 0.300839 0.831030 0.149799
Si Si5 0.881579 0.191568 0.544581
Si Si6 0.419422 0.531960 0.757653
Si Si7 0.373315 0.232739 0.062684
O O1 0.377302 0.294974 0.399048
O O2 0.584856 0.125438 0.350301
O O3 0.366151 0.956706 0.318140
O O4 0.482278 0.843244 0.419796
O O5 0.816283 0.441095 0.568003
O O6 0.633122 0.612151 0.497667
O O7 0.798111 0.939773 0.552924
O O8 0.160029 0.782396 0.628320
O O9 0.089860 0.764429 0.518800
O O10 0.268288 0.045346 0.557777
O O11 0.020528 0.149993 0.578655
O O12 0.299380 0.931000 0.211630
O O13 0.333640 0.044593 0.107978
O O14 0.475920 0.253723 0.746689
#
# Coordination Sequence:
#
# PCOD8124052 Si02
#       7
#     4   4   4   4   4   4   4
#     4  10  22  35  52  83 119 152 184 239 288 364
#     4  11  23  35  54  83 119 158 186 225 297 358
#     4   9  20  35  55  82 113 146 195 244 284 326
#     4  10  19  34  57  81 112 148 194 238 289 337
#     4  10  22  36  55  82 114 153 192 235 282 349
#     4  10  20  35  54  80 111 143 189 236 286 339
#     4  10  19  34  54  83 114 151 190 235 288 349
#
# _framework density 20.808571000000001
#
# number of rings (size 3 to 8) (size 9 to 14) (size 15 to 20)
#    0.000    2.000    2.857    0.429    4.000    2.286 
#    0.000    0.000    0.000    0.000    3.714    0.000 
#    0.000    0.000    0.000    0.000    0.000    0.000 
#
# Total GULP energy -346911.777476 kJ/mol
# GULP energy per Si atom -12389.706338 kJ/mol
# Density = 2.076121 g / cm^3
# Si number density = 20.808571 Si / 1000 Ang^3
#
#
#
# Elastic Constant Matrix: (Units=GPa)
#
#
# Indices 1 2 3 4 5 6 
#
# 1 64.8912 25.1627 54.9196 0.0000 10.7590 0.0000
# 2 25.1627 91.7263 37.2878 0.0000 6.9304 0.0000
# 3 54.9196 37.2878 153.6443 0.0000 28.3280 0.0000
# 4 0.0000 0.0000 0.0000 24.2857 0.0000 2.1076
# 5 10.7590 6.9304 28.3280 0.0000 19.9921 0.0000
# 6 0.0000 0.0000 0.0000 2.1076 0.0000 32.6127
#
#
#
# Elastic Compliance Matrix: (Units=1/GPa)
#
#
# Indices 1 2 3 4 5 6 
#
# 1 0.022967 -0.003287 -0.007233 0.000000 -0.000972 0.000000
# 2 -0.003287 0.012566 -0.001892 0.000000 0.000094 0.000000
# 3 -0.007233 -0.001892 0.011796 0.000000 -0.012167 0.000000
# 4 0.000000 0.000000 0.000000 0.041409 0.000000 -0.002676
# 5 -0.000972 0.000094 -0.012167 0.000000 0.067750 0.000000
# 6 0.000000 0.000000 0.000000 -0.002676 0.000000 0.030836
#
#
# Mechanical properties :
#
#
# Convention : Reuss Voigt Hill
#
# Bulk Modulus (GPa) = 44.43200 60.55580 52.49390
# Shear Modulus (GPa) = 22.76359 28.23754 25.50057
#
# Velocity S-wave (km/s) = 3.31108 3.68776 3.50449
# Velocity P-wave (km/s) = 6.00140 6.87731 6.45423
#
# Compressibility (1/GPa) = 0.02250630
#
# Stress axis : x y z
#
# Youngs Moduli (GPa) = 43.53994 79.58182 84.77325
#
# Poissons Ratio (x) = 0.26158 0.61314
# Poissons Ratio (y) = 0.14311 0.16039
# Poissons Ratio (z) = 0.31491 0.15056
#
# Static dielectric constant tensor:
#      x y z
#    x 3.755920 0.000000 0.558670 
#    y 0.000000 3.866070 0.000000 
#    z 0.558670 0.000000 4.433410 
# 
# 
# High freq. dielectric constant tensor:
#      x y z
#    x 1.770400 0.000000 0.028660 
#    y 0.000000 1.819630 0.000000 
#    z 0.028660 0.000000 1.809970 
# 
# From -- ./inp_files/76101.got.cif
#   From: 2010.03.12/outbox.cif.g09.slc.cpg/sg14_39_cif.got.tgz:76101.got - 2010.03.31 13:35:05.
