data_PCOD8124128
_publ_section_title
;
Structure prediction by ZEFSAII (Michael W. Deem and Ramdas Pophale) SiO2 
 PCOD8124128
Probable space group: P 21/C
;
_chemical_formula_sum "Si O2"
_cell_formula_units_Z 28
_cell_length_a 23.751182
_cell_length_b 11.060087
_cell_length_c 17.855281
_cell_angle_alpha 90.000000
_cell_angle_beta 161.050501
_cell_angle_gamma 90.000000
_cell_volume 1523.137385
_symmetry_space_group_name_H-M "P 21/C"
_symmetry_group_IT_number 14
_symmetry_cell_setting 'monoclinic'
loop_
_space_group_symop_operation_xyz
x,y,z
-x,1/2+y,1/2-z
-x,-y,-z
x,1/2-y,1/2+z
loop_
_atom_site_type_symbol
_atom_site_label
_atom_site_fract_x
_atom_site_fract_y
_atom_site_fract_z
Si Si1 0.312363 0.380042 0.237175
Si Si2 0.982797 0.736072 0.711284
Si Si3 0.691638 0.143675 0.219339
Si Si4 0.699296 0.701763 0.143043
Si Si5 0.013027 0.272056 0.613273
Si Si6 0.861027 0.523367 0.462793
Si Si7 0.675320 0.343599 0.324291
O O1 0.253360 0.517469 0.174011
O O2 0.506381 0.372621 0.444112
O O3 0.315178 0.317306 0.321795
O O4 0.180115 0.318385 0.014719
O O5 0.963376 0.710395 0.775438
O O6 0.982988 0.612877 0.664120
O O7 0.162656 0.807499 0.918220
O O8 0.662913 0.242459 0.246135
O O9 0.851124 0.198728 0.370196
O O10 0.816887 0.743315 0.221938
O O11 0.778549 0.589617 0.288080
O O12 0.513884 0.657846 0.874908
O O13 0.977208 0.414381 0.577941
O O14 0.710720 0.473130 0.329112
#
# Coordination Sequence:
#
# PCOD8124128 Si02
#       7
#     4   4   4   4   4   4   4
#     4   9  17  33  57  73  99 136 178 203 245 311
#     4   9  19  32  53  75  99 135 177 203 250 306
#     4   8  17  32  53  77  95 138 172 203 244 312
#     4  10  19  35  50  81 105 130 169 214 264 296
#     4  10  21  32  54  77 107 131 165 225 259 292
#     4   9  18  35  56  72  94 145 174 207 242 318
#     4   9  19  31  55  76 103 133 170 211 249 306
#
# _framework density 18.383109000000001
#
# number of rings (size 3 to 8) (size 9 to 14) (size 15 to 20)
#    0.000    3.143    0.000    0.857    8.000    1.714 
#    0.000    4.286    0.000    0.000    0.000    0.000 
#    0.000    0.000    0.000    0.000    0.000    0.000 
#
# Total GULP energy -346887.424009 kJ/mol
# GULP energy per Si atom -12388.836572 kJ/mol
# Density = 1.834127 g / cm^3
# Si number density = 18.383109 Si / 1000 Ang^3
#
#
#
# Elastic Constant Matrix: (Units=GPa)
#
#
# Indices 1 2 3 4 5 6 
#
# 1 63.6730 6.3991 50.3548 0.0000 22.3751 0.0000
# 2 6.3991 66.6673 17.7543 0.0000 -6.0108 0.0000
# 3 50.3548 17.7543 124.6349 0.0000 14.5745 0.0000
# 4 0.0000 0.0000 0.0000 19.5598 0.0000 -2.7855
# 5 22.3751 -6.0108 14.5745 0.0000 28.7860 0.0000
# 6 0.0000 0.0000 0.0000 -2.7855 0.0000 8.9325
#
#
#
# Elastic Compliance Matrix: (Units=1/GPa)
#
#
# Indices 1 2 3 4 5 6 
#
# 1 0.030291 -0.002036 -0.009721 0.000000 -0.019049 0.000000
# 2 -0.002036 0.016338 -0.002220 0.000000 0.006118 0.000000
# 3 -0.009721 -0.002220 0.012157 0.000000 0.000937 0.000000
# 4 0.000000 0.000000 0.000000 0.053501 0.000000 0.016684
# 5 -0.019049 0.006118 0.000937 0.000000 0.050349 0.000000
# 6 0.000000 0.000000 0.000000 0.016684 0.000000 0.117154
#
#
# Mechanical properties :
#
#
# Convention : Reuss Voigt Hill
#
# Bulk Modulus (GPa) = 32.43308 44.88795 38.66051
# Shear Modulus (GPa) = 15.72218 23.48680 19.60449
#
# Velocity S-wave (km/s) = 2.92764 3.57827 3.26918
# Velocity P-wave (km/s) = 5.39530 6.44539 5.94358
#
# Compressibility (1/GPa) = 0.03083272
#
# Stress axis : x y z
#
# Youngs Moduli (GPa) = 33.01306 61.20621 82.25414
#
# Poissons Ratio (x) = 0.12463 0.79956
# Poissons Ratio (y) = 0.06722 0.18262
# Poissons Ratio (z) = 0.32091 0.13589
#
# Static dielectric constant tensor:
#      x y z
#    x 3.006100 0.000000 0.340450 
#    y 0.000000 3.522120 0.000000 
#    z 0.340450 0.000000 4.180150 
# 
# 
# High freq. dielectric constant tensor:
#      x y z
#    x 1.658050 0.000000 0.013730 
#    y 0.000000 1.726060 0.000000 
#    z 0.013730 0.000000 1.727910 
# 
# From -- ./inp_files/61941.got.cif
#   From: 2010.03.12/outbox.cif.g09.slc.cpg/sg14_31_cif.got.tgz:61941.got - 2010.03.31 13:35:05.
