data_PCOD8124637
_publ_section_title
;
Structure prediction by ZEFSAII (Michael W. Deem and Ramdas Pophale) SiO2 
 PCOD8124637
Probable space group: P 21/C
;
_chemical_formula_sum "Si O2"
_cell_formula_units_Z 28
_cell_length_a 9.846097
_cell_length_b 12.594334
_cell_length_c 11.972646
_cell_angle_alpha 90.000000
_cell_angle_beta 61.180474
_cell_angle_gamma 90.000000
_cell_volume 1300.780990
_symmetry_space_group_name_H-M "P 21/C"
_symmetry_group_IT_number 14
_symmetry_cell_setting 'monoclinic'
loop_
_space_group_symop_operation_xyz
x,y,z
-x,1/2+y,1/2-z
-x,-y,-z
x,1/2-y,1/2+z
loop_
_atom_site_type_symbol
_atom_site_label
_atom_site_fract_x
_atom_site_fract_y
_atom_site_fract_z
Si Si1 0.895447 0.341356 0.100953
Si Si2 0.035008 0.373635 0.622789
Si Si3 0.106309 0.208412 0.325157
Si Si4 0.386311 0.367917 0.003591
Si Si5 0.575003 0.075521 0.636367
Si Si6 0.326917 0.178054 0.879094
Si Si7 0.054659 0.085184 0.743975
O O1 0.726782 0.364230 0.119843
O O2 0.915082 0.219953 0.137736
O O3 0.935891 0.421956 0.186333
O O4 0.017887 0.361552 0.952957
O O5 0.123685 0.354629 0.704142
O O6 0.171584 0.384859 0.477901
O O7 0.941661 0.482426 0.677921
O O8 0.277553 0.239708 0.300753
O O9 0.006597 0.316171 0.341502
O O10 0.402460 0.450146 0.893290
O O11 0.394736 0.248434 0.953128
O O12 0.527058 0.375861 0.035463
O O13 0.225873 0.391741 0.129431
O O14 0.447647 0.092886 0.783702
#
# Coordination Sequence:
#
# PCOD8124637 Si02
#       7
#     4   4   4   4   4   4   4
#     4  10  23  40  64  98 122 167 214 265 316 368
#     4  10  22  38  67  96 126 162 220 267 307 381
#     4  10  19  40  64  92 124 166 212 263 315 376
#     4  11  23  43  67  92 126 172 212 255 321 384
#     4  11  25  41  64  98 129 167 212 261 315 384
#     4  11  21  43  64  89 131 173 201 259 334 369
#     4  11  21  40  68  94 123 165 221 263 313 385
#
# _framework density 21.525528999999999
#
# number of rings (size 3 to 8) (size 9 to 14) (size 15 to 20)
#    0.000    1.429    5.714    0.857    2.000    8.000 
#    2.571    0.714    0.000    0.000    0.000    0.000 
#    0.000    0.000    0.000    0.000    0.000    0.000 
#
# Total GULP energy -347057.442547 kJ/mol
# GULP energy per Si atom -12394.908662 kJ/mol
# Density = 2.147654 g / cm^3
# Si number density = 21.525529 Si / 1000 Ang^3
#
#
#
# Elastic Constant Matrix: (Units=GPa)
#
#
# Indices 1 2 3 4 5 6 
#
# 1 112.2027 11.7685 14.3371 0.0000 3.4337 0.0000
# 2 11.7685 74.0071 33.0672 0.0000 -6.7360 0.0000
# 3 14.3371 33.0672 73.0931 0.0000 -11.0291 0.0000
# 4 0.0000 0.0000 0.0000 39.6599 0.0000 2.8302
# 5 3.4337 -6.7360 -11.0291 0.0000 26.4462 0.0000
# 6 0.0000 0.0000 0.0000 2.8302 0.0000 13.6511
#
#
#
# Elastic Compliance Matrix: (Units=1/GPa)
#
#
# Indices 1 2 3 4 5 6 
#
# 1 0.009295 -0.000896 -0.001744 0.000000 -0.002162 0.000000
# 2 -0.000896 0.017057 -0.007329 0.000000 0.001404 0.000000
# 3 -0.001744 -0.007329 0.018239 0.000000 0.005966 0.000000
# 4 0.000000 0.000000 0.000000 0.025593 0.000000 -0.005306
# 5 -0.002162 0.001404 0.005966 0.000000 0.040939 0.000000
# 6 0.000000 0.000000 0.000000 -0.005306 0.000000 0.074354
#
#
# Mechanical properties :
#
#
# Convention : Reuss Voigt Hill
#
# Bulk Modulus (GPa) = 40.56177 41.96093 41.26135
# Shear Modulus (GPa) = 23.40448 29.29345 26.34896
#
# Velocity S-wave (km/s) = 3.30098 3.69300 3.50248
# Velocity P-wave (km/s) = 5.78041 6.14168 5.96378
#
# Compressibility (1/GPa) = 0.02465376
#
# Stress axis : x y z
#
# Youngs Moduli (GPa) = 107.57955 58.62649 54.82686
#
# Poissons Ratio (x) = 0.05250 0.09564
# Poissons Ratio (y) = 0.09634 0.40183
# Poissons Ratio (z) = 0.18767 0.42968
#
# Static dielectric constant tensor:
#      x y z
#    x 3.926830 0.000000 0.345790 
#    y 0.000000 3.887690 0.000000 
#    z 0.345790 0.000000 4.048230 
# 
# 
# High freq. dielectric constant tensor:
#      x y z
#    x 1.840450 0.000000 0.028630 
#    y 0.000000 1.833790 0.000000 
#    z 0.028630 0.000000 1.845240 
# 
# From -- ./inp_files/25410.got.cif
#   From: 2010.03.12/outbox.cif.g09.slc.cpg/sg14_13_cif.got.tgz:25410.got - 2010.03.31 13:35:05.
