data_PCOD8124418
_publ_section_title
;
Structure prediction by ZEFSAII (Michael W. Deem and Ramdas Pophale) SiO2 
 PCOD8124418
Probable space group: P 21/C
;
_chemical_formula_sum "Si O2"
_cell_formula_units_Z 32
_cell_length_a 13.435132
_cell_length_b 8.518272
_cell_length_c 13.153878
_cell_angle_alpha 90.000000
_cell_angle_beta 74.879797
_cell_angle_gamma 90.000000
_cell_volume 1453.268531
_symmetry_space_group_name_H-M "P 21/C"
_symmetry_group_IT_number 14
_symmetry_cell_setting 'monoclinic'
loop_
_space_group_symop_operation_xyz
x,y,z
-x,1/2+y,1/2-z
-x,-y,-z
x,1/2-y,1/2+z
loop_
_atom_site_type_symbol
_atom_site_label
_atom_site_fract_x
_atom_site_fract_y
_atom_site_fract_z
Si Si1 0.795968 0.029075 0.590552
Si Si2 0.104704 0.410707 0.255943
Si Si3 0.066966 0.746503 0.322583
Si Si4 0.892165 0.782812 0.020748
Si Si5 0.276584 0.232722 0.081833
Si Si6 0.364257 0.546955 0.014095
Si Si7 0.457358 0.024834 0.682508
Si Si8 0.379329 0.354334 0.740594
O O1 0.837362 0.156312 0.657833
O O2 0.742784 0.114761 0.505979
O O3 0.884140 0.908205 0.530216
O O4 0.707897 0.920197 0.663206
O O5 0.111501 0.599493 0.247805
O O6 0.105007 0.362460 0.372460
O O7 0.200849 0.334012 0.174773
O O8 0.997096 0.357600 0.235165
O O9 0.997518 0.680894 0.433573
O O10 0.794108 0.853183 0.983479
O O11 0.355216 0.355376 0.009442
O O12 0.342097 0.110622 0.133880
O O13 0.385475 0.587887 0.128360
O O14 0.458519 0.600244 0.917292
O O15 0.390251 0.165250 0.748876
O O16 0.510043 0.930982 0.761270
#
# Coordination Sequence:
#
# PCOD8124418 Si02
#       8
#     4   4   4   4   4   4   4   4
#     4  10  19  37  60  85 117 161 204 246 298 368
#     4  11  22  39  58  90 125 160 201 251 295 358
#     4  11  24  37  60  89 123 163 203 247 301 357
#     4  10  20  38  62  85 122 159 204 251 302 348
#     4   9  19  36  63  88 117 165 199 242 307 363
#     4   8  17  35  57  83 109 154 197 238 293 372
#     4   9  18  35  61  85 113 150 198 252 312 356
#     4  10  19  37  60  88 117 154 200 251 298 364
#
# _framework density 22.01933
#
# number of rings (size 3 to 8) (size 9 to 14) (size 15 to 20)
#    0.000    2.250    1.250    1.500    1.750    2.000 
#    9.000    1.250    0.000   25.500    0.000    0.000 
#    0.000    0.000    0.000    0.000    0.000    0.000 
#
# Total GULP energy -396472.034226 kJ/mol
# GULP energy per Si atom -12389.751070 kJ/mol
# Density = 2.196921 g / cm^3
# Si number density = 22.019330 Si / 1000 Ang^3
#
#
#
# Elastic Constant Matrix: (Units=GPa)
#
#
# Indices 1 2 3 4 5 6 
#
# 1 110.9142 40.1076 48.5527 0.0000 45.6299 0.0000
# 2 40.1076 64.4455 33.0563 0.0000 23.7337 0.0000
# 3 48.5527 33.0563 93.5055 0.0000 42.4572 0.0000
# 4 0.0000 0.0000 0.0000 26.8966 0.0000 12.3599
# 5 45.6299 23.7337 42.4572 0.0000 55.8330 0.0000
# 6 0.0000 0.0000 0.0000 12.3599 0.0000 33.0749
#
#
#
# Elastic Compliance Matrix: (Units=1/GPa)
#
#
# Indices 1 2 3 4 5 6 
#
# 1 0.015487 -0.005291 -0.002208 0.000000 -0.008729 0.000000
# 2 -0.005291 0.021541 -0.004083 0.000000 -0.001727 0.000000
# 3 -0.002208 -0.004083 0.017835 0.000000 -0.010023 0.000000
# 4 0.000000 0.000000 0.000000 0.044888 0.000000 -0.016774
# 5 -0.008729 -0.001727 -0.010023 0.000000 0.033400 0.000000
# 6 0.000000 0.000000 0.000000 -0.016774 0.000000 0.036503
#
#
# Mechanical properties :
#
#
# Convention : Reuss Voigt Hill
#
# Bulk Modulus (GPa) = 31.54753 56.92204 44.23478
# Shear Modulus (GPa) = 24.58411 32.97079 28.77745
#
# Velocity S-wave (km/s) = 3.34500 3.87377 3.61905
# Velocity P-wave (km/s) = 5.41082 6.77607 6.13156
#
# Compressibility (1/GPa) = 0.03169821
#
# Stress axis : x y z
#
# Youngs Moduli (GPa) = 64.57184 46.42411 56.06864
#
# Poissons Ratio (x) = 0.24564 0.12377
# Poissons Ratio (y) = 0.34166 0.22895
# Poissons Ratio (z) = 0.14254 0.18957
#
# Static dielectric constant tensor:
#      x y z
#    x 4.360190 0.000000 0.524180 
#    y 0.000000 3.495290 0.000000 
#    z 0.524180 0.000000 4.207040 
# 
# 
# High freq. dielectric constant tensor:
#      x y z
#    x 1.882100 0.000000 0.030770 
#    y 0.000000 1.807340 0.000000 
#    z 0.030770 0.000000 1.873390 
# 
# From -- ./inp_files/46283.got.cif
#   From: 2010.03.12/outbox.cif.g09.slc.cpg/sg14_24_cif.got.tgz:46283.got - 2010.03.31 13:35:05.
