data_PCOD8124422
_publ_section_title
;
Structure prediction by ZEFSAII (Michael W. Deem and Ramdas Pophale) SiO2 
 PCOD8124422
Probable space group: P 21/C
;
_chemical_formula_sum "Si O2"
_cell_formula_units_Z 32
_cell_length_a 11.514451
_cell_length_b 16.385677
_cell_length_c 14.039655
_cell_angle_alpha 90.000000
_cell_angle_beta 31.641858
_cell_angle_gamma 90.000000
_cell_volume 1389.629335
_symmetry_space_group_name_H-M "P 21/C"
_symmetry_group_IT_number 14
_symmetry_cell_setting 'monoclinic'
loop_
_space_group_symop_operation_xyz
x,y,z
-x,1/2+y,1/2-z
-x,-y,-z
x,1/2-y,1/2+z
loop_
_atom_site_type_symbol
_atom_site_label
_atom_site_fract_x
_atom_site_fract_y
_atom_site_fract_z
Si Si1 0.850618 0.812470 0.939266
Si Si2 0.543355 0.451696 0.610868
Si Si3 0.489606 0.876245 0.067164
Si Si4 0.203194 0.374041 0.971096
Si Si5 0.110645 0.819148 0.449228
Si Si6 0.015959 0.890616 0.186140
Si Si7 0.760489 0.675242 0.700185
Si Si8 0.743539 0.282363 0.954211
O O1 0.729744 0.841101 0.927179
O O2 0.768216 0.721245 0.023361
O O3 0.112624 0.818836 0.733900
O O4 0.775504 0.866131 0.084107
O O5 0.519983 0.387189 0.539325
O O6 0.440775 0.538124 0.654226
O O7 0.802977 0.461510 0.457539
O O8 0.434123 0.415106 0.782348
O O9 0.307422 0.811373 0.232551
O O10 0.048199 0.388822 0.985309
O O11 0.102296 0.417307 0.133710
O O12 0.216722 0.837567 0.478331
O O13 0.961145 0.739163 0.559691
O O14 0.825903 0.888195 0.237680
O O15 0.161708 0.807817 0.092792
O O16 0.517484 0.714281 0.890426
#
# Coordination Sequence:
#
# PCOD8124422 Si02
#       8
#     4   4   4   4   4   4   4   4
#     4  10  21  39  63  94 121 165 215 258 313 377
#     4  11  24  41  63  92 134 167 206 266 316 377
#     4  11  23  42  65  94 130 171 207 256 329 379
#     4  10  21  38  62  92 120 164 206 263 313 369
#     4  10  19  37  60  91 120 157 203 257 312 373
#     4  10  21  38  57  89 123 160 208 257 315 373
#     4  10  21  36  61  94 120 157 207 264 314 369
#     4  10  20  37  62  89 124 156 204 268 316 364
#
# _framework density 23.027723999999999
#
# number of rings (size 3 to 8) (size 9 to 14) (size 15 to 20)
#    0.000    1.750    2.500    2.250    1.750    4.500 
#    2.250    0.625    0.000    1.500    0.000    0.000 
#    0.000    0.000    0.000    0.000    0.000    0.000 
#
# Total GULP energy -396437.209511 kJ/mol
# GULP energy per Si atom -12388.662797 kJ/mol
# Density = 2.297531 g / cm^3
# Si number density = 23.027724 Si / 1000 Ang^3
#
#
#
# Elastic Constant Matrix: (Units=GPa)
#
#
# Indices 1 2 3 4 5 6 
#
# 1 82.0384 16.3016 39.6950 0.0000 -15.5730 0.0000
# 2 16.3016 22.0110 23.9454 0.0000 -1.7223 0.0000
# 3 39.6950 23.9454 163.2014 0.0000 2.2263 0.0000
# 4 0.0000 0.0000 0.0000 14.9576 0.0000 1.2989
# 5 -15.5730 -1.7223 2.2263 0.0000 27.3995 0.0000
# 6 0.0000 0.0000 0.0000 1.2989 0.0000 17.5552
#
#
#
# Elastic Compliance Matrix: (Units=1/GPa)
#
#
# Indices 1 2 3 4 5 6 
#
# 1 0.017179 -0.008682 -0.003034 0.000000 0.009465 0.000000
# 2 -0.008682 0.058901 -0.006521 0.000000 -0.000702 0.000000
# 3 -0.003034 -0.006521 0.007860 0.000000 -0.002773 0.000000
# 4 0.000000 0.000000 0.000000 0.067288 0.000000 -0.004979
# 5 0.009465 -0.000702 -0.002773 0.000000 0.042058 0.000000
# 6 0.000000 0.000000 0.000000 -0.004979 0.000000 0.057332
#
#
# Mechanical properties :
#
#
# Convention : Reuss Voigt Hill
#
# Bulk Modulus (GPa) = 21.06746 47.45942 34.26344
# Shear Modulus (GPa) = 16.50642 24.46971 20.48806
#
# Velocity S-wave (km/s) = 2.68023 3.26332 2.98604
# Velocity P-wave (km/s) = 4.32975 5.90368 5.17688
#
# Compressibility (1/GPa) = 0.04746657
#
# Stress axis : x y z
#
# Youngs Moduli (GPa) = 58.21014 16.97767 127.22894
#
# Poissons Ratio (x) = 0.14740 0.38597
# Poissons Ratio (y) = 0.50539 0.82964
# Poissons Ratio (z) = 0.17659 0.11071
#
# Static dielectric constant tensor:
#      x y z
#    x 4.901670 0.000000 0.184300 
#    y 0.000000 3.540180 0.000000 
#    z 0.184300 0.000000 4.332010 
# 
# 
# High freq. dielectric constant tensor:
#      x y z
#    x 1.917270 0.000000 0.004710 
#    y 0.000000 1.843590 0.000000 
#    z 0.004710 0.000000 1.928360 
# 
# From -- ./inp_files/45417.got.cif
#   From: 2010.03.12/outbox.cif.g09.slc.cpg/sg14_23_cif.got.tgz:45417.got - 2010.03.31 13:35:05.
