data_PCOD8124644
_publ_section_title
;
Structure prediction by ZEFSAII (Michael W. Deem and Ramdas Pophale) SiO2 
 PCOD8124644
Probable space group: P 21/C
;
_chemical_formula_sum "Si O2"
_cell_formula_units_Z 32
_cell_length_a 12.689312
_cell_length_b 10.648334
_cell_length_c 22.798055
_cell_angle_alpha 90.000000
_cell_angle_beta 29.357267
_cell_angle_gamma 90.000000
_cell_volume 1510.214168
_symmetry_space_group_name_H-M "P 21/C"
_symmetry_group_IT_number 14
_symmetry_cell_setting 'monoclinic'
loop_
_space_group_symop_operation_xyz
x,y,z
-x,1/2+y,1/2-z
-x,-y,-z
x,1/2-y,1/2+z
loop_
_atom_site_type_symbol
_atom_site_label
_atom_site_fract_x
_atom_site_fract_y
_atom_site_fract_z
Si Si1 0.800373 0.867894 0.338625
Si Si2 0.583588 0.461882 0.859722
Si Si3 0.701304 0.102705 0.751364
Si Si4 0.541408 0.217859 0.942199
Si Si5 0.805545 0.197285 0.926879
Si Si6 0.853325 0.371414 0.630251
Si Si7 0.122850 0.518438 0.089007
Si Si8 0.276486 0.985234 0.926504
O O1 0.709022 0.752268 0.422397
O O2 0.959159 0.823434 0.212149
O O3 0.602034 0.923136 0.396641
O O4 0.910923 0.971140 0.327489
O O5 0.661511 0.341265 0.859231
O O6 0.734095 0.473272 0.729801
O O7 0.334355 0.446891 0.961017
O O8 0.576432 0.115286 0.874422
O O9 0.786926 0.231573 0.681553
O O10 0.518410 0.038766 0.799766
O O11 0.908567 0.012412 0.656238
O O12 0.640724 0.171931 0.954506
O O13 0.814451 0.336804 0.948054
O O14 0.740484 0.099457 0.007837
O O15 0.776483 0.393980 0.601649
O O16 0.109095 0.397592 0.511034
#
# Coordination Sequence:
#
# PCOD8124644 Si02
#       8
#     4   4   4   4   4   4   4   4
#     4  11  20  37  61  94 138 180 214 262 340 400
#     4  10  19  40  66  90 129 181 218 264 332 396
#     4  11  26  44  71 102 133 174 227 281 331 408
#     4  10  21  36  62  96 131 170 212 268 331 399
#     4  12  23  38  62 100 142 170 215 282 332 400
#     4  10  25  50  71  90 128 180 226 281 338 397
#     4  11  23  38  64 107 133 172 226 266 340 408
#     4  11  27  48  68  98 131 177 229 278 342 390
#
# _framework density 21.189048
#
# number of rings (size 3 to 8) (size 9 to 14) (size 15 to 20)
#    0.000    1.250    5.000    0.750    7.000    2.500 
#    4.500    1.250    0.000    0.000    0.000    0.000 
#    0.000    0.000    0.000    0.000    0.000    0.000 
#
# Total GULP energy -396606.238113 kJ/mol
# GULP energy per Si atom -12393.944941 kJ/mol
# Density = 2.114082 g / cm^3
# Si number density = 21.189048 Si / 1000 Ang^3
#
#
#
# Elastic Constant Matrix: (Units=GPa)
#
#
# Indices 1 2 3 4 5 6 
#
# 1 104.7594 33.9677 35.1561 0.0000 -18.0786 0.0000
# 2 33.9677 64.6600 10.5040 0.0000 -7.6331 0.0000
# 3 35.1561 10.5040 81.5531 0.0000 -13.8834 0.0000
# 4 0.0000 0.0000 0.0000 23.7028 0.0000 -2.5550
# 5 -18.0786 -7.6331 -13.8834 0.0000 40.6375 0.0000
# 6 0.0000 0.0000 0.0000 -2.5550 0.0000 19.7525
#
#
#
# Elastic Compliance Matrix: (Units=1/GPa)
#
#
# Indices 1 2 3 4 5 6 
#
# 1 0.013590 -0.006008 -0.004510 0.000000 0.003377 0.000000
# 2 -0.006008 0.018678 0.000347 0.000000 0.000954 0.000000
# 3 -0.004510 0.000347 0.014685 0.000000 0.003076 0.000000
# 4 0.000000 0.000000 0.000000 0.042786 0.000000 0.005534
# 5 0.003377 0.000954 0.003076 0.000000 0.027340 0.000000
# 6 0.000000 0.000000 0.000000 0.005534 0.000000 0.051342
#
#
# Mechanical properties :
#
#
# Convention : Reuss Voigt Hill
#
# Bulk Modulus (GPa) = 37.57882 45.58090 41.57986
# Shear Modulus (GPa) = 25.29942 28.24154 26.77048
#
# Velocity S-wave (km/s) = 3.45916 3.65476 3.55831
# Velocity P-wave (km/s) = 5.80757 6.27439 6.04549
#
# Compressibility (1/GPa) = 0.02661073
#
# Stress axis : x y z
#
# Youngs Moduli (GPa) = 73.58440 53.53905 68.09678
#
# Poissons Ratio (x) = 0.32166 0.30710
# Poissons Ratio (y) = 0.44209 -0.02360
# Poissons Ratio (z) = 0.33184 -0.01856
#
# Static dielectric constant tensor:
#      x y z
#    x 3.791110 0.000000 -0.029780 
#    y 0.000000 3.782020 0.000000 
#    z -0.029780 0.000000 3.900400 
# 
# 
# High freq. dielectric constant tensor:
#      x y z
#    x 1.820250 0.000000 -0.006130 
#    y 0.000000 1.817110 0.000000 
#    z -0.006130 0.000000 1.837480 
# 
# From -- ./inp_files/67419.got.cif
#   From: 2010.03.12/outbox.cif.g09.slc.cpg/sg14_34_cif.got.tgz:67419.got - 2010.03.31 13:35:05.
