data_PCOD8124138
_publ_section_title
;
Structure prediction by ZEFSAII (Michael W. Deem and Ramdas Pophale) SiO2 
 PCOD8124138
Probable space group: P 21/C
;
_chemical_formula_sum "Si O2"
_cell_formula_units_Z 28
_cell_length_a 22.628098
_cell_length_b 8.970081
_cell_length_c 13.095420
_cell_angle_alpha 90.000000
_cell_angle_beta 150.277387
_cell_angle_gamma 90.000000
_cell_volume 1317.867183
_symmetry_space_group_name_H-M "P 21/C"
_symmetry_group_IT_number 14
_symmetry_cell_setting 'monoclinic'
loop_
_space_group_symop_operation_xyz
x,y,z
-x,1/2+y,1/2-z
-x,-y,-z
x,1/2-y,1/2+z
loop_
_atom_site_type_symbol
_atom_site_label
_atom_site_fract_x
_atom_site_fract_y
_atom_site_fract_z
Si Si1 0.128252 0.928893 0.199936
Si Si2 0.366301 0.513464 0.970665
Si Si3 0.624039 0.040561 0.136690
Si Si4 0.137303 0.020410 0.429751
Si Si5 0.934074 0.261711 0.578917
Si Si6 0.587413 0.340214 0.367792
Si Si7 0.706864 0.145106 0.837953
O O1 0.234518 0.031088 0.313419
O O2 0.156453 0.907776 0.361546
O O3 0.118783 0.779339 0.116251
O O4 0.000000 0.000000 0.000000
O O5 0.454067 0.377508 0.128587
O O6 0.404652 0.668221 0.085383
O O7 0.360843 0.528863 0.839209
O O8 0.733347 0.929491 0.332138
O O9 0.656889 0.196182 0.233356
O O10 0.616331 0.047478 0.003304
O O11 0.500000 0.000000 0.000000
O O12 0.065065 0.915827 0.400976
O O13 0.065999 0.169410 0.292235
O O14 0.848335 0.354814 0.526941
O O15 0.679687 0.384046 0.416085
#
# Coordination Sequence:
#
# PCOD8124138 Si02
#       7
#     4   4   4   4   4   4   4
#     4   9  18  36  58  74  99 144 182 207 254 320
#     4  10  20  34  56  80 105 138 178 218 260 312
#     4  10  20  34  55  80 106 140 178 215 256 312
#     4  10  19  35  55  77 106 136 174 218 260 309
#     4   9  19  35  55  78 101 137 176 215 259 309
#     4  11  20  35  54  78 109 142 172 212 266 314
#     4   9  19  35  54  75 107 141 174 213 264 314
#
# _framework density 21.246449999999999
#
# number of rings (size 3 to 8) (size 9 to 14) (size 15 to 20)
#    0.000    2.286    0.000    4.714    0.000    0.000 
#    0.000   17.143    0.000    0.000    0.000    0.000 
#    0.000    0.000    0.000    0.000    0.000    0.000 
#
# Total GULP energy -346870.666014 kJ/mol
# GULP energy per Si atom -12388.238072 kJ/mol
# Density = 2.119809 g / cm^3
# Si number density = 21.246450 Si / 1000 Ang^3
#
#
#
# Elastic Constant Matrix: (Units=GPa)
#
#
# Indices 1 2 3 4 5 6 
#
# 1 117.8717 6.3658 34.7700 0.0000 -9.3963 0.0000
# 2 6.3658 16.5101 2.9319 0.0000 7.6667 0.0000
# 3 34.7700 2.9319 98.8822 0.0000 16.6410 0.0000
# 4 0.0000 0.0000 0.0000 25.9540 0.0000 4.4904
# 5 -9.3963 7.6667 16.6410 0.0000 44.3333 0.0000
# 6 0.0000 0.0000 0.0000 4.4904 0.0000 21.4437
#
#
#
# Elastic Compliance Matrix: (Units=1/GPa)
#
#
# Indices 1 2 3 4 5 6 
#
# 1 0.010431 -0.005474 -0.004309 0.000000 0.004775 0.000000
# 2 -0.005474 0.068731 0.002223 0.000000 -0.013880 0.000000
# 3 -0.004309 0.002223 0.012575 0.000000 -0.006018 0.000000
# 4 0.000000 0.000000 0.000000 0.039978 0.000000 -0.008372
# 5 0.004775 -0.013880 -0.006018 0.000000 0.028228 0.000000
# 6 0.000000 0.000000 0.000000 -0.008372 0.000000 0.048387
#
#
# Mechanical properties :
#
#
# Convention : Reuss Voigt Hill
#
# Bulk Modulus (GPa) = 13.05208 35.71104 24.38156
# Shear Modulus (GPa) = 20.08119 30.95928 25.52024
#
# Velocity S-wave (km/s) = 3.07767 3.82141 3.46953
# Velocity P-wave (km/s) = 4.33428 6.02622 5.24887
#
# Compressibility (1/GPa) = 0.07661616
#
# Stress axis : x y z
#
# Youngs Moduli (GPa) = 95.86600 14.54956 79.52188
#
# Poissons Ratio (x) = 0.07965 0.34268
# Poissons Ratio (y) = 0.52478 -0.17677
# Poissons Ratio (z) = 0.41311 -0.03234
#
# Static dielectric constant tensor:
#      x y z
#    x 4.144110 0.000000 -0.624050 
#    y 0.000000 3.263260 0.000000 
#    z -0.624050 0.000000 4.109420 
# 
# 
# High freq. dielectric constant tensor:
#      x y z
#    x 1.843800 0.000000 -0.004640 
#    y 0.000000 1.775760 0.000000 
#    z -0.004640 0.000000 1.855480 
# 
# From -- ./inp_files/35198.got.cif
#   From: 2010.03.12/outbox.cif.g09.slc.cpg/sg14_18_cif.got.tgz:35198.got - 2010.03.31 13:35:05.
