data_PCOD8124658
_publ_section_title
;
Structure prediction by ZEFSAII (Michael W. Deem and Ramdas Pophale) SiO2 
 PCOD8124658
Probable space group: P 21/C
;
_chemical_formula_sum "Si O2"
_cell_formula_units_Z 24
_cell_length_a 7.539746
_cell_length_b 9.180031
_cell_length_c 26.401317
_cell_angle_alpha 90.000000
_cell_angle_beta 141.080018
_cell_angle_gamma 90.000000
_cell_volume 1148.016661
_symmetry_space_group_name_H-M "P 21/C"
_symmetry_group_IT_number 14
_symmetry_cell_setting 'monoclinic'
loop_
_space_group_symop_operation_xyz
x,y,z
-x,1/2+y,1/2-z
-x,-y,-z
x,1/2-y,1/2+z
loop_
_atom_site_type_symbol
_atom_site_label
_atom_site_fract_x
_atom_site_fract_y
_atom_site_fract_z
Si Si1 0.646638 0.049251 0.820761
Si Si2 0.731170 0.915659 0.020139
Si Si3 0.228786 0.337600 0.034275
Si Si4 0.683220 0.392089 0.006462
Si Si5 0.325716 0.841607 0.067800
Si Si6 0.710221 0.790187 0.341269
O O1 0.515118 0.111926 0.844927
O O2 0.460683 0.108265 0.734194
O O3 0.630611 0.875958 0.813970
O O4 0.971190 0.099659 0.884511
O O5 0.610568 0.756761 0.975006
O O6 0.789107 0.011234 0.982909
O O7 0.500000 0.000000 0.000000
O O8 0.188258 0.503606 0.008617
O O9 0.387772 0.331762 0.123499
O O10 0.934728 0.255479 0.973162
O O11 0.508466 0.261748 0.937573
O O12 0.500000 0.500000 0.000000
O O13 0.953858 0.318067 0.093721
#
# Coordination Sequence:
#
# PCOD8124658 Si02
#       6
#     4   4   4   4   4   4
#     4  11  23  39  63  90 123 167 210 256 311 370
#     4  11  20  38  67  89 117 160 209 259 303 359
#     4  10  20  37  64  88 117 161 211 247 300 375
#     4  11  23  39  65  95 122 158 209 262 308 362
#     4  10  19  41  62  87 117 165 210 247 298 381
#     4  11  23  40  62  90 126 163 212 254 308 377
#
# _framework density 20.905619000000002
#
# number of rings (size 3 to 8) (size 9 to 14) (size 15 to 20)
#    0.000    1.333    5.000    4.000    7.000    0.000 
#    0.000    1.667    0.000    0.000    0.000    0.000 
#    0.000    0.000    0.000    0.000    0.000    0.000 
#
# Total GULP energy -297313.722083 kJ/mol
# GULP energy per Si atom -12388.071753 kJ/mol
# Density = 2.085804 g / cm^3
# Si number density = 20.905619 Si / 1000 Ang^3
#
#
#
# Elastic Constant Matrix: (Units=GPa)
#
#
# Indices 1 2 3 4 5 6 
#
# 1 43.7831 8.7396 34.1651 0.0000 -4.2619 0.0000
# 2 8.7396 151.0290 52.1569 0.0000 -16.4743 0.0000
# 3 34.1651 52.1569 104.2889 0.0000 -27.4269 0.0000
# 4 0.0000 0.0000 0.0000 37.8398 0.0000 -10.1854
# 5 -4.2619 -16.4743 -27.4269 0.0000 24.3261 0.0000
# 6 0.0000 0.0000 0.0000 -10.1854 0.0000 47.5634
#
#
#
# Elastic Compliance Matrix: (Units=1/GPa)
#
#
# Indices 1 2 3 4 5 6 
#
# 1 0.032441 0.001977 -0.013887 0.000000 -0.008635 0.000000
# 2 0.001977 0.008153 -0.004523 0.000000 0.000768 0.000000
# 3 -0.013887 -0.004523 0.021258 0.000000 0.018472 0.000000
# 4 0.000000 0.000000 0.000000 0.028044 0.000000 0.006005
# 5 -0.008635 0.000768 0.018472 0.000000 0.060942 0.000000
# 6 0.000000 0.000000 0.000000 0.006005 0.000000 0.022311
#
#
# Mechanical properties :
#
#
# Convention : Reuss Voigt Hill
#
# Bulk Modulus (GPa) = 34.50048 54.35823 44.42935
# Shear Modulus (GPa) = 23.18284 35.54850 29.36567
#
# Velocity S-wave (km/s) = 3.33367 4.12810 3.75197
# Velocity P-wave (km/s) = 5.59970 6.98425 6.32994
#
# Compressibility (1/GPa) = 0.02898511
#
# Stress axis : x y z
#
# Youngs Moduli (GPa) = 30.82477 122.66067 47.04088
#
# Poissons Ratio (x) = -0.24246 0.65328
# Poissons Ratio (y) = -0.06093 0.21276
# Poissons Ratio (z) = 0.42808 0.55477
#
# Static dielectric constant tensor:
#      x y z
#    x 4.403170 0.000000 -0.534260 
#    y 0.000000 4.723380 0.000000 
#    z -0.534260 0.000000 3.467880 
# 
# 
# High freq. dielectric constant tensor:
#      x y z
#    x 1.822500 0.000000 -0.029880 
#    y 0.000000 1.862820 0.000000 
#    z -0.029880 0.000000 1.769320 
# 
# From -- ./inp_files/79528.got.cif
#   From: 2010.03.12/outbox.cif.g09.slc.cpg/sg14_40_cif.got.tgz:79528.got - 2010.03.31 13:35:05.
