data_PCOD8124452
_publ_section_title
;
Structure prediction by ZEFSAII (Michael W. Deem and Ramdas Pophale) SiO2 
 PCOD8124452
Probable space group: P 21/C
;
_chemical_formula_sum "Si O2"
_cell_formula_units_Z 28
_cell_length_a 11.163454
_cell_length_b 9.460399
_cell_length_c 14.998839
_cell_angle_alpha 90.000000
_cell_angle_beta 118.554951
_cell_angle_gamma 90.000000
_cell_volume 1391.354438
_symmetry_space_group_name_H-M "P 21/C"
_symmetry_group_IT_number 14
_symmetry_cell_setting 'monoclinic'
loop_
_space_group_symop_operation_xyz
x,y,z
-x,1/2+y,1/2-z
-x,-y,-z
x,1/2-y,1/2+z
loop_
_atom_site_type_symbol
_atom_site_label
_atom_site_fract_x
_atom_site_fract_y
_atom_site_fract_z
Si Si1 0.689945 0.218090 0.413153
Si Si2 0.023457 0.518370 0.785585
Si Si3 0.127616 0.689233 0.367443
Si Si4 0.565160 0.580493 0.909038
Si Si5 0.765191 0.397330 0.762561
Si Si6 0.593943 0.831982 0.226395
Si Si7 0.680675 0.902874 0.632563
O O1 0.810255 0.286629 0.513978
O O2 0.747429 0.216821 0.333662
O O3 0.556038 0.315125 0.369011
O O4 0.659169 0.059569 0.434439
O O5 0.026615 0.686772 0.796660
O O6 0.173483 0.455329 0.848496
O O7 0.958810 0.458848 0.668601
O O8 0.918833 0.463014 0.825292
O O9 0.250610 0.681459 0.338391
O O10 0.588241 0.685176 0.832703
O O11 0.407072 0.532561 0.857764
O O12 0.606660 0.657391 0.016367
O O13 0.645757 0.512335 0.723982
O O14 0.691983 0.717181 0.213440
#
# Coordination Sequence:
#
# PCOD8124452 Si02
#       7
#     4   4   4   4   4   4   4
#     4  10  20  39  62  88 120 165 207 255 312 363
#     4  10  21  39  65  87 126 163 205 252 314 369
#     4  10  22  40  62  89 120 167 205 252 313 367
#     4   9  20  36  62  92 113 165 211 247 315 365
#     4   9  23  39  61  91 127 161 208 257 307 373
#     4  10  21  38  61  93 123 155 213 261 308 364
#     4  10  19  37  64  88 123 160 207 259 300 378
#
# _framework density 20.124275999999998
#
# number of rings (size 3 to 8) (size 9 to 14) (size 15 to 20)
#    0.857    1.429    1.429    0.857    2.000    1.143 
#    2.571    3.571    0.000    0.000    0.000    0.000 
#    0.000    0.000    0.000    0.000    0.000    0.000 
#
# Total GULP energy -346867.891420 kJ/mol
# GULP energy per Si atom -12388.138979 kJ/mol
# Density = 2.007847 g / cm^3
# Si number density = 20.124276 Si / 1000 Ang^3
#
#
#
# Elastic Constant Matrix: (Units=GPa)
#
#
# Indices 1 2 3 4 5 6 
#
# 1 64.2083 15.8514 18.3792 0.0000 1.0836 0.0000
# 2 15.8514 35.7773 33.4158 0.0000 -5.0351 0.0000
# 3 18.3792 33.4158 89.1811 0.0000 -11.4658 0.0000
# 4 0.0000 0.0000 0.0000 29.5704 0.0000 3.4955
# 5 1.0836 -5.0351 -11.4658 0.0000 30.5385 0.0000
# 6 0.0000 0.0000 0.0000 3.4955 0.0000 25.6083
#
#
#
# Elastic Compliance Matrix: (Units=1/GPa)
#
#
# Indices 1 2 3 4 5 6 
#
# 1 0.017704 -0.006897 -0.001357 0.000000 -0.002275 0.000000
# 2 -0.006897 0.045720 -0.015455 0.000000 0.001980 0.000000
# 3 -0.001357 -0.015455 0.017823 0.000000 0.004192 0.000000
# 4 0.000000 0.000000 0.000000 0.034372 0.000000 -0.004692
# 5 -0.002275 0.001980 0.004192 0.000000 0.034726 0.000000
# 6 0.000000 0.000000 0.000000 -0.004692 0.000000 0.039690
#
#
# Mechanical properties :
#
#
# Convention : Reuss Voigt Hill
#
# Bulk Modulus (GPa) = 29.56036 36.05107 32.80571
# Shear Modulus (GPa) = 20.10219 25.24480 22.67349
#
# Velocity S-wave (km/s) = 3.16397 3.54566 3.36024
# Velocity P-wave (km/s) = 5.29796 5.89197 5.60285
#
# Compressibility (1/GPa) = 0.03382909
#
# Stress axis : x y z
#
# Youngs Moduli (GPa) = 56.48541 21.87220 56.10824
#
# Poissons Ratio (x) = 0.15084 0.07613
# Poissons Ratio (y) = 0.38956 0.86717
# Poissons Ratio (z) = 0.07664 0.33804
#
# Static dielectric constant tensor:
#      x y z
#    x 3.828760 0.000000 -0.163210 
#    y 0.000000 3.482630 0.000000 
#    z -0.163210 0.000000 3.445100 
# 
# 
# High freq. dielectric constant tensor:
#      x y z
#    x 1.798150 0.000000 -0.002550 
#    y 0.000000 1.762090 0.000000 
#    z -0.002550 0.000000 1.765390 
# 
# From -- ./inp_files/44438.got.cif
#   From: 2010.03.12/outbox.cif.g09.slc.cpg/sg14_23_cif.got.tgz:44438.got - 2010.03.31 13:35:05.
