data_PCOD8124442
_publ_section_title
;
Structure prediction by ZEFSAII (Michael W. Deem and Ramdas Pophale) SiO2 
 PCOD8124442
Probable space group: P 21/C
;
_chemical_formula_sum "Si O2"
_cell_formula_units_Z 32
_cell_length_a 18.562528
_cell_length_b 10.640354
_cell_length_c 16.331624
_cell_angle_alpha 90.000000
_cell_angle_beta 150.670945
_cell_angle_gamma 90.000000
_cell_volume 1580.022173
_symmetry_space_group_name_H-M "P 21/C"
_symmetry_group_IT_number 14
_symmetry_cell_setting 'monoclinic'
loop_
_space_group_symop_operation_xyz
x,y,z
-x,1/2+y,1/2-z
-x,-y,-z
x,1/2-y,1/2+z
loop_
_atom_site_type_symbol
_atom_site_label
_atom_site_fract_x
_atom_site_fract_y
_atom_site_fract_z
Si Si1 0.575428 0.627508 0.599963
Si Si2 0.574753 0.493441 0.751867
Si Si3 0.874965 0.633983 0.329739
Si Si4 0.896013 0.593017 0.845464
Si Si5 0.665242 0.653471 0.978109
Si Si6 0.390915 0.739395 0.792445
Si Si7 0.837627 0.480074 0.442670
Si Si8 0.241869 0.419481 0.459682
O O1 0.500000 0.500000 0.500000
O O2 0.577021 0.623097 0.700242
O O3 0.739432 0.623973 0.729760
O O4 0.481250 0.742245 0.467629
O O5 0.667591 0.528765 0.924436
O O6 0.659295 0.377688 0.790562
O O7 0.405752 0.462452 0.601281
O O8 0.963657 0.767029 0.415918
O O9 0.804073 0.595683 0.347707
O O10 0.990724 0.538222 0.405448
O O11 0.733243 0.625297 0.132689
O O12 0.868386 0.543737 0.725035
O O13 0.000000 0.500000 0.000000
O O14 0.494231 0.685061 0.823446
O O15 0.754290 0.768857 0.024976
O O16 0.256508 0.644287 0.673243
O O17 0.816505 0.516512 0.515997
#
# Coordination Sequence:
#
# PCOD8124442 Si02
#       8
#     4   4   4   4   4   4   4   4
#     4  10  19  37  62  93 125 153 204 263 306 369
#     4  10  20  36  65  95 122 158 210 266 307 370
#     4  10  25  45  59  89 132 165 211 261 313 390
#     4  11  23  42  66  94 126 168 211 261 323 375
#     4  10  20  41  62  91 126 156 208 262 309 370
#     4  10  20  39  64  91 124 164 207 259 315 373
#     4  11  24  44  63  85 130 174 203 260 322 376
#     4  10  21  41  62  92 127 157 209 263 307 375
#
# _framework density 20.252882
#
# number of rings (size 3 to 8) (size 9 to 14) (size 15 to 20)
#    0.000    1.750    6.250    0.000    5.250    1.500 
#    9.000    1.250    0.000    0.000    0.000    0.000 
#    0.000    0.000    0.000    0.000    0.000    0.000 
#
# Total GULP energy -396427.457024 kJ/mol
# GULP energy per Si atom -12388.358032 kJ/mol
# Density = 2.020679 g / cm^3
# Si number density = 20.252882 Si / 1000 Ang^3
#
#
#
# Elastic Constant Matrix: (Units=GPa)
#
#
# Indices 1 2 3 4 5 6 
#
# 1 98.3811 37.3680 32.3306 0.0000 -20.9915 0.0000
# 2 37.3680 86.2512 56.1995 0.0000 -25.6857 0.0000
# 3 32.3306 56.1995 97.3160 0.0000 -24.2388 0.0000
# 4 0.0000 0.0000 0.0000 34.1573 0.0000 -8.0247
# 5 -20.9915 -25.6857 -24.2388 0.0000 33.5747 0.0000
# 6 0.0000 0.0000 0.0000 -8.0247 0.0000 34.6862
#
#
#
# Elastic Compliance Matrix: (Units=1/GPa)
#
#
# Indices 1 2 3 4 5 6 
#
# 1 0.012822 -0.003467 -0.001123 0.000000 0.004553 0.000000
# 2 -0.003467 0.021414 -0.009357 0.000000 0.007460 0.000000
# 3 -0.001123 -0.009357 0.017185 0.000000 0.004546 0.000000
# 4 0.000000 0.000000 0.000000 0.030959 0.000000 0.007162
# 5 0.004553 0.007460 0.004546 0.000000 0.041620 0.000000
# 6 0.000000 0.000000 0.000000 0.007162 0.000000 0.030487
#
#
# Mechanical properties :
#
#
# Convention : Reuss Voigt Hill
#
# Bulk Modulus (GPa) = 42.50540 59.30495 50.90517
# Shear Modulus (GPa) = 26.28477 30.88699 28.58588
#
# Velocity S-wave (km/s) = 3.60645 3.90945 3.76100
# Velocity P-wave (km/s) = 6.19474 7.05154 6.63698
#
# Compressibility (1/GPa) = 0.02352643
#
# Stress axis : x y z
#
# Youngs Moduli (GPa) = 77.98984 46.69734 58.19116
#
# Poissons Ratio (x) = 0.16191 0.06538
# Poissons Ratio (y) = 0.27041 0.54448
# Poissons Ratio (z) = 0.08762 0.43694
#
# Static dielectric constant tensor:
#      x y z
#    x 3.917630 0.000000 -0.472860 
#    y 0.000000 3.821290 0.000000 
#    z -0.472860 0.000000 3.814940 
# 
# 
# High freq. dielectric constant tensor:
#      x y z
#    x 1.788790 0.000000 -0.009140 
#    y 0.000000 1.785200 0.000000 
#    z -0.009140 0.000000 1.785870 
# 
# From -- ./inp_files/49040.got.cif
#   From: 2010.03.12/outbox.cif.g09.slc.cpg/sg14_25_cif.got.tgz:49040.got - 2010.03.31 13:35:05.
