data_PCOD8124660
_publ_section_title
;
Structure prediction by ZEFSAII (Michael W. Deem and Ramdas Pophale) SiO2 
 PCOD8124660
Probable space group: P 21/C
;
_chemical_formula_sum "Si O2"
_cell_formula_units_Z 20
_cell_length_a 10.704523
_cell_length_b 9.706637
_cell_length_c 8.505809
_cell_angle_alpha 90.000000
_cell_angle_beta 95.569374
_cell_angle_gamma 90.000000
_cell_volume 879.623367
_symmetry_space_group_name_H-M "P 21/C"
_symmetry_group_IT_number 14
_symmetry_cell_setting 'monoclinic'
loop_
_space_group_symop_operation_xyz
x,y,z
-x,1/2+y,1/2-z
-x,-y,-z
x,1/2-y,1/2+z
loop_
_atom_site_type_symbol
_atom_site_label
_atom_site_fract_x
_atom_site_fract_y
_atom_site_fract_z
Si Si1 0.810948 0.007316 0.883883
Si Si2 0.444771 0.590371 0.760222
Si Si3 0.449262 0.182072 0.419450
Si Si4 0.187795 0.211425 0.536866
Si Si5 0.068999 0.087659 0.808448
O O1 0.693746 0.104827 0.831185
O O2 0.922870 0.048571 0.778229
O O3 0.771890 0.846181 0.853934
O O4 0.858719 0.025087 0.071751
O O5 0.542273 0.664630 0.652863
O O6 0.482253 0.430396 0.788377
O O7 0.449109 0.666431 0.929074
O O8 0.311044 0.149488 0.469890
O O9 0.128112 0.094153 0.641465
O O10 0.085479 0.262001 0.395143
#
# Coordination Sequence:
#
# PCOD8124660 Si02
#       5
#     4   4   4   4   4
#     4   9  21  39  63  92 127 168 217 274 318 387
#     4  11  24  45  64  98 131 172 225 265 330 386
#     4  11  25  43  68  97 131 180 217 267 329 391
#     4  10  19  41  63  89 129 174 211 268 330 398
#     4   9  20  38  64  90 122 169 223 257 333 384
#
# _framework density 22.737003000000001
#
# number of rings (size 3 to 8) (size 9 to 14) (size 15 to 20)
#    1.200    0.800    0.000    3.600    0.000    4.800 
#    3.600    4.000    0.000    0.000    0.000    0.000 
#    0.000    0.000    0.000    0.000    0.000    0.000 
#
# Total GULP energy -247839.399430 kJ/mol
# GULP energy per Si atom -12391.969971 kJ/mol
# Density = 2.268525 g / cm^3
# Si number density = 22.737003 Si / 1000 Ang^3
#
#
#
# Elastic Constant Matrix: (Units=GPa)
#
#
# Indices 1 2 3 4 5 6 
#
# 1 89.9602 24.7306 32.3873 0.0000 -16.1161 0.0000
# 2 24.7306 59.1880 14.7851 0.0000 -21.0885 0.0000
# 3 32.3873 14.7851 62.9083 0.0000 -17.1276 0.0000
# 4 0.0000 0.0000 0.0000 39.5819 0.0000 -10.5802
# 5 -16.1161 -21.0885 -17.1276 0.0000 38.4796 0.0000
# 6 0.0000 0.0000 0.0000 -10.5802 0.0000 34.0058
#
#
#
# Elastic Compliance Matrix: (Units=1/GPa)
#
#
# Indices 1 2 3 4 5 6 
#
# 1 0.014732 -0.004202 -0.006309 0.000000 0.001059 0.000000
# 2 -0.004202 0.022429 -0.000274 0.000000 0.010410 0.000000
# 3 -0.006309 -0.000274 0.020992 0.000000 0.006552 0.000000
# 4 0.000000 0.000000 0.000000 0.027556 0.000000 0.008573
# 5 0.001059 0.010410 0.006552 0.000000 0.035053 0.000000
# 6 0.000000 0.000000 0.000000 0.008573 0.000000 0.032074
#
#
# Mechanical properties :
#
#
# Convention : Reuss Voigt Hill
#
# Bulk Modulus (GPa) = 27.33443 39.54028 33.43736
# Shear Modulus (GPa) = 26.79539 31.75701 29.27620
#
# Velocity S-wave (km/s) = 3.43664 3.74131 3.59221
# Velocity P-wave (km/s) = 5.27214 6.00760 5.65185
#
# Compressibility (1/GPa) = 0.03658390
#
# Stress axis : x y z
#
# Youngs Moduli (GPa) = 67.87837 44.58602 47.63695
#
# Poissons Ratio (x) = 0.18737 0.30052
# Poissons Ratio (y) = 0.28525 0.01303
# Poissons Ratio (z) = 0.42822 0.01220
#
# Static dielectric constant tensor:
#      x y z
#    x 3.766380 0.000000 0.173980 
#    y 0.000000 3.789080 0.000000 
#    z 0.173980 0.000000 4.072850 
# 
# 
# High freq. dielectric constant tensor:
#      x y z
#    x 1.882750 0.000000 0.011800 
#    y 0.000000 1.859260 0.000000 
#    z 0.011800 0.000000 1.902630 
# 
# From -- ./inp_files/11857.got.cif
#   From: 2010.03.12/outbox.cif.g09.slc.cpg/sg14_6_cif.got.tgz:11857.got - 2010.03.31 13:35:05.
