data_PCOD8124014
_publ_section_title
;
Structure prediction by ZEFSAII (Michael W. Deem and Ramdas Pophale) SiO2 
 PCOD8124014
Probable space group: P 21/C
;
_chemical_formula_sum "Si O2"
_cell_formula_units_Z 28
_cell_length_a 9.415550
_cell_length_b 22.938845
_cell_length_c 10.187418
_cell_angle_alpha 90.000000
_cell_angle_beta 40.818994
_cell_angle_gamma 90.000000
_cell_volume 1438.271679
_symmetry_space_group_name_H-M "P 21/C"
_symmetry_group_IT_number 14
_symmetry_cell_setting 'monoclinic'
loop_
_space_group_symop_operation_xyz
x,y,z
-x,1/2+y,1/2-z
-x,-y,-z
x,1/2-y,1/2+z
loop_
_atom_site_type_symbol
_atom_site_label
_atom_site_fract_x
_atom_site_fract_y
_atom_site_fract_z
Si Si1 0.554314 0.275510 0.857081
Si Si2 0.247336 0.320932 0.658583
Si Si3 0.627152 0.876228 0.669316
Si Si4 0.378940 0.516561 0.450131
Si Si5 0.949658 0.448936 0.137560
Si Si6 0.536681 0.400940 0.287318
Si Si7 0.256688 0.801873 0.501814
O O1 0.479833 0.341015 0.875587
O O2 0.699747 0.275693 0.885741
O O3 0.697946 0.246612 0.641336
O O4 0.336216 0.239212 0.037777
O O5 0.317626 0.327879 0.760258
O O6 0.347068 0.375119 0.510660
O O7 0.989931 0.322588 0.829040
O O8 0.451195 0.922574 0.840048
O O9 0.843051 0.909968 0.474784
O O10 0.500000 0.500000 0.500000
O O11 0.126326 0.522879 0.669711
O O12 0.437238 0.463479 0.309195
O O13 0.759333 0.407575 0.214396
O O14 0.000000 0.500000 0.000000
O O15 0.588628 0.358344 0.129583
#
# Coordination Sequence:
#
# PCOD8124014 Si02
#       7
#     4   4   4   4   4   4   4
#     4  11  27  43  60  94 126 164 214 261 314 377
#     4  11  22  39  64  89 122 166 209 262 309 369
#     4  12  21  38  65  93 126 164 209 263 308 367
#     4  10  19  33  57  96 128 149 211 260 294 367
#     4  11  18  32  63  99 118 162 207 256 304 366
#     4  10  20  35  60  94 124 155 210 257 304 362
#     4  11  25  41  65  87 127 168 208 258 322 372
#
# _framework density 19.467808999999999
#
# number of rings (size 3 to 8) (size 9 to 14) (size 15 to 20)
#    0.000    1.143    8.571    0.000    2.000    1.143 
#    0.000    0.714    0.000    1.714    0.000    0.000 
#    0.000    0.000    0.000    0.000    0.000    0.000 
#
# Total GULP energy -347112.679992 kJ/mol
# GULP energy per Si atom -12396.881428 kJ/mol
# Density = 1.942350 g / cm^3
# Si number density = 19.467809 Si / 1000 Ang^3
#
#
#
# Elastic Constant Matrix: (Units=GPa)
#
#
# Indices 1 2 3 4 5 6 
#
# 1 63.6652 31.2573 46.4026 0.0000 8.1058 0.0000
# 2 31.2573 114.7341 50.8322 0.0000 1.2096 0.0000
# 3 46.4026 50.8322 127.4669 0.0000 -16.8174 0.0000
# 4 0.0000 0.0000 0.0000 38.5401 0.0000 -0.4079
# 5 8.1058 1.2096 -16.8174 0.0000 28.2520 0.0000
# 6 0.0000 0.0000 0.0000 -0.4079 0.0000 29.5661
#
#
#
# Elastic Compliance Matrix: (Units=1/GPa)
#
#
# Indices 1 2 3 4 5 6 
#
# 1 0.026160 -0.002395 -0.010359 0.000000 -0.013569 0.000000
# 2 -0.002395 0.011082 -0.003820 0.000000 -0.002061 0.000000
# 3 -0.010359 -0.003820 0.014708 0.000000 0.011891 0.000000
# 4 0.000000 0.000000 0.000000 0.025951 0.000000 0.000358
# 5 -0.013569 -0.002061 0.011891 0.000000 0.046455 0.000000
# 6 0.000000 0.000000 0.000000 0.000358 0.000000 0.033828
#
#
# Mechanical properties :
#
#
# Convention : Reuss Voigt Hill
#
# Bulk Modulus (GPa) = 53.17755 62.53892 57.85823
# Shear Modulus (GPa) = 25.30384 31.09658 28.20021
#
# Velocity S-wave (km/s) = 3.60916 4.00100 3.81012
# Velocity P-wave (km/s) = 6.68902 7.31697 7.01003
#
# Compressibility (1/GPa) = 0.01880493
#
# Stress axis : x y z
#
# Youngs Moduli (GPa) = 38.22573 90.23506 67.98941
#
# Poissons Ratio (x) = 0.21607 0.70428
# Poissons Ratio (y) = 0.09153 0.25970
# Poissons Ratio (z) = 0.39597 0.34467
#
# Static dielectric constant tensor:
#      x y z
#    x 3.093280 0.000000 -0.128310 
#    y 0.000000 3.910670 0.000000 
#    z -0.128310 0.000000 4.021940 
# 
# 
# High freq. dielectric constant tensor:
#      x y z
#    x 1.702880 0.000000 -0.014600 
#    y 0.000000 1.774740 0.000000 
#    z -0.014600 0.000000 1.777260 
# 
# From -- ./inp_files/11140.got.cif
#   From: 2010.03.12/outbox.cif.g09.slc.cpg/sg14_6_cif.got.tgz:11140.got - 2010.03.31 13:35:05.
