data_PCOD8124304
_publ_section_title
;
Structure prediction by ZEFSAII (Michael W. Deem and Ramdas Pophale) SiO2 
 PCOD8124304
Probable space group: P 21/C
;
_chemical_formula_sum "Si O2"
_cell_formula_units_Z 28
_cell_length_a 19.328660
_cell_length_b 16.587164
_cell_length_c 9.962154
_cell_angle_alpha 90.000000
_cell_angle_beta 26.867517
_cell_angle_gamma 90.000000
_cell_volume 1443.435527
_symmetry_space_group_name_H-M "P 21/C"
_symmetry_group_IT_number 14
_symmetry_cell_setting 'monoclinic'
loop_
_space_group_symop_operation_xyz
x,y,z
-x,1/2+y,1/2-z
-x,-y,-z
x,1/2-y,1/2+z
loop_
_atom_site_type_symbol
_atom_site_label
_atom_site_fract_x
_atom_site_fract_y
_atom_site_fract_z
Si Si1 0.394426 0.418391 0.393275
Si Si2 0.816162 0.436421 0.285790
Si Si3 0.590112 0.753701 0.277705
Si Si4 0.977390 0.021501 0.763965
Si Si5 0.538787 0.329031 0.745668
Si Si6 0.671780 0.975770 0.437066
Si Si7 0.752652 0.601100 0.068654
O O1 0.292206 0.486582 0.499914
O O2 0.355295 0.337742 0.379743
O O3 0.354319 0.411226 0.618268
O O4 0.574308 0.442822 0.077069
O O5 0.925036 0.425856 0.226287
O O6 0.714145 0.356933 0.450138
O O7 0.914317 0.449279 0.979525
O O8 0.497404 0.764748 0.575964
O O9 0.473594 0.711802 0.377293
O O10 0.736156 0.694385 0.048398
O O11 0.071224 0.081130 0.700087
O O12 0.837961 0.982456 0.084481
O O13 0.418983 0.401746 0.972425
O O14 0.692646 0.960515 0.559342
#
# Coordination Sequence:
#
# PCOD8124304 Si02
#       7
#     4   4   4   4   4   4   4
#     4  10  19  36  62  86 112 152 201 251 283 337
#     4   9  20  37  63  84 110 153 203 242 285 343
#     4  11  20  36  59  86 120 152 191 241 297 345
#     4  10  19  36  59  85 118 149 190 249 286 349
#     4  10  21  37  62  87 114 152 203 241 292 341
#     4  10  20  35  63  90 110 151 205 246 288 340
#     4  10  21  35  56  88 120 157 187 243 295 355
#
# _framework density 19.398164000000001
#
# number of rings (size 3 to 8) (size 9 to 14) (size 15 to 20)
#    0.000    2.000    1.429    2.571    0.000    3.429 
#    0.000    0.000   25.143    0.000    0.000    0.000 
#    0.000    0.000    0.000    0.000    0.000    0.000 
#
# Total GULP energy -347185.952310 kJ/mol
# GULP energy per Si atom -12399.498297 kJ/mol
# Density = 1.935401 g / cm^3
# Si number density = 19.398164 Si / 1000 Ang^3
#
#
#
# Elastic Constant Matrix: (Units=GPa)
#
#
# Indices 1 2 3 4 5 6 
#
# 1 104.2094 36.3406 35.2329 0.0000 -1.2277 0.0000
# 2 36.3406 73.0109 26.7067 0.0000 -6.4748 0.0000
# 3 35.2329 26.7067 109.8457 0.0000 -8.2170 0.0000
# 4 0.0000 0.0000 0.0000 22.0128 0.0000 5.2537
# 5 -1.2277 -6.4748 -8.2170 0.0000 28.2187 0.0000
# 6 0.0000 0.0000 0.0000 5.2537 0.0000 26.3920
#
#
#
# Elastic Compliance Matrix: (Units=1/GPa)
#
#
# Indices 1 2 3 4 5 6 
#
# 1 0.012358 -0.005260 -0.002796 0.000000 -0.001483 0.000000
# 2 -0.005260 0.017438 -0.002321 0.000000 0.003097 0.000000
# 3 -0.002796 -0.002321 0.010750 0.000000 0.002476 0.000000
# 4 0.000000 0.000000 0.000000 0.047694 0.000000 -0.009494
# 5 -0.001483 0.003097 0.002476 0.000000 0.036805 0.000000
# 6 0.000000 0.000000 0.000000 -0.009494 0.000000 0.039780
#
#
# Mechanical properties :
#
#
# Convention : Reuss Voigt Hill
#
# Bulk Modulus (GPa) = 50.52398 53.73626 52.13012
# Shear Modulus (GPa) = 26.01769 27.91040 26.96405
#
# Velocity S-wave (km/s) = 3.66627 3.79729 3.73236
# Velocity P-wave (km/s) = 6.63509 6.85476 6.74582
#
# Compressibility (1/GPa) = 0.01979258
#
# Stress axis : x y z
#
# Youngs Moduli (GPa) = 80.91789 57.34507 93.02308
#
# Poissons Ratio (x) = 0.30163 0.26009
# Poissons Ratio (y) = 0.42563 0.21590
# Poissons Ratio (z) = 0.22625 0.13310
#
# Static dielectric constant tensor:
#      x y z
#    x 3.771150 0.000000 -0.004420 
#    y 0.000000 3.479730 0.000000 
#    z -0.004420 0.000000 3.424310 
# 
# 
# High freq. dielectric constant tensor:
#      x y z
#    x 1.774760 0.000000 0.008220 
#    y 0.000000 1.734840 0.000000 
#    z 0.008220 0.000000 1.745010 
# 
# From -- ./inp_files/18162.got.cif
#   From: 2010.03.12/outbox.cif.g09.slc.cpg/sg14_10_cif.got.tgz:18162.got - 2010.03.31 13:35:05.
