data_PCOD8124993
_publ_section_title
;
Structure prediction by ZEFSAII (Michael W. Deem and Ramdas Pophale) SiO2 
 PCOD8124993
Probable space group: P 21/C
;
_chemical_formula_sum "Si O2"
_cell_formula_units_Z 32
_cell_length_a 20.384220
_cell_length_b 9.123369
_cell_length_c 8.928463
_cell_angle_alpha 90.000000
_cell_angle_beta 77.825050
_cell_angle_gamma 90.000000
_cell_volume 1623.104373
_symmetry_space_group_name_H-M "P 21/C"
_symmetry_group_IT_number 14
_symmetry_cell_setting 'monoclinic'
loop_
_space_group_symop_operation_xyz
x,y,z
-x,1/2+y,1/2-z
-x,-y,-z
x,1/2-y,1/2+z
loop_
_atom_site_type_symbol
_atom_site_label
_atom_site_fract_x
_atom_site_fract_y
_atom_site_fract_z
Si Si1 0.185755 0.611002 0.995238
Si Si2 0.443613 0.063835 0.226636
Si Si3 0.942799 0.909615 0.448116
Si Si4 0.448824 0.153499 0.894073
Si Si5 0.190546 0.585918 0.338404
Si Si6 0.296507 0.114765 0.939115
Si Si7 0.708409 0.578188 0.215469
Si Si8 0.942618 0.597121 0.601946
O O1 0.124986 0.500183 0.999554
O O2 0.204365 0.626956 0.160046
O O3 0.168766 0.771295 0.941518
O O4 0.247880 0.551976 0.871053
O O5 0.453778 0.175425 0.357252
O O6 0.366576 0.014184 0.260197
O O7 0.493334 0.928223 0.227980
O O8 0.462784 0.143821 0.063000
O O9 0.936739 0.754000 0.529188
O O10 0.961332 0.884425 0.266491
O O11 0.000000 0.000000 0.500000
O O12 0.376261 0.087000 0.884043
O O13 0.258350 0.512746 0.368432
O O14 0.129550 0.474619 0.385123
O O15 0.278721 0.274235 0.883775
O O16 0.272623 0.112265 0.122352
O O17 0.000000 0.500000 0.500000
#
# Coordination Sequence:
#
# PCOD8124993 Si02
#       8
#     4   4   4   4   4   4   4   4
#     4  11  24  40  59  85 116 150 188 232 281 333
#     4   9  19  35  54  79 110 144 184 229 278 332
#     4  11  24  41  63  89 118 152 189 231 279 331
#     4   9  19  35  54  79 110 144 184 229 278 332
#     4  11  24  40  59  85 116 150 188 232 281 333
#     4  10  20  36  58  82 111 148 189 233 281 335
#     4  10  20  36  58  82 111 148 189 233 281 335
#     4  11  24  41  63  89 118 152 189 231 279 331
#
# _framework density 19.715306000000002
#
# number of rings (size 3 to 8) (size 9 to 14) (size 15 to 20)
#    0.000    1.750    0.000    3.750    0.000   10.500 
#    0.000    2.500    0.000    0.000    0.000    0.000 
#    0.000    0.000    0.000    0.000    0.000    0.000 
#
# Total GULP energy -396924.424607 kJ/mol
# GULP energy per Si atom -12403.888269 kJ/mol
# Density = 1.967043 g / cm^3
# Si number density = 19.715306 Si / 1000 Ang^3
#
#
#
# Elastic Constant Matrix: (Units=GPa)
#
#
# Indices 1 2 3 4 5 6 
#
# 1 75.9054 33.8608 49.7266 0.0000 2.0485 0.0000
# 2 33.8608 101.4259 52.1655 0.0000 5.8494 0.0000
# 3 49.7266 52.1655 124.1094 0.0000 2.9313 0.0000
# 4 0.0000 0.0000 0.0000 39.6024 0.0000 -3.0550
# 5 2.0485 5.8494 2.9313 0.0000 31.9364 0.0000
# 6 0.0000 0.0000 0.0000 -3.0550 0.0000 36.4680
#
#
#
# Elastic Compliance Matrix: (Units=1/GPa)
#
#
# Indices 1 2 3 4 5 6 
#
# 1 0.018564 -0.003022 -0.006166 0.000000 -0.000071 0.000000
# 2 -0.003022 0.013177 -0.004285 0.000000 -0.001826 0.000000
# 3 -0.006166 -0.004285 0.012328 0.000000 0.000049 0.000000
# 4 0.000000 0.000000 0.000000 0.025415 0.000000 0.002129
# 5 -0.000071 -0.001826 0.000049 0.000000 0.031647 0.000000
# 6 0.000000 0.000000 0.000000 0.002129 0.000000 0.027600
#
#
# Mechanical properties :
#
#
# Convention : Reuss Voigt Hill
#
# Bulk Modulus (GPa) = 58.39988 63.66072 61.03030
# Shear Modulus (GPa) = 30.98204 32.64722 31.81463
#
# Velocity S-wave (km/s) = 3.96848 4.07373 4.02145
# Velocity P-wave (km/s) = 7.11929 7.38154 7.25160
#
# Compressibility (1/GPa) = 0.01712332
#
# Stress axis : x y z
#
# Youngs Moduli (GPa) = 53.86842 75.88764 81.11813
#
# Poissons Ratio (x) = 0.22934 0.50017
# Poissons Ratio (y) = 0.16279 0.34757
# Poissons Ratio (z) = 0.33215 0.32516
#
# Static dielectric constant tensor:
#      x y z
#    x 3.827710 0.000000 0.003730 
#    y 0.000000 3.514180 0.000000 
#    z 0.003730 0.000000 3.780220 
# 
# 
# High freq. dielectric constant tensor:
#      x y z
#    x 1.777750 0.000000 0.000090 
#    y 0.000000 1.768490 0.000000 
#    z 0.000090 0.000000 1.782090 
# 
# From -- ./inp_files/18601.got.cif
#   From: 2010.03.12/outbox.cif.g09.slc.cpg/sg14_10_cif.got.tgz:18601.got - 2010.03.31 13:35:05.
