data_PCOD8124027
_publ_section_title
;
Structure prediction by ZEFSAII (Michael W. Deem and Ramdas Pophale) SiO2 
 PCOD8124027
Probable space group: P 21/C
;
_chemical_formula_sum "Si O2"
_cell_formula_units_Z 28
_cell_length_a 25.643057
_cell_length_b 4.995720
_cell_length_c 14.964748
_cell_angle_alpha 90.000000
_cell_angle_beta 39.241499
_cell_angle_gamma 90.000000
_cell_volume 1212.718237
_symmetry_space_group_name_H-M "P 21/C"
_symmetry_group_IT_number 14
_symmetry_cell_setting 'monoclinic'
loop_
_space_group_symop_operation_xyz
x,y,z
-x,1/2+y,1/2-z
-x,-y,-z
x,1/2-y,1/2+z
loop_
_atom_site_type_symbol
_atom_site_label
_atom_site_fract_x
_atom_site_fract_y
_atom_site_fract_z
Si Si1 0.993503 0.568637 0.198347
Si Si2 0.159444 0.732433 0.926533
Si Si3 0.740802 0.740066 0.749162
Si Si4 0.178899 0.872624 0.096775
Si Si5 0.552348 0.080948 0.196382
Si Si6 0.668052 0.792802 0.160666
Si Si7 0.306131 0.919637 0.525644
O O1 0.908344 0.503794 0.259155
O O2 0.974377 0.799950 0.295751
O O3 0.062941 0.669514 0.035154
O O4 0.219791 0.533657 0.792649
O O5 0.184560 0.033349 0.868734
O O6 0.168407 0.689841 0.021839
O O7 0.672489 0.747462 0.761211
O O8 0.695316 0.657882 0.900599
O O9 0.213523 0.694373 0.133072
O O10 0.244532 0.102009 0.990548
O O11 0.485719 0.316731 0.300243
O O12 0.592029 0.991550 0.239094
O O13 0.627407 0.191433 0.033510
O O14 0.656770 0.519756 0.119218
#
# Coordination Sequence:
#
# PCOD8124027 Si02
#       7
#     4   4   4   4   4   4   4
#     4  10  19  33  59  88 121 168 217 259 310 362
#     4  10  20  38  57  90 126 165 210 264 303 354
#     4  11  24  39  63  93 127 163 214 252 301 370
#     4   9  20  35  62  90 119 168 217 252 308 367
#     4  11  23  42  70  93 122 160 197 249 310 376
#     4  10  21  42  66  91 123 168 202 252 308 366
#     4  11  23  41  67  93 126 164 205 254 311 366
#
# _framework density 23.088628
#
# number of rings (size 3 to 8) (size 9 to 14) (size 15 to 20)
#    0.000    1.714    2.857    2.571    6.000    0.000 
#    0.000    2.857    0.000    0.000    0.000    0.000 
#    0.000    0.000    0.000    0.000    0.000    0.000 
#
# Total GULP energy -347048.680479 kJ/mol
# GULP energy per Si atom -12394.595731 kJ/mol
# Density = 2.303608 g / cm^3
# Si number density = 23.088628 Si / 1000 Ang^3
#
#
#
# Elastic Constant Matrix: (Units=GPa)
#
#
# Indices 1 2 3 4 5 6 
#
# 1 95.9268 25.1625 28.8813 0.0000 -20.0229 0.0000
# 2 25.1625 87.7780 -2.7365 0.0000 -14.2041 0.0000
# 3 28.8813 -2.7365 30.2005 0.0000 -14.7389 0.0000
# 4 0.0000 0.0000 0.0000 25.2393 0.0000 -7.2763
# 5 -20.0229 -14.2041 -14.7389 0.0000 39.4282 0.0000
# 6 0.0000 0.0000 0.0000 -7.2763 0.0000 29.9893
#
#
#
# Elastic Compliance Matrix: (Units=1/GPa)
#
#
# Indices 1 2 3 4 5 6 
#
# 1 0.016819 -0.005237 -0.016281 0.000000 0.000568 0.000000
# 2 -0.005237 0.014125 0.009141 0.000000 0.005846 0.000000
# 3 -0.016281 0.009141 0.057589 0.000000 0.016553 0.000000
# 4 0.000000 0.000000 0.000000 0.042600 0.000000 0.010336
# 5 0.000568 0.005846 0.016553 0.000000 0.033945 0.000000
# 6 0.000000 0.000000 0.000000 0.010336 0.000000 0.035853
#
#
# Mechanical properties :
#
#
# Convention : Reuss Voigt Hill
#
# Bulk Modulus (GPa) = 15.67946 35.16888 25.42417
# Shear Modulus (GPa) = 20.24750 29.77124 25.00937
#
# Velocity S-wave (km/s) = 2.96454 3.59476 3.29476
# Velocity P-wave (km/s) = 4.30392 5.70043 5.05068
#
# Compressibility (1/GPa) = 0.06377771
#
# Stress axis : x y z
#
# Youngs Moduli (GPa) = 59.45705 70.79866 17.36451
#
# Poissons Ratio (x) = 0.37077 0.28272
# Poissons Ratio (y) = 0.31137 -0.15873
# Poissons Ratio (z) = 0.96804 -0.64718
#
# Static dielectric constant tensor:
#      x y z
#    x 4.474530 0.000000 -0.354640 
#    y 0.000000 4.265020 0.000000 
#    z -0.354640 0.000000 3.731460 
# 
# 
# High freq. dielectric constant tensor:
#      x y z
#    x 1.903100 0.000000 -0.028720 
#    y 0.000000 1.930840 0.000000 
#    z -0.028720 0.000000 1.870280 
# 
# From -- ./inp_files/51715.got.cif
#   From: 2010.03.12/outbox.cif.g09.slc.cpg/sg14_26_cif.got.tgz:51715.got - 2010.03.31 13:35:05.
