data_PCOD8124960
_publ_section_title
;
Structure prediction by ZEFSAII (Michael W. Deem and Ramdas Pophale) SiO2 
 PCOD8124960
Probable space group: P 21/C
;
_chemical_formula_sum "Si O2"
_cell_formula_units_Z 32
_cell_length_a 27.530266
_cell_length_b 5.400552
_cell_length_c 19.117765
_cell_angle_alpha 90.000000
_cell_angle_beta 145.947441
_cell_angle_gamma 90.000000
_cell_volume 1591.612656
_symmetry_space_group_name_H-M "P 21/C"
_symmetry_group_IT_number 14
_symmetry_cell_setting 'monoclinic'
loop_
_space_group_symop_operation_xyz
x,y,z
-x,1/2+y,1/2-z
-x,-y,-z
x,1/2-y,1/2+z
loop_
_atom_site_type_symbol
_atom_site_label
_atom_site_fract_x
_atom_site_fract_y
_atom_site_fract_z
Si Si1 0.620046 0.139742 0.277762
Si Si2 0.410415 0.259372 0.366619
Si Si3 0.674937 0.462740 0.986829
Si Si4 0.463220 0.057944 0.564639
Si Si5 0.751381 0.987781 0.899279
Si Si6 0.965774 0.992841 0.296061
Si Si7 0.056226 0.493982 0.395800
Si Si8 0.771473 0.940282 0.079003
O O1 0.590272 0.029302 0.168006
O O2 0.627629 0.970876 0.356194
O O3 0.544950 0.337794 0.206045
O O4 0.716828 0.241352 0.379085
O O5 0.414244 0.258318 0.455649
O O6 0.499529 0.148622 0.442566
O O7 0.321253 0.134509 0.235304
O O8 0.603934 0.436795 0.962343
O O9 0.720577 0.193764 0.036467
O O10 0.736397 0.697968 0.078822
O O11 0.841339 0.998601 0.964344
O O12 0.765484 0.853188 0.990652
O O13 0.958838 0.999195 0.204617
O O14 0.871161 0.988429 0.218582
O O15 0.014699 0.244187 0.379350
O O16 0.015600 0.744115 0.380469
#
# Coordination Sequence:
#
# PCOD8124960 Si02
#       8
#     4   4   4   4   4   4   4   4
#     4  10  21  34  57  78 114 146 183 237 281 325
#     4  10  20  40  54  77 115 148 186 236 283 322
#     4  11  23  36  58  84 110 150 190 231 274 338
#     4  10  24  36  56  82 108 150 195 230 280 333
#     4   9  19  32  52  82 111 148 184 227 281 333
#     4   9  17  29  48  77 113 143 171 225 280 330
#     4   9  17  27  49  79 110 142 179 217 276 339
#     4  10  20  36  54  82 116 146 183 230 286 328
#
# _framework density 20.105394
#
# number of rings (size 3 to 8) (size 9 to 14) (size 15 to 20)
#    0.000    2.250    1.250    1.125    5.250    3.000 
#    0.000    0.000    0.000    0.000    0.000    5.250 
#    0.000    0.000    0.000    0.000    0.000    0.000 
#
# Total GULP energy -396435.431947 kJ/mol
# GULP energy per Si atom -12388.607248 kJ/mol
# Density = 2.005963 g / cm^3
# Si number density = 20.105394 Si / 1000 Ang^3
#
#
#
# Elastic Constant Matrix: (Units=GPa)
#
#
# Indices 1 2 3 4 5 6 
#
# 1 58.9161 32.6770 48.8502 0.0000 22.1221 0.0000
# 2 32.6770 118.8234 38.1006 0.0000 21.6466 0.0000
# 3 48.8502 38.1006 102.5340 0.0000 33.6216 0.0000
# 4 0.0000 0.0000 0.0000 25.6731 0.0000 3.6261
# 5 22.1221 21.6466 33.6216 0.0000 28.5082 0.0000
# 6 0.0000 0.0000 0.0000 3.6261 0.0000 16.8349
#
#
#
# Elastic Compliance Matrix: (Units=1/GPa)
#
#
# Indices 1 2 3 4 5 6 
#
# 1 0.031031 -0.003520 -0.010528 0.000000 -0.008990 0.000000
# 2 -0.003520 0.010412 -0.000807 0.000000 -0.004222 0.000000
# 3 -0.010528 -0.000807 0.019875 0.000000 -0.014657 0.000000
# 4 0.000000 0.000000 0.000000 0.040173 0.000000 -0.008653
# 5 -0.008990 -0.004222 -0.014657 0.000000 0.062546 0.000000
# 6 0.000000 0.000000 0.000000 -0.008653 0.000000 0.061264
#
#
# Mechanical properties :
#
#
# Convention : Reuss Voigt Hill
#
# Bulk Modulus (GPa) = 31.63886 57.72545 44.68216
# Shear Modulus (GPa) = 18.82905 24.91296 21.87100
#
# Velocity S-wave (km/s) = 3.06358 3.52393 3.30179
# Velocity P-wave (km/s) = 5.31833 6.73284 6.06695
#
# Compressibility (1/GPa) = 0.03160671
#
# Stress axis : x y z
#
# Youngs Moduli (GPa) = 32.22634 96.04350 50.31486
#
# Poissons Ratio (x) = 0.33807 0.52971
# Poissons Ratio (y) = 0.11344 0.04063
# Poissons Ratio (z) = 0.33927 0.07755
#
# Static dielectric constant tensor:
#      x y z
#    x 3.332450 0.000000 0.152640 
#    y 0.000000 3.718130 0.000000 
#    z 0.152640 0.000000 3.742580 
# 
# 
# High freq. dielectric constant tensor:
#      x y z
#    x 1.741600 0.000000 0.026180 
#    y 0.000000 1.787780 0.000000 
#    z 0.026180 0.000000 1.780580 
# 
# From -- ./inp_files/70364.got.cif
#   From: 2010.03.12/outbox.cif.g09.slc.cpg/sg14_36_cif.got.tgz:70364.got - 2010.03.31 13:35:05.
