data_PCOD8124750
_publ_section_title
;
Structure prediction by ZEFSAII (Michael W. Deem and Ramdas Pophale) SiO2 
 PCOD8124750
Probable space group: P 21/C
;
_chemical_formula_sum "Si O2"
_cell_formula_units_Z 32
_cell_length_a 20.235634
_cell_length_b 12.888272
_cell_length_c 12.390714
_cell_angle_alpha 90.000000
_cell_angle_beta 27.245981
_cell_angle_gamma 90.000000
_cell_volume 1479.430578
_symmetry_space_group_name_H-M "P 21/C"
_symmetry_group_IT_number 14
_symmetry_cell_setting 'monoclinic'
loop_
_space_group_symop_operation_xyz
x,y,z
-x,1/2+y,1/2-z
-x,-y,-z
x,1/2-y,1/2+z
loop_
_atom_site_type_symbol
_atom_site_label
_atom_site_fract_x
_atom_site_fract_y
_atom_site_fract_z
Si Si1 0.523975 0.376151 0.671290
Si Si2 0.739227 0.773971 0.529538
Si Si3 0.121200 0.901721 0.139373
Si Si4 0.739208 0.108779 0.667512
Si Si5 0.930862 0.288397 0.489331
Si Si6 0.278090 0.721650 0.015219
Si Si7 0.188500 0.109248 0.372388
Si Si8 0.683844 0.940276 0.038841
O O1 0.353270 0.362644 0.899181
O O2 0.600351 0.397236 0.445944
O O3 0.580586 0.262488 0.627984
O O4 0.556216 0.473586 0.706765
O O5 0.749869 0.799613 0.641159
O O6 0.649433 0.664762 0.654847
O O7 0.897630 0.767667 0.243968
O O8 0.090391 0.890465 0.055718
O O9 0.240777 0.819796 0.997063
O O10 0.978593 0.871220 0.414007
O O11 0.181048 0.012465 0.091080
O O12 0.859509 0.188248 0.536561
O O13 0.687330 0.130307 0.619826
O O14 0.812991 0.997018 0.557082
O O15 0.851911 0.312433 0.716731
O O16 0.276528 0.101951 0.136071
#
# Coordination Sequence:
#
# PCOD8124750 Si02
#       8
#     4   4   4   4   4   4   4   4
#     4   9  21  36  55  82 109 148 189 222 270 332
#     4  11  22  35  54  85 114 137 184 239 277 319
#     4   9  17  32  55  83 111 141 185 225 270 331
#     4   9  18  35  58  79 107 146 188 227 269 327
#     4   9  18  33  56  87 115 141 178 228 277 324
#     4   9  17  34  58  79 109 152 185 218 269 329
#     4  10  20  33  55  84 108 140 188 232 270 323
#     4  10  20  37  58  76 110 152 183 224 276 328
#
# _framework density 21.629943999999998
#
# number of rings (size 3 to 8) (size 9 to 14) (size 15 to 20)
#    0.000    2.500    0.000    2.625    0.000    4.000 
#    0.000    3.750    0.000   17.250    0.000    0.000 
#    0.000    0.000    0.000    0.000    0.000    0.000 
#
# Total GULP energy -396497.660067 kJ/mol
# GULP energy per Si atom -12390.551877 kJ/mol
# Density = 2.158071 g / cm^3
# Si number density = 21.629944 Si / 1000 Ang^3
#
#
#
# Elastic Constant Matrix: (Units=GPa)
#
#
# Indices 1 2 3 4 5 6 
#
# 1 76.6955 42.7737 30.3356 0.0000 -3.8097 0.0000
# 2 42.7737 89.4212 23.1620 0.0000 -1.3237 0.0000
# 3 30.3356 23.1620 51.4684 0.0000 -10.6354 0.0000
# 4 0.0000 0.0000 0.0000 20.5908 0.0000 5.6962
# 5 -3.8097 -1.3237 -10.6354 0.0000 36.8316 0.0000
# 6 0.0000 0.0000 0.0000 5.6962 0.0000 37.9268
#
#
#
# Elastic Compliance Matrix: (Units=1/GPa)
#
#
# Indices 1 2 3 4 5 6 
#
# 1 0.020816 -0.007642 -0.008977 0.000000 -0.000714 0.000000
# 2 -0.007642 0.015520 -0.002688 0.000000 -0.001009 0.000000
# 3 -0.008977 -0.002688 0.027351 0.000000 0.006873 0.000000
# 4 0.000000 0.000000 0.000000 0.050671 0.000000 -0.007610
# 5 -0.000714 -0.001009 0.006873 0.000000 0.029025 0.000000
# 6 0.000000 0.000000 0.000000 -0.007610 0.000000 0.027510
#
#
# Mechanical properties :
#
#
# Convention : Reuss Voigt Hill
#
# Bulk Modulus (GPa) = 39.88748 45.56974 42.72861
# Shear Modulus (GPa) = 22.94992 27.15741 25.05367
#
# Velocity S-wave (km/s) = 3.26087 3.54721 3.40705
# Velocity P-wave (km/s) = 5.71477 6.15553 5.93924
#
# Compressibility (1/GPa) = 0.02507053
#
# Stress axis : x y z
#
# Youngs Moduli (GPa) = 48.03944 64.43225 36.56219
#
# Poissons Ratio (x) = 0.49242 0.32823
# Poissons Ratio (y) = 0.36714 0.09830
# Poissons Ratio (z) = 0.43127 0.17322
#
# Static dielectric constant tensor:
#      x y z
#    x 4.229020 0.000000 -0.143180 
#    y 0.000000 4.081730 0.000000 
#    z -0.143180 0.000000 3.541770 
# 
# 
# High freq. dielectric constant tensor:
#      x y z
#    x 1.856520 0.000000 -0.015150 
#    y 0.000000 1.841930 0.000000 
#    z -0.015150 0.000000 1.819310 
# 
# From -- ./inp_files/34227.got.cif
#   From: 2010.03.12/outbox.cif.g09.slc.cpg/sg14_18_cif.got.tgz:34227.got - 2010.03.31 13:35:05.
