data_PCOD8124002
_publ_section_title
;
Structure prediction by ZEFSAII (Michael W. Deem and Ramdas Pophale) SiO2 
 PCOD8124002
Probable space group: P 21/C
;
_chemical_formula_sum "Si O2"
_cell_formula_units_Z 32
_cell_length_a 10.314878
_cell_length_b 11.973657
_cell_length_c 22.471703
_cell_angle_alpha 90.000000
_cell_angle_beta 37.380034
_cell_angle_gamma 90.000000
_cell_volume 1684.947572
_symmetry_space_group_name_H-M "P 21/C"
_symmetry_group_IT_number 14
_symmetry_cell_setting 'monoclinic'
loop_
_space_group_symop_operation_xyz
x,y,z
-x,1/2+y,1/2-z
-x,-y,-z
x,1/2-y,1/2+z
loop_
_atom_site_type_symbol
_atom_site_label
_atom_site_fract_x
_atom_site_fract_y
_atom_site_fract_z
Si Si1 0.471138 0.113774 0.369665
Si Si2 0.616635 0.583179 0.898835
Si Si3 0.611842 0.987961 0.206003
Si Si4 0.832351 0.174482 0.455474
Si Si5 0.780597 0.695095 0.729423
Si Si6 0.123117 0.070841 0.577756
Si Si7 0.690734 0.175046 0.740553
Si Si8 0.673662 0.291377 0.626902
O O1 0.459456 0.051433 0.309930
O O2 0.234901 0.140425 0.482719
O O3 0.604377 0.228276 0.315488
O O4 0.576172 0.032896 0.379785
O O5 0.403559 0.658388 0.985973
O O6 0.777666 0.651077 0.797922
O O7 0.712392 0.555529 0.927721
O O8 0.735354 0.081541 0.122147
O O9 0.769922 0.905421 0.184435
O O10 0.480387 0.923554 0.203134
O O11 0.816133 0.247224 0.521136
O O12 0.994432 0.241710 0.354724
O O13 0.931375 0.051114 0.429713
O O14 0.581098 0.778368 0.791256
O O15 0.916823 0.129476 0.681476
O O16 0.741915 0.214157 0.655916
#
# Coordination Sequence:
#
# PCOD8124002 Si02
#       8
#     4   4   4   4   4   4   4   4
#     4   9  19  36  53  74 106 134 167 214 254 297
#     4   9  20  36  52  76 103 132 175 215 249 295
#     4   9  18  34  51  75 111 135 161 208 257 306
#     4  10  19  33  56  77  97 136 176 209 251 301
#     4   9  18  33  54  76 101 134 170 212 254 298
#     4  11  21  33  54  77 100 136 177 211 247 299
#     4  10  20  32  52  80 106 135 167 206 256 304
#     4   9  19  33  50  78 108 132 166 209 255 307
#
# _framework density 18.991689000000001
#
# number of rings (size 3 to 8) (size 9 to 14) (size 15 to 20)
#    0.000    2.500    0.000    4.500    0.000    7.500 
#    0.000    2.500    0.000    0.000    0.000   16.625 
#    0.000    0.000    0.000    0.000    0.000    0.000 
#
# Total GULP energy -396487.763208 kJ/mol
# GULP energy per Si atom -12390.242600 kJ/mol
# Density = 1.894846 g / cm^3
# Si number density = 18.991689 Si / 1000 Ang^3
#
#
#
# Elastic Constant Matrix: (Units=GPa)
#
#
# Indices 1 2 3 4 5 6 
#
# 1 51.5565 17.9928 24.1937 0.0000 6.1117 0.0000
# 2 17.9928 94.4828 63.1836 0.0000 2.8688 0.0000
# 3 24.1937 63.1836 105.2428 0.0000 10.0161 0.0000
# 4 0.0000 0.0000 0.0000 35.0463 0.0000 3.9603
# 5 6.1117 2.8688 10.0161 0.0000 20.2132 0.0000
# 6 0.0000 0.0000 0.0000 3.9603 0.0000 15.4878
#
#
#
# Elastic Compliance Matrix: (Units=1/GPa)
#
#
# Indices 1 2 3 4 5 6 
#
# 1 0.022250 -0.001624 -0.003696 0.000000 -0.004666 0.000000
# 2 -0.001624 0.017964 -0.010721 0.000000 0.003254 0.000000
# 3 -0.003696 -0.010721 0.017355 0.000000 -0.005961 0.000000
# 4 0.000000 0.000000 0.000000 0.029383 0.000000 -0.007513
# 5 -0.004666 0.003254 -0.005961 0.000000 0.053375 0.000000
# 6 0.000000 0.000000 0.000000 -0.007513 0.000000 0.066488
#
#
# Mechanical properties :
#
#
# Convention : Reuss Voigt Hill
#
# Bulk Modulus (GPa) = 39.23507 51.33582 45.28544
# Shear Modulus (GPa) = 20.21064 23.87691 22.04378
#
# Velocity S-wave (km/s) = 3.26572 3.54959 3.41061
# Velocity P-wave (km/s) = 5.90964 6.62486 6.27745
#
# Compressibility (1/GPa) = 0.02548740
#
# Stress axis : x y z
#
# Youngs Moduli (GPa) = 44.94291 55.66672 57.61883
#
# Poissons Ratio (x) = 0.09040 0.21296
# Poissons Ratio (y) = 0.07298 0.61775
# Poissons Ratio (z) = 0.16611 0.59682
#
# Static dielectric constant tensor:
#      x y z
#    x 3.204480 0.000000 0.137620 
#    y 0.000000 3.614750 0.000000 
#    z 0.137620 0.000000 3.464940 
# 
# 
# High freq. dielectric constant tensor:
#      x y z
#    x 1.713950 0.000000 0.010000 
#    y 0.000000 1.738900 0.000000 
#    z 0.010000 0.000000 1.733500 
# 
# From -- ./inp_files/77209.got.cif
#   From: 2010.03.12/outbox.cif.g09.slc.cpg/sg14_39_cif.got.tgz:77209.got - 2010.03.31 13:35:05.
