data_PCOD8124179
_publ_section_title
;
Structure prediction by ZEFSAII (Michael W. Deem and Ramdas Pophale) SiO2 
 PCOD8124179
Probable space group: P 21/C
;
_chemical_formula_sum "Si O2"
_cell_formula_units_Z 28
_cell_length_a 14.471179
_cell_length_b 14.966216
_cell_length_c 9.295199
_cell_angle_alpha 90.000000
_cell_angle_beta 45.117930
_cell_angle_gamma 90.000000
_cell_volume 1426.433977
_symmetry_space_group_name_H-M "P 21/C"
_symmetry_group_IT_number 14
_symmetry_cell_setting 'monoclinic'
loop_
_space_group_symop_operation_xyz
x,y,z
-x,1/2+y,1/2-z
-x,-y,-z
x,1/2-y,1/2+z
loop_
_atom_site_type_symbol
_atom_site_label
_atom_site_fract_x
_atom_site_fract_y
_atom_site_fract_z
Si Si1 0.063866 0.846861 0.772809
Si Si2 0.997987 0.315980 0.327435
Si Si3 0.642953 0.187710 0.627402
Si Si4 0.617287 0.048266 0.446099
Si Si5 0.721626 0.124050 0.055095
Si Si6 0.640302 0.454598 0.358131
Si Si7 0.177124 0.474759 0.072793
O O1 0.981459 0.787446 0.746837
O O2 0.214959 0.823991 0.597545
O O3 0.060415 0.953255 0.736783
O O4 0.012806 0.824651 0.988840
O O5 0.870964 0.346076 0.376145
O O6 0.118925 0.375672 0.141981
O O7 0.556094 0.129566 0.610757
O O8 0.617197 0.293181 0.663171
O O9 0.633496 0.144949 0.796688
O O10 0.715927 0.081172 0.216985
O O11 0.500000 0.000000 0.500000
O O12 0.701312 0.980707 0.450703
O O13 0.680068 0.053457 0.980396
O O14 0.500000 0.500000 0.500000
O O15 0.757088 0.510210 0.155491
#
# Coordination Sequence:
#
# PCOD8124179 Si02
#       7
#     4   4   4   4   4   4   4
#     4   9  20  35  58  89 115 150 194 234 294 352
#     4  11  21  37  62  86 118 153 189 251 291 355
#     4   9  19  33  55  87 109 142 193 245 286 331
#     4  10  19  35  58  80 110 153 196 235 287 350
#     4  11  19  32  60  85 108 145 197 245 289 335
#     4  10  21  37  57  82 118 149 196 244 284 344
#     4  10  22  39  59  86 121 157 195 241 301 352
#
# _framework density 19.629370999999999
#
# number of rings (size 3 to 8) (size 9 to 14) (size 15 to 20)
#    0.000    2.286    2.857    3.000   10.000    0.571 
#    0.000    0.000   12.571    0.000    0.000    0.000 
#    0.000    0.000    0.000    0.000    0.000    0.000 
#
# Total GULP energy -346933.652552 kJ/mol
# GULP energy per Si atom -12390.487591 kJ/mol
# Density = 1.958469 g / cm^3
# Si number density = 19.629371 Si / 1000 Ang^3
#
#
#
# Elastic Constant Matrix: (Units=GPa)
#
#
# Indices 1 2 3 4 5 6 
#
# 1 59.9043 21.5486 8.3941 0.0000 4.6896 0.0000
# 2 21.5486 64.9394 16.2063 0.0000 -10.6438 0.0000
# 3 8.3941 16.2063 62.7952 0.0000 11.6046 0.0000
# 4 0.0000 0.0000 0.0000 16.0631 0.0000 0.9213
# 5 4.6896 -10.6438 11.6046 0.0000 26.3497 0.0000
# 6 0.0000 0.0000 0.0000 0.9213 0.0000 28.6602
#
#
#
# Elastic Compliance Matrix: (Units=1/GPa)
#
#
# Indices 1 2 3 4 5 6 
#
# 1 0.020022 -0.007979 0.000694 0.000000 -0.007092 0.000000
# 2 -0.007979 0.022022 -0.007101 0.000000 0.013443 0.000000
# 3 0.000694 -0.007101 0.019832 0.000000 -0.011726 0.000000
# 4 0.000000 0.000000 0.000000 0.062369 0.000000 -0.002005
# 5 -0.007092 0.013443 -0.011726 0.000000 0.049808 0.000000
# 6 0.000000 0.000000 0.000000 -0.002005 0.000000 0.034956
#
#
# Mechanical properties :
#
#
# Convention : Reuss Voigt Hill
#
# Bulk Modulus (GPa) = 30.20987 31.10410 30.65698
# Shear Modulus (GPa) = 20.09510 23.64726 21.87118
#
# Velocity S-wave (km/s) = 3.20304 3.47463 3.34160
# Velocity P-wave (km/s) = 5.39471 5.65486 5.52632
#
# Compressibility (1/GPa) = 0.03310176
#
# Stress axis : x y z
#
# Youngs Moduli (GPa) = 49.94617 45.40849 50.42403
#
# Poissons Ratio (x) = 0.36232 -0.03497
# Poissons Ratio (y) = 0.39853 0.35808
# Poissons Ratio (z) = -0.03464 0.32246
#
# Static dielectric constant tensor:
#      x y z
#    x 3.350240 0.000000 0.257320 
#    y 0.000000 4.223470 0.000000 
#    z 0.257320 0.000000 3.686880 
# 
# 
# High freq. dielectric constant tensor:
#      x y z
#    x 1.740060 0.000000 0.029060 
#    y 0.000000 1.757450 0.000000 
#    z 0.029060 0.000000 1.759960 
# 
# From -- ./inp_files/9471.got.cif
#   From: 2010.03.12/outbox.cif.g09.slc.cpg/sg14_5_cif.got.tgz:9471.got - 2010.03.31 13:35:05.
