data_PCOD8124091
_publ_section_title
;
Structure prediction by ZEFSAII (Michael W. Deem and Ramdas Pophale) SiO2 
 PCOD8124091
Probable space group: P 21/C
;
_chemical_formula_sum "Si O2"
_cell_formula_units_Z 24
_cell_length_a 30.505884
_cell_length_b 5.283061
_cell_length_c 22.393875
_cell_angle_alpha 90.000000
_cell_angle_beta 160.902962
_cell_angle_gamma 90.000000
_cell_volume 1180.784652
_symmetry_space_group_name_H-M "P 21/C"
_symmetry_group_IT_number 14
_symmetry_cell_setting 'monoclinic'
loop_
_space_group_symop_operation_xyz
x,y,z
-x,1/2+y,1/2-z
-x,-y,-z
x,1/2-y,1/2+z
loop_
_atom_site_type_symbol
_atom_site_label
_atom_site_fract_x
_atom_site_fract_y
_atom_site_fract_z
Si Si1 0.512190 0.419729 0.612645
Si Si2 0.756508 0.840544 0.741977
Si Si3 0.427268 0.012897 0.677237
Si Si4 0.991121 0.973564 0.558104
Si Si5 0.859437 0.964971 0.747166
Si Si6 0.382985 0.808340 0.362254
O O1 0.396041 0.210280 0.476032
O O2 0.583955 0.496284 0.765762
O O3 0.427274 0.644355 0.475466
O O4 0.630397 0.343044 0.717767
O O5 0.843135 0.951470 0.798442
O O6 0.751301 0.045711 0.789413
O O7 0.834502 0.594964 0.870391
O O8 0.474264 0.743652 0.711766
O O9 0.282409 0.078913 0.466028
O O10 0.081969 0.735926 0.696608
O O11 0.044350 0.238231 0.653988
O O12 0.000000 0.000000 0.500000
O O13 0.500000 0.000000 0.500000
#
# Coordination Sequence:
#
# PCOD8124091 Si02
#       6
#     4   4   4   4   4   4
#     4  10  21  36  58  90 119 153 201 250 304 357
#     4  10  19  34  58  83 120 153 200 249 295 351
#     4  12  24  38  61  89 127 162 189 243 315 384
#     4  10  22  35  56  86 121 157 196 248 290 350
#     4  11  22  37  54  92 124 155 195 238 306 363
#     4   9  20  36  56  89 112 153 204 254 299 341
#
# _framework density 20.325468000000001
#
# number of rings (size 3 to 8) (size 9 to 14) (size 15 to 20)
#    0.000    1.667    1.667    4.000   11.667    0.000 
#    0.000    0.000    0.000    0.000   13.000    0.000 
#    0.000    0.000    0.000    0.000    0.000    0.000 
#
# Total GULP energy -297363.323270 kJ/mol
# GULP energy per Si atom -12390.138470 kJ/mol
# Density = 2.027921 g / cm^3
# Si number density = 20.325468 Si / 1000 Ang^3
#
#
#
# Elastic Constant Matrix: (Units=GPa)
#
#
# Indices 1 2 3 4 5 6 
#
# 1 98.4801 39.8474 33.7239 0.0000 -7.0445 0.0000
# 2 39.8474 110.9163 19.1163 0.0000 -1.1113 0.0000
# 3 33.7239 19.1163 81.9416 0.0000 1.9899 0.0000
# 4 0.0000 0.0000 0.0000 35.2777 0.0000 15.7415
# 5 -7.0445 -1.1113 1.9899 0.0000 25.2712 0.0000
# 6 0.0000 0.0000 0.0000 15.7415 0.0000 30.2271
#
#
#
# Elastic Compliance Matrix: (Units=1/GPa)
#
#
# Indices 1 2 3 4 5 6 
#
# 1 0.013731 -0.004065 -0.004801 0.000000 0.004027 0.000000
# 2 -0.004065 0.010606 -0.000786 0.000000 -0.000605 0.000000
# 3 -0.004801 -0.000786 0.014424 0.000000 -0.002509 0.000000
# 4 0.000000 0.000000 0.000000 0.036928 0.000000 -0.019231
# 5 0.004027 -0.000605 -0.002509 0.000000 0.040864 0.000000
# 6 0.000000 0.000000 0.000000 -0.019231 0.000000 0.043098
#
#
# Mechanical properties :
#
#
# Convention : Reuss Voigt Hill
#
# Bulk Modulus (GPa) = 51.39738 52.96813 52.18276
# Shear Modulus (GPa) = 26.96275 31.39855 29.18065
#
# Velocity S-wave (km/s) = 3.64613 3.93464 3.79313
# Velocity P-wave (km/s) = 6.56261 6.83802 6.70173
#
# Compressibility (1/GPa) = 0.01945624
#
# Stress axis : x y z
#
# Youngs Moduli (GPa) = 72.82657 94.28823 69.32922
#
# Poissons Ratio (x) = 0.38331 0.33282
# Poissons Ratio (y) = 0.29606 0.05452
# Poissons Ratio (z) = 0.34961 0.07415
#
# Static dielectric constant tensor:
#      x y z
#    x 4.136670 0.000000 0.354100 
#    y 0.000000 4.354170 0.000000 
#    z 0.354100 0.000000 3.617030 
# 
# 
# High freq. dielectric constant tensor:
#      x y z
#    x 1.769270 0.000000 0.019970 
#    y 0.000000 1.818580 0.000000 
#    z 0.019970 0.000000 1.768700 
# 
# From -- ./inp_files/66352.got.cif
#   From: 2010.03.12/outbox.cif.g09.slc.cpg/sg14_34_cif.got.tgz:66352.got - 2010.03.31 13:35:05.
