data_PCOD8124021
_publ_section_title
;
Structure prediction by ZEFSAII (Michael W. Deem and Ramdas Pophale) SiO2 
 PCOD8124021
Probable space group: P 21/C
;
_chemical_formula_sum "Si O2"
_cell_formula_units_Z 32
_cell_length_a 8.875043
_cell_length_b 23.430978
_cell_length_c 15.215980
_cell_angle_alpha 90.000000
_cell_angle_beta 30.992174
_cell_angle_gamma 90.000000
_cell_volume 1629.301309
_symmetry_space_group_name_H-M "P 21/C"
_symmetry_group_IT_number 14
_symmetry_cell_setting 'monoclinic'
loop_
_space_group_symop_operation_xyz
x,y,z
-x,1/2+y,1/2-z
-x,-y,-z
x,1/2-y,1/2+z
loop_
_atom_site_type_symbol
_atom_site_label
_atom_site_fract_x
_atom_site_fract_y
_atom_site_fract_z
Si Si1 0.162987 0.372691 0.012530
Si Si2 0.162896 0.392155 0.818066
Si Si3 0.162912 0.892155 0.019031
Si Si4 0.836996 0.127309 0.175524
Si Si5 0.842543 0.498393 0.729301
Si Si6 0.847430 0.690833 0.332208
Si Si7 0.152603 0.809166 0.179622
Si Si8 0.157457 0.001607 0.571844
O O1 0.070344 0.438072 0.073933
O O2 0.956781 0.331235 0.171369
O O3 0.115123 0.358566 0.933678
O O4 0.499991 0.362874 0.872509
O O5 0.499992 0.407726 0.636400
O O6 0.050612 0.353060 0.794325
O O7 0.992657 0.451570 0.907985
O O8 0.050638 0.853059 0.155051
O O9 0.992670 0.951571 0.099353
O O10 0.115137 0.858566 0.951194
O O11 0.043190 0.168766 0.128165
O O12 0.929649 0.061929 0.144281
O O13 0.959960 0.500000 0.770020
O O14 0.500000 0.509745 0.896687
O O15 0.500017 0.698936 0.508253
O O16 0.000022 0.749999 0.232923
#
# Coordination Sequence:
#
# PCOD8124021 Si02
#       8
#     4   4   4   4   4   4   4   4
#     4  10  21  39  60  86 120 153 190 235 284 342
#     4  10  22  38  59  87 118 152 191 236 285 341
#     4  10  22  38  59  87 118 152 191 236 285 341
#     4  10  21  39  60  86 120 153 190 235 284 342
#     4  10  19  33  58  89 120 155 189 231 287 341
#     4  11  24  41  60  83 111 149 194 240 289 338
#     4  11  24  41  60  83 111 149 194 240 289 338
#     4  10  19  33  58  89 120 155 189 231 287 341
#
# _framework density 19.640319999999999
#
# number of rings (size 3 to 8) (size 9 to 14) (size 15 to 20)
#    0.000    1.750    2.500    1.500    0.000    4.500 
#    0.000    2.500    0.000    0.000    0.000    0.000 
#    0.000    0.000    0.000    0.000    0.000    0.000 
#
# Total GULP energy -396947.737352 kJ/mol
# GULP energy per Si atom -12404.616792 kJ/mol
# Density = 1.959562 g / cm^3
# Si number density = 19.640320 Si / 1000 Ang^3
#
#
#
# Elastic Constant Matrix: (Units=GPa)
#
#
# Indices 1 2 3 4 5 6 
#
# 1 78.9357 22.1393 18.5526 0.0000 5.9244 0.0000
# 2 22.1393 83.0407 30.6339 0.0000 -8.6117 0.0000
# 3 18.5526 30.6339 65.7553 0.0000 7.4357 0.0000
# 4 0.0000 0.0000 0.0000 31.4892 0.0000 -9.1406
# 5 5.9244 -8.6117 7.4357 0.0000 25.7393 0.0000
# 6 0.0000 0.0000 0.0000 -9.1406 0.0000 22.4712
#
#
#
# Elastic Compliance Matrix: (Units=1/GPa)
#
#
# Indices 1 2 3 4 5 6 
#
# 1 0.014416 -0.003518 -0.001985 0.000000 -0.003922 0.000000
# 2 -0.003518 0.016754 -0.007793 0.000000 0.008666 0.000000
# 3 -0.001985 -0.007793 0.020305 0.000000 -0.008016 0.000000
# 4 0.000000 0.000000 0.000000 0.036009 0.000000 0.014647
# 5 -0.003922 0.008666 -0.008016 0.000000 0.044969 0.000000
# 6 0.000000 0.000000 0.000000 0.014647 0.000000 0.050460
#
#
# Mechanical properties :
#
#
# Convention : Reuss Voigt Hill
#
# Bulk Modulus (GPa) = 40.18721 41.15369 40.67045
# Shear Modulus (GPa) = 22.95715 26.36699 24.66207
#
# Velocity S-wave (km/s) = 3.42260 3.66798 3.54741
# Velocity P-wave (km/s) = 6.01040 6.24003 6.12629
#
# Compressibility (1/GPa) = 0.02488354
#
# Stress axis : x y z
#
# Youngs Moduli (GPa) = 69.36695 59.68880 49.24941
#
# Poissons Ratio (x) = 0.20997 0.09777
# Poissons Ratio (y) = 0.24402 0.38378
# Poissons Ratio (z) = 0.13770 0.46513
#
# Static dielectric constant tensor:
#      x y z
#    x 3.642650 0.000000 0.124890 
#    y 0.000000 3.471720 0.000000 
#    z 0.124890 0.000000 3.519410 
# 
# 
# High freq. dielectric constant tensor:
#      x y z
#    x 1.772440 0.000000 0.008760 
#    y 0.000000 1.758710 0.000000 
#    z 0.008760 0.000000 1.763790 
# 
# From -- ./inp_files/17006.got.cif
#   From: 2010.03.12/outbox.cif.g09.slc.cpg/sg14_9_cif.got.tgz:17006.got - 2010.03.31 13:35:05.
