data_PCOD8124474
_publ_section_title
;
Structure prediction by ZEFSAII (Michael W. Deem and Ramdas Pophale) SiO2 
 PCOD8124474
Probable space group: P 21/C
;
_chemical_formula_sum "Si O2"
_cell_formula_units_Z 24
_cell_length_a 17.538105
_cell_length_b 9.112770
_cell_length_c 18.570470
_cell_angle_alpha 90.000000
_cell_angle_beta 22.791747
_cell_angle_gamma 90.000000
_cell_volume 1149.731153
_symmetry_space_group_name_H-M "P 21/C"
_symmetry_group_IT_number 14
_symmetry_cell_setting 'monoclinic'
loop_
_space_group_symop_operation_xyz
x,y,z
-x,1/2+y,1/2-z
-x,-y,-z
x,1/2-y,1/2+z
loop_
_atom_site_type_symbol
_atom_site_label
_atom_site_fract_x
_atom_site_fract_y
_atom_site_fract_z
Si Si1 0.648721 0.306238 0.320524
Si Si2 0.038568 0.247134 0.061284
Si Si3 0.996486 0.446783 0.842625
Si Si4 0.254757 0.437267 0.478448
Si Si5 0.367681 0.747976 0.829079
Si Si6 0.733812 0.860518 0.766002
O O1 0.642360 0.232043 0.248177
O O2 0.445591 0.277345 0.539389
O O3 0.673458 0.480563 0.287866
O O4 0.820162 0.233723 0.218951
O O5 0.055163 0.383437 0.101426
O O6 0.090127 0.101308 0.061679
O O7 0.198203 0.260390 0.858975
O O8 0.160512 0.433143 0.639052
O O9 0.081314 0.379130 0.842292
O O10 0.801810 0.357450 0.991967
O O11 0.424329 0.315846 0.327321
O O12 0.345726 0.595614 0.385454
#
# Coordination Sequence:
#
# PCOD8124474 Si02
#       6
#     4   4   4   4   4   4
#     4  10  20  38  69  91 125 171 216 263 315 380
#     4  11  22  41  65  99 123 168 221 266 316 383
#     4  11  21  43  68  95 127 172 218 263 318 384
#     4  12  28  40  65  96 136 170 214 269 331 387
#     4  12  24  44  64  95 133 173 212 271 326 383
#     4  10  19  37  70  96 121 167 224 257 309 391
#
# _framework density 20.874445999999999
#
# number of rings (size 3 to 8) (size 9 to 14) (size 15 to 20)
#    0.000    1.000    5.000    3.000    0.000    2.000 
#    0.000    0.833    0.000    0.000    0.000    0.000 
#    0.000    0.000    0.000    0.000    0.000    0.000 
#
# Total GULP energy -297771.059102 kJ/mol
# GULP energy per Si atom -12407.127463 kJ/mol
# Density = 2.082693 g / cm^3
# Si number density = 20.874446 Si / 1000 Ang^3
#
#
#
# Elastic Constant Matrix: (Units=GPa)
#
#
# Indices 1 2 3 4 5 6 
#
# 1 63.0619 22.8447 10.0928 0.0000 1.4670 0.0000
# 2 22.8447 43.4659 26.4404 0.0000 2.0372 0.0000
# 3 10.0928 26.4404 108.9307 0.0000 2.0282 0.0000
# 4 0.0000 0.0000 0.0000 18.9413 0.0000 -8.7777
# 5 1.4670 2.0372 2.0282 0.0000 37.1851 0.0000
# 6 0.0000 0.0000 0.0000 -8.7777 0.0000 31.4044
#
#
#
# Elastic Compliance Matrix: (Units=1/GPa)
#
#
# Indices 1 2 3 4 5 6 
#
# 1 0.019648 -0.010807 0.000807 0.000000 -0.000227 0.000000
# 2 -0.010807 0.032983 -0.006986 0.000000 -0.001000 0.000000
# 3 0.000807 -0.006986 0.010805 0.000000 -0.000238 0.000000
# 4 0.000000 0.000000 0.000000 0.060651 0.000000 0.016952
# 5 -0.000227 -0.001000 -0.000238 0.000000 0.026969 0.000000
# 6 0.000000 0.000000 0.000000 0.016952 0.000000 0.036581
#
#
# Mechanical properties :
#
#
# Convention : Reuss Voigt Hill
#
# Bulk Modulus (GPa) = 33.93880 37.13493 35.53687
# Shear Modulus (GPa) = 21.60469 27.91152 24.75811
#
# Velocity S-wave (km/s) = 3.22060 3.66062 3.44764
# Velocity P-wave (km/s) = 5.48849 5.97454 5.73667
#
# Compressibility (1/GPa) = 0.02946480
#
# Stress axis : x y z
#
# Youngs Moduli (GPa) = 50.89453 30.31882 92.54550
#
# Poissons Ratio (x) = 0.32765 -0.07467
# Poissons Ratio (y) = 0.55002 0.64651
# Poissons Ratio (z) = -0.04107 0.21180
#
# Static dielectric constant tensor:
#      x y z
#    x 3.695010 0.000000 -0.009090 
#    y 0.000000 3.417870 0.000000 
#    z -0.009090 0.000000 3.968120 
# 
# 
# High freq. dielectric constant tensor:
#      x y z
#    x 1.821870 0.000000 0.001500 
#    y 0.000000 1.784460 0.000000 
#    z 0.001500 0.000000 1.839980 
# 
# From -- ./inp_files/69743.got.cif
#   From: 2010.03.12/outbox.cif.g09.slc.cpg/sg14_35_cif.got.tgz:69743.got - 2010.03.31 13:35:05.
