data_PCOD8124642
_publ_section_title
;
Structure prediction by ZEFSAII (Michael W. Deem and Ramdas Pophale) SiO2 
 PCOD8124642
Probable space group: P 21/C
;
_chemical_formula_sum "Si O2"
_cell_formula_units_Z 32
_cell_length_a 8.839833
_cell_length_b 10.420801
_cell_length_c 23.114823
_cell_angle_alpha 90.000000
_cell_angle_beta 45.451740
_cell_angle_gamma 90.000000
_cell_volume 1517.462652
_symmetry_space_group_name_H-M "P 21/C"
_symmetry_group_IT_number 14
_symmetry_cell_setting 'monoclinic'
loop_
_space_group_symop_operation_xyz
x,y,z
-x,1/2+y,1/2-z
-x,-y,-z
x,1/2-y,1/2+z
loop_
_atom_site_type_symbol
_atom_site_label
_atom_site_fract_x
_atom_site_fract_y
_atom_site_fract_z
Si Si1 0.383530 0.083125 0.368118
Si Si2 0.156752 0.653469 0.887910
Si Si3 0.816503 0.603272 0.378462
Si Si4 0.761544 0.705247 0.516932
Si Si5 0.183813 0.059611 0.752079
Si Si6 0.445700 0.518854 0.647651
Si Si7 0.587907 0.707968 0.255961
Si Si8 0.038861 0.646835 0.794547
O O1 0.362964 0.163139 0.433089
O O2 0.320049 0.175345 0.331778
O O3 0.218858 0.963029 0.413852
O O4 0.621143 0.036377 0.293618
O O5 0.365979 0.720821 0.807923
O O6 0.029923 0.604514 0.864584
O O7 0.010716 0.759583 0.960221
O O8 0.717615 0.664633 0.462675
O O9 0.617423 0.559674 0.393129
O O10 0.983294 0.487048 0.344913
O O11 0.961516 0.707728 0.306513
O O12 0.675963 0.586476 0.578525
O O13 0.242681 0.202732 0.756900
O O14 0.117209 0.058596 0.702167
O O15 0.453200 0.424322 0.699631
O O16 0.276261 0.631561 0.705542
#
# Coordination Sequence:
#
# PCOD8124642 Si02
#       8
#     4   4   4   4   4   4   4   4
#     4  11  22  40  62  90 126 163 206 255 306 363
#     4  10  22  39  61  87 129 160 204 253 307 369
#     4  10  21  40  62  91 126 156 207 255 305 365
#     4  11  23  39  61  88 130 169 192 248 320 369
#     4  10  22  39  68  91 118 162 213 259 295 362
#     4  11  21  37  64  90 123 159 209 257 300 363
#     4  11  22  40  63  94 119 162 212 257 302 356
#     4  10  19  40  65  92 114 164 210 259 296 352
#
# _framework density 21.087833
#
# number of rings (size 3 to 8) (size 9 to 14) (size 15 to 20)
#    0.000    1.500    2.500    3.750    1.750    0.500 
#    2.250    2.500    2.750    0.000    0.000    0.000 
#    0.000    0.000    0.000    0.000    0.000    0.000 
#
# Total GULP energy -396654.998086 kJ/mol
# GULP energy per Si atom -12395.468690 kJ/mol
# Density = 2.103984 g / cm^3
# Si number density = 21.087833 Si / 1000 Ang^3
#
#
#
# Elastic Constant Matrix: (Units=GPa)
#
#
# Indices 1 2 3 4 5 6 
#
# 1 87.1954 36.3009 34.9664 0.0000 4.9769 0.0000
# 2 36.3009 105.3538 49.9151 0.0000 6.4708 0.0000
# 3 34.9664 49.9151 93.7499 0.0000 7.4498 0.0000
# 4 0.0000 0.0000 0.0000 26.0285 0.0000 4.8351
# 5 4.9769 6.4708 7.4498 0.0000 16.6907 0.0000
# 6 0.0000 0.0000 0.0000 4.8351 0.0000 31.0435
#
#
#
# Elastic Compliance Matrix: (Units=1/GPa)
#
#
# Indices 1 2 3 4 5 6 
#
# 1 0.014282 -0.003160 -0.003529 0.000000 -0.001459 0.000000
# 2 -0.003160 0.013456 -0.005854 0.000000 -0.001662 0.000000
# 3 -0.003529 -0.005854 0.015381 0.000000 -0.003544 0.000000
# 4 0.000000 0.000000 0.000000 0.039564 0.000000 -0.006162
# 5 -0.001459 -0.001662 -0.003544 0.000000 0.062574 0.000000
# 6 0.000000 0.000000 0.000000 -0.006162 0.000000 0.033173
#
#
# Mechanical properties :
#
#
# Convention : Reuss Voigt Hill
#
# Bulk Modulus (GPa) = 55.44778 58.74042 57.09410
# Shear Modulus (GPa) = 23.86329 25.76032 24.81181
#
# Velocity S-wave (km/s) = 3.36760 3.49889 3.43387
# Velocity P-wave (km/s) = 6.43986 6.65121 6.54639
#
# Compressibility (1/GPa) = 0.01803499
#
# Stress axis : x y z
#
# Youngs Moduli (GPa) = 70.01701 74.31598 65.01462
#
# Poissons Ratio (x) = 0.23481 0.22942
# Poissons Ratio (y) = 0.22123 0.38059
# Poissons Ratio (z) = 0.24707 0.43503
#
# Static dielectric constant tensor:
#      x y z
#    x 3.801970 0.000000 -0.051490 
#    y 0.000000 3.975020 0.000000 
#    z -0.051490 0.000000 3.709730 
# 
# 
# High freq. dielectric constant tensor:
#      x y z
#    x 1.818070 0.000000 -0.000850 
#    y 0.000000 1.832390 0.000000 
#    z -0.000850 0.000000 1.812780 
# 
# From -- ./inp_files/65581.got.cif
#   From: 2010.03.12/outbox.cif.g09.slc.cpg/sg14_33_cif.got.tgz:65581.got - 2010.03.31 13:35:05.
