data_PCOD8124648
_publ_section_title
;
Structure prediction by ZEFSAII (Michael W. Deem and Ramdas Pophale) SiO2 
 PCOD8124648
Probable space group: P 21/C
;
_chemical_formula_sum "Si O2"
_cell_formula_units_Z 32
_cell_length_a 25.293882
_cell_length_b 8.864156
_cell_length_c 14.807482
_cell_angle_alpha 90.000000
_cell_angle_beta 26.473812
_cell_angle_gamma 90.000000
_cell_volume 1480.004953
_symmetry_space_group_name_H-M "P 21/C"
_symmetry_group_IT_number 14
_symmetry_cell_setting 'monoclinic'
loop_
_space_group_symop_operation_xyz
x,y,z
-x,1/2+y,1/2-z
-x,-y,-z
x,1/2-y,1/2+z
loop_
_atom_site_type_symbol
_atom_site_label
_atom_site_fract_x
_atom_site_fract_y
_atom_site_fract_z
Si Si1 0.710681 0.779370 0.989416
Si Si2 0.287159 0.548141 0.644012
Si Si3 0.431469 0.002780 0.697343
Si Si4 0.544419 0.978332 0.715342
Si Si5 0.947042 0.123857 0.419775
Si Si6 0.291117 0.736505 0.978258
Si Si7 0.952919 0.831358 0.084496
Si Si8 0.959622 0.296960 0.219233
O O1 0.824133 0.670376 0.830386
O O2 0.752774 0.905725 0.854303
O O3 0.668738 0.864243 0.146141
O O4 0.598700 0.688105 0.121907
O O5 0.425555 0.526096 0.460575
O O6 0.281064 0.698724 0.593883
O O7 0.191754 0.568623 0.871229
O O8 0.512544 0.031537 0.662417
O O9 0.500000 0.000000 0.500000
O O10 0.371432 0.840432 0.792050
O O11 0.644116 0.076120 0.612954
O O12 0.982820 0.228786 0.281919
O O13 0.960824 0.224542 0.488709
O O14 0.035142 0.979358 0.285004
O O15 0.162979 0.726542 0.129092
O O16 0.940823 0.761117 0.002697
O O17 0.000000 0.000000 0.000000
#
# Coordination Sequence:
#
# PCOD8124648 Si02
#       8
#     4   4   4   4   4   4   4   4
#     4  10  21  40  65  93 130 177 224 274 350 407
#     4  10  19  40  67  91 128 183 214 276 340 406
#     4  10  21  40  63  96 131 169 227 278 344 417
#     4  10  21  40  66  96 129 177 226 273 349 414
#     4  12  25  45  70 100 139 184 234 288 353 413
#     4  10  21  41  65  93 133 177 223 276 346 407
#     4  12  24  45  67  98 137 184 235 289 349 419
#     4  12  25  44  67 100 135 182 235 287 350 415
#
# _framework density 21.621549000000002
#
# number of rings (size 3 to 8) (size 9 to 14) (size 15 to 20)
#    0.000    1.500    2.500    6.375    0.000    2.000 
#    4.500    5.000    0.000    0.000    0.000    0.000 
#    0.000    0.000    0.000    0.000    0.000    0.000 
#
# Total GULP energy -396562.974203 kJ/mol
# GULP energy per Si atom -12392.592944 kJ/mol
# Density = 2.157234 g / cm^3
# Si number density = 21.621549 Si / 1000 Ang^3
#
#
#
# Elastic Constant Matrix: (Units=GPa)
#
#
# Indices 1 2 3 4 5 6 
#
# 1 49.3475 35.9171 45.7442 0.0000 8.8590 0.0000
# 2 35.9171 118.5721 51.3799 0.0000 8.8660 0.0000
# 3 45.7442 51.3799 149.3105 0.0000 5.5792 0.0000
# 4 0.0000 0.0000 0.0000 37.4527 0.0000 -6.8331
# 5 8.8590 8.8660 5.5792 0.0000 41.5629 0.0000
# 6 0.0000 0.0000 0.0000 -6.8331 0.0000 27.5790
#
#
#
# Elastic Compliance Matrix: (Units=1/GPa)
#
#
# Indices 1 2 3 4 5 6 
#
# 1 0.032802 -0.006241 -0.007729 0.000000 -0.004623 0.000000
# 2 -0.006241 0.011215 -0.001917 0.000000 -0.000805 0.000000
# 3 -0.007729 -0.001917 0.009697 0.000000 0.000755 0.000000
# 4 0.000000 0.000000 0.000000 0.027964 0.000000 0.006929
# 5 -0.004623 -0.000805 0.000755 0.000000 0.025116 0.000000
# 6 0.000000 0.000000 0.000000 0.006929 0.000000 0.037976
#
#
# Mechanical properties :
#
#
# Convention : Reuss Voigt Hill
#
# Bulk Modulus (GPa) = 45.58102 64.81249 55.19676
# Shear Modulus (GPa) = 27.19499 33.59818 30.39658
#
# Velocity S-wave (km/s) = 3.55036 3.94626 3.75353
# Velocity P-wave (km/s) = 6.15904 7.12775 6.66103
#
# Compressibility (1/GPa) = 0.02193895
#
# Stress axis : x y z
#
# Youngs Moduli (GPa) = 30.48633 89.16515 103.12608
#
# Poissons Ratio (x) = 0.55650 0.79706
# Poissons Ratio (y) = 0.19027 0.19770
# Poissons Ratio (z) = 0.23563 0.17094
#
# Static dielectric constant tensor:
#      x y z
#    x 3.480330 0.000000 -0.092540 
#    y 0.000000 3.986150 0.000000 
#    z -0.092540 0.000000 4.130840 
# 
# 
# High freq. dielectric constant tensor:
#      x y z
#    x 1.803500 0.000000 -0.010680 
#    y 0.000000 1.864300 0.000000 
#    z -0.010680 0.000000 1.864910 
# 
# From -- ./inp_files/51259.got.cif
#   From: 2010.03.12/outbox.cif.g09.slc.cpg/sg14_26_cif.got.tgz:51259.got - 2010.03.31 13:35:05.
