data_PCOD8124686
_publ_section_title
;
Structure prediction by ZEFSAII (Michael W. Deem and Ramdas Pophale) SiO2 
 PCOD8124686
Probable space group: P 21/C
;
_chemical_formula_sum "Si O2"
_cell_formula_units_Z 32
_cell_length_a 12.009077
_cell_length_b 19.196005
_cell_length_c 9.795842
_cell_angle_alpha 90.000000
_cell_angle_beta 131.931921
_cell_angle_gamma 90.000000
_cell_volume 1679.963300
_symmetry_space_group_name_H-M "P 21/C"
_symmetry_group_IT_number 14
_symmetry_cell_setting 'monoclinic'
loop_
_space_group_symop_operation_xyz
x,y,z
-x,1/2+y,1/2-z
-x,-y,-z
x,1/2-y,1/2+z
loop_
_atom_site_type_symbol
_atom_site_label
_atom_site_fract_x
_atom_site_fract_y
_atom_site_fract_z
Si Si1 0.932591 0.806006 0.128464
Si Si2 0.535603 0.061981 0.428014
Si Si3 0.106045 0.351150 0.888027
Si Si4 0.258222 0.334727 0.285331
Si Si5 0.895798 0.466056 0.611141
Si Si6 0.303236 0.321872 0.791287
Si Si7 0.136872 0.922135 0.218531
Si Si8 0.398506 0.463193 0.526957
O O1 0.965319 0.724311 0.141452
O O2 0.895114 0.824953 0.254154
O O3 0.079086 0.843749 0.192093
O O4 0.789561 0.831311 0.923610
O O5 0.454269 0.133447 0.406287
O O6 0.712248 0.073337 0.572190
O O7 0.500000 0.000000 0.500000
O O8 0.487404 0.038110 0.239934
O O9 0.205019 0.353160 0.833189
O O10 0.971464 0.405802 0.763819
O O11 0.213751 0.368566 0.103837
O O12 0.341105 0.259717 0.342039
O O13 0.373492 0.384866 0.454890
O O14 0.834498 0.436326 0.417616
O O15 0.758926 0.496790 0.585282
O O16 0.016301 0.525784 0.683065
O O17 0.500000 0.500000 0.500000
#
# Coordination Sequence:
#
# PCOD8124686 Si02
#       8
#     4   4   4   4   4   4   4   4
#     4  10  19  42  64  93 125 162 213 262 313 373
#     4  12  24  41  64  97 124 169 219 259 310 383
#     4  10  22  35  70  96 121 166 213 260 311 389
#     4  10  22  40  64  90 128 170 205 254 319 383
#     4  11  22  42  65  93 123 167 214 259 315 376
#     4  10  20  41  68  89 124 171 220 248 305 388
#     4  11  22  38  69  93 122 163 214 266 303 373
#     4  12  27  44  61  93 138 167 208 270 328 378
#
# _framework density 19.048034999999999
#
# number of rings (size 3 to 8) (size 9 to 14) (size 15 to 20)
#    0.000    1.250    5.000    0.750    3.500    1.500 
#    2.250    1.250    0.000    0.000    0.000    0.000 
#    0.000    0.000    0.000    0.000    0.000    0.000 
#
# Total GULP energy -396909.730967 kJ/mol
# GULP energy per Si atom -12403.429093 kJ/mol
# Density = 1.900468 g / cm^3
# Si number density = 19.048035 Si / 1000 Ang^3
#
#
#
# Elastic Constant Matrix: (Units=GPa)
#
#
# Indices 1 2 3 4 5 6 
#
# 1 107.2725 54.1521 44.6774 0.0000 3.0727 0.0000
# 2 54.1521 99.9970 58.8825 0.0000 -0.2068 0.0000
# 3 44.6774 58.8825 110.4814 0.0000 -3.2182 0.0000
# 4 0.0000 0.0000 0.0000 32.8027 0.0000 -2.5723
# 5 3.0727 -0.2068 -3.2182 0.0000 30.3597 0.0000
# 6 0.0000 0.0000 0.0000 -2.5723 0.0000 27.2948
#
#
#
# Elastic Compliance Matrix: (Units=1/GPa)
#
#
# Indices 1 2 3 4 5 6 
#
# 1 0.013274 -0.005834 -0.002306 0.000000 -0.001628 0.000000
# 2 -0.005834 0.017154 -0.006784 0.000000 -0.000012 0.000000
# 3 -0.002306 -0.006784 0.013647 0.000000 0.001634 0.000000
# 4 0.000000 0.000000 0.000000 0.030712 0.000000 0.002894
# 5 -0.001628 -0.000012 0.001634 0.000000 0.033276 0.000000
# 6 0.000000 0.000000 0.000000 0.002894 0.000000 0.036910
#
#
# Mechanical properties :
#
#
# Convention : Reuss Voigt Hill
#
# Bulk Modulus (GPa) = 70.28486 70.35277 70.31881
# Shear Modulus (GPa) = 27.84535 28.76069 28.30302
#
# Velocity S-wave (km/s) = 3.82756 3.88996 3.85889
# Velocity P-wave (km/s) = 7.51748 7.56243 7.53999
#
# Compressibility (1/GPa) = 0.01422782
#
# Stress axis : x y z
#
# Youngs Moduli (GPa) = 75.33456 58.29524 73.27687
#
# Poissons Ratio (x) = 0.34009 0.16898
# Poissons Ratio (y) = 0.43949 0.49709
# Poissons Ratio (z) = 0.17373 0.39546
#
# Static dielectric constant tensor:
#      x y z
#    x 3.496790 0.000000 0.038230 
#    y 0.000000 3.723990 0.000000 
#    z 0.038230 0.000000 4.547670 
# 
# 
# High freq. dielectric constant tensor:
#      x y z
#    x 1.728840 0.000000 -0.017680 
#    y 0.000000 1.752950 0.000000 
#    z -0.017680 0.000000 1.743090 
# 
# From -- ./inp_files/14332.got.cif
#   From: 2010.03.12/outbox.cif.g09.slc.cpg/sg14_8_cif.got.tgz:14332.got - 2010.03.31 13:35:05.
