data_PCOD8124778
_publ_section_title
;
Structure prediction by ZEFSAII (Michael W. Deem and Ramdas Pophale) SiO2 
 PCOD8124778
Probable space group: P 21/C
;
_chemical_formula_sum "Si O2"
_cell_formula_units_Z 32
_cell_length_a 10.811766
_cell_length_b 16.484541
_cell_length_c 12.131024
_cell_angle_alpha 90.000000
_cell_angle_beta 122.588540
_cell_angle_gamma 90.000000
_cell_volume 1821.679073
_symmetry_space_group_name_H-M "P 21/C"
_symmetry_group_IT_number 14
_symmetry_cell_setting 'monoclinic'
loop_
_space_group_symop_operation_xyz
x,y,z
-x,1/2+y,1/2-z
-x,-y,-z
x,1/2-y,1/2+z
loop_
_atom_site_type_symbol
_atom_site_label
_atom_site_fract_x
_atom_site_fract_y
_atom_site_fract_z
Si Si1 0.909211 0.918204 0.581895
Si Si2 0.854964 0.337449 0.197571
Si Si3 0.672787 0.003439 0.075109
Si Si4 0.222030 0.032642 0.115239
Si Si5 0.044349 0.623604 0.529283
Si Si6 0.668841 0.499098 0.107617
Si Si7 0.851872 0.160007 0.160872
Si Si8 0.095231 0.080369 0.670590
O O1 0.874505 0.888664 0.440012
O O2 0.000792 0.850794 0.694215
O O3 0.757251 0.939514 0.570364
O O4 0.008752 0.997046 0.626587
O O5 0.911956 0.319782 0.348506
O O6 0.733027 0.407686 0.128248
O O7 0.783989 0.250132 0.136240
O O8 0.995913 0.354097 0.186978
O O9 0.730096 0.093207 0.135350
O O10 0.751616 0.936158 0.190833
O O11 0.500000 0.000000 0.000000
O O12 0.700892 0.985270 0.961684
O O13 0.132370 0.117052 0.064741
O O14 0.334254 0.035255 0.270227
O O15 0.105755 0.964067 0.094770
O O16 0.111914 0.653188 0.449413
O O17 0.500000 0.500000 0.000000
#
# Coordination Sequence:
#
# PCOD8124778 Si02
#       8
#     4   4   4   4   4   4   4   4
#     4   9  18  33  52  75 102 134 173 212 254 307
#     4  10  20  34  54  77 104 136 175 222 266 306
#     4  10  20  34  54  79 106 140 176 212 258 318
#     4   9  16  32  55  75  96 135 180 219 246 298
#     4   9  16  32  55  75  98 127 182 223 249 297
#     4  10  20  34  54  79 106 140 176 212 258 318
#     4  10  20  34  54  77 104 136 175 222 266 306
#     4   9  18  33  52  75 102 134 173 212 254 307
#
# _framework density 17.566210999999999
#
# number of rings (size 3 to 8) (size 9 to 14) (size 15 to 20)
#    0.000    2.500    2.500    0.000    3.500    0.000 
#    0.000    1.250    0.000    0.000    0.000    0.000 
#    0.000    0.000    0.000    0.000    0.000    0.000 
#
# Total GULP energy -396512.863112 kJ/mol
# GULP energy per Si atom -12391.026972 kJ/mol
# Density = 1.752623 g / cm^3
# Si number density = 17.566211 Si / 1000 Ang^3
#
#
#
# Elastic Constant Matrix: (Units=GPa)
#
#
# Indices 1 2 3 4 5 6 
#
# 1 82.0316 27.6691 58.1926 0.0000 11.6569 0.0000
# 2 27.6691 68.2713 24.7499 0.0000 5.1228 0.0000
# 3 58.1926 24.7499 132.4931 0.0000 -3.1297 0.0000
# 4 0.0000 0.0000 0.0000 15.1869 0.0000 1.7116
# 5 11.6569 5.1228 -3.1297 0.0000 37.3305 0.0000
# 6 0.0000 0.0000 0.0000 1.7116 0.0000 10.8430
#
#
#
# Elastic Compliance Matrix: (Units=1/GPa)
#
#
# Indices 1 2 3 4 5 6 
#
# 1 0.020651 -0.004870 -0.008313 0.000000 -0.006477 0.000000
# 2 -0.004870 0.017079 -0.001073 0.000000 -0.000913 0.000000
# 3 -0.008313 -0.001073 0.011487 0.000000 0.003706 0.000000
# 4 0.000000 0.000000 0.000000 0.067039 0.000000 -0.010582
# 5 -0.006477 -0.000913 0.003706 0.000000 0.029246 0.000000
# 6 0.000000 0.000000 0.000000 -0.010582 0.000000 0.093895
#
#
# Mechanical properties :
#
#
# Convention : Reuss Voigt Hill
#
# Bulk Modulus (GPa) = 48.29969 56.00215 52.15092
# Shear Modulus (GPa) = 18.19433 24.15103 21.17268
#
# Velocity S-wave (km/s) = 3.22181 3.71193 3.47552
# Velocity P-wave (km/s) = 6.43394 7.09373 6.77188
#
# Compressibility (1/GPa) = 0.02070407
#
# Stress axis : x y z
#
# Youngs Moduli (GPa) = 48.42411 58.55308 87.05537
#
# Poissons Ratio (x) = 0.28513 0.72373
# Poissons Ratio (y) = 0.23580 0.09342
# Poissons Ratio (z) = 0.40257 0.06283
#
# Static dielectric constant tensor:
#      x y z
#    x 3.260630 0.000000 -0.343010 
#    y 0.000000 3.007180 0.000000 
#    z -0.343010 0.000000 3.629700 
# 
# 
# High freq. dielectric constant tensor:
#      x y z
#    x 1.663250 0.000000 -0.020860 
#    y 0.000000 1.649840 0.000000 
#    z -0.020860 0.000000 1.691920 
# 
# From -- ./inp_files/30314.got.cif
#   From: 2010.03.12/outbox.cif.g09.slc.cpg/sg14_16_cif.got.tgz:30314.got - 2010.03.31 13:35:05.
