data_PCOD8124845
_publ_section_title
;
Structure prediction by ZEFSAII (Michael W. Deem and Ramdas Pophale) SiO2 
 PCOD8124845
Probable space group: P 21/C
;
_chemical_formula_sum "Si O2"
_cell_formula_units_Z 28
_cell_length_a 13.081512
_cell_length_b 5.036437
_cell_length_c 22.022646
_cell_angle_alpha 90.000000
_cell_angle_beta 69.301840
_cell_angle_gamma 90.000000
_cell_volume 1357.293988
_symmetry_space_group_name_H-M "P 21/C"
_symmetry_group_IT_number 14
_symmetry_cell_setting 'monoclinic'
loop_
_space_group_symop_operation_xyz
x,y,z
-x,1/2+y,1/2-z
-x,-y,-z
x,1/2-y,1/2+z
loop_
_atom_site_type_symbol
_atom_site_label
_atom_site_fract_x
_atom_site_fract_y
_atom_site_fract_z
Si Si1 0.403536 0.109826 0.576691
Si Si2 0.789028 0.223580 0.882822
Si Si3 0.291698 0.090473 0.003378
Si Si4 0.363259 0.922437 0.428468
Si Si5 0.429245 0.027174 0.278291
Si Si6 0.273185 0.337954 0.708309
Si Si7 0.931572 0.540460 0.775576
O O1 0.384669 0.358891 0.535597
O O2 0.372285 0.193982 0.652102
O O3 0.321626 0.874944 0.572998
O O4 0.529533 0.016795 0.551908
O O5 0.811817 0.019905 0.934584
O O6 0.888489 0.431021 0.850527
O O7 0.774932 0.077058 0.821588
O O8 0.326472 0.878454 0.945499
O O9 0.271572 0.364221 0.970236
O O10 0.389527 0.953664 0.353081
O O11 0.496617 0.299148 0.266636
O O12 0.319386 0.056050 0.261771
O O13 0.174143 0.130651 0.741605
O O14 0.993829 0.300868 0.727925
#
# Coordination Sequence:
#
# PCOD8124845 Si02
#       7
#     4   4   4   4   4   4   4
#     4  10  20  35  55  80 121 156 199 250 299 344
#     4  10  21  38  59  87 122 148 188 256 320 352
#     4  11  23  35  53  83 117 159 203 253 290 346
#     4  12  23  35  54  82 116 168 213 232 280 356
#     4  12  25  41  58  83 126 174 214 240 282 353
#     4  10  22  38  61  88 125 159 198 251 308 356
#     4  11  22  39  63  94 120 146 194 255 328 383
#
# _framework density 20.629283999999998
#
# number of rings (size 3 to 8) (size 9 to 14) (size 15 to 20)
#    0.000    1.143    4.286    2.571    6.000    0.000 
#    0.000    0.000    0.000    0.000    0.000    6.000 
#    0.000    0.000    0.000    0.000    0.000    0.000 
#
# Total GULP energy -347002.320748 kJ/mol
# GULP energy per Si atom -12392.940027 kJ/mol
# Density = 2.058233 g / cm^3
# Si number density = 20.629284 Si / 1000 Ang^3
#
#
#
# Elastic Constant Matrix: (Units=GPa)
#
#
# Indices 1 2 3 4 5 6 
#
# 1 51.0776 34.4191 29.2148 0.0000 -13.1093 0.0000
# 2 34.4191 130.1462 41.7820 0.0000 -10.3803 0.0000
# 3 29.2148 41.7820 85.2229 0.0000 6.7358 0.0000
# 4 0.0000 0.0000 0.0000 41.3846 0.0000 -11.6733
# 5 -13.1093 -10.3803 6.7358 0.0000 26.0021 0.0000
# 6 0.0000 0.0000 0.0000 -11.6733 0.0000 23.9992
#
#
#
# Elastic Compliance Matrix: (Units=1/GPa)
#
#
# Indices 1 2 3 4 5 6 
#
# 1 0.032933 -0.003802 -0.010839 0.000000 0.017893 0.000000
# 2 -0.003802 0.010213 -0.003955 0.000000 0.003185 0.000000
# 3 -0.010839 -0.003955 0.018321 0.000000 -0.011790 0.000000
# 4 0.000000 0.000000 0.000000 0.028006 0.000000 0.013622
# 5 0.017893 0.003185 -0.011790 0.000000 0.051805 0.000000
# 6 0.000000 0.000000 0.000000 0.013622 0.000000 0.048294
#
#
# Mechanical properties :
#
#
# Convention : Reuss Voigt Hill
#
# Bulk Modulus (GPa) = 41.19985 53.03093 47.11539
# Shear Modulus (GPa) = 21.28954 29.01256 25.15105
#
# Velocity S-wave (km/s) = 3.21597 3.75424 3.49548
# Velocity P-wave (km/s) = 5.81419 6.67494 6.25938
#
# Compressibility (1/GPa) = 0.02427193
#
# Stress axis : x y z
#
# Youngs Moduli (GPa) = 30.36497 97.91311 54.58276
#
# Poissons Ratio (x) = 0.37231 0.59165
# Poissons Ratio (y) = 0.11546 0.21590
# Poissons Ratio (z) = 0.32914 0.38728
#
# Static dielectric constant tensor:
#      x y z
#    x 3.306990 0.000000 -0.274690 
#    y 0.000000 4.143540 0.000000 
#    z -0.274690 0.000000 3.820390 
# 
# 
# High freq. dielectric constant tensor:
#      x y z
#    x 1.732520 0.000000 -0.024390 
#    y 0.000000 1.840000 0.000000 
#    z -0.024390 0.000000 1.813830 
# 
# From -- ./inp_files/67702.got.cif
#   From: 2010.03.12/outbox.cif.g09.slc.cpg/sg14_34_cif.got.tgz:67702.got - 2010.03.31 13:35:05.
