data_PCOD8124698
_publ_section_title
;
Structure prediction by ZEFSAII (Michael W. Deem and Ramdas Pophale) SiO2 
 PCOD8124698
Probable space group: P 21/C
;
_chemical_formula_sum "Si O2"
_cell_formula_units_Z 24
_cell_length_a 21.576791
_cell_length_b 11.706083
_cell_length_c 14.346036
_cell_angle_alpha 90.000000
_cell_angle_beta 161.239272
_cell_angle_gamma 90.000000
_cell_volume 1165.383984
_symmetry_space_group_name_H-M "P 21/C"
_symmetry_group_IT_number 14
_symmetry_cell_setting 'monoclinic'
loop_
_space_group_symop_operation_xyz
x,y,z
-x,1/2+y,1/2-z
-x,-y,-z
x,1/2-y,1/2+z
loop_
_atom_site_type_symbol
_atom_site_label
_atom_site_fract_x
_atom_site_fract_y
_atom_site_fract_z
Si Si1 0.951868 0.336526 0.509858
Si Si2 0.599911 0.085285 0.882265
Si Si3 0.250558 0.147143 0.914173
Si Si4 0.776780 0.030397 0.597331
Si Si5 0.533134 0.211140 0.160531
Si Si6 0.556487 0.252873 0.985482
O O1 0.910295 0.384854 0.347485
O O2 0.048778 0.211266 0.640778
O O3 0.095847 0.427127 0.765155
O O4 0.752287 0.325534 0.281548
O O5 0.628622 0.173631 0.838300
O O6 0.612163 0.144891 0.000754
O O7 0.391307 0.023539 0.577337
O O8 0.770402 0.990642 0.117714
O O9 0.339956 0.188806 0.943797
O O10 0.394548 0.173755 0.204201
O O11 0.682686 0.105681 0.381582
O O12 0.475144 0.219266 0.970338
#
# Coordination Sequence:
#
# PCOD8124698 Si02
#       6
#     4   4   4   4   4   4
#     4  11  20  41  64  86 120 161 201 244 296 363
#     4  10  19  43  62  85 123 157 199 247 299 354
#     4  10  22  41  62  89 121 162 196 244 306 355
#     4  10  20  39  67  83 116 169 198 237 303 364
#     4  10  21  41  61  91 121 156 202 250 296 353
#     4  11  22  40  60  95 122 152 204 252 297 354
#
# _framework density 20.594071
#
# number of rings (size 3 to 8) (size 9 to 14) (size 15 to 20)
#    0.000    1.667    8.333    0.000    0.000    4.000 
#    6.000    0.000    0.000    0.000    0.000    0.000 
#    0.000    0.000    0.000    0.000    0.000    0.000 
#
# Total GULP energy -297501.801925 kJ/mol
# GULP energy per Si atom -12395.908414 kJ/mol
# Density = 2.054720 g / cm^3
# Si number density = 20.594071 Si / 1000 Ang^3
#
#
#
# Elastic Constant Matrix: (Units=GPa)
#
#
# Indices 1 2 3 4 5 6 
#
# 1 109.6772 17.9303 13.2265 0.0000 -24.3596 0.0000
# 2 17.9303 98.8644 5.0005 0.0000 -11.3459 0.0000
# 3 13.2265 5.0005 59.0438 0.0000 1.7514 0.0000
# 4 0.0000 0.0000 0.0000 41.7635 0.0000 0.6077
# 5 -24.3596 -11.3459 1.7514 0.0000 13.2227 0.0000
# 6 0.0000 0.0000 0.0000 0.6077 0.0000 8.9192
#
#
#
# Elastic Compliance Matrix: (Units=1/GPa)
#
#
# Indices 1 2 3 4 5 6 
#
# 1 0.016684 0.000904 -0.004767 0.000000 0.032143 0.000000
# 2 0.000904 0.011360 -0.001509 0.000000 0.011613 0.000000
# 3 -0.004767 -0.001509 0.018504 0.000000 -0.012529 0.000000
# 4 0.000000 0.000000 0.000000 0.023968 0.000000 -0.001633
# 5 0.032143 0.011613 -0.012529 0.000000 0.146468 0.000000
# 6 0.000000 0.000000 0.000000 -0.001633 0.000000 0.112229
#
#
# Mechanical properties :
#
#
# Convention : Reuss Voigt Hill
#
# Bulk Modulus (GPa) = 27.93053 37.76668 32.84861
# Shear Modulus (GPa) = 14.20891 28.20963 21.20927
#
# Velocity S-wave (km/s) = 2.62954 3.70509 3.21264
# Velocity P-wave (km/s) = 4.77611 6.05657 5.45404
#
# Compressibility (1/GPa) = 0.03580311
#
# Stress axis : x y z
#
# Youngs Moduli (GPa) = 59.93800 88.02841 54.04246
#
# Poissons Ratio (x) = -0.07959 0.25764
# Poissons Ratio (y) = -0.05419 0.08156
# Poissons Ratio (z) = 0.28575 0.13284
#
# Static dielectric constant tensor:
#      x y z
#    x 3.215090 0.000000 0.006550 
#    y 0.000000 4.207920 0.000000 
#    z 0.006550 0.000000 3.707660 
# 
# 
# High freq. dielectric constant tensor:
#      x y z
#    x 1.757110 0.000000 -0.005550 
#    y 0.000000 1.825250 0.000000 
#    z -0.005550 0.000000 1.798990 
# 
# From -- ./inp_files/50478.got.cif
#   From: 2010.03.12/outbox.cif.g09.slc.cpg/sg14_26_cif.got.tgz:50478.got - 2010.03.31 13:35:05.
