data_PCOD8124626
_publ_section_title
;
Structure prediction by ZEFSAII (Michael W. Deem and Ramdas Pophale) SiO2 
 PCOD8124626
Probable space group: P 21/C
;
_chemical_formula_sum "Si O2"
_cell_formula_units_Z 28
_cell_length_a 8.233424
_cell_length_b 22.611512
_cell_length_c 10.244986
_cell_angle_alpha 90.000000
_cell_angle_beta 42.686005
_cell_angle_gamma 90.000000
_cell_volume 1293.118803
_symmetry_space_group_name_H-M "P 21/C"
_symmetry_group_IT_number 14
_symmetry_cell_setting 'monoclinic'
loop_
_space_group_symop_operation_xyz
x,y,z
-x,1/2+y,1/2-z
-x,-y,-z
x,1/2-y,1/2+z
loop_
_atom_site_type_symbol
_atom_site_label
_atom_site_fract_x
_atom_site_fract_y
_atom_site_fract_z
Si Si1 0.616142 0.683689 0.674591
Si Si2 0.049977 0.278989 0.049759
Si Si3 0.462445 0.957679 0.821914
Si Si4 0.948925 0.377645 0.444138
Si Si5 0.903838 0.588788 0.915853
Si Si6 0.778040 0.243337 0.962553
Si Si7 0.435629 0.923838 0.128792
O O1 0.718193 0.741308 0.541470
O O2 0.466964 0.642861 0.664003
O O3 0.847921 0.645689 0.579650
O O4 0.449231 0.712493 0.886731
O O5 0.125094 0.346284 0.009266
O O6 0.841465 0.257100 0.271566
O O7 0.984867 0.266932 0.937492
O O8 0.686328 0.951239 0.593124
O O9 0.418808 0.027811 0.872070
O O10 0.224879 0.929081 0.895301
O O11 0.515686 0.926503 0.930488
O O12 0.760472 0.326334 0.510551
O O13 0.100521 0.406098 0.237216
O O14 0.155634 0.559710 0.809577
#
# Coordination Sequence:
#
# PCOD8124626 Si02
#       7
#     4   4   4   4   4   4   4
#     4  11  22  37  59  84 123 149 199 246 296 359
#     4  10  22  35  59  88 117 157 193 240 307 355
#     4  10  21  39  61  82 121 155 202 251 290 339
#     4   9  22  38  55  88 115 155 196 243 302 358
#     4  10  19  40  60  82 116 156 200 240 297 354
#     4  10  21  38  55  86 121 153 196 240 299 363
#     4  10  22  37  60  91 111 158 206 245 290 355
#
# _framework density 21.653077
#
# number of rings (size 3 to 8) (size 9 to 14) (size 15 to 20)
#    0.000    2.000    1.429    1.286    2.000    6.286 
#    0.000    0.714    0.000    0.000    0.000    0.000 
#    0.000    0.000    0.000    0.000    0.000    0.000 
#
# Total GULP energy -346886.755248 kJ/mol
# GULP energy per Si atom -12388.812687 kJ/mol
# Density = 2.160379 g / cm^3
# Si number density = 21.653077 Si / 1000 Ang^3
#
#
#
# Elastic Constant Matrix: (Units=GPa)
#
#
# Indices 1 2 3 4 5 6 
#
# 1 33.5379 -6.8024 1.9528 0.0000 -1.9782 0.0000
# 2 -6.8024 55.7402 13.0655 0.0000 2.7407 0.0000
# 3 1.9528 13.0655 67.3541 0.0000 -6.8585 0.0000
# 4 0.0000 0.0000 0.0000 32.9713 0.0000 -3.8487
# 5 -1.9782 2.7407 -6.8585 0.0000 22.2500 0.0000
# 6 0.0000 0.0000 0.0000 -3.8487 0.0000 32.1151
#
#
#
# Elastic Compliance Matrix: (Units=1/GPa)
#
#
# Indices 1 2 3 4 5 6 
#
# 1 0.030825 0.004024 -0.001493 0.000000 0.001785 0.000000
# 2 0.004024 0.019596 -0.004261 0.000000 -0.003369 0.000000
# 3 -0.001493 -0.004261 0.016267 0.000000 0.005407 0.000000
# 4 0.000000 0.000000 0.000000 0.030760 0.000000 0.003686
# 5 0.001785 -0.003369 0.005407 0.000000 0.047184 0.000000
# 6 0.000000 0.000000 0.000000 0.003686 0.000000 0.031580
#
#
# Mechanical properties :
#
#
# Convention : Reuss Voigt Hill
#
# Bulk Modulus (GPa) = 15.81545 19.22932 17.52238
# Shear Modulus (GPa) = 24.90689 27.36171 26.13430
#
# Velocity S-wave (km/s) = 3.39524 3.55863 3.47790
# Velocity P-wave (km/s) = 4.76341 5.07790 4.92317
#
# Compressibility (1/GPa) = 0.06322933
#
# Stress axis : x y z
#
# Youngs Moduli (GPa) = 32.44082 51.03108 61.47316
#
# Poissons Ratio (x) = -0.20535 0.09175
# Poissons Ratio (y) = -0.13054 0.26194
# Poissons Ratio (z) = 0.04842 0.21744
#
# Static dielectric constant tensor:
#      x y z
#    x 3.568340 0.000000 -0.091220 
#    y 0.000000 4.120890 0.000000 
#    z -0.091220 0.000000 3.843690 
# 
# 
# High freq. dielectric constant tensor:
#      x y z
#    x 1.824490 0.000000 -0.007350 
#    y 0.000000 1.858010 0.000000 
#    z -0.007350 0.000000 1.844080 
# 
# From -- ./inp_files/26741.got.cif
#   From: 2010.03.12/outbox.cif.g09.slc.cpg/sg14_14_cif.got.tgz:26741.got - 2010.03.31 13:35:05.
