data_PCOD8124033
_publ_section_title
;
Structure prediction by ZEFSAII (Michael W. Deem and Ramdas Pophale) SiO2 
 PCOD8124033
Probable space group: P 21/C
;
_chemical_formula_sum "Si O2"
_cell_formula_units_Z 32
_cell_length_a 14.108652
_cell_length_b 9.990754
_cell_length_c 22.270856
_cell_angle_alpha 90.000000
_cell_angle_beta 29.153620
_cell_angle_gamma 90.000000
_cell_volume 1529.276356
_symmetry_space_group_name_H-M "P 21/C"
_symmetry_group_IT_number 14
_symmetry_cell_setting 'monoclinic'
loop_
_space_group_symop_operation_xyz
x,y,z
-x,1/2+y,1/2-z
-x,-y,-z
x,1/2-y,1/2+z
loop_
_atom_site_type_symbol
_atom_site_label
_atom_site_fract_x
_atom_site_fract_y
_atom_site_fract_z
Si Si1 0.842485 0.676014 0.088611
Si Si2 0.953835 0.090613 0.083513
Si Si3 0.432446 0.745323 0.186517
Si Si4 0.064199 0.136438 0.333231
Si Si5 0.562841 0.285626 0.180453
Si Si6 0.830032 0.112420 0.960362
Si Si7 0.531660 0.992962 0.912497
Si Si8 0.260853 0.034530 0.465003
O O1 0.974726 0.646848 0.073084
O O2 0.647851 0.738291 0.223729
O O3 0.794329 0.547734 0.075208
O O4 0.942536 0.769457 0.983919
O O5 0.732713 0.129907 0.223005
O O6 0.000000 0.000000 0.000000
O O7 0.043865 0.016682 0.091545
O O8 0.433271 0.818324 0.250700
O O9 0.416334 0.862049 0.145468
O O10 0.635671 0.665203 0.064412
O O11 0.979140 0.274018 0.351226
O O12 0.287812 0.108746 0.195322
O O13 0.927128 0.009047 0.390852
O O14 0.721409 0.169723 0.079607
O O15 0.592466 0.409829 0.119550
O O16 0.666259 0.070106 0.003451
O O17 0.500000 0.000000 0.000000
#
# Coordination Sequence:
#
# PCOD8124033 Si02
#       8
#     4   4   4   4   4   4   4   4
#     4  11  19  30  57  90 139 173 203 256 339 408
#     4  12  20  35  62 108 143 169 210 270 344 419
#     4  11  23  38  65  97 140 181 215 276 344 401
#     4  11  22  40  67  90 126 174 221 277 336 394
#     4  10  19  33  60  97 140 171 200 270 344 414
#     4  11  23  41  66  99 135 176 221 274 345 401
#     4  12  28  51  66  89 133 185 235 281 326 396
#     4  10  21  34  58  98 130 167 215 259 332 425
#
# _framework density 20.924928999999999
#
# number of rings (size 3 to 8) (size 9 to 14) (size 15 to 20)
#    0.000    1.000    3.750    4.875    3.500    0.000 
#    4.500    0.000    0.000    3.750    0.000    0.000 
#    0.000    0.000    0.000    0.000    0.000    0.000 
#
# Total GULP energy -396519.521441 kJ/mol
# GULP energy per Si atom -12391.235045 kJ/mol
# Density = 2.087730 g / cm^3
# Si number density = 20.924929 Si / 1000 Ang^3
#
#
#
# Elastic Constant Matrix: (Units=GPa)
#
#
# Indices 1 2 3 4 5 6 
#
# 1 85.3745 49.5206 60.1797 0.0000 -7.0368 0.0000
# 2 49.5206 89.8649 44.5520 0.0000 -7.9733 0.0000
# 3 60.1797 44.5520 73.5522 0.0000 -16.3950 0.0000
# 4 0.0000 0.0000 0.0000 31.1661 0.0000 -14.9200
# 5 -7.0368 -7.9733 -16.3950 0.0000 33.1707 0.0000
# 6 0.0000 0.0000 0.0000 -14.9200 0.0000 15.5133
#
#
#
# Elastic Compliance Matrix: (Units=1/GPa)
#
#
# Indices 1 2 3 4 5 6 
#
# 1 0.031047 -0.006257 -0.023015 0.000000 -0.006293 0.000000
# 2 -0.006257 0.017197 -0.005251 0.000000 0.000211 0.000000
# 3 -0.023015 -0.005251 0.038476 0.000000 0.012873 0.000000
# 4 0.000000 0.000000 0.000000 0.059465 0.000000 0.057191
# 5 -0.006293 0.000211 0.012873 0.000000 0.035225 0.000000
# 6 0.000000 0.000000 0.000000 0.057191 0.000000 0.119465
#
#
# Mechanical properties :
#
#
# Convention : Reuss Voigt Hill
#
# Bulk Modulus (GPa) = 56.57471 61.92180 59.24825
# Shear Modulus (GPa) = 13.30454 22.27263 17.78858
#
# Velocity S-wave (km/s) = 2.52429 3.26606 2.91884
# Velocity P-wave (km/s) = 5.96588 6.62416 6.30362
#
# Compressibility (1/GPa) = 0.01767574
#
# Stress axis : x y z
#
# Youngs Moduli (GPa) = 32.20970 58.14831 25.99015
#
# Poissons Ratio (x) = 0.36382 0.59816
# Poissons Ratio (y) = 0.20153 0.13646
# Poissons Ratio (z) = 0.74130 0.30531
#
# Static dielectric constant tensor:
#      x y z
#    x 3.532830 0.000000 -0.501470 
#    y 0.000000 3.990310 0.000000 
#    z -0.501470 0.000000 3.848850 
# 
# 
# High freq. dielectric constant tensor:
#      x y z
#    x 1.783690 0.000000 -0.049480 
#    y 0.000000 1.833100 0.000000 
#    z -0.049480 0.000000 1.809540 
# 
# From -- ./inp_files/73824.got.cif
#   From: 2010.03.12/outbox.cif.g09.slc.cpg/sg14_37_cif.got.tgz:73824.got - 2010.03.31 13:35:05.
