data_PCOD8124639
_publ_section_title
;
Structure prediction by ZEFSAII (Michael W. Deem and Ramdas Pophale) SiO2 
 PCOD8124639
Probable space group: P 21/C
;
_chemical_formula_sum "Si O2"
_cell_formula_units_Z 32
_cell_length_a 14.500465
_cell_length_b 19.262542
_cell_length_c 9.588773
_cell_angle_alpha 90.000000
_cell_angle_beta 38.151635
_cell_angle_gamma 90.000000
_cell_volume 1654.503429
_symmetry_space_group_name_H-M "P 21/C"
_symmetry_group_IT_number 14
_symmetry_cell_setting 'monoclinic'
loop_
_space_group_symop_operation_xyz
x,y,z
-x,1/2+y,1/2-z
-x,-y,-z
x,1/2-y,1/2+z
loop_
_atom_site_type_symbol
_atom_site_label
_atom_site_fract_x
_atom_site_fract_y
_atom_site_fract_z
Si Si1 0.702985 0.536757 0.029870
Si Si2 0.730947 0.930118 0.009002
Si Si3 0.095733 0.439116 0.955074
Si Si4 0.133294 0.674799 0.673200
Si Si5 0.606108 0.423124 0.661533
Si Si6 0.076013 0.427801 0.450403
Si Si7 0.150187 0.692095 0.335043
Si Si8 0.414389 0.903705 0.490285
O O1 0.792726 0.526013 0.065760
O O2 0.548644 0.578100 0.240077
O O3 0.795451 0.585921 0.815275
O O4 0.669479 0.461952 0.000995
O O5 0.855851 0.929996 0.978085
O O6 0.580114 0.889106 0.232079
O O7 0.697625 0.009364 0.009482
O O8 0.805941 0.899009 0.779608
O O9 0.000000 0.500000 0.000000
O O10 0.991927 0.383276 0.155019
O O11 0.298918 0.643505 0.495109
O O12 0.120592 0.704471 0.532975
O O13 0.112490 0.736131 0.806569
O O14 0.572598 0.430004 0.866467
O O15 0.000000 0.500000 0.500000
O O16 0.957356 0.366998 0.593751
O O17 0.319694 0.667579 0.099969
#
# Coordination Sequence:
#
# PCOD8124639 Si02
#       8
#     4   4   4   4   4   4   4   4
#     4  11  20  37  66  95 124 160 206 260 317 362
#     4  11  21  37  64  97 126 155 206 263 312 364
#     4  12  25  40  60  98 135 162 205 269 317 362
#     4  11  25  45  61  89 129 168 209 256 314 381
#     4  10  19  40  64  94 126 157 207 265 308 375
#     4  12  19  37  67  96 118 163 211 258 310 370
#     4  11  25  42  64  90 125 169 211 255 315 382
#     4  10  20  38  65  95 121 159 214 257 309 378
#
# _framework density 19.341149999999999
#
# number of rings (size 3 to 8) (size 9 to 14) (size 15 to 20)
#    0.000    1.000    6.250    2.250    1.750    2.000 
#    2.250    2.500    0.000    0.000    0.000    0.000 
#    0.000    0.000    0.000    0.000    0.000    0.000 
#
# Total GULP energy -396809.265224 kJ/mol
# GULP energy per Si atom -12400.289538 kJ/mol
# Density = 1.929713 g / cm^3
# Si number density = 19.341150 Si / 1000 Ang^3
#
#
#
# Elastic Constant Matrix: (Units=GPa)
#
#
# Indices 1 2 3 4 5 6 
#
# 1 146.6894 42.0469 43.5034 0.0000 2.2221 0.0000
# 2 42.0469 80.3220 26.4741 0.0000 -1.2071 0.0000
# 3 43.5034 26.4741 109.1422 0.0000 8.1443 0.0000
# 4 0.0000 0.0000 0.0000 21.9119 0.0000 1.1104
# 5 2.2221 -1.2071 8.1443 0.0000 26.0056 0.0000
# 6 0.0000 0.0000 0.0000 1.1104 0.0000 20.1029
#
#
#
# Elastic Compliance Matrix: (Units=1/GPa)
#
#
# Indices 1 2 3 4 5 6 
#
# 1 0.008626 -0.003681 -0.002537 0.000000 -0.000113 0.000000
# 2 -0.003681 0.015176 -0.002345 0.000000 0.001753 0.000000
# 3 -0.002537 -0.002345 0.010991 0.000000 -0.003334 0.000000
# 4 0.000000 0.000000 0.000000 0.045765 0.000000 -0.002528
# 5 -0.000113 0.001753 -0.003334 0.000000 0.039589 0.000000
# 6 0.000000 0.000000 0.000000 -0.002528 0.000000 0.049884
#
#
# Mechanical properties :
#
#
# Convention : Reuss Voigt Hill
#
# Bulk Modulus (GPa) = 56.60046 62.24473 59.42260
# Shear Modulus (GPa) = 25.90047 28.54600 27.22324
#
# Velocity S-wave (km/s) = 3.66339 3.84594 3.75578
# Velocity P-wave (km/s) = 6.87181 7.20930 7.04258
#
# Compressibility (1/GPa) = 0.01766770
#
# Stress axis : x y z
#
# Youngs Moduli (GPa) = 115.92264 65.89305 90.98225
#
# Poissons Ratio (x) = 0.24257 0.23083
# Poissons Ratio (y) = 0.42674 0.21333
# Poissons Ratio (z) = 0.29410 0.15450
#
# Static dielectric constant tensor:
#      x y z
#    x 3.672820 0.000000 -0.175300 
#    y 0.000000 3.162650 0.000000 
#    z -0.175300 0.000000 3.916680 
# 
# 
# High freq. dielectric constant tensor:
#      x y z
#    x 1.764170 0.000000 -0.007930 
#    y 0.000000 1.711520 0.000000 
#    z -0.007930 0.000000 1.771650 
# 
# From -- ./inp_files/16844.got.cif
#   From: 2010.03.12/outbox.cif.g09.slc.cpg/sg14_9_cif.got.tgz:16844.got - 2010.03.31 13:35:05.
