data_PCOD8124539
_publ_section_title
;
Structure prediction by ZEFSAII (Michael W. Deem and Ramdas Pophale) SiO2 
 PCOD8124539
Probable space group: P 21/C
;
_chemical_formula_sum "Si O2"
_cell_formula_units_Z 32
_cell_length_a 12.114553
_cell_length_b 15.323523
_cell_length_c 14.863525
_cell_angle_alpha 90.000000
_cell_angle_beta 143.422385
_cell_angle_gamma 90.000000
_cell_volume 1644.255740
_symmetry_space_group_name_H-M "P 21/C"
_symmetry_group_IT_number 14
_symmetry_cell_setting 'monoclinic'
loop_
_space_group_symop_operation_xyz
x,y,z
-x,1/2+y,1/2-z
-x,-y,-z
x,1/2-y,1/2+z
loop_
_atom_site_type_symbol
_atom_site_label
_atom_site_fract_x
_atom_site_fract_y
_atom_site_fract_z
Si Si1 0.348133 0.895726 0.336789
Si Si2 0.951466 0.153102 0.175614
Si Si3 0.587228 0.348354 0.321250
Si Si4 0.044092 0.505844 0.176335
Si Si5 0.099140 0.655310 0.822556
Si Si6 0.682699 0.901690 0.672041
Si Si7 0.302835 0.004679 0.682142
Si Si8 0.547378 0.152217 0.319042
O O1 0.339218 0.881876 0.225436
O O2 0.170188 0.850557 0.266328
O O3 0.541179 0.859678 0.505851
O O4 0.329598 0.996054 0.348447
O O5 0.001289 0.252157 0.234792
O O6 0.107782 0.126248 0.207423
O O7 0.950386 0.094257 0.263444
O O8 0.751654 0.146273 0.999969
O O9 0.421921 0.407684 0.250145
O O10 0.517164 0.249247 0.260957
O O11 0.226323 0.500069 0.233521
O O12 0.041495 0.422365 0.241713
O O13 0.862008 0.509981 0.996796
O O14 0.273848 0.647775 0.001837
O O15 0.632071 0.873177 0.740012
O O16 0.427021 0.918224 0.744547
#
# Coordination Sequence:
#
# PCOD8124539 Si02
#       8
#     4   4   4   4   4   4   4   4
#     4  10  19  38  64  81 107 153 199 232 274 344
#     4  11  23  37  57  88 122 146 182 244 298 330
#     4  11  23  37  57  88 122 146 182 244 298 330
#     4  10  21  40  63  82 110 157 202 230 270 346
#     4   9  20  38  57  83 116 151 188 234 285 335
#     4  10  19  38  64  81 107 153 199 232 274 344
#     4  10  21  40  63  82 110 157 202 230 270 346
#     4   9  20  38  57  83 116 151 188 234 285 335
#
# _framework density 19.461693
#
# number of rings (size 3 to 8) (size 9 to 14) (size 15 to 20)
#    0.000    2.000    2.500    0.750    3.500    1.000 
#    0.000    3.750    0.000    0.000    0.000    0.000 
#    0.000    0.000    0.000    0.000    0.000    0.000 
#
# Total GULP energy -396803.829242 kJ/mol
# GULP energy per Si atom -12400.119664 kJ/mol
# Density = 1.941740 g / cm^3
# Si number density = 19.461693 Si / 1000 Ang^3
#
#
#
# Elastic Constant Matrix: (Units=GPa)
#
#
# Indices 1 2 3 4 5 6 
#
# 1 147.0348 51.9386 23.6752 0.0000 12.6694 0.0000
# 2 51.9386 119.9034 20.4193 0.0000 13.5799 0.0000
# 3 23.6752 20.4193 23.7754 0.0000 2.8596 0.0000
# 4 0.0000 0.0000 0.0000 41.4073 0.0000 2.7179
# 5 12.6694 13.5799 2.8596 0.0000 18.0118 0.0000
# 6 0.0000 0.0000 0.0000 2.7179 0.0000 32.4097
#
#
#
# Elastic Compliance Matrix: (Units=1/GPa)
#
#
# Indices 1 2 3 4 5 6 
#
# 1 0.008991 -0.002397 -0.006475 0.000000 -0.003489 0.000000
# 2 -0.002397 0.011125 -0.006486 0.000000 -0.005672 0.000000
# 3 -0.006475 -0.006486 0.053973 0.000000 0.000875 0.000000
# 4 0.000000 0.000000 0.000000 0.024284 0.000000 -0.002037
# 5 -0.003489 -0.005672 0.000875 0.000000 0.062111 0.000000
# 6 0.000000 0.000000 0.000000 -0.002037 0.000000 0.031026
#
#
# Mechanical properties :
#
#
# Convention : Reuss Voigt Hill
#
# Bulk Modulus (GPa) = 23.05529 53.64220 38.34875
# Shear Modulus (GPa) = 21.12527 31.34446 26.23487
#
# Velocity S-wave (km/s) = 3.29824 4.01755 3.67553
# Velocity P-wave (km/s) = 5.13583 7.01026 6.14493
#
# Compressibility (1/GPa) = 0.04337399
#
# Stress axis : x y z
#
# Youngs Moduli (GPa) = 111.22253 89.88603 18.52775
#
# Poissons Ratio (x) = 0.21544 0.11997
# Poissons Ratio (y) = 0.26658 0.12017
# Poissons Ratio (z) = 0.72016 0.58299
#
# Static dielectric constant tensor:
#      x y z
#    x 3.870290 0.000000 0.038890 
#    y 0.000000 3.775390 0.000000 
#    z 0.038890 0.000000 3.234130 
# 
# 
# High freq. dielectric constant tensor:
#      x y z
#    x 1.772530 0.000000 0.002260 
#    y 0.000000 1.766700 0.000000 
#    z 0.002260 0.000000 1.724250 
# 
# From -- ./inp_files/45122.got.cif
#   From: 2010.03.12/outbox.cif.g09.slc.cpg/sg14_23_cif.got.tgz:45122.got - 2010.03.31 13:35:05.
