data_PCOD8124449
_publ_section_title
;
Structure prediction by ZEFSAII (Michael W. Deem and Ramdas Pophale) SiO2 
 PCOD8124449
Probable space group: P 21/C
;
_chemical_formula_sum "Si O2"
_cell_formula_units_Z 32
_cell_length_a 26.754872
_cell_length_b 10.441009
_cell_length_c 12.572389
_cell_angle_alpha 90.000000
_cell_angle_beta 25.463944
_cell_angle_gamma 90.000000
_cell_volume 1509.989957
_symmetry_space_group_name_H-M "P 21/C"
_symmetry_group_IT_number 14
_symmetry_cell_setting 'monoclinic'
loop_
_space_group_symop_operation_xyz
x,y,z
-x,1/2+y,1/2-z
-x,-y,-z
x,1/2-y,1/2+z
loop_
_atom_site_type_symbol
_atom_site_label
_atom_site_fract_x
_atom_site_fract_y
_atom_site_fract_z
Si Si1 0.342774 0.390023 0.005510
Si Si2 0.303473 0.581460 0.246293
Si Si3 0.592112 0.156564 0.012075
Si Si4 0.294792 0.651489 0.493419
Si Si5 0.953058 0.395809 0.669607
Si Si6 0.691910 0.075036 0.619218
Si Si7 0.027400 0.858214 0.486988
Si Si8 0.116165 0.400713 0.545087
O O1 0.455830 0.299209 0.778508
O O2 0.314183 0.453498 0.946515
O O3 0.384576 0.493476 0.015251
O O4 0.223158 0.323870 0.279377
O O5 0.321222 0.727197 0.179124
O O6 0.327232 0.566187 0.327022
O O7 0.169190 0.538742 0.481177
O O8 0.634586 0.095107 0.041711
O O9 0.603278 0.058880 0.889942
O O10 0.335335 0.798309 0.397624
O O11 0.157968 0.646320 0.781263
O O12 0.989005 0.250374 0.570523
O O13 0.000000 0.500000 0.500000
O O14 0.008223 0.428963 0.676709
O O15 0.815707 0.410100 0.938199
O O16 0.000000 0.000000 0.500000
O O17 0.934214 0.822543 0.758393
#
# Coordination Sequence:
#
# PCOD8124449 Si02
#       8
#     4   4   4   4   4   4   4   4
#     4  10  20  39  59  86 130 160 212 268 324 372
#     4   9  20  38  62  88 125 165 207 274 330 363
#     4  11  21  35  63  93 113 175 221 261 321 388
#     4  10  19  37  63  91 124 163 221 257 324 402
#     4  11  22  39  67  95 129 174 207 256 335 394
#     4  10  20  38  62  91 125 161 218 271 316 392
#     4  11  22  39  64  99 131 166 211 266 321 389
#     4  10  21  41  63  91 135 165 208 270 331 378
#
# _framework density 21.192194000000001
#
# number of rings (size 3 to 8) (size 9 to 14) (size 15 to 20)
#    0.750    1.000    3.750    1.125    1.750    1.500 
#    0.000    5.000    0.000    0.000    0.000    0.000 
#    0.000    0.000    0.000    0.000    0.000    0.000 
#
# Total GULP energy -396420.934977 kJ/mol
# GULP energy per Si atom -12388.154218 kJ/mol
# Density = 2.114396 g / cm^3
# Si number density = 21.192194 Si / 1000 Ang^3
#
#
#
# Elastic Constant Matrix: (Units=GPa)
#
#
# Indices 1 2 3 4 5 6 
#
# 1 121.3644 17.9347 55.4392 0.0000 10.5545 0.0000
# 2 17.9347 44.8158 1.1188 0.0000 -6.9989 0.0000
# 3 55.4392 1.1188 106.0219 0.0000 0.5790 0.0000
# 4 0.0000 0.0000 0.0000 23.3285 0.0000 -3.0036
# 5 10.5545 -6.9989 0.5790 0.0000 27.5005 0.0000
# 6 0.0000 0.0000 0.0000 -3.0036 0.0000 19.7974
#
#
#
# Elastic Compliance Matrix: (Units=1/GPa)
#
#
# Indices 1 2 3 4 5 6 
#
# 1 0.012612 -0.005852 -0.006499 0.000000 -0.006193 0.000000
# 2 -0.005852 0.025961 0.002738 0.000000 0.008795 0.000000
# 3 -0.006499 0.002738 0.012786 0.000000 0.002922 0.000000
# 4 0.000000 0.000000 0.000000 0.043720 0.000000 0.006633
# 5 -0.006193 0.008795 0.002922 0.000000 0.040917 0.000000
# 6 0.000000 0.000000 0.000000 0.006633 0.000000 0.051518
#
#
# Mechanical properties :
#
#
# Convention : Reuss Voigt Hill
#
# Bulk Modulus (GPa) = 31.12178 46.79859 38.96019
# Shear Modulus (GPa) = 22.99383 27.30591 25.14987
#
# Velocity S-wave (km/s) = 3.29753 3.59345 3.44866
# Velocity P-wave (km/s) = 5.40515 6.27280 5.85507
#
# Compressibility (1/GPa) = 0.03213184
#
# Stress axis : x y z
#
# Youngs Moduli (GPa) = 79.29076 38.51984 78.21293
#
# Poissons Ratio (x) = 0.22542 0.50832
# Poissons Ratio (y) = 0.46401 -0.21415
# Poissons Ratio (z) = 0.51533 -0.10547
#
# Static dielectric constant tensor:
#      x y z
#    x 3.734070 0.000000 0.459460 
#    y 0.000000 3.346130 0.000000 
#    z 0.459460 0.000000 3.982290 
# 
# 
# High freq. dielectric constant tensor:
#      x y z
#    x 1.837720 0.000000 0.014000 
#    y 0.000000 1.777360 0.000000 
#    z 0.014000 0.000000 1.845060 
# 
# From -- ./inp_files/35904.got.cif
#   From: 2010.03.12/outbox.cif.g09.slc.cpg/sg14_18_cif.got.tgz:35904.got - 2010.03.31 13:35:05.
