data_PCOD8124051
_publ_section_title
;
Structure prediction by ZEFSAII (Michael W. Deem and Ramdas Pophale) SiO2 
 PCOD8124051
Probable space group: P 21/C
;
_chemical_formula_sum "Si O2"
_cell_formula_units_Z 28
_cell_length_a 16.370264
_cell_length_b 8.890509
_cell_length_c 14.367230
_cell_angle_alpha 90.000000
_cell_angle_beta 147.980573
_cell_angle_gamma 90.000000
_cell_volume 1108.665743
_symmetry_space_group_name_H-M "P 21/C"
_symmetry_group_IT_number 14
_symmetry_cell_setting 'monoclinic'
loop_
_space_group_symop_operation_xyz
x,y,z
-x,1/2+y,1/2-z
-x,-y,-z
x,1/2-y,1/2+z
loop_
_atom_site_type_symbol
_atom_site_label
_atom_site_fract_x
_atom_site_fract_y
_atom_site_fract_z
Si Si1 0.763885 0.215773 0.899409
Si Si2 0.382265 0.553628 0.008399
Si Si3 0.514885 0.888502 0.824996
Si Si4 0.266564 0.869228 0.916919
Si Si5 0.723420 0.925896 0.763170
Si Si6 0.814285 0.741045 0.518491
Si Si7 0.981771 0.037103 0.659935
O O1 0.590658 0.281316 0.712484
O O2 0.807483 0.082489 0.871546
O O3 0.765584 0.146878 0.004345
O O4 0.890157 0.346431 0.006316
O O5 0.395830 0.539989 0.133105
O O6 0.552425 0.557523 0.135106
O O7 0.296714 0.710251 0.898081
O O8 0.285248 0.420906 0.859430
O O9 0.649825 0.789187 0.908426
O O10 0.584138 0.023826 0.952979
O O11 0.115116 0.952235 0.728870
O O12 0.802749 0.787047 0.894307
O O13 0.945035 0.628844 0.683286
O O14 0.862814 0.912612 0.585111
#
# Coordination Sequence:
#
# PCOD8124051 Si02
#       7
#     4   4   4   4   4   4   4
#     4  11  20  33  58  85 113 143 193 239 282 337
#     4   9  19  34  61  77 118 148 185 237 286 340
#     4   9  20  33  59  84 110 139 194 239 281 326
#     4  10  19  37  54  88 109 149 188 237 282 338
#     4  10  19  37  56  85 112 151 187 233 293 335
#     4  10  19  34  54  83 112 145 186 233 284 335
#     4  11  20  34  56  83 114 147 189 236 282 334
#
# _framework density 25.255583000000001
#
# number of rings (size 3 to 8) (size 9 to 14) (size 15 to 20)
#    0.000    2.000    5.714    0.000    6.000    0.000 
#    0.000    2.143    0.000    0.000    0.000    0.000 
#    0.000    0.000    0.000    0.000    0.000    0.000 
#
# Total GULP energy -346883.233019 kJ/mol
# GULP energy per Si atom -12388.686894 kJ/mol
# Density = 2.519810 g / cm^3
# Si number density = 25.255583 Si / 1000 Ang^3
#
#
#
# Elastic Constant Matrix: (Units=GPa)
#
#
# Indices 1 2 3 4 5 6 
#
# 1 619.0717 -121.5470 -1.3627 0.0000 160.2985 0.0000
# 2 -121.5470 81.6030 31.1909 0.0000 -10.0491 0.0000
# 3 -1.3627 31.1909 93.9541 0.0000 18.9117 0.0000
# 4 0.0000 0.0000 0.0000 53.6511 0.0000 14.6373
# 5 160.2985 -10.0491 18.9117 0.0000 66.4320 0.0000
# 6 0.0000 0.0000 0.0000 14.6373 0.0000 26.7934
#
#
#
# Elastic Compliance Matrix: (Units=1/GPa)
#
#
# Indices 1 2 3 4 5 6 
#
# 1 0.008800 0.010408 0.000668 0.000000 -0.019850 0.000000
# 2 0.010408 0.027237 -0.004949 0.000000 -0.019585 0.000000
# 3 0.000668 -0.004949 0.013548 0.000000 -0.006217 0.000000
# 4 0.000000 0.000000 0.000000 0.021904 0.000000 -0.011966
# 5 -0.019850 -0.019585 -0.006217 0.000000 0.061759 0.000000
# 6 0.000000 0.000000 0.000000 -0.011966 0.000000 0.043860
#
#
# Mechanical properties :
#
#
# Convention : Reuss Voigt Hill
#
# Bulk Modulus (GPa) = 16.17101 67.91014 42.04057
# Shear Modulus (GPa) = 26.95922 88.46513 57.71218
#
# Velocity S-wave (km/s) = 3.27074 5.92486 4.78548
# Velocity P-wave (km/s) = 4.54758 8.58795 6.87144
#
# Compressibility (1/GPa) = 0.06183905
#
# Stress axis : x y z
#
# Youngs Moduli (GPa) = 113.63324 36.71495 73.81412
#
# Poissons Ratio (x) = -0.38213 -0.04931
# Poissons Ratio (y) = -1.18270 0.36530
# Poissons Ratio (z) = -0.07591 0.18170
#
# Static dielectric constant tensor:
#      x y z
#    x 4.061850 0.000000 -0.048190 
#    y 0.000000 4.972750 0.000000 
#    z -0.048190 0.000000 5.241650 
# 
# 
# High freq. dielectric constant tensor:
#      x y z
#    x 1.942510 0.000000 0.017630 
#    y 0.000000 2.013480 0.000000 
#    z 0.017630 0.000000 2.019480 
# 
# From -- ./inp_files/61074.got.cif
#   From: 2010.03.12/outbox.cif.g09.slc.cpg/sg14_31_cif.got.tgz:61074.got - 2010.03.31 13:35:05.
