data_PCOD8124838
_publ_section_title
;
Structure prediction by ZEFSAII (Michael W. Deem and Ramdas Pophale) SiO2 
 PCOD8124838
Probable space group: P 21/C
;
_chemical_formula_sum "Si O2"
_cell_formula_units_Z 24
_cell_length_a 9.444949
_cell_length_b 9.288554
_cell_length_c 19.018081
_cell_angle_alpha 90.000000
_cell_angle_beta 136.933916
_cell_angle_gamma 90.000000
_cell_volume 1139.290007
_symmetry_space_group_name_H-M "P 21/C"
_symmetry_group_IT_number 14
_symmetry_cell_setting 'monoclinic'
loop_
_space_group_symop_operation_xyz
x,y,z
-x,1/2+y,1/2-z
-x,-y,-z
x,1/2-y,1/2+z
loop_
_atom_site_type_symbol
_atom_site_label
_atom_site_fract_x
_atom_site_fract_y
_atom_site_fract_z
Si Si1 0.180524 0.329176 0.686820
Si Si2 0.571733 0.900001 0.924932
Si Si3 0.746232 0.150977 0.078352
Si Si4 0.330196 0.917825 0.165079
Si Si5 0.296707 0.356810 0.108194
Si Si6 0.643042 0.165745 0.415125
O O1 0.154238 0.476312 0.631589
O O2 0.156404 0.193799 0.623936
O O3 0.401258 0.330870 0.805717
O O4 0.994063 0.325120 0.675234
O O5 0.354533 0.849436 0.881019
O O6 0.708895 0.758838 0.956999
O O7 0.524793 0.989023 0.836453
O O8 0.701293 0.997543 0.025874
O O9 0.654354 0.285424 0.000228
O O10 0.466881 0.859120 0.278533
O O11 0.231741 0.783258 0.086914
O O12 0.241726 0.514303 0.057542
#
# Coordination Sequence:
#
# PCOD8124838 Si02
#       6
#     4   4   4   4   4   4
#     4   9  18  34  55  77 101 141 185 213 259 322
#     4   9  19  34  53  75 105 140 173 213 266 316
#     4  10  20  35  54  76 109 144 174 214 263 323
#     4   8  16  33  55  75 102 139 178 215 256 310
#     4   9  17  32  53  76 103 135 176 224 260 300
#     4   9  18  32  52  78 108 136 174 226 268 300
#
# _framework density 21.065752
#
# number of rings (size 3 to 8) (size 9 to 14) (size 15 to 20)
#    0.000    3.000    0.000    1.000    0.000    7.333 
#    0.000   13.333    0.000    8.000    0.000    0.000 
#    0.000    0.000    0.000    0.000    0.000    0.000 
#
# Total GULP energy -297390.004566 kJ/mol
# GULP energy per Si atom -12391.250190 kJ/mol
# Density = 2.101781 g / cm^3
# Si number density = 21.065752 Si / 1000 Ang^3
#
#
#
# Elastic Constant Matrix: (Units=GPa)
#
#
# Indices 1 2 3 4 5 6 
#
# 1 89.1982 8.1470 1.0529 0.0000 7.7571 0.0000
# 2 8.1470 119.5496 -1.6314 0.0000 -4.6114 0.0000
# 3 1.0529 -1.6314 23.4935 0.0000 0.9542 0.0000
# 4 0.0000 0.0000 0.0000 17.7970 0.0000 -1.6401
# 5 7.7571 -4.6114 0.9542 0.0000 24.3406 0.0000
# 6 0.0000 0.0000 0.0000 -1.6401 0.0000 19.0527
#
#
#
# Elastic Compliance Matrix: (Units=1/GPa)
#
#
# Indices 1 2 3 4 5 6 
#
# 1 0.011639 -0.000948 -0.000430 0.000000 -0.003872 0.000000
# 2 -0.000948 0.008510 0.000557 0.000000 0.001893 0.000000
# 3 -0.000430 0.000557 0.042681 0.000000 -0.001431 0.000000
# 4 0.000000 0.000000 0.000000 0.056639 0.000000 0.004876
# 5 -0.003872 0.001893 -0.001431 0.000000 0.042732 0.000000
# 6 0.000000 0.000000 0.000000 0.004876 0.000000 0.052906
#
#
# Mechanical properties :
#
#
# Convention : Reuss Voigt Hill
#
# Bulk Modulus (GPa) = 16.34353 27.48647 21.91500
# Shear Modulus (GPa) = 21.08400 27.21625 24.15012
#
# Velocity S-wave (km/s) = 3.16708 3.59829 3.38955
# Velocity P-wave (km/s) = 4.59881 5.50817 5.07390
#
# Compressibility (1/GPa) = 0.06118629
#
# Stress axis : x y z
#
# Youngs Moduli (GPa) = 85.91479 117.50938 23.42960
#
# Poissons Ratio (x) = 0.11145 0.01008
# Poissons Ratio (y) = 0.08148 -0.01304
# Poissons Ratio (z) = 0.03696 -0.06540
#
# Static dielectric constant tensor:
#      x y z
#    x 3.675840 0.000000 -0.147060 
#    y 0.000000 4.222880 0.000000 
#    z -0.147060 0.000000 3.303570 
# 
# 
# High freq. dielectric constant tensor:
#      x y z
#    x 1.804560 0.000000 -0.003390 
#    y 0.000000 1.839320 0.000000 
#    z -0.003390 0.000000 1.787390 
# 
# From -- ./inp_files/52237.got.cif
#   From: 2010.03.12/outbox.cif.g09.slc.cpg/sg14_27_cif.got.tgz:52237.got - 2010.03.31 13:35:05.
