data_PCOD8124148
_publ_section_title
;
Structure prediction by ZEFSAII (Michael W. Deem and Ramdas Pophale) SiO2 
 PCOD8124148
Probable space group: P 21/C
;
_chemical_formula_sum "Si O2"
_cell_formula_units_Z 24
_cell_length_a 12.830811
_cell_length_b 5.097962
_cell_length_c 29.104195
_cell_angle_alpha 90.000000
_cell_angle_beta 148.256170
_cell_angle_gamma 90.000000
_cell_volume 1001.597066
_symmetry_space_group_name_H-M "P 21/C"
_symmetry_group_IT_number 14
_symmetry_cell_setting 'monoclinic'
loop_
_space_group_symop_operation_xyz
x,y,z
-x,1/2+y,1/2-z
-x,-y,-z
x,1/2-y,1/2+z
loop_
_atom_site_type_symbol
_atom_site_label
_atom_site_fract_x
_atom_site_fract_y
_atom_site_fract_z
Si Si1 0.608116 0.164191 0.343135
Si Si2 0.385249 0.231185 0.498415
Si Si3 0.809299 0.406519 0.638745
Si Si4 0.164887 0.082217 0.752578
Si Si5 0.401256 0.763817 0.063696
Si Si6 0.336729 0.662342 0.233627
O O1 0.719964 0.205935 0.434182
O O2 0.471169 0.409694 0.283075
O O3 0.753947 0.165932 0.352816
O O4 0.470045 0.910045 0.295810
O O5 0.607796 0.232810 0.560977
O O6 0.236625 0.305900 0.400792
O O7 0.357027 0.448444 0.527796
O O8 0.338921 0.948520 0.502273
O O9 0.880597 0.420903 0.718102
O O10 0.982353 0.275028 0.673790
O O11 0.365730 0.250715 0.835399
O O12 0.174284 0.880000 0.712911
#
# Coordination Sequence:
#
# PCOD8124148 Si02
#       6
#     4   4   4   4   4   4
#     4   9  16  31  53  79 105 134 170 221 272 316
#     4  10  22  36  52  77 107 144 177 213 263 322
#     4  10  21  34  53  77 109 142 179 218 263 312
#     4  10  20  34  55  81 108 141 182 226 263 309
#     4  10  19  35  56  77 104 136 178 218 264 316
#     4   9  18  30  51  80 107 131 172 225 271 308
#
# _framework density 23.961729999999999
#
# number of rings (size 3 to 8) (size 9 to 14) (size 15 to 20)
#    0.000    2.333    0.000    4.000    0.000    8.667 
#    0.000    0.000    0.000    2.000    0.000    0.000 
#    0.000    0.000    0.000    0.000    0.000    0.000 
#
# Total GULP energy -297375.982102 kJ/mol
# GULP energy per Si atom -12390.665921 kJ/mol
# Density = 2.390719 g / cm^3
# Si number density = 23.961730 Si / 1000 Ang^3
#
#
#
# Elastic Constant Matrix: (Units=GPa)
#
#
# Indices 1 2 3 4 5 6 
#
# 1 138.8785 26.4993 42.8665 0.0000 -52.9501 0.0000
# 2 26.4993 90.9602 1.9252 0.0000 -5.5158 0.0000
# 3 42.8665 1.9252 59.8652 0.0000 -16.3461 0.0000
# 4 0.0000 0.0000 0.0000 22.5058 0.0000 -12.5569
# 5 -52.9501 -5.5158 -16.3461 0.0000 41.0033 0.0000
# 6 0.0000 0.0000 0.0000 -12.5569 0.0000 38.0150
#
#
#
# Elastic Compliance Matrix: (Units=1/GPa)
#
#
# Indices 1 2 3 4 5 6 
#
# 1 0.017416 -0.003762 -0.007122 0.000000 0.019145 0.000000
# 2 -0.003762 0.011897 0.001595 0.000000 -0.002622 0.000000
# 3 -0.007122 0.001595 0.021658 0.000000 -0.000349 0.000000
# 4 0.000000 0.000000 0.000000 0.054472 0.000000 0.017993
# 5 0.019145 -0.002622 -0.000349 0.000000 0.048620 0.000000
# 6 0.000000 0.000000 0.000000 0.017993 0.000000 0.032249
#
#
# Mechanical properties :
#
#
# Convention : Reuss Voigt Hill
#
# Bulk Modulus (GPa) = 30.87117 48.03176 39.45147
# Shear Modulus (GPa) = 23.18165 34.86566 29.02366
#
# Velocity S-wave (km/s) = 3.11375 3.81866 3.48408
# Velocity P-wave (km/s) = 5.08318 6.28741 5.71709
#
# Compressibility (1/GPa) = 0.03239268
#
# Stress axis : x y z
#
# Youngs Moduli (GPa) = 57.41734 84.05418 46.17330
#
# Poissons Ratio (x) = 0.31623 0.32886
# Poissons Ratio (y) = 0.21601 -0.07366
# Poissons Ratio (z) = 0.40895 -0.13410
#
# Static dielectric constant tensor:
#      x y z
#    x 5.496490 0.000000 -0.880520 
#    y 0.000000 4.162620 0.000000 
#    z -0.880520 0.000000 4.119400 
# 
# 
# High freq. dielectric constant tensor:
#      x y z
#    x 1.952200 0.000000 -0.050040 
#    y 0.000000 1.960000 0.000000 
#    z -0.050040 0.000000 1.913110 
# 
# From -- ./inp_files/80098.got.cif
#   From: 2010.03.12/outbox.cif.g09.slc.cpg/sg14_41_cif.got.tgz:80098.got - 2010.03.31 13:35:05.
