data_PCOD8124276
_publ_section_title
;
Structure prediction by ZEFSAII (Michael W. Deem and Ramdas Pophale) SiO2 
 PCOD8124276
Probable space group: P 21/C
;
_chemical_formula_sum "Si O2"
_cell_formula_units_Z 24
_cell_length_a 9.837406
_cell_length_b 20.438496
_cell_length_c 7.622097
_cell_angle_alpha 90.000000
_cell_angle_beta 121.049021
_cell_angle_gamma 90.000000
_cell_volume 1312.943739
_symmetry_space_group_name_H-M "P 21/C"
_symmetry_group_IT_number 14
_symmetry_cell_setting 'monoclinic'
loop_
_space_group_symop_operation_xyz
x,y,z
-x,1/2+y,1/2-z
-x,-y,-z
x,1/2-y,1/2+z
loop_
_atom_site_type_symbol
_atom_site_label
_atom_site_fract_x
_atom_site_fract_y
_atom_site_fract_z
Si Si1 0.103725 0.058014 0.498417
Si Si2 0.446135 0.601390 0.463970
Si Si3 0.226612 0.167076 0.828483
Si Si4 0.559220 0.506075 0.836807
Si Si5 0.891943 0.340831 0.692781
Si Si6 0.947276 0.726315 0.489592
O O1 0.141458 0.105745 0.683760
O O2 0.262409 0.030469 0.517667
O O3 0.002914 0.095761 0.285985
O O4 0.000000 0.000000 0.500000
O O5 0.585531 0.654807 0.544357
O O6 0.460909 0.557357 0.650574
O O7 0.444178 0.560947 0.279191
O O8 0.286861 0.642757 0.376318
O O9 0.186490 0.237220 0.715323
O O10 0.153032 0.172682 0.971633
O O11 0.500000 0.500000 0.000000
O O12 0.915915 0.316346 0.511880
O O13 0.951853 0.280696 0.846760
#
# Coordination Sequence:
#
# PCOD8124276 Si02
#       6
#     4   4   4   4   4   4
#     4  10  19  36  57  81 115 145 183 233 286 332
#     4  10  21  38  57  84 116 146 188 237 281 334
#     4   9  20  36  57  79 110 150 183 232 279 333
#     4  10  22  38  55  85 119 150 186 229 288 346
#     4  10  20  37  57  83 112 148 189 234 278 335
#     4   9  20  38  56  79 112 148 192 227 277 338
#
# _framework density 18.279534999999999
#
# number of rings (size 3 to 8) (size 9 to 14) (size 15 to 20)
#    0.000    2.333    1.667    0.000    2.333    2.667 
#    3.000    1.667    0.000    0.000    0.000    0.000 
#    0.000    0.000    0.000    0.000    0.000    0.000 
#
# Total GULP energy -297367.938611 kJ/mol
# GULP energy per Si atom -12390.330775 kJ/mol
# Density = 1.823793 g / cm^3
# Si number density = 18.279535 Si / 1000 Ang^3
#
#
#
# Elastic Constant Matrix: (Units=GPa)
#
#
# Indices 1 2 3 4 5 6 
#
# 1 159.7654 74.4518 64.4309 0.0000 -0.6847 0.0000
# 2 74.4518 85.6503 27.8121 0.0000 2.2946 0.0000
# 3 64.4309 27.8121 64.8124 0.0000 -1.3164 0.0000
# 4 0.0000 0.0000 0.0000 1.2227 0.0000 0.1029
# 5 -0.6847 2.2946 -1.3164 0.0000 42.5542 0.0000
# 6 0.0000 0.0000 0.0000 0.1029 0.0000 38.3257
#
#
#
# Elastic Compliance Matrix: (Units=1/GPa)
#
#
# Indices 1 2 3 4 5 6 
#
# 1 0.015160 -0.009642 -0.010924 0.000000 0.000426 0.000000
# 2 -0.009642 0.019733 0.001093 0.000000 -0.001185 0.000000
# 3 -0.010924 0.001093 0.025832 0.000000 0.000564 0.000000
# 4 0.000000 0.000000 0.000000 0.818052 0.000000 -0.002196
# 5 0.000426 -0.001185 0.000564 0.000000 0.023588 0.000000
# 6 0.000000 0.000000 0.000000 -0.002196 0.000000 0.026098
#
#
# Mechanical properties :
#
#
# Convention : Reuss Voigt Hill
#
# Bulk Modulus (GPa) = 45.91697 71.51309 58.71503
# Shear Modulus (GPa) = 5.12995 25.98940 15.55968
#
# Velocity S-wave (km/s) = 1.67705 3.77474 2.92071
# Velocity P-wave (km/s) = 5.37809 7.62922 6.60034
#
# Compressibility (1/GPa) = 0.02177844
#
# Stress axis : x y z
#
# Youngs Moduli (GPa) = 65.96404 50.67567 38.71208
#
# Poissons Ratio (x) = 0.48860 0.42291
# Poissons Ratio (y) = 0.63601 -0.04231
# Poissons Ratio (z) = 0.72062 -0.05539
#
# Static dielectric constant tensor:
#      x y z
#    x 3.544530 0.000000 -0.192390 
#    y 0.000000 3.234630 0.000000 
#    z -0.192390 0.000000 3.586180 
# 
# 
# High freq. dielectric constant tensor:
#      x y z
#    x 1.712180 0.000000 0.003090 
#    y 0.000000 1.715530 0.000000 
#    z 0.003090 0.000000 1.704960 
# 
# From -- ./inp_files/10013.got.cif
#   From: 2010.03.12/outbox.cif.g09.slc.cpg/sg14_6_cif.got.tgz:10013.got - 2010.03.31 13:35:05.
