data_PCOD8124077
_publ_section_title
;
Structure prediction by ZEFSAII (Michael W. Deem and Ramdas Pophale) SiO2 
 PCOD8124077
Probable space group: P 21/C
;
_chemical_formula_sum "Si O2"
_cell_formula_units_Z 24
_cell_length_a 11.615111
_cell_length_b 17.295749
_cell_length_c 5.342380
_cell_angle_alpha 90.000000
_cell_angle_beta 111.417591
_cell_angle_gamma 90.000000
_cell_volume 999.127594
_symmetry_space_group_name_H-M "P 21/C"
_symmetry_group_IT_number 14
_symmetry_cell_setting 'monoclinic'
loop_
_space_group_symop_operation_xyz
x,y,z
-x,1/2+y,1/2-z
-x,-y,-z
x,1/2-y,1/2+z
loop_
_atom_site_type_symbol
_atom_site_label
_atom_site_fract_x
_atom_site_fract_y
_atom_site_fract_z
Si Si1 0.473842 0.065004 0.703762
Si Si2 0.049551 0.961145 0.791080
Si Si3 0.456411 0.719208 0.606743
Si Si4 0.317951 0.178689 0.261144
Si Si5 0.690929 0.527960 0.495995
Si Si6 0.054480 0.207490 0.228429
O O1 0.540943 0.127618 0.944978
O O2 0.420347 0.121864 0.456147
O O3 0.585087 0.004688 0.709901
O O4 0.369389 0.020367 0.777894
O O5 0.008257 0.873025 0.760130
O O6 0.196892 0.968213 0.918122
O O7 0.000000 0.000000 0.500000
O O8 0.000000 0.000000 0.000000
O O9 0.388560 0.759663 0.316353
O O10 0.599845 0.751018 0.789117
O O11 0.205525 0.205565 0.352485
O O12 0.262227 0.116635 0.013111
O O13 0.012256 0.263754 0.420483
#
# Coordination Sequence:
#
# PCOD8124077 Si02
#       6
#     4   4   4   4   4   4
#     4  10  22  39  61 101 139 170 225 279 356 425
#     4  12  26  48  73 104 141 191 247 298 364 424
#     4  10  19  34  56  87 126 162 208 264 328 394
#     4  11  21  37  67  98 131 173 230 288 347 407
#     4  11  23  41  66  98 135 185 224 294 347 427
#     4  12  26  44  72 104 141 184 243 308 357 419
#
# _framework density 24.020958
#
# number of rings (size 3 to 8) (size 9 to 14) (size 15 to 20)
#    0.000    1.000    3.333    4.500    2.333    0.000 
#    0.000    3.333    0.000    0.000    0.000    0.000 
#    0.000    0.000    0.000    0.000    0.000    0.000 
#
# Total GULP energy -297417.352917 kJ/mol
# GULP energy per Si atom -12392.389705 kJ/mol
# Density = 2.396628 g / cm^3
# Si number density = 24.020958 Si / 1000 Ang^3
#
#
#
# Elastic Constant Matrix: (Units=GPa)
#
#
# Indices 1 2 3 4 5 6 
#
# 1 84.6637 38.5655 22.0460 0.0000 -6.6502 0.0000
# 2 38.5655 141.7339 5.5291 0.0000 -16.2464 0.0000
# 3 22.0460 5.5291 87.9849 0.0000 -25.3516 0.0000
# 4 0.0000 0.0000 0.0000 34.5954 0.0000 -9.4311
# 5 -6.6502 -16.2464 -25.3516 0.0000 35.2358 0.0000
# 6 0.0000 0.0000 0.0000 -9.4311 0.0000 48.8986
#
#
#
# Elastic Compliance Matrix: (Units=1/GPa)
#
#
# Indices 1 2 3 4 5 6 
#
# 1 0.014517 -0.004020 -0.003948 0.000000 -0.001954 0.000000
# 2 -0.004020 0.008593 0.001754 0.000000 0.004465 0.000000
# 3 -0.003948 0.001754 0.015470 0.000000 0.011194 0.000000
# 4 0.000000 0.000000 0.000000 0.030510 0.000000 0.005884
# 5 -0.001954 0.004465 0.011194 0.000000 0.038124 0.000000
# 6 0.000000 0.000000 0.000000 0.005884 0.000000 0.021585
#
#
# Mechanical properties :
#
#
# Convention : Reuss Voigt Hill
#
# Bulk Modulus (GPa) = 38.23869 49.62930 43.93399
# Shear Modulus (GPa) = 33.34567 40.29541 36.82054
#
# Velocity S-wave (km/s) = 3.72989 4.10019 3.91941
# Velocity P-wave (km/s) = 5.87391 6.56666 6.22992
#
# Compressibility (1/GPa) = 0.02615153
#
# Stress axis : x y z
#
# Youngs Moduli (GPa) = 68.88395 116.37752 64.64146
#
# Poissons Ratio (x) = 0.46785 0.25520
# Poissons Ratio (y) = 0.27692 -0.11337
# Poissons Ratio (z) = 0.27195 -0.20411
#
# Static dielectric constant tensor:
#      x y z
#    x 4.265190 0.000000 0.008690 
#    y 0.000000 5.604570 0.000000 
#    z 0.008690 0.000000 4.665650 
# 
# 
# High freq. dielectric constant tensor:
#      x y z
#    x 1.914340 0.000000 -0.024740 
#    y 0.000000 1.983090 0.000000 
#    z -0.024740 0.000000 1.965300 
# 
# From -- ./inp_files/2710.got.cif
#   From: 2010.03.12/outbox.cif.g09.slc.cpg/sg14_2_cif.got.tgz:2710.got - 2010.03.31 13:35:05.
