data_PCOD8124657
_publ_section_title
;
Structure prediction by ZEFSAII (Michael W. Deem and Ramdas Pophale) SiO2 
 PCOD8124657
Probable space group: P 21/C
;
_chemical_formula_sum "Si O2"
_cell_formula_units_Z 24
_cell_length_a 8.907011
_cell_length_b 15.561122
_cell_length_c 9.420760
_cell_angle_alpha 90.000000
_cell_angle_beta 73.647230
_cell_angle_gamma 90.000000
_cell_volume 1252.924239
_symmetry_space_group_name_H-M "P 21/C"
_symmetry_group_IT_number 14
_symmetry_cell_setting 'monoclinic'
loop_
_space_group_symop_operation_xyz
x,y,z
-x,1/2+y,1/2-z
-x,-y,-z
x,1/2-y,1/2+z
loop_
_atom_site_type_symbol
_atom_site_label
_atom_site_fract_x
_atom_site_fract_y
_atom_site_fract_z
Si Si1 0.376734 0.172126 0.965992
Si Si2 0.565492 0.081973 0.154302
Si Si3 0.549622 0.090821 0.694740
Si Si4 0.603823 0.866021 0.549674
Si Si5 0.161402 0.496705 0.874704
Si Si6 0.158206 0.015367 0.040330
O O1 0.495450 0.173033 0.799248
O O2 0.329487 0.271153 0.999333
O O3 0.466895 0.142862 0.080131
O O4 0.228120 0.109296 0.979600
O O5 0.554284 0.129784 0.310478
O O6 0.482549 0.989322 0.190466
O O7 0.735737 0.064281 0.044077
O O8 0.445015 0.085937 0.581603
O O9 0.736736 0.083670 0.617120
O O10 0.743164 0.915078 0.591969
O O11 0.128648 0.489052 0.716134
O O12 0.000000 0.500000 0.000000
O O13 0.000000 0.000000 0.000000
#
# Coordination Sequence:
#
# PCOD8124657 Si02
#       6
#     4   4   4   4   4   4
#     4  11  20  41  63  88 122 158 209 260 303 349
#     4  10  19  41  62  85 116 157 209 246 288 369
#     4  10  20  37  64  88 114 160 204 249 299 362
#     4  11  23  36  65  93 121 156 204 265 307 343
#     4  11  23  40  60  90 123 159 204 247 296 372
#     4  11  23  39  65  85 119 169 201 239 301 374
#
# _framework density 19.155189
#
# number of rings (size 3 to 8) (size 9 to 14) (size 15 to 20)
#    0.000    1.333    5.000    4.000    7.000    0.000 
#    0.000    3.333    0.000    0.000    0.000    0.000 
#    0.000    0.000    0.000    0.000    0.000    0.000 
#
# Total GULP energy -297340.066433 kJ/mol
# GULP energy per Si atom -12389.169435 kJ/mol
# Density = 1.911159 g / cm^3
# Si number density = 19.155189 Si / 1000 Ang^3
#
#
#
# Elastic Constant Matrix: (Units=GPa)
#
#
# Indices 1 2 3 4 5 6 
#
# 1 124.7898 39.8019 59.3207 0.0000 -2.1197 0.0000
# 2 39.8019 80.6181 33.2537 0.0000 -0.9504 0.0000
# 3 59.3207 33.2537 135.5736 0.0000 0.7009 0.0000
# 4 0.0000 0.0000 0.0000 24.9797 0.0000 4.2689
# 5 -2.1197 -0.9504 0.7009 0.0000 38.6293 0.0000
# 6 0.0000 0.0000 0.0000 4.2689 0.0000 18.8836
#
#
#
# Elastic Compliance Matrix: (Units=1/GPa)
#
#
# Indices 1 2 3 4 5 6 
#
# 1 0.011120 -0.003866 -0.003920 0.000000 0.000586 0.000000
# 2 -0.003866 0.015151 -0.002026 0.000000 0.000197 0.000000
# 3 -0.003920 -0.002026 0.009591 0.000000 -0.000439 0.000000
# 4 0.000000 0.000000 0.000000 0.041641 0.000000 -0.009414
# 5 0.000586 0.000197 -0.000439 0.000000 0.025932 0.000000
# 6 0.000000 0.000000 0.000000 -0.009414 0.000000 0.055084
#
#
# Mechanical properties :
#
#
# Convention : Reuss Voigt Hill
#
# Bulk Modulus (GPa) = 61.58676 67.30378 64.44527
# Shear Modulus (GPa) = 27.23972 30.40554 28.82263
#
# Velocity S-wave (km/s) = 3.77510 3.98845 3.88324
# Velocity P-wave (km/s) = 7.15704 7.51150 7.33641
#
# Compressibility (1/GPa) = 0.01623726
#
# Stress axis : x y z
#
# Youngs Moduli (GPa) = 89.92673 66.00336 104.26913
#
# Poissons Ratio (x) = 0.25518 0.40878
# Poissons Ratio (y) = 0.34767 0.21121
# Poissons Ratio (z) = 0.35255 0.13370
#
# Static dielectric constant tensor:
#      x y z
#    x 3.454070 0.000000 -0.181900 
#    y 0.000000 3.532300 0.000000 
#    z -0.181900 0.000000 4.011710 
# 
# 
# High freq. dielectric constant tensor:
#      x y z
#    x 1.722150 0.000000 0.010550 
#    y 0.000000 1.726700 0.000000 
#    z 0.010550 0.000000 1.773070 
# 
# From -- ./inp_files/9070.got.cif
#   From: 2010.03.12/outbox.cif.g09.slc.cpg/sg14_5_cif.got.tgz:9070.got - 2010.03.31 13:35:05.
