data_PCOD8124970
_publ_section_title
;
Structure prediction by ZEFSAII (Michael W. Deem and Ramdas Pophale) SiO2 
 PCOD8124970
Probable space group: P 21/C
;
_chemical_formula_sum "Si O2"
_cell_formula_units_Z 28
_cell_length_a 5.143524
_cell_length_b 23.817514
_cell_length_c 13.145751
_cell_angle_alpha 90.000000
_cell_angle_beta 89.130454
_cell_angle_gamma 90.000000
_cell_volume 1610.247321
_symmetry_space_group_name_H-M "P 21/C"
_symmetry_group_IT_number 14
_symmetry_cell_setting 'monoclinic'
loop_
_space_group_symop_operation_xyz
x,y,z
-x,1/2+y,1/2-z
-x,-y,-z
x,1/2-y,1/2+z
loop_
_atom_site_type_symbol
_atom_site_label
_atom_site_fract_x
_atom_site_fract_y
_atom_site_fract_z
Si Si1 0.731603 0.535175 0.118012
Si Si2 0.765296 0.862592 0.767329
Si Si3 0.993487 0.250202 0.749449
Si Si4 0.233584 0.035693 0.617805
Si Si5 0.766208 0.861906 0.233579
Si Si6 0.241182 0.663195 0.380509
Si Si7 0.749899 0.336373 0.380356
O O1 0.769123 0.591660 0.179942
O O2 0.456111 0.508086 0.148394
O O3 0.955679 0.491053 0.144527
O O4 0.742415 0.552031 0.000107
O O5 0.824828 0.801980 0.714063
O O6 0.492487 0.862870 0.826085
O O7 0.993254 0.874993 0.848963
O O8 0.177387 0.198417 0.712114
O O9 0.812393 0.272642 0.657586
O O10 0.809403 0.227646 0.842407
O O11 0.268192 0.092462 0.679579
O O12 0.510110 0.860203 0.167212
O O13 0.009685 0.875966 0.157249
O O14 0.282600 0.663075 0.499593
#
# Coordination Sequence:
#
# PCOD8124970 Si02
#       7
#     4   4   4   4   4   4   4
#     4  10  21  38  61  88 116 150 189 237 291 339
#     4  10  20  37  58  84 117 147 190 232 287 340
#     4   8  22  34  56  88 106 158 192 230 286 342
#     4  10  21  38  61  88 116 150 189 237 291 339
#     4  10  20  37  58  84 117 147 190 232 287 340
#     4  10  20  36  56  81 116 147 184 233 284 338
#     4  10  20  36  56  81 116 147 184 233 284 338
#
# _framework density 17.388632999999999
#
# number of rings (size 3 to 8) (size 9 to 14) (size 15 to 20)
#    1.714    0.571    0.000    3.429    0.000    1.143 
#    0.000    1.429    0.000   17.143    0.000    0.000 
#    0.000    0.000    0.000    0.000    0.000    0.000 
#
# Total GULP energy -346923.966600 kJ/mol
# GULP energy per Si atom -12390.141664 kJ/mol
# Density = 1.734906 g / cm^3
# Si number density = 17.388633 Si / 1000 Ang^3
#
#
#
# Elastic Constant Matrix: (Units=GPa)
#
#
# Indices 1 2 3 4 5 6 
#
# 1 128.7843 28.9165 47.6849 0.0000 12.2925 0.0000
# 2 28.9165 95.5872 69.1247 0.0000 15.7297 0.0000
# 3 47.6849 69.1247 97.6118 0.0000 9.9026 0.0000
# 4 0.0000 0.0000 0.0000 29.0089 0.0000 2.0695
# 5 12.2925 15.7297 9.9026 0.0000 22.8445 0.0000
# 6 0.0000 0.0000 0.0000 2.0695 0.0000 12.8135
#
#
#
# Elastic Compliance Matrix: (Units=1/GPa)
#
#
# Indices 1 2 3 4 5 6 
#
# 1 0.009850 0.001787 -0.005663 0.000000 -0.004075 0.000000
# 2 0.001787 0.023495 -0.016498 0.000000 -0.009988 0.000000
# 3 -0.005663 -0.016498 0.024302 0.000000 0.003873 0.000000
# 4 0.000000 0.000000 0.000000 0.034874 0.000000 -0.005632
# 5 -0.004075 -0.009988 0.003873 0.000000 0.051165 0.000000
# 6 0.000000 0.000000 0.000000 -0.005632 0.000000 0.078952
#
#
# Mechanical properties :
#
#
# Convention : Reuss Voigt Hill
#
# Bulk Modulus (GPa) = 59.18235 68.15951 63.67093
# Shear Modulus (GPa) = 18.58593 24.68386 21.63489
#
# Velocity S-wave (km/s) = 3.27288 3.77177 3.53115
# Velocity P-wave (km/s) = 6.95639 7.63224 7.30214
#
# Compressibility (1/GPa) = 0.01689693
#
# Stress axis : x y z
#
# Youngs Moduli (GPa) = 101.52499 42.56143 41.14942
#
# Poissons Ratio (x) = -0.07604 0.23305
# Poissons Ratio (y) = -0.18138 0.67888
# Poissons Ratio (z) = 0.57499 0.70218
#
# Static dielectric constant tensor:
#      x y z
#    x 3.499270 0.000000 -0.002470 
#    y 0.000000 3.005960 0.000000 
#    z -0.002470 0.000000 2.996800 
# 
# 
# High freq. dielectric constant tensor:
#      x y z
#    x 1.694610 0.000000 -0.000180 
#    y 0.000000 1.652010 0.000000 
#    z -0.000180 0.000000 1.653600 
# 
# From -- ./inp_files/22223.got.cif
#   From: 2010.03.12/outbox.cif.g09.slc.cpg/sg14_12_cif.got.tgz:22223.got - 2010.03.31 13:35:05.
