data_PCOD8124754
_publ_section_title
;
Structure prediction by ZEFSAII (Michael W. Deem and Ramdas Pophale) SiO2 
 PCOD8124754
Probable space group: P 21/C
;
_chemical_formula_sum "Si O2"
_cell_formula_units_Z 24
_cell_length_a 14.495201
_cell_length_b 9.051948
_cell_length_c 16.244193
_cell_angle_alpha 90.000000
_cell_angle_beta 142.932411
_cell_angle_gamma 90.000000
_cell_volume 1284.714100
_symmetry_space_group_name_H-M "P 21/C"
_symmetry_group_IT_number 14
_symmetry_cell_setting 'monoclinic'
loop_
_space_group_symop_operation_xyz
x,y,z
-x,1/2+y,1/2-z
-x,-y,-z
x,1/2-y,1/2+z
loop_
_atom_site_type_symbol
_atom_site_label
_atom_site_fract_x
_atom_site_fract_y
_atom_site_fract_z
Si Si1 0.656408 0.595961 0.366234
Si Si2 0.958927 0.259128 0.624479
Si Si3 0.116983 0.295088 0.074894
Si Si4 0.845410 0.987102 0.150777
Si Si5 0.350190 0.739181 0.680948
Si Si6 0.198787 0.592933 0.208396
O O1 0.783443 0.682520 0.405883
O O2 0.710954 0.582008 0.499620
O O3 0.631569 0.437087 0.306612
O O4 0.500680 0.686479 0.251811
O O5 0.950983 0.406820 0.671467
O O6 0.789260 0.207376 0.476500
O O7 0.057464 0.292000 0.613016
O O8 0.036672 0.133139 0.733048
O O9 0.215674 0.437469 0.172246
O O10 0.975311 0.349366 0.918840
O O11 0.762586 0.072008 0.167554
O O12 0.316949 0.792072 0.751085
#
# Coordination Sequence:
#
# PCOD8124754 Si02
#       6
#     4   4   4   4   4   4
#     4  11  22  36  56  81 108 142 181 221 263 315
#     4   9  20  36  56  82 106 138 178 219 265 316
#     4   9  18  34  57  79 106 143 178 213 264 324
#     4  10  20  33  57  83 106 136 178 228 265 306
#     4  10  22  36  54  78 109 145 179 215 266 323
#     4   9  18  35  56  79 107 140 176 219 267 316
#
# _framework density 18.681197999999998
#
# number of rings (size 3 to 8) (size 9 to 14) (size 15 to 20)
#    0.000    2.333    0.000    3.000    0.000    9.333 
#    0.000    1.667    0.000    9.000    0.000    0.000 
#    0.000    0.000    0.000    0.000    0.000    0.000 
#
# Total GULP energy -297618.573721 kJ/mol
# GULP energy per Si atom -12400.773905 kJ/mol
# Density = 1.863868 g / cm^3
# Si number density = 18.681198 Si / 1000 Ang^3
#
#
#
# Elastic Constant Matrix: (Units=GPa)
#
#
# Indices 1 2 3 4 5 6 
#
# 1 106.9589 58.8596 55.4592 0.0000 -9.7143 0.0000
# 2 58.8596 100.3623 41.1426 0.0000 2.0605 0.0000
# 3 55.4592 41.1426 77.6827 0.0000 -9.6911 0.0000
# 4 0.0000 0.0000 0.0000 28.4599 0.0000 -2.4884
# 5 -9.7143 2.0605 -9.6911 0.0000 24.6507 0.0000
# 6 0.0000 0.0000 0.0000 -2.4884 0.0000 39.1217
#
#
#
# Elastic Compliance Matrix: (Units=1/GPa)
#
#
# Indices 1 2 3 4 5 6 
#
# 1 0.018190 -0.007228 -0.008611 0.000000 0.004387 0.000000
# 2 -0.007228 0.015967 -0.004015 0.000000 -0.005762 0.000000
# 3 -0.008611 -0.004015 0.021836 0.000000 0.005527 0.000000
# 4 0.000000 0.000000 0.000000 0.035334 0.000000 0.002247
# 5 0.004387 -0.005762 0.005527 0.000000 0.044950 0.000000
# 6 0.000000 0.000000 0.000000 0.002247 0.000000 0.025704
#
#
# Mechanical properties :
#
#
# Convention : Reuss Voigt Hill
#
# Bulk Modulus (GPa) = 61.40381 66.21407 63.80894
# Shear Modulus (GPa) = 24.14073 27.08265 25.61169
#
# Velocity S-wave (km/s) = 3.59868 3.81166 3.70670
# Velocity P-wave (km/s) = 7.08576 7.40897 7.24917
#
# Compressibility (1/GPa) = 0.01628563
#
# Stress axis : x y z
#
# Youngs Moduli (GPa) = 54.97412 62.62802 45.79525
#
# Poissons Ratio (x) = 0.45269 0.39434
# Poissons Ratio (y) = 0.39737 0.18387
# Poissons Ratio (z) = 0.47338 0.25145
#
# Static dielectric constant tensor:
#      x y z
#    x 3.452780 0.000000 -0.168150 
#    y 0.000000 3.472960 0.000000 
#    z -0.168150 0.000000 3.407960 
# 
# 
# High freq. dielectric constant tensor:
#      x y z
#    x 1.727760 0.000000 -0.009120 
#    y 0.000000 1.729230 0.000000 
#    z -0.009120 0.000000 1.713550 
# 
# From -- ./inp_files/43024.got.cif
#   From: 2010.03.12/outbox.cif.g09.slc.cpg/sg14_22_cif.got.tgz:43024.got - 2010.03.31 13:35:05.
