data_PCOD8124193
_publ_section_title
;
Structure prediction by ZEFSAII (Michael W. Deem and Ramdas Pophale) SiO2 
 PCOD8124193
Probable space group: P 21/C
;
_chemical_formula_sum "Si O2"
_cell_formula_units_Z 32
_cell_length_a 12.247632
_cell_length_b 10.852136
_cell_length_c 14.798619
_cell_angle_alpha 90.000000
_cell_angle_beta 122.380178
_cell_angle_gamma 90.000000
_cell_volume 1661.097073
_symmetry_space_group_name_H-M "P 21/C"
_symmetry_group_IT_number 14
_symmetry_cell_setting 'monoclinic'
loop_
_space_group_symop_operation_xyz
x,y,z
-x,1/2+y,1/2-z
-x,-y,-z
x,1/2-y,1/2+z
loop_
_atom_site_type_symbol
_atom_site_label
_atom_site_fract_x
_atom_site_fract_y
_atom_site_fract_z
Si Si1 0.555893 0.259835 0.640536
Si Si2 0.135870 0.370428 0.057641
Si Si3 0.341057 0.484483 0.264707
Si Si4 0.840763 0.510888 0.656289
Si Si5 0.731948 0.239663 0.049484
Si Si6 0.606972 0.106226 0.831253
Si Si7 0.937016 0.058290 0.612719
Si Si8 0.718863 0.856052 0.942081
O O1 0.619885 0.374079 0.719656
O O2 0.610748 0.242215 0.563836
O O3 0.596152 0.144918 0.721658
O O4 0.401380 0.281912 0.566635
O O5 0.241283 0.468182 0.139019
O O6 0.197710 0.235237 0.082622
O O7 0.015029 0.363368 0.072205
O O8 0.093922 0.422309 0.941039
O O9 0.273879 0.447467 0.328291
O O10 0.464021 0.396431 0.309957
O O11 0.827977 0.366016 0.628762
O O12 0.820337 0.594862 0.560235
O O13 0.981257 0.537192 0.759998
O O14 0.807598 0.368269 0.079846
O O15 0.684057 0.202489 0.928227
O O16 0.670213 0.970485 0.860240
#
# Coordination Sequence:
#
# PCOD8124193 Si02
#       8
#     4   4   4   4   4   4   4   4
#     4  10  19  35  62  84 115 151 181 238 295 339
#     4  10  20  38  59  81 109 152 196 229 278 342
#     4   9  17  34  59  81 109 148 194 229 280 349
#     4   9  20  36  56  81 109 152 192 237 282 332
#     4  10  21  38  55  86 113 147 196 235 284 346
#     4  10  19  35  58  87 117 147 185 238 295 339
#     4  10  22  38  58  79 110 157 195 232 275 336
#     4  10  20  36  58  87 115 144 189 236 289 342
#
# _framework density 19.264375000000001
#
# number of rings (size 3 to 8) (size 9 to 14) (size 15 to 20)
#    0.000    2.250    1.250    1.500    1.750    4.000 
#    2.250    1.875    0.000    0.000    0.000    0.000 
#    0.000    0.000    0.000    0.000    0.000    0.000 
#
# Total GULP energy -396771.586445 kJ/mol
# GULP energy per Si atom -12399.112076 kJ/mol
# Density = 1.922053 g / cm^3
# Si number density = 19.264375 Si / 1000 Ang^3
#
#
#
# Elastic Constant Matrix: (Units=GPa)
#
#
# Indices 1 2 3 4 5 6 
#
# 1 37.8409 19.4527 6.4332 0.0000 4.6863 0.0000
# 2 19.4527 57.7490 17.8755 0.0000 -3.7244 0.0000
# 3 6.4332 17.8755 74.4886 0.0000 4.1183 0.0000
# 4 0.0000 0.0000 0.0000 25.5485 0.0000 2.7470
# 5 4.6863 -3.7244 4.1183 0.0000 24.0842 0.0000
# 6 0.0000 0.0000 0.0000 2.7470 0.0000 32.6052
#
#
#
# Elastic Compliance Matrix: (Units=1/GPa)
#
#
# Indices 1 2 3 4 5 6 
#
# 1 0.033561 -0.011989 0.000446 0.000000 -0.008461 0.000000
# 2 -0.011989 0.023320 -0.004936 0.000000 0.006783 0.000000
# 3 0.000446 -0.004936 0.014757 0.000000 -0.003374 0.000000
# 4 0.000000 0.000000 0.000000 0.039499 0.000000 -0.003328
# 5 -0.008461 0.006783 -0.003374 0.000000 0.044793 0.000000
# 6 0.000000 0.000000 0.000000 -0.003328 0.000000 0.030950
#
#
# Mechanical properties :
#
#
# Convention : Reuss Voigt Hill
#
# Bulk Modulus (GPa) = 25.85191 28.62237 27.23714
# Shear Modulus (GPa) = 21.48391 24.86870 23.17630
#
# Velocity S-wave (km/s) = 3.34311 3.59683 3.47229
# Velocity P-wave (km/s) = 5.32452 5.66917 5.49954
#
# Compressibility (1/GPa) = 0.03868186
#
# Stress axis : x y z
#
# Youngs Moduli (GPa) = 29.79607 42.88150 67.76290
#
# Poissons Ratio (x) = 0.51410 -0.03024
# Poissons Ratio (y) = 0.35722 0.33447
# Poissons Ratio (z) = -0.01330 0.21166
#
# Static dielectric constant tensor:
#      x y z
#    x 3.417730 0.000000 0.124360 
#    y 0.000000 3.327860 0.000000 
#    z 0.124360 0.000000 3.582030 
# 
# 
# High freq. dielectric constant tensor:
#      x y z
#    x 1.737950 0.000000 0.010990 
#    y 0.000000 1.737710 0.000000 
#    z 0.010990 0.000000 1.754380 
# 
# From -- ./inp_files/44414.got.cif
#   From: 2010.03.12/outbox.cif.g09.slc.cpg/sg14_23_cif.got.tgz:44414.got - 2010.03.31 13:35:05.
