data_PCOD8124773
_publ_section_title
;
Structure prediction by ZEFSAII (Michael W. Deem and Ramdas Pophale) SiO2 
 PCOD8124773
Probable space group: P 21/C
;
_chemical_formula_sum "Si O2"
_cell_formula_units_Z 24
_cell_length_a 8.846409
_cell_length_b 14.992240
_cell_length_c 15.062571
_cell_angle_alpha 90.000000
_cell_angle_beta 41.319554
_cell_angle_gamma 90.000000
_cell_volume 1319.004673
_symmetry_space_group_name_H-M "P 21/C"
_symmetry_group_IT_number 14
_symmetry_cell_setting 'monoclinic'
loop_
_space_group_symop_operation_xyz
x,y,z
-x,1/2+y,1/2-z
-x,-y,-z
x,1/2-y,1/2+z
loop_
_atom_site_type_symbol
_atom_site_label
_atom_site_fract_x
_atom_site_fract_y
_atom_site_fract_z
Si Si1 0.343810 0.908900 0.282912
Si Si2 0.970487 0.978233 0.689230
Si Si3 0.944977 0.674443 0.057280
Si Si4 0.122339 0.958045 0.811338
Si Si5 0.154185 0.128658 0.914127
Si Si6 0.630925 0.938394 0.585641
O O1 0.592950 0.868377 0.153448
O O2 0.187537 0.835164 0.400052
O O3 0.224341 0.948088 0.246887
O O4 0.369260 0.992533 0.334884
O O5 0.936145 0.887661 0.648270
O O6 0.955882 0.955918 0.799703
O O7 0.219120 0.022331 0.561101
O O8 0.910494 0.776665 0.100786
O O9 0.746192 0.650639 0.074192
O O10 0.370244 0.920465 0.671193
O O11 0.138609 0.058545 0.840892
O O12 0.024177 0.893170 0.929593
#
# Coordination Sequence:
#
# PCOD8124773 Si02
#       6
#     4   4   4   4   4   4
#     4   8  17  34  55  73  99 140 173 207 260 310
#     4   9  17  35  58  77 101 136 179 216 251 302
#     4   9  18  34  55  75  99 136 183 215 248 302
#     4  10  20  34  53  78 112 137 166 209 272 313
#     4  10  21  34  50  77 110 142 166 209 267 317
#     4   8  16  33  57  76  98 138 173 210 253 308
#
# _framework density 18.195537999999999
#
# number of rings (size 3 to 8) (size 9 to 14) (size 15 to 20)
#    0.000    3.000    0.000    2.500    2.333    0.667 
#    6.000    0.000    0.000    0.000    0.000    0.000 
#    0.000    0.000    0.000    0.000    0.000    0.000 
#
# Total GULP energy -297501.751620 kJ/mol
# GULP energy per Si atom -12395.906317 kJ/mol
# Density = 1.815412 g / cm^3
# Si number density = 18.195538 Si / 1000 Ang^3
#
#
#
# Elastic Constant Matrix: (Units=GPa)
#
#
# Indices 1 2 3 4 5 6 
#
# 1 93.4293 30.9347 32.2932 0.0000 -0.3155 0.0000
# 2 30.9347 100.2561 34.4154 0.0000 -6.3235 0.0000
# 3 32.2932 34.4154 56.4466 0.0000 -12.5834 0.0000
# 4 0.0000 0.0000 0.0000 14.8923 0.0000 -3.6164
# 5 -0.3155 -6.3235 -12.5834 0.0000 34.8270 0.0000
# 6 0.0000 0.0000 0.0000 -3.6164 0.0000 14.9390
#
#
#
# Elastic Compliance Matrix: (Units=1/GPa)
#
#
# Indices 1 2 3 4 5 6 
#
# 1 0.013897 -0.001922 -0.007426 0.000000 -0.002906 0.000000
# 2 -0.001922 0.012889 -0.006788 0.000000 -0.000130 0.000000
# 3 -0.007426 -0.006788 0.028075 0.000000 0.008844 0.000000
# 4 0.000000 0.000000 0.000000 0.071342 0.000000 0.017270
# 5 -0.002906 -0.000130 0.008844 0.000000 0.031859 0.000000
# 6 0.000000 0.000000 0.000000 0.017270 0.000000 0.071120
#
#
# Mechanical properties :
#
#
# Convention : Reuss Voigt Hill
#
# Bulk Modulus (GPa) = 44.27111 49.49096 46.88103
# Shear Modulus (GPa) = 18.58845 23.09758 20.84301
#
# Velocity S-wave (km/s) = 3.19971 3.56674 3.38820
# Velocity P-wave (km/s) = 6.16720 6.64987 6.41308
#
# Compressibility (1/GPa) = 0.02258810
#
# Stress axis : x y z
#
# Youngs Moduli (GPa) = 71.95951 77.58263 35.61916
#
# Poissons Ratio (x) = 0.14911 0.26452
# Poissons Ratio (y) = 0.13830 0.24179
# Poissons Ratio (z) = 0.53440 0.52664
#
# Static dielectric constant tensor:
#      x y z
#    x 3.588620 0.000000 -0.565880 
#    y 0.000000 3.139590 0.000000 
#    z -0.565880 0.000000 3.535280 
# 
# 
# High freq. dielectric constant tensor:
#      x y z
#    x 1.697670 0.000000 -0.017730 
#    y 0.000000 1.687210 0.000000 
#    z -0.017730 0.000000 1.695680 
# 
# From -- ./inp_files/24818.got.cif
#   From: 2010.03.12/outbox.cif.g09.slc.cpg/sg14_13_cif.got.tgz:24818.got - 2010.03.31 13:35:05.
