data_PCOD8124502
_publ_section_title
;
Structure prediction by ZEFSAII (Michael W. Deem and Ramdas Pophale) SiO2 
 PCOD8124502
Probable space group: P 21/C
;
_chemical_formula_sum "Si O2"
_cell_formula_units_Z 32
_cell_length_a 21.871386
_cell_length_b 14.088488
_cell_length_c 9.563859
_cell_angle_alpha 90.000000
_cell_angle_beta 148.386726
_cell_angle_gamma 90.000000
_cell_volume 1544.745601
_symmetry_space_group_name_H-M "P 21/C"
_symmetry_group_IT_number 14
_symmetry_cell_setting 'monoclinic'
loop_
_space_group_symop_operation_xyz
x,y,z
-x,1/2+y,1/2-z
-x,-y,-z
x,1/2-y,1/2+z
loop_
_atom_site_type_symbol
_atom_site_label
_atom_site_fract_x
_atom_site_fract_y
_atom_site_fract_z
Si Si1 0.586800 0.464399 0.466147
Si Si2 0.090390 0.324564 0.090729
Si Si3 0.024461 0.348532 0.283667
Si Si4 0.149031 0.007835 0.517022
Si Si5 0.658016 0.738608 0.896804
Si Si6 0.392151 0.595102 0.180928
Si Si7 0.206388 0.446522 0.829349
Si Si8 0.495894 0.716046 0.834015
O O1 0.713715 0.507269 0.683313
O O2 0.491752 0.547942 0.277899
O O3 0.578139 0.412058 0.597749
O O4 0.559453 0.387497 0.293150
O O5 0.043287 0.328595 0.156590
O O6 0.080412 0.425035 0.992244
O O7 0.224345 0.296124 0.352022
O O8 0.016844 0.248424 0.857292
O O9 0.129407 0.413557 0.548451
O O10 0.902460 0.402487 0.065766
O O11 0.127905 0.043447 0.316374
O O12 0.577931 0.750584 0.872105
O O13 0.584908 0.787139 0.634066
O O14 0.689141 0.627502 0.931798
O O15 0.390690 0.707438 0.145413
O O16 0.266813 0.546731 0.906446
#
# Coordination Sequence:
#
# PCOD8124502 Si02
#       8
#     4   4   4   4   4   4   4   4
#     4  10  21  39  60  89 125 166 202 244 315 373
#     4  11  23  42  66  96 123 164 212 265 304 360
#     4  11  24  43  66  96 121 162 214 260 313 371
#     4  11  23  44  65  91 126 166 208 263 311 369
#     4  11  20  35  64  90 125 159 211 254 293 373
#     4  10  19  38  60  86 127 163 199 254 306 373
#     4  10  20  40  67  89 120 166 214 252 312 371
#     4  12  20  36  58  94 124 163 203 250 310 371
#
# _framework density 20.715385000000001
#
# number of rings (size 3 to 8) (size 9 to 14) (size 15 to 20)
#    0.000    1.250    2.500    6.750    0.000    0.000 
#    9.000    1.250    0.000    0.000    0.000    0.000 
#    0.000    0.000    0.000    0.000    0.000    0.000 
#
# Total GULP energy -396814.083160 kJ/mol
# GULP energy per Si atom -12400.440099 kJ/mol
# Density = 2.066824 g / cm^3
# Si number density = 20.715385 Si / 1000 Ang^3
#
#
#
# Elastic Constant Matrix: (Units=GPa)
#
#
# Indices 1 2 3 4 5 6 
#
# 1 100.4791 20.2408 29.8064 0.0000 -23.3347 0.0000
# 2 20.2408 83.4281 22.8509 0.0000 -10.1566 0.0000
# 3 29.8064 22.8509 55.7451 0.0000 -10.8489 0.0000
# 4 0.0000 0.0000 0.0000 34.0575 0.0000 -5.6292
# 5 -23.3347 -10.1566 -10.8489 0.0000 26.6458 0.0000
# 6 0.0000 0.0000 0.0000 -5.6292 0.0000 10.3219
#
#
#
# Elastic Compliance Matrix: (Units=1/GPa)
#
#
# Indices 1 2 3 4 5 6 
#
# 1 0.013928 -0.000755 -0.005235 0.000000 0.009778 0.000000
# 2 -0.000755 0.013790 -0.004730 0.000000 0.002670 0.000000
# 3 -0.005235 -0.004730 0.023278 0.000000 0.003091 0.000000
# 4 0.000000 0.000000 0.000000 0.032271 0.000000 0.017600
# 5 0.009778 0.002670 0.003091 0.000000 0.048368 0.000000
# 6 0.000000 0.000000 0.000000 0.017600 0.000000 0.106480
#
#
# Mechanical properties :
#
#
# Convention : Reuss Voigt Hill
#
# Bulk Modulus (GPa) = 33.83231 42.82760 38.32996
# Shear Modulus (GPa) = 18.55933 25.32198 21.94066
#
# Velocity S-wave (km/s) = 2.99644 3.50004 3.25799
# Velocity P-wave (km/s) = 5.32344 6.08711 5.71804
#
# Compressibility (1/GPa) = 0.02955755
#
# Stress axis : x y z
#
# Youngs Moduli (GPa) = 71.79733 72.51667 42.95908
#
# Poissons Ratio (x) = 0.05475 0.22488
# Poissons Ratio (y) = 0.05420 0.20318
# Poissons Ratio (z) = 0.37584 0.34297
#
# Static dielectric constant tensor:
#      x y z
#    x 3.738820 0.000000 -0.043270 
#    y 0.000000 3.670460 0.000000 
#    z -0.043270 0.000000 3.566330 
# 
# 
# High freq. dielectric constant tensor:
#      x y z
#    x 1.810300 0.000000 -0.004140 
#    y 0.000000 1.813960 0.000000 
#    z -0.004140 0.000000 1.794910 
# 
# From -- ./inp_files/19035.got.cif
#   From: 2010.03.12/outbox.cif.g09.slc.cpg/sg14_10_cif.got.tgz:19035.got - 2010.03.31 13:35:05.
