data_PCOD8124606
_publ_section_title
;
Structure prediction by ZEFSAII (Michael W. Deem and Ramdas Pophale) SiO2 
 PCOD8124606
Probable space group: P 21/C
;
_chemical_formula_sum "Si O2"
_cell_formula_units_Z 28
_cell_length_a 6.787117
_cell_length_b 12.964655
_cell_length_c 16.192913
_cell_angle_alpha 90.000000
_cell_angle_beta 66.247732
_cell_angle_gamma 90.000000
_cell_volume 1304.165259
_symmetry_space_group_name_H-M "P 21/C"
_symmetry_group_IT_number 14
_symmetry_cell_setting 'monoclinic'
loop_
_space_group_symop_operation_xyz
x,y,z
-x,1/2+y,1/2-z
-x,-y,-z
x,1/2-y,1/2+z
loop_
_atom_site_type_symbol
_atom_site_label
_atom_site_fract_x
_atom_site_fract_y
_atom_site_fract_z
Si Si1 0.381068 0.560128 0.307952
Si Si2 0.799378 0.472088 0.977985
Si Si3 0.379340 0.438126 0.144284
Si Si4 0.552671 0.639904 0.600174
Si Si5 0.992779 0.884387 0.970590
Si Si6 0.315035 0.246844 0.259392
Si Si7 0.139120 0.753179 0.097650
O O1 0.316123 0.508006 0.232852
O O2 0.452163 0.476608 0.364320
O O3 0.161784 0.623994 0.366826
O O4 0.586639 0.634134 0.269582
O O5 0.790476 0.552492 0.902748
O O6 0.785762 0.360318 0.938811
O O7 0.602756 0.483113 0.073667
O O8 0.000000 0.500000 0.000000
O O9 0.392796 0.319654 0.171084
O O10 0.602951 0.716103 0.666204
O O11 0.326949 0.675192 0.601856
O O12 0.740271 0.644765 0.496995
O O13 0.064418 0.806410 0.027905
O O14 0.000000 0.000000 0.000000
O O15 0.054817 0.244701 0.303385
#
# Coordination Sequence:
#
# PCOD8124606 Si02
#       7
#     4   4   4   4   4   4   4
#     4  10  19  39  65  92 127 161 201 257 313 368
#     4  11  24  43  63  83 117 164 208 251 304 364
#     4  10  23  41  61  89 121 154 203 255 300 358
#     4   9  21  39  61  90 127 162 200 250 304 368
#     4   9  20  38  60  89 124 157 198 248 302 371
#     4  10  21  38  60  92 125 157 204 253 298 361
#     4  11  22  39  62  89 123 165 202 242 307 366
#
# _framework density 21.469670000000001
#
# number of rings (size 3 to 8) (size 9 to 14) (size 15 to 20)
#    0.000    2.000    0.000    3.429    0.000    9.143 
#    0.000   12.857    0.000    0.000    0.000    0.000 
#    0.000    0.000    0.000    0.000    0.000    0.000 
#
# Total GULP energy -347034.691502 kJ/mol
# GULP energy per Si atom -12394.096125 kJ/mol
# Density = 2.142080 g / cm^3
# Si number density = 21.469670 Si / 1000 Ang^3
#
#
#
# Elastic Constant Matrix: (Units=GPa)
#
#
# Indices 1 2 3 4 5 6 
#
# 1 109.7642 18.2939 41.2017 0.0000 -18.1286 0.0000
# 2 18.2939 76.2068 21.5885 0.0000 -5.0705 0.0000
# 3 41.2017 21.5885 103.0495 0.0000 -16.8133 0.0000
# 4 0.0000 0.0000 0.0000 29.1015 0.0000 -5.9025
# 5 -18.1286 -5.0705 -16.8133 0.0000 33.9826 0.0000
# 6 0.0000 0.0000 0.0000 -5.9025 0.0000 32.2635
#
#
#
# Elastic Compliance Matrix: (Units=1/GPa)
#
#
# Indices 1 2 3 4 5 6 
#
# 1 0.011367 -0.001444 -0.003577 0.000000 0.004079 0.000000
# 2 -0.001444 0.014149 -0.002358 0.000000 0.000174 0.000000
# 3 -0.003577 -0.002358 0.012248 0.000000 0.003800 0.000000
# 4 0.000000 0.000000 0.000000 0.035687 0.000000 0.006529
# 5 0.004079 0.000174 0.003800 0.000000 0.033509 0.000000
# 6 0.000000 0.000000 0.000000 0.006529 0.000000 0.032189
#
#
# Mechanical properties :
#
#
# Convention : Reuss Voigt Hill
#
# Bulk Modulus (GPa) = 43.46783 50.13207 46.79995
# Shear Modulus (GPa) = 30.94516 32.93194 31.93855
#
# Velocity S-wave (km/s) = 3.80062 3.92073 3.86114
# Velocity P-wave (km/s) = 6.28886 6.62548 6.45936
#
# Compressibility (1/GPa) = 0.02300552
#
# Stress axis : x y z
#
# Youngs Moduli (GPa) = 87.97044 70.67884 81.64431
#
# Poissons Ratio (x) = 0.10207 0.29204
# Poissons Ratio (y) = 0.12704 0.19254
# Poissons Ratio (z) = 0.31466 0.16668
#
# Static dielectric constant tensor:
#      x y z
#    x 3.889470 0.000000 -0.337320 
#    y 0.000000 3.922240 0.000000 
#    z -0.337320 0.000000 4.300950 
# 
# 
# High freq. dielectric constant tensor:
#      x y z
#    x 1.833280 0.000000 -0.014190 
#    y 0.000000 1.849300 0.000000 
#    z -0.014190 0.000000 1.853500 
# 
# From -- ./inp_files/53392.got.cif
#   From: 2010.03.12/outbox.cif.g09.slc.cpg/sg14_27_cif.got.tgz:53392.got - 2010.03.31 13:35:05.
