data_PCOD8124834
_publ_section_title
;
Structure prediction by ZEFSAII (Michael W. Deem and Ramdas Pophale) SiO2 
 PCOD8124834
Probable space group: P 21/C
;
_chemical_formula_sum "Si O2"
_cell_formula_units_Z 28
_cell_length_a 13.511913
_cell_length_b 24.512447
_cell_length_c 5.027751
_cell_angle_alpha 90.000000
_cell_angle_beta 56.369193
_cell_angle_gamma 90.000000
_cell_volume 1386.519463
_symmetry_space_group_name_H-M "P 21/C"
_symmetry_group_IT_number 14
_symmetry_cell_setting 'monoclinic'
loop_
_space_group_symop_operation_xyz
x,y,z
-x,1/2+y,1/2-z
-x,-y,-z
x,1/2-y,1/2+z
loop_
_atom_site_type_symbol
_atom_site_label
_atom_site_fract_x
_atom_site_fract_y
_atom_site_fract_z
Si Si1 0.707553 0.286142 0.515155
Si Si2 0.408349 0.215054 0.016148
Si Si3 0.194527 0.140614 0.321946
Si Si4 0.705729 0.913399 0.318655
Si Si5 0.458740 0.871016 0.489519
Si Si6 0.981040 0.214217 0.644695
Si Si7 0.578487 0.485723 0.129506
O O1 0.676777 0.261592 0.272333
O O2 0.632360 0.340551 0.679928
O O3 0.844541 0.304018 0.328102
O O4 0.429684 0.266837 0.789263
O O5 0.500701 0.167336 0.813450
O O6 0.275396 0.194140 0.156800
O O7 0.217220 0.119015 0.582849
O O8 0.058712 0.159535 0.490261
O O9 0.226608 0.092958 0.063252
O O10 0.572283 0.889158 0.497033
O O11 0.696875 0.976610 0.429433
O O12 0.392028 0.921452 0.440423
O O13 0.011523 0.260177 0.383671
O O14 0.500000 0.500000 0.500000
O O15 0.500000 0.500000 0.000000
#
# Coordination Sequence:
#
# PCOD8124834 Si02
#       7
#     4   4   4   4   4   4   4
#     4  10  22  37  54  78 108 142 178 211 248 308
#     4  11  20  29  44  72 103 127 158 201 250 303
#     4  11  20  34  53  75 104 136 170 214 266 303
#     4  10  21  34  53  80 103 132 173 220 264 308
#     4  10  21  35  54  76 107 140 170 209 264 310
#     4  10  20  36  55  76 104 141 180 211 249 310
#     4  10  20  35  53  75 105 138 175 212 256 316
#
# _framework density 20.194451999999998
#
# number of rings (size 3 to 8) (size 9 to 14) (size 15 to 20)
#    0.000    1.714    0.000    6.857    0.000    5.714 
#    0.000    0.000    0.000    1.714    0.000    0.000 
#    0.000    0.000    0.000    0.000    0.000    0.000 
#
# Total GULP energy -347198.682902 kJ/mol
# GULP energy per Si atom -12399.952961 kJ/mol
# Density = 2.014849 g / cm^3
# Si number density = 20.194452 Si / 1000 Ang^3
#
#
#
# Elastic Constant Matrix: (Units=GPa)
#
#
# Indices 1 2 3 4 5 6 
#
# 1 37.8675 8.6791 19.6093 0.0000 4.4153 0.0000
# 2 8.6791 90.5680 27.5302 0.0000 -5.6940 0.0000
# 3 19.6093 27.5302 90.7749 0.0000 6.3574 0.0000
# 4 0.0000 0.0000 0.0000 31.5251 0.0000 0.5379
# 5 4.4153 -5.6940 6.3574 0.0000 34.7296 0.0000
# 6 0.0000 0.0000 0.0000 0.5379 0.0000 18.3558
#
#
#
# Elastic Compliance Matrix: (Units=1/GPa)
#
#
# Indices 1 2 3 4 5 6 
#
# 1 0.030105 -0.001274 -0.005910 0.000000 -0.002954 0.000000
# 2 -0.001274 0.012473 -0.003710 0.000000 0.002886 0.000000
# 3 -0.005910 -0.003710 0.013582 0.000000 -0.002343 0.000000
# 4 0.000000 0.000000 0.000000 0.031737 0.000000 -0.000930
# 5 -0.002954 0.002886 -0.002343 0.000000 0.030072 0.000000
# 6 0.000000 0.000000 0.000000 -0.000930 0.000000 0.054506
#
#
# Mechanical properties :
#
#
# Convention : Reuss Voigt Hill
#
# Bulk Modulus (GPa) = 29.09340 36.76086 32.92713
# Shear Modulus (GPa) = 24.30508 27.81489 26.05999
#
# Velocity S-wave (km/s) = 3.47299 3.71530 3.59618
# Velocity P-wave (km/s) = 5.52450 6.05372 5.79516
#
# Compressibility (1/GPa) = 0.03437205
#
# Stress axis : x y z
#
# Youngs Moduli (GPa) = 33.21732 80.17591 73.62656
#
# Poissons Ratio (x) = 0.10216 0.43513
# Poissons Ratio (y) = 0.04233 0.27312
# Poissons Ratio (z) = 0.19631 0.29742
#
# Static dielectric constant tensor:
#      x y z
#    x 3.501330 0.000000 0.040230 
#    y 0.000000 5.373560 0.000000 
#    z 0.040230 0.000000 3.806560 
# 
# 
# High freq. dielectric constant tensor:
#      x y z
#    x 1.772730 0.000000 0.021550 
#    y 0.000000 1.775370 0.000000 
#    z 0.021550 0.000000 1.796010 
# 
# From -- ./inp_files/3956.got.cif
#   From: 2010.03.12/outbox.cif.g09.slc.cpg/sg14_2_cif.got.tgz:3956.got - 2010.03.31 13:35:05.
