data_PCOD8124831
_publ_section_title
;
Structure prediction by ZEFSAII (Michael W. Deem and Ramdas Pophale) SiO2 
 PCOD8124831
Probable space group: P 21/C
;
_chemical_formula_sum "Si O2"
_cell_formula_units_Z 32
_cell_length_a 11.762584
_cell_length_b 18.063825
_cell_length_c 9.404639
_cell_angle_alpha 90.000000
_cell_angle_beta 56.294557
_cell_angle_gamma 90.000000
_cell_volume 1662.365223
_symmetry_space_group_name_H-M "P 21/C"
_symmetry_group_IT_number 14
_symmetry_cell_setting 'monoclinic'
loop_
_space_group_symop_operation_xyz
x,y,z
-x,1/2+y,1/2-z
-x,-y,-z
x,1/2-y,1/2+z
loop_
_atom_site_type_symbol
_atom_site_label
_atom_site_fract_x
_atom_site_fract_y
_atom_site_fract_z
Si Si1 0.385932 0.690074 0.799911
Si Si2 0.637225 0.585065 0.314386
Si Si3 0.835335 0.426605 0.548617
Si Si4 0.858646 0.594135 0.605505
Si Si5 0.326817 0.362276 0.016519
Si Si6 0.695173 0.692992 0.514624
Si Si7 0.671569 0.424005 0.392019
Si Si8 0.365600 0.664379 0.135571
O O1 0.549318 0.679971 0.691278
O O2 0.315291 0.624567 0.759365
O O3 0.346354 0.767206 0.755474
O O4 0.329321 0.688514 0.999712
O O5 0.685724 0.592951 0.120323
O O6 0.698353 0.653338 0.360028
O O7 0.694894 0.509016 0.335770
O O8 0.473707 0.588168 0.431998
O O9 0.837462 0.515342 0.545675
O O10 0.783591 0.399801 0.429985
O O11 0.736732 0.399760 0.743973
O O12 0.983539 0.391529 0.468990
O O13 0.811621 0.659574 0.533987
O O14 0.771893 0.594825 0.809243
O O15 0.274933 0.278686 0.031794
O O16 0.480493 0.365592 0.968432
#
# Coordination Sequence:
#
# PCOD8124831 Si02
#       8
#     4   4   4   4   4   4   4   4
#     4  10  22  36  65  95 123 155 201 265 302 361
#     4  10  20  34  61  92 117 156 203 256 307 355
#     4  11  24  43  63  85 131 169 202 257 313 370
#     4  11  24  43  61  89 127 167 205 255 315 370
#     4  11  22  36  66  92 120 156 212 259 302 368
#     4  10  20  39  61  91 124 157 201 255 314 364
#     4  10  20  38  59  89 125 157 200 253 310 355
#     4  11  22  39  63  94 125 157 208 255 308 365
#
# _framework density 19.249682
#
# number of rings (size 3 to 8) (size 9 to 14) (size 15 to 20)
#    0.000    1.500    3.750    1.500    8.750    0.500 
#    4.500    1.875    0.000    0.000    0.000    0.000 
#    0.000    0.000    0.000    0.000    0.000    0.000 
#
# Total GULP energy -396970.147113 kJ/mol
# GULP energy per Si atom -12405.317097 kJ/mol
# Density = 1.920587 g / cm^3
# Si number density = 19.249682 Si / 1000 Ang^3
#
#
#
# Elastic Constant Matrix: (Units=GPa)
#
#
# Indices 1 2 3 4 5 6 
#
# 1 116.6713 41.6816 50.3741 0.0000 8.9346 0.0000
# 2 41.6816 47.7879 13.1068 0.0000 -8.2964 0.0000
# 3 50.3741 13.1068 90.5043 0.0000 13.6954 0.0000
# 4 0.0000 0.0000 0.0000 24.1959 0.0000 -0.8924
# 5 8.9346 -8.2964 13.6954 0.0000 30.2563 0.0000
# 6 0.0000 0.0000 0.0000 -0.8924 0.0000 16.7044
#
#
#
# Elastic Compliance Matrix: (Units=1/GPa)
#
#
# Indices 1 2 3 4 5 6 
#
# 1 0.016743 -0.013852 -0.006430 0.000000 -0.005832 0.000000
# 2 -0.013852 0.035191 0.000574 0.000000 0.013480 0.000000
# 3 -0.006430 0.000574 0.015281 0.000000 -0.004860 0.000000
# 4 0.000000 0.000000 0.000000 0.041411 0.000000 0.002212
# 5 -0.005832 0.013480 -0.004860 0.000000 0.040669 0.000000
# 6 0.000000 0.000000 0.000000 0.002212 0.000000 0.059983
#
#
# Mechanical properties :
#
#
# Convention : Reuss Voigt Hill
#
# Bulk Modulus (GPa) = 35.97517 51.69873 43.83695
# Shear Modulus (GPa) = 19.38277 24.21805 21.80041
#
# Velocity S-wave (km/s) = 3.17663 3.55082 3.36893
# Velocity P-wave (km/s) = 5.67309 6.61259 6.16077
#
# Compressibility (1/GPa) = 0.02779695
#
# Stress axis : x y z
#
# Youngs Moduli (GPa) = 59.72670 28.41635 65.44184
#
# Poissons Ratio (x) = 0.39363 0.42082
# Poissons Ratio (y) = 0.82735 -0.03756
# Poissons Ratio (z) = 0.38407 -0.01631
#
# Static dielectric constant tensor:
#      x y z
#    x 3.466460 0.000000 0.160370 
#    y 0.000000 3.508490 0.000000 
#    z 0.160370 0.000000 3.377730 
# 
# 
# High freq. dielectric constant tensor:
#      x y z
#    x 1.743030 0.000000 0.025680 
#    y 0.000000 1.755680 0.000000 
#    z 0.025680 0.000000 1.736680 
# 
# From -- ./inp_files/14294.got.cif
#   From: 2010.03.12/outbox.cif.g09.slc.cpg/sg14_8_cif.got.tgz:14294.got - 2010.03.31 13:35:05.
