data_PCOD8124074
_publ_section_title
;
Structure prediction by ZEFSAII (Michael W. Deem and Ramdas Pophale) SiO2 
 PCOD8124074
Probable space group: P 21/C
;
_chemical_formula_sum "Si O2"
_cell_formula_units_Z 28
_cell_length_a 23.012444
_cell_length_b 9.223594
_cell_length_c 19.635911
_cell_angle_alpha 90.000000
_cell_angle_beta 20.887095
_cell_angle_gamma 90.000000
_cell_volume 1485.959945
_symmetry_space_group_name_H-M "P 21/C"
_symmetry_group_IT_number 14
_symmetry_cell_setting 'monoclinic'
loop_
_space_group_symop_operation_xyz
x,y,z
-x,1/2+y,1/2-z
-x,-y,-z
x,1/2-y,1/2+z
loop_
_atom_site_type_symbol
_atom_site_label
_atom_site_fract_x
_atom_site_fract_y
_atom_site_fract_z
Si Si1 0.005874 0.486725 0.178170
Si Si2 0.174403 0.218902 0.599373
Si Si3 0.557605 0.698793 0.798756
Si Si4 0.568138 0.885527 0.020882
Si Si5 0.657576 0.414766 0.534833
Si Si6 0.433527 0.103850 0.410229
Si Si7 0.286812 0.086557 0.277826
O O1 0.963468 0.658622 0.233727
O O2 0.844790 0.389501 0.347644
O O3 0.104786 0.417802 0.132962
O O4 0.107128 0.460923 0.997910
O O5 0.316110 0.304900 0.402948
O O6 0.250141 0.138850 0.583335
O O7 0.404449 0.803456 0.953909
O O8 0.465628 0.548041 0.912514
O O9 0.658082 0.754986 0.754499
O O10 0.520587 0.717907 0.081360
O O11 0.637850 0.928869 0.019388
O O12 0.403798 0.966477 0.181968
O O13 0.705022 0.909941 0.812894
O O14 0.553973 0.392755 0.715106
#
# Coordination Sequence:
#
# PCOD8124074 Si02
#       7
#     4   4   4   4   4   4   4
#     4  11  21  35  54  85 118 141 184 238 286 327
#     4  10  22  33  51  87 112 147 182 234 291 320
#     4   9  19  35  54  79 109 146 186 226 275 334
#     4  10  20  39  58  81 108 150 194 219 268 346
#     4  10  19  34  56  81 109 145 184 230 278 326
#     4  11  19  35  57  80 111 142 190 229 268 336
#     4   9  22  37  56  82 111 149 185 226 279 330
#
# _framework density 18.843036999999999
#
# number of rings (size 3 to 8) (size 9 to 14) (size 15 to 20)
#    0.000    2.000    2.857    1.714    4.000    1.143 
#    0.000    0.000    0.000    0.857    0.000    0.000 
#    0.000    0.000    0.000    0.000    0.000    0.000 
#
# Total GULP energy -347004.964611 kJ/mol
# GULP energy per Si atom -12393.034450 kJ/mol
# Density = 1.880015 g / cm^3
# Si number density = 18.843037 Si / 1000 Ang^3
#
#
#
# Elastic Constant Matrix: (Units=GPa)
#
#
# Indices 1 2 3 4 5 6 
#
# 1 45.7179 4.7786 28.7188 0.0000 1.0834 0.0000
# 2 4.7786 93.4367 34.9124 0.0000 -9.3288 0.0000
# 3 28.7188 34.9124 81.1396 0.0000 1.2760 0.0000
# 4 0.0000 0.0000 0.0000 33.4679 0.0000 3.8449
# 5 1.0834 -9.3288 1.2760 0.0000 22.6965 0.0000
# 6 0.0000 0.0000 0.0000 3.8449 0.0000 46.2179
#
#
#
# Elastic Compliance Matrix: (Units=1/GPa)
#
#
# Indices 1 2 3 4 5 6 
#
# 1 0.028723 0.002830 -0.011391 0.000000 0.000433 0.000000
# 2 0.002830 0.013772 -0.007021 0.000000 0.005920 0.000000
# 3 -0.011391 -0.007021 0.019431 0.000000 -0.003434 0.000000
# 4 0.000000 0.000000 0.000000 0.030168 0.000000 -0.002510
# 5 0.000433 0.005920 -0.003434 0.000000 0.046665 0.000000
# 6 0.000000 0.000000 0.000000 -0.002510 0.000000 0.021845
#
#
# Mechanical properties :
#
#
# Convention : Reuss Voigt Hill
#
# Bulk Modulus (GPa) = 32.50612 39.67932 36.09272
# Shear Modulus (GPa) = 24.74991 30.60209 27.67600
#
# Velocity S-wave (km/s) = 3.62813 4.03433 3.83661
# Velocity P-wave (km/s) = 5.90250 6.54252 6.23073
#
# Compressibility (1/GPa) = 0.03076344
#
# Stress axis : x y z
#
# Youngs Moduli (GPa) = 34.81571 72.61099 51.46413
#
# Poissons Ratio (x) = -0.20552 0.58622
# Poissons Ratio (y) = -0.09854 0.36131
# Poissons Ratio (z) = 0.39658 0.50978
#
# Static dielectric constant tensor:
#      x y z
#    x 3.414000 0.000000 -0.116420 
#    y 0.000000 3.608400 0.000000 
#    z -0.116420 0.000000 3.401590 
# 
# 
# High freq. dielectric constant tensor:
#      x y z
#    x 1.720910 0.000000 -0.008630 
#    y 0.000000 1.736030 0.000000 
#    z -0.008630 0.000000 1.715140 
# 
# From -- ./inp_files/64572.got.cif
#   From: 2010.03.12/outbox.cif.g09.slc.cpg/sg14_33_cif.got.tgz:64572.got - 2010.03.31 13:35:05.
