data_PCOD8124804
_publ_section_title
;
Structure prediction by ZEFSAII (Michael W. Deem and Ramdas Pophale) SiO2 
 PCOD8124804
Probable space group: P 21/C
;
_chemical_formula_sum "Si O2"
_cell_formula_units_Z 28
_cell_length_a 19.806862
_cell_length_b 9.715129
_cell_length_c 8.963186
_cell_angle_alpha 90.000000
_cell_angle_beta 48.527888
_cell_angle_gamma 90.000000
_cell_volume 1292.318992
_symmetry_space_group_name_H-M "P 21/C"
_symmetry_group_IT_number 14
_symmetry_cell_setting 'monoclinic'
loop_
_space_group_symop_operation_xyz
x,y,z
-x,1/2+y,1/2-z
-x,-y,-z
x,1/2-y,1/2+z
loop_
_atom_site_type_symbol
_atom_site_label
_atom_site_fract_x
_atom_site_fract_y
_atom_site_fract_z
Si Si1 0.806084 0.643771 0.753308
Si Si2 0.375206 0.635801 0.878959
Si Si3 0.922181 0.151093 0.394632
Si Si4 0.489825 0.799391 0.481260
Si Si5 0.817147 0.166709 0.257578
Si Si6 0.609834 0.652192 0.069694
Si Si7 0.087424 0.337339 0.112665
O O1 0.809497 0.484526 0.689470
O O2 0.877843 0.741683 0.570643
O O3 0.831465 0.641769 0.890291
O O4 0.706464 0.709835 0.872346
O O5 0.441251 0.684485 0.652690
O O6 0.412210 0.634039 0.995527
O O7 0.363740 0.475337 0.863905
O O8 0.277526 0.708445 0.023502
O O9 0.898445 0.161619 0.255689
O O10 0.838190 0.210526 0.611950
O O11 0.005037 0.253763 0.307752
O O12 0.942474 0.989781 0.403720
O O13 0.561762 0.753532 0.253202
O O14 0.544466 0.889144 0.524240
#
# Coordination Sequence:
#
# PCOD8124804 Si02
#       7
#     4   4   4   4   4   4   4
#     4  10  22  39  58  83 116 151 188 233 282 334
#     4  10  20  36  56  80 112 147 185 230 278 328
#     4  11  23  39  60  86 114 148 189 232 282 338
#     4  10  20  34  56  84 110 144 188 228 276 330
#     4  10  22  39  58  83 116 151 188 233 282 334
#     4  10  20  36  56  80 112 147 185 230 278 328
#     4  11  23  39  60  86 114 148 189 232 282 338
#
# _framework density 21.666478000000001
#
# number of rings (size 3 to 8) (size 9 to 14) (size 15 to 20)
#    0.000    1.714    0.000    4.286    0.000    5.714 
#    0.000    7.143    0.000    0.000    0.000    0.000 
#    0.000    0.000    0.000    0.000    0.000    0.000 
#
# Total GULP energy -346898.031810 kJ/mol
# GULP energy per Si atom -12389.215422 kJ/mol
# Density = 2.161716 g / cm^3
# Si number density = 21.666478 Si / 1000 Ang^3
#
#
#
# Elastic Constant Matrix: (Units=GPa)
#
#
# Indices 1 2 3 4 5 6 
#
# 1 78.3114 6.9073 6.7385 0.0000 -11.3831 0.0000
# 2 6.9073 77.4113 12.6047 0.0000 -5.4078 0.0000
# 3 6.7385 12.6047 61.1188 0.0000 -7.6428 0.0000
# 4 0.0000 0.0000 0.0000 28.6828 0.0000 -5.6727
# 5 -11.3831 -5.4078 -7.6428 0.0000 36.4306 0.0000
# 6 0.0000 0.0000 0.0000 -5.6727 0.0000 23.2436
#
#
#
# Elastic Compliance Matrix: (Units=1/GPa)
#
#
# Indices 1 2 3 4 5 6 
#
# 1 0.013481 -0.000794 -0.000832 0.000000 0.003920 0.000000
# 2 -0.000794 0.013488 -0.002541 0.000000 0.001221 0.000000
# 3 -0.000832 -0.002541 0.017353 0.000000 0.003003 0.000000
# 4 0.000000 0.000000 0.000000 0.036632 0.000000 0.008940
# 5 0.003920 0.001221 0.003003 0.000000 0.029485 0.000000
# 6 0.000000 0.000000 0.000000 0.008940 0.000000 0.045205
#
#
# Mechanical properties :
#
#
# Convention : Reuss Voigt Hill
#
# Bulk Modulus (GPa) = 27.78784 29.92694 28.85739
# Shear Modulus (GPa) = 28.41316 30.37748 29.39532
#
# Velocity S-wave (km/s) = 3.62524 3.74846 3.68736
# Velocity P-wave (km/s) = 5.51147 5.70764 5.61041
#
# Compressibility (1/GPa) = 0.03598696
#
# Stress axis : x y z
#
# Youngs Moduli (GPa) = 74.17893 74.14031 57.62678
#
# Poissons Ratio (x) = 0.05883 0.04797
# Poissons Ratio (y) = 0.05886 0.14646
# Poissons Ratio (z) = 0.06175 0.18843
#
# Static dielectric constant tensor:
#      x y z
#    x 4.028710 0.000000 -0.135830 
#    y 0.000000 3.811010 0.000000 
#    z -0.135830 0.000000 3.738970 
# 
# 
# High freq. dielectric constant tensor:
#      x y z
#    x 1.860140 0.000000 -0.011700 
#    y 0.000000 1.840840 0.000000 
#    z -0.011700 0.000000 1.847410 
# 
# From -- ./inp_files/18702.got.cif
#   From: 2010.03.12/outbox.cif.g09.slc.cpg/sg14_10_cif.got.tgz:18702.got - 2010.03.31 13:35:05.
