data_PCOD8124198
_publ_section_title
;
Structure prediction by ZEFSAII (Michael W. Deem and Ramdas Pophale) SiO2 
 PCOD8124198
Probable space group: P 21/C
;
_chemical_formula_sum "Si O2"
_cell_formula_units_Z 28
_cell_length_a 9.436902
_cell_length_b 12.436573
_cell_length_c 14.004134
_cell_angle_alpha 90.000000
_cell_angle_beta 117.438920
_cell_angle_gamma 90.000000
_cell_volume 1458.666631
_symmetry_space_group_name_H-M "P 21/C"
_symmetry_group_IT_number 14
_symmetry_cell_setting 'monoclinic'
loop_
_space_group_symop_operation_xyz
x,y,z
-x,1/2+y,1/2-z
-x,-y,-z
x,1/2-y,1/2+z
loop_
_atom_site_type_symbol
_atom_site_label
_atom_site_fract_x
_atom_site_fract_y
_atom_site_fract_z
Si Si1 0.033508 0.508168 0.653078
Si Si2 0.929818 0.523700 0.829759
Si Si3 0.333868 0.856274 0.301819
Si Si4 0.270200 0.573618 0.987228
Si Si5 0.078344 0.169514 0.028598
Si Si6 0.307542 0.366541 0.110263
Si Si7 0.812538 0.188177 0.367387
O O1 0.211086 0.556608 0.722114
O O2 0.067322 0.385592 0.629800
O O3 0.930204 0.511847 0.716787
O O4 0.915026 0.571422 0.544832
O O5 0.774587 0.585741 0.820117
O O6 0.935354 0.404503 0.874956
O O7 0.081328 0.591519 0.912153
O O8 0.360794 0.878113 0.423409
O O9 0.506209 0.859318 0.305506
O O10 0.267009 0.738173 0.252616
O O11 0.296398 0.446239 0.014418
O O12 0.318508 0.639888 0.098153
O O13 0.229723 0.249639 0.063548
O O14 0.910695 0.225674 0.957458
#
# Coordination Sequence:
#
# PCOD8124198 Si02
#       7
#     4   4   4   4   4   4   4
#     4   9  22  37  56  84 116 148 191 238 284 337
#     4  10  19  36  61  85 106 149 195 240 269 341
#     4  10  23  36  54  88 120 150 183 235 298 334
#     4  10  19  38  58  83 112 153 192 236 276 340
#     4  10  19  36  59  81 113 149 193 233 284 335
#     4  11  20  37  59  84 116 147 191 236 286 342
#     4  10  19  35  59  82 110 148 194 233 277 337
#
# _framework density 19.195613999999999
#
# number of rings (size 3 to 8) (size 9 to 14) (size 15 to 20)
#    0.000    2.000    2.857    1.286    2.000    3.429 
#    2.571    0.000    0.000    3.429    0.000    0.000 
#    0.000    0.000    0.000    0.000    0.000    0.000 
#
# Total GULP energy -346934.589883 kJ/mol
# GULP energy per Si atom -12390.521067 kJ/mol
# Density = 1.915192 g / cm^3
# Si number density = 19.195614 Si / 1000 Ang^3
#
#
#
# Elastic Constant Matrix: (Units=GPa)
#
#
# Indices 1 2 3 4 5 6 
#
# 1 105.1077 36.3638 38.4691 0.0000 -2.1365 0.0000
# 2 36.3638 102.8333 36.1986 0.0000 -14.9814 0.0000
# 3 38.4691 36.1986 70.2989 0.0000 -20.0656 0.0000
# 4 0.0000 0.0000 0.0000 27.1069 0.0000 -5.6228
# 5 -2.1365 -14.9814 -20.0656 0.0000 29.1478 0.0000
# 6 0.0000 0.0000 0.0000 -5.6228 0.0000 15.6450
#
#
#
# Elastic Compliance Matrix: (Units=1/GPa)
#
#
# Indices 1 2 3 4 5 6 
#
# 1 0.013039 -0.002867 -0.007227 0.000000 -0.005493 0.000000
# 2 -0.002867 0.012640 -0.003914 0.000000 0.003592 0.000000
# 3 -0.007227 -0.003914 0.024231 0.000000 0.014139 0.000000
# 4 0.000000 0.000000 0.000000 0.039863 0.000000 0.014327
# 5 -0.005493 0.003592 0.014139 0.000000 0.045485 0.000000
# 6 0.000000 0.000000 0.000000 0.014327 0.000000 0.069067
#
#
# Mechanical properties :
#
#
# Convention : Reuss Voigt Hill
#
# Bulk Modulus (GPa) = 45.67616 55.58922 50.63269
# Shear Modulus (GPa) = 20.86468 25.52716 23.19592
#
# Velocity S-wave (km/s) = 3.30047 3.65066 3.47997
# Velocity P-wave (km/s) = 6.19442 6.84046 6.52544
#
# Compressibility (1/GPa) = 0.02189326
#
# Stress axis : x y z
#
# Youngs Moduli (GPa) = 76.69061 79.11705 41.26939
#
# Poissons Ratio (x) = 0.22685 0.29825
# Poissons Ratio (y) = 0.21989 0.16153
# Poissons Ratio (z) = 0.55424 0.30968
#
# Static dielectric constant tensor:
#      x y z
#    x 3.350380 0.000000 -0.188910 
#    y 0.000000 3.715360 0.000000 
#    z -0.188910 0.000000 3.513860 
# 
# 
# High freq. dielectric constant tensor:
#      x y z
#    x 1.730360 0.000000 -0.013230 
#    y 0.000000 1.751380 0.000000 
#    z -0.013230 0.000000 1.734460 
# 
# From -- ./inp_files/40212.got.cif
#   From: 2010.03.12/outbox.cif.g09.slc.cpg/sg14_21_cif.got.tgz:40212.got - 2010.03.31 13:35:05.
