data_PCOD8124413
_publ_section_title
;
Structure prediction by ZEFSAII (Michael W. Deem and Ramdas Pophale) SiO2 
 PCOD8124413
Probable space group: P 21/C
;
_chemical_formula_sum "Si O2"
_cell_formula_units_Z 32
_cell_length_a 24.536998
_cell_length_b 9.250559
_cell_length_c 13.123941
_cell_angle_alpha 90.000000
_cell_angle_beta 35.872565
_cell_angle_gamma 90.000000
_cell_volume 1745.579934
_symmetry_space_group_name_H-M "P 21/C"
_symmetry_group_IT_number 14
_symmetry_cell_setting 'monoclinic'
loop_
_space_group_symop_operation_xyz
x,y,z
-x,1/2+y,1/2-z
-x,-y,-z
x,1/2-y,1/2+z
loop_
_atom_site_type_symbol
_atom_site_label
_atom_site_fract_x
_atom_site_fract_y
_atom_site_fract_z
Si Si1 0.795167 0.760263 0.065782
Si Si2 0.511464 0.891555 0.327509
Si Si3 0.891530 0.525046 0.275099
Si Si4 0.728951 0.189769 0.041193
Si Si5 0.737617 0.453902 0.164550
Si Si6 0.635434 0.963546 0.320819
Si Si7 0.603526 0.382270 0.547123
Si Si8 0.093007 0.052911 0.484424
O O1 0.735671 0.617996 0.123848
O O2 0.723701 0.872240 0.226896
O O3 0.877207 0.711959 0.018841
O O4 0.841513 0.835867 0.898562
O O5 0.578602 0.870590 0.323250
O O6 0.478650 0.733491 0.342824
O O7 0.425670 0.995163 0.489005
O O8 0.563956 0.969128 0.154446
O O9 0.829655 0.382505 0.380276
O O10 0.906573 0.566211 0.136406
O O11 0.990506 0.491820 0.178596
O O12 0.740446 0.353430 0.061143
O O13 0.680005 0.187857 0.005738
O O14 0.666529 0.111700 0.220488
O O15 0.648896 0.421754 0.370102
O O16 0.832265 0.434332 0.088471
#
# Coordination Sequence:
#
# PCOD8124413 Si02
#       8
#     4   4   4   4   4   4   4   4
#     4   9  21  36  59  84 112 150 185 237 281 333
#     4  10  22  36  58  79 110 149 195 233 278 341
#     4  10  19  39  62  83 112 158 185 222 287 345
#     4  10  19  37  60  78 115 146 186 229 289 337
#     4  10  21  37  54  86 115 141 190 239 275 333
#     4   9  19  39  55  77 108 152 190 225 284 343
#     4  11  22  38  55  85 110 154 187 237 287 332
#     4   9  21  36  61  85 115 148 190 226 277 346
#
# _framework density 18.332017
#
# number of rings (size 3 to 8) (size 9 to 14) (size 15 to 20)
#    0.750    1.500    2.500    0.000    3.500    1.000 
#    2.250    1.250    0.000    2.250    0.000    0.000 
#    0.000    0.000    0.000    0.000    0.000    0.000 
#
# Total GULP energy -396665.871379 kJ/mol
# GULP energy per Si atom -12395.808481 kJ/mol
# Density = 1.829029 g / cm^3
# Si number density = 18.332017 Si / 1000 Ang^3
#
#
#
# Elastic Constant Matrix: (Units=GPa)
#
#
# Indices 1 2 3 4 5 6 
#
# 1 34.4327 18.9041 19.1100 0.0000 -6.6488 0.0000
# 2 18.9041 74.2772 27.7022 0.0000 1.8428 0.0000
# 3 19.1100 27.7022 84.9557 0.0000 -1.7643 0.0000
# 4 0.0000 0.0000 0.0000 25.4472 0.0000 -6.5448
# 5 -6.6488 1.8428 -1.7643 0.0000 26.5140 0.0000
# 6 0.0000 0.0000 0.0000 -6.5448 0.0000 31.1442
#
#
#
# Elastic Compliance Matrix: (Units=1/GPa)
#
#
# Indices 1 2 3 4 5 6 
#
# 1 0.038520 -0.007846 -0.005903 0.000000 0.009812 0.000000
# 2 -0.007846 0.016977 -0.003842 0.000000 -0.003403 0.000000
# 3 -0.005903 -0.003842 0.014346 0.000000 -0.000259 0.000000
# 4 0.000000 0.000000 0.000000 0.041542 0.000000 0.008730
# 5 0.009812 -0.003403 -0.000259 0.000000 0.040396 0.000000
# 6 0.000000 0.000000 0.000000 0.008730 0.000000 0.033943
#
#
# Mechanical properties :
#
#
# Convention : Reuss Voigt Hill
#
# Bulk Modulus (GPa) = 28.84917 36.12202 32.48559
# Shear Modulus (GPa) = 21.50920 25.15104 23.33012
#
# Velocity S-wave (km/s) = 3.42908 3.70803 3.57128
# Velocity P-wave (km/s) = 5.60797 6.17088 5.89615
#
# Compressibility (1/GPa) = 0.03466304
#
# Stress axis : x y z
#
# Youngs Moduli (GPa) = 25.96049 58.90295 69.70620
#
# Poissons Ratio (x) = 0.46213 0.41145
# Poissons Ratio (y) = 0.20368 0.26779
# Poissons Ratio (z) = 0.15324 0.22629
#
# Static dielectric constant tensor:
#      x y z
#    x 3.235860 0.000000 -0.207530 
#    y 0.000000 3.182150 0.000000 
#    z -0.207530 0.000000 3.484000 
# 
# 
# High freq. dielectric constant tensor:
#      x y z
#    x 1.695270 0.000000 -0.008260 
#    y 0.000000 1.699500 0.000000 
#    z -0.008260 0.000000 1.720170 
# 
# From -- ./inp_files/51841.got.cif
#   From: 2010.03.12/outbox.cif.g09.slc.cpg/sg14_26_cif.got.tgz:51841.got - 2010.03.31 13:35:05.
