data_PCOD8124207
_publ_section_title
;
Structure prediction by ZEFSAII (Michael W. Deem and Ramdas Pophale) SiO2 
 PCOD8124207
Probable space group: P 21/C
;
_chemical_formula_sum "Si O2"
_cell_formula_units_Z 32
_cell_length_a 25.842230
_cell_length_b 12.347037
_cell_length_c 8.256508
_cell_angle_alpha 90.000000
_cell_angle_beta 143.998282
_cell_angle_gamma 90.000000
_cell_volume 1548.551850
_symmetry_space_group_name_H-M "P 21/C"
_symmetry_group_IT_number 14
_symmetry_cell_setting 'monoclinic'
loop_
_space_group_symop_operation_xyz
x,y,z
-x,1/2+y,1/2-z
-x,-y,-z
x,1/2-y,1/2+z
loop_
_atom_site_type_symbol
_atom_site_label
_atom_site_fract_x
_atom_site_fract_y
_atom_site_fract_z
Si Si1 0.744153 0.017157 0.946251
Si Si2 0.613095 0.835101 0.621363
Si Si3 0.428846 0.127274 0.117129
Si Si4 0.075998 0.588102 0.215419
Si Si5 0.544984 0.422577 0.484697
Si Si6 0.749174 0.354689 0.760649
Si Si7 0.134364 0.790327 0.163375
Si Si8 0.381701 0.683243 0.037833
O O1 0.839944 0.014306 0.111922
O O2 0.744491 0.035396 0.142969
O O3 0.695397 0.114610 0.735507
O O4 0.698492 0.903447 0.790284
O O5 0.634428 0.708287 0.645680
O O6 0.583083 0.859137 0.724498
O O7 0.530745 0.857263 0.297089
O O8 0.530065 0.156179 0.335186
O O9 0.402656 0.003918 0.004124
O O10 0.074685 0.693843 0.092417
O O11 0.074847 0.632598 0.397818
O O12 0.000000 0.500000 0.000000
O O13 0.500000 0.500000 0.500000
O O14 0.608205 0.341557 0.744321
O O15 0.787175 0.260351 0.741855
O O16 0.650156 0.310219 0.559205
O O17 0.817573 0.367207 0.082040
#
# Coordination Sequence:
#
# PCOD8124207 Si02
#       8
#     4   4   4   4   4   4   4   4
#     4  11  23  39  62  90 122 162 208 258 318 373
#     4  12  25  41  54  81 123 164 221 254 313 374
#     4  11  25  38  54  80 119 171 209 270 301 363
#     4  10  21  43  70  98 131 160 199 267 325 384
#     4  10  21  36  56  79 112 160 210 259 308 363
#     4  10  19  35  59  93 120 149 201 265 305 358
#     4   9  18  37  63  98 126 154 201 255 313 378
#     4  11  21  36  59  89 118 161 211 263 318 351
#
# _framework density 20.664466000000001
#
# number of rings (size 3 to 8) (size 9 to 14) (size 15 to 20)
#    0.000    1.500    6.250    1.875    3.500    1.000 
#    0.000    6.875    0.000    0.000    0.000    0.000 
#    0.000    0.000    0.000    0.000    0.000    0.000 
#
# Total GULP energy -396628.920962 kJ/mol
# GULP energy per Si atom -12394.653780 kJ/mol
# Density = 2.061743 g / cm^3
# Si number density = 20.664466 Si / 1000 Ang^3
#
#
#
# Elastic Constant Matrix: (Units=GPa)
#
#
# Indices 1 2 3 4 5 6 
#
# 1 70.0164 13.1721 37.8337 0.0000 -14.4696 0.0000
# 2 13.1721 84.3596 45.0363 0.0000 3.2368 0.0000
# 3 37.8337 45.0363 105.8025 0.0000 -16.1609 0.0000
# 4 0.0000 0.0000 0.0000 36.0873 0.0000 1.2534
# 5 -14.4696 3.2368 -16.1609 0.0000 36.7424 0.0000
# 6 0.0000 0.0000 0.0000 1.2534 0.0000 19.9230
#
#
#
# Elastic Compliance Matrix: (Units=1/GPa)
#
#
# Indices 1 2 3 4 5 6 
#
# 1 0.018422 0.000109 -0.005925 0.000000 0.004639 0.000000
# 2 0.000109 0.016077 -0.007603 0.000000 -0.004717 0.000000
# 3 -0.005925 -0.007603 0.015601 0.000000 0.005198 0.000000
# 4 0.000000 0.000000 0.000000 0.027771 0.000000 -0.001747
# 5 0.004639 -0.004717 0.005198 0.000000 0.031745 0.000000
# 6 0.000000 0.000000 0.000000 -0.001747 0.000000 0.050303
#
#
# Mechanical properties :
#
#
# Convention : Reuss Voigt Hill
#
# Bulk Modulus (GPa) = 42.99005 50.25142 46.62073
# Shear Modulus (GPa) = 25.70534 29.49298 27.59916
#
# Velocity S-wave (km/s) = 3.53078 3.78197 3.65853
# Velocity P-wave (km/s) = 6.12135 6.59103 6.36052
#
# Compressibility (1/GPa) = 0.02326120
#
# Stress axis : x y z
#
# Youngs Moduli (GPa) = 54.28174 62.20109 64.09992
#
# Poissons Ratio (x) = -0.00677 0.37981
# Poissons Ratio (y) = -0.00591 0.48734
# Poissons Ratio (z) = 0.32164 0.47290
#
# Static dielectric constant tensor:
#      x y z
#    x 3.947510 0.000000 -0.432480 
#    y 0.000000 3.994760 0.000000 
#    z -0.432480 0.000000 3.777860 
# 
# 
# High freq. dielectric constant tensor:
#      x y z
#    x 1.812540 0.000000 -0.034720 
#    y 0.000000 1.806270 0.000000 
#    z -0.034720 0.000000 1.786590 
# 
# From -- ./inp_files/20000.got.cif
#   From: 2010.03.12/outbox.cif.g09.slc.cpg/sg14_10_cif.got.tgz:20000.got - 2010.03.31 13:35:05.
