data_PCOD8124861
_publ_section_title
;
Structure prediction by ZEFSAII (Michael W. Deem and Ramdas Pophale) SiO2 
 PCOD8124861
Probable space group: P 21/C
;
_chemical_formula_sum "Si O2"
_cell_formula_units_Z 32
_cell_length_a 22.200992
_cell_length_b 14.120434
_cell_length_c 15.487037
_cell_angle_alpha 90.000000
_cell_angle_beta 160.547220
_cell_angle_gamma 90.000000
_cell_volume 1616.858274
_symmetry_space_group_name_H-M "P 21/C"
_symmetry_group_IT_number 14
_symmetry_cell_setting 'monoclinic'
loop_
_space_group_symop_operation_xyz
x,y,z
-x,1/2+y,1/2-z
-x,-y,-z
x,1/2-y,1/2+z
loop_
_atom_site_type_symbol
_atom_site_label
_atom_site_fract_x
_atom_site_fract_y
_atom_site_fract_z
Si Si1 0.696578 0.716504 0.722351
Si Si2 0.734856 0.567906 0.633335
Si Si3 0.644987 0.216592 0.119209
Si Si4 0.204172 0.104163 0.239742
Si Si5 0.937874 0.431985 0.039387
Si Si6 0.112310 0.417921 0.892131
Si Si7 0.447282 0.417842 0.227136
Si Si8 0.133238 0.895876 0.097690
O O1 0.672510 0.661754 0.599172
O O2 0.503671 0.720246 0.507297
O O3 0.767278 0.821763 0.798875
O O4 0.846425 0.666119 0.984755
O O5 0.562518 0.512103 0.363146
O O6 0.865366 0.597541 0.730763
O O7 0.836912 0.499999 0.836946
O O8 0.819217 0.161858 0.392543
O O9 0.703752 0.321897 0.172094
O O10 0.569618 0.166216 0.931268
O O11 0.361508 0.119058 0.522732
O O12 0.217669 0.000059 0.217650
O O13 0.007725 0.121409 0.015533
O O14 0.961259 0.487797 0.160626
O O15 0.960783 0.381036 0.621996
O O16 0.294033 0.448078 0.088094
#
# Coordination Sequence:
#
# PCOD8124861 Si02
#       8
#     4   4   4   4   4   4   4   4
#     4  10  20  35  56  80 108 142 181 224 269 322
#     4   9  17  31  54  82 108 136 175 220 263 314
#     4  10  20  35  56  80 108 142 181 224 269 322
#     4  10  22  39  56  77 109 145 182 225 271 321
#     4   9  17  31  54  82 108 136 175 220 263 314
#     4   9  19  36  56  80 110 143 178 221 273 321
#     4   9  19  36  56  80 110 143 178 221 273 321
#     4  10  22  39  56  77 109 145 182 225 271 321
#
# _framework density 19.791468999999999
#
# number of rings (size 3 to 8) (size 9 to 14) (size 15 to 20)
#    0.000    2.500    0.000    1.500    0.000    7.500 
#    0.000    5.000    0.000    0.000    0.000    0.000 
#    0.000    0.000    0.000    0.000    0.000    0.000 
#
# Total GULP energy -396896.465660 kJ/mol
# GULP energy per Si atom -12403.014552 kJ/mol
# Density = 1.974642 g / cm^3
# Si number density = 19.791469 Si / 1000 Ang^3
#
#
#
# Elastic Constant Matrix: (Units=GPa)
#
#
# Indices 1 2 3 4 5 6 
#
# 1 92.3539 62.2370 44.0051 0.0000 10.9920 0.0000
# 2 62.2370 139.3029 53.5577 0.0000 12.9511 0.0000
# 3 44.0051 53.5577 79.8620 0.0000 7.5242 0.0000
# 4 0.0000 0.0000 0.0000 29.8318 0.0000 9.3531
# 5 10.9920 12.9511 7.5242 0.0000 25.6538 0.0000
# 6 0.0000 0.0000 0.0000 9.3531 0.0000 36.0811
#
#
#
# Elastic Compliance Matrix: (Units=1/GPa)
#
#
# Indices 1 2 3 4 5 6 
#
# 1 0.017552 -0.005317 -0.005811 0.000000 -0.003132 0.000000
# 2 -0.005317 0.011523 -0.004592 0.000000 -0.002193 0.000000
# 3 -0.005811 -0.004592 0.018871 0.000000 -0.000727 0.000000
# 4 0.000000 0.000000 0.000000 0.036487 0.000000 -0.009458
# 5 -0.003132 -0.002193 -0.000727 0.000000 0.041643 0.000000
# 6 0.000000 0.000000 0.000000 -0.009458 0.000000 0.030167
#
#
# Mechanical properties :
#
#
# Convention : Reuss Voigt Hill
#
# Bulk Modulus (GPa) = 60.57551 70.12428 65.34989
# Shear Modulus (GPa) = 25.88192 28.42794 27.15493
#
# Velocity S-wave (km/s) = 3.62018 3.79406 3.70814
# Velocity P-wave (km/s) = 6.93885 7.39606 7.17110
#
# Compressibility (1/GPa) = 0.01650832
#
# Stress axis : x y z
#
# Youngs Moduli (GPa) = 56.97214 86.78209 52.99035
#
# Poissons Ratio (x) = 0.46138 0.30793
# Poissons Ratio (y) = 0.30290 0.24331
# Poissons Ratio (z) = 0.33107 0.39847
#
# Static dielectric constant tensor:
#      x y z
#    x 3.594200 0.000000 0.095100 
#    y 0.000000 3.536670 0.000000 
#    z 0.095100 0.000000 3.528870 
# 
# 
# High freq. dielectric constant tensor:
#      x y z
#    x 1.767190 0.000000 0.008220 
#    y 0.000000 1.770240 0.000000 
#    z 0.008220 0.000000 1.761490 
# 
# From -- ./inp_files/50711.got.cif
#   From: 2010.03.12/outbox.cif.g09.slc.cpg/sg14_26_cif.got.tgz:50711.got - 2010.03.31 13:35:05.
