data_PCOD8124545
_publ_section_title
;
Structure prediction by ZEFSAII (Michael W. Deem and Ramdas Pophale) SiO2 
 PCOD8124545
Probable space group: P 21/C
;
_chemical_formula_sum "Si O2"
_cell_formula_units_Z 32
_cell_length_a 9.734210
_cell_length_b 10.904921
_cell_length_c 14.961672
_cell_angle_alpha 90.000000
_cell_angle_beta 111.649319
_cell_angle_gamma 90.000000
_cell_volume 1476.160998
_symmetry_space_group_name_H-M "P 21/C"
_symmetry_group_IT_number 14
_symmetry_cell_setting 'monoclinic'
loop_
_space_group_symop_operation_xyz
x,y,z
-x,1/2+y,1/2-z
-x,-y,-z
x,1/2-y,1/2+z
loop_
_atom_site_type_symbol
_atom_site_label
_atom_site_fract_x
_atom_site_fract_y
_atom_site_fract_z
Si Si1 0.460057 0.205398 0.417867
Si Si2 0.278406 0.863428 0.216403
Si Si3 0.333487 0.036599 0.872047
Si Si4 0.808602 0.974516 0.649439
Si Si5 0.266939 0.947616 0.552013
Si Si6 0.652538 0.955171 0.923518
Si Si7 0.431984 0.300008 0.111406
Si Si8 0.122230 0.607257 0.189703
O O1 0.387388 0.326411 0.356765
O O2 0.342505 0.098654 0.382873
O O3 0.608362 0.159162 0.401906
O O4 0.504055 0.229275 0.531607
O O5 0.443109 0.828936 0.286157
O O6 0.180846 0.743366 0.194403
O O7 0.185121 0.949162 0.259241
O O8 0.286022 0.935047 0.123256
O O9 0.475895 0.952934 0.893339
O O10 0.207292 0.983426 0.777826
O O11 0.273725 0.032084 0.960328
O O12 0.951321 0.887272 0.677137
O O13 0.802706 0.066442 0.563157
O O14 0.137360 0.942920 0.593106
O O15 0.331658 0.082295 0.578359
O O16 0.672550 0.817558 0.886636
#
# Coordination Sequence:
#
# PCOD8124545 Si02
#       8
#     4   4   4   4   4   4   4   4
#     4  10  20  40  71  92 126 167 214 274 324 373
#     4  12  23  40  65  94 133 172 225 258 336 396
#     4  10  22  40  64  96 135 161 216 264 335 378
#     4  11  25  43  64  93 133 171 213 271 323 393
#     4  11  21  43  69  97 123 168 222 273 323 378
#     4  10  22  39  65  97 127 169 215 281 316 382
#     4  10  19  38  65 100 124 158 219 276 318 378
#     4  12  27  40  63  95 133 175 212 265 332 404
#
# _framework density 21.677852000000001
#
# number of rings (size 3 to 8) (size 9 to 14) (size 15 to 20)
#    0.000    1.250    3.750    2.625    1.750    3.000 
#    0.000    0.625    0.000    0.000    0.000    0.000 
#    0.000    0.000    0.000    0.000    0.000    0.000 
#
# Total GULP energy -396633.667661 kJ/mol
# GULP energy per Si atom -12394.802114 kJ/mol
# Density = 2.162851 g / cm^3
# Si number density = 21.677852 Si / 1000 Ang^3
#
#
#
# Elastic Constant Matrix: (Units=GPa)
#
#
# Indices 1 2 3 4 5 6 
#
# 1 54.9980 6.2470 16.2552 0.0000 -16.3997 0.0000
# 2 6.2470 113.9881 24.1928 0.0000 -18.3436 0.0000
# 3 16.2552 24.1928 72.5883 0.0000 -21.3889 0.0000
# 4 0.0000 0.0000 0.0000 21.9963 0.0000 -16.3200
# 5 -16.3997 -18.3436 -21.3889 0.0000 22.0561 0.0000
# 6 0.0000 0.0000 0.0000 -16.3200 0.0000 19.8333
#
#
#
# Elastic Compliance Matrix: (Units=1/GPa)
#
#
# Indices 1 2 3 4 5 6 
#
# 1 0.023676 0.001797 -0.000383 0.000000 0.018728 0.000000
# 2 0.001797 0.010347 -0.001290 0.000000 0.008690 0.000000
# 3 -0.000383 -0.001290 0.019450 0.000000 0.017504 0.000000
# 4 0.000000 0.000000 0.000000 0.116723 0.000000 0.096046
# 5 0.018728 0.008690 0.017504 0.000000 0.083466 0.000000
# 6 0.000000 0.000000 0.000000 0.096046 0.000000 0.129452
#
#
# Mechanical properties :
#
#
# Convention : Reuss Voigt Hill
#
# Bulk Modulus (GPa) = 18.61445 37.21825 27.91635
# Shear Modulus (GPa) = 12.47593 25.76909 19.12251
#
# Velocity S-wave (km/s) = 2.40159 3.45154 2.97328
# Velocity P-wave (km/s) = 4.03679 5.75241 4.96920
#
# Compressibility (1/GPa) = 0.05372171
#
# Stress axis : x y z
#
# Youngs Moduli (GPa) = 42.23708 96.64926 51.41471
#
# Poissons Ratio (x) = -0.17373 0.01967
# Poissons Ratio (y) = -0.07592 0.06634
# Poissons Ratio (z) = 0.01616 0.12470
#
# Static dielectric constant tensor:
#      x y z
#    x 3.731580 0.000000 -0.277410 
#    y 0.000000 4.214940 0.000000 
#    z -0.277410 0.000000 4.243150 
# 
# 
# High freq. dielectric constant tensor:
#      x y z
#    x 1.820500 0.000000 -0.019200 
#    y 0.000000 1.869670 0.000000 
#    z -0.019200 0.000000 1.851140 
# 
# From -- ./inp_files/40363.got.cif
#   From: 2010.03.12/outbox.cif.g09.slc.cpg/sg14_21_cif.got.tgz:40363.got - 2010.03.31 13:35:05.
