data_PCOD8124853
_publ_section_title
;
Structure prediction by ZEFSAII (Michael W. Deem and Ramdas Pophale) SiO2 
 PCOD8124853
Probable space group: P 21/C
;
_chemical_formula_sum "Si O2"
_cell_formula_units_Z 28
_cell_length_a 19.406986
_cell_length_b 9.808913
_cell_length_c 8.250850
_cell_angle_alpha 90.000000
_cell_angle_beta 58.901355
_cell_angle_gamma 90.000000
_cell_volume 1344.909658
_symmetry_space_group_name_H-M "P 21/C"
_symmetry_group_IT_number 14
_symmetry_cell_setting 'monoclinic'
loop_
_space_group_symop_operation_xyz
x,y,z
-x,1/2+y,1/2-z
-x,-y,-z
x,1/2-y,1/2+z
loop_
_atom_site_type_symbol
_atom_site_label
_atom_site_fract_x
_atom_site_fract_y
_atom_site_fract_z
Si Si1 0.384836 0.332574 0.887648
Si Si2 0.332139 0.071985 0.776762
Si Si3 0.849719 0.935568 0.928475
Si Si4 0.982574 0.109458 0.885468
Si Si5 0.412930 0.939550 0.135955
Si Si6 0.428367 0.839207 0.779915
Si Si7 0.073885 0.310982 0.970097
O O1 0.375824 0.177135 0.845080
O O2 0.359923 0.435847 0.771683
O O3 0.475979 0.362191 0.833069
O O4 0.324990 0.361549 0.108351
O O5 0.387925 0.937343 0.695322
O O6 0.244398 0.035789 0.948097
O O7 0.871052 0.900642 0.715921
O O8 0.892759 0.077724 0.929853
O O9 0.874094 0.813245 0.020071
O O10 0.997687 0.255280 0.954197
O O11 0.041365 0.096343 0.657141
O O12 0.000000 0.000000 0.000000
O O13 0.411868 0.818393 0.267211
O O14 0.382514 0.880016 0.002279
O O15 0.500000 0.000000 0.000000
#
# Coordination Sequence:
#
# PCOD8124853 Si02
#       7
#     4   4   4   4   4   4   4
#     4  11  21  37  57  82 112 154 200 238 292 357
#     4  12  23  36  59  88 119 152 193 254 299 339
#     4  10  20  35  55  88 117 145 188 238 291 340
#     4   9  18  34  58  85 112 150 191 226 278 347
#     4  10  21  37  59  81 105 142 194 245 287 344
#     4  11  21  38  57  81 111 152 198 241 292 352
#     4   9  18  35  60  83 115 153 188 228 277 355
#
# _framework density 20.819241999999999
#
# number of rings (size 3 to 8) (size 9 to 14) (size 15 to 20)
#    0.000    1.714    0.000    6.857    0.000    0.000 
#    0.000    2.857    0.000    3.429    0.000    0.000 
#    0.000    0.000    0.000    0.000    0.000    0.000 
#
# Total GULP energy -347038.958404 kJ/mol
# GULP energy per Si atom -12394.248514 kJ/mol
# Density = 2.077186 g / cm^3
# Si number density = 20.819242 Si / 1000 Ang^3
#
#
#
# Elastic Constant Matrix: (Units=GPa)
#
#
# Indices 1 2 3 4 5 6 
#
# 1 65.8769 26.8638 39.5737 0.0000 -9.0469 0.0000
# 2 26.8638 71.9743 19.7933 0.0000 -13.1129 0.0000
# 3 39.5737 19.7933 116.0620 0.0000 1.9101 0.0000
# 4 0.0000 0.0000 0.0000 36.8829 0.0000 8.0749
# 5 -9.0469 -13.1129 1.9101 0.0000 31.7586 0.0000
# 6 0.0000 0.0000 0.0000 8.0749 0.0000 29.0847
#
#
#
# Elastic Compliance Matrix: (Units=1/GPa)
#
#
# Indices 1 2 3 4 5 6 
#
# 1 0.022053 -0.005611 -0.006634 0.000000 0.004364 0.000000
# 2 -0.005611 0.017324 -0.001134 0.000000 0.005623 0.000000
# 3 -0.006634 -0.001134 0.011121 0.000000 -0.003027 0.000000
# 4 0.000000 0.000000 0.000000 0.028867 0.000000 -0.008015
# 5 0.004364 0.005623 -0.003027 0.000000 0.035234 0.000000
# 6 0.000000 0.000000 0.000000 -0.008015 0.000000 0.036607
#
#
# Mechanical properties :
#
#
# Convention : Reuss Voigt Hill
#
# Bulk Modulus (GPa) = 42.12340 47.37498 44.74919
# Shear Modulus (GPa) = 26.89911 30.72407 28.81159
#
# Velocity S-wave (km/s) = 3.59838 3.84572 3.72411
# Velocity P-wave (km/s) = 6.12710 6.52106 6.32715
#
# Compressibility (1/GPa) = 0.02373977
#
# Stress axis : x y z
#
# Youngs Moduli (GPa) = 45.34588 57.72179 89.91757
#
# Poissons Ratio (x) = 0.32391 0.59653
# Poissons Ratio (y) = 0.25446 0.10194
# Poissons Ratio (z) = 0.30083 0.06544
#
# Static dielectric constant tensor:
#      x y z
#    x 3.697010 0.000000 0.406410 
#    y 0.000000 4.006560 0.000000 
#    z 0.406410 0.000000 4.010480 
# 
# 
# High freq. dielectric constant tensor:
#      x y z
#    x 1.786650 0.000000 0.030770 
#    y 0.000000 1.812530 0.000000 
#    z 0.030770 0.000000 1.821420 
# 
# From -- ./inp_files/18696.got.cif
#   From: 2010.03.12/outbox.cif.g09.slc.cpg/sg14_10_cif.got.tgz:18696.got - 2010.03.31 13:35:05.
