data_PCOD8124337
_publ_section_title
;
Structure prediction by ZEFSAII (Michael W. Deem and Ramdas Pophale) SiO2 
 PCOD8124337
Probable space group: P 21/C
;
_chemical_formula_sum "Si O2"
_cell_formula_units_Z 32
_cell_length_a 27.058569
_cell_length_b 5.203025
_cell_length_c 17.360400
_cell_angle_alpha 90.000000
_cell_angle_beta 143.273726
_cell_angle_gamma 90.000000
_cell_volume 1461.559115
_symmetry_space_group_name_H-M "P 21/C"
_symmetry_group_IT_number 14
_symmetry_cell_setting 'monoclinic'
loop_
_space_group_symop_operation_xyz
x,y,z
-x,1/2+y,1/2-z
-x,-y,-z
x,1/2-y,1/2+z
loop_
_atom_site_type_symbol
_atom_site_label
_atom_site_fract_x
_atom_site_fract_y
_atom_site_fract_z
Si Si1 0.144033 0.426612 0.091796
Si Si2 0.732660 0.429568 0.083032
Si Si3 0.584848 0.011246 0.559074
Si Si4 0.834186 0.926582 0.199638
Si Si5 0.243183 0.929107 0.207014
Si Si6 0.449959 0.887076 0.706304
Si Si7 0.007919 0.001625 0.707836
Si Si8 0.527671 0.513316 0.447617
O O1 0.132635 0.426031 0.170206
O O2 0.183523 0.162363 0.109507
O O3 0.201287 0.660378 0.134691
O O4 0.056921 0.454615 0.941643
O O5 0.774934 0.166192 0.109539
O O6 0.731065 0.451350 0.172222
O O7 0.785848 0.667620 0.117529
O O8 0.640648 0.443481 0.936578
O O9 0.575840 0.248286 0.486477
O O10 0.500000 0.000000 0.500000
O O11 0.664637 0.049029 0.715510
O O12 0.593624 0.747483 0.521139
O O13 0.907532 0.943446 0.230404
O O14 0.480981 0.594339 0.734865
O O15 0.447563 0.936943 0.795574
O O16 0.983792 0.248519 0.728936
O O17 0.500000 0.500000 0.500000
#
# Coordination Sequence:
#
# PCOD8124337 Si02
#       8
#     4   4   4   4   4   4   4   4
#     4  10  22  40  66  93 117 161 207 246 300 368
#     4  10  21  37  62  93 121 157 208 264 310 351
#     4  10  20  36  56  82 118 161 202 249 302 352
#     4  10  22  43  67  90 123 162 206 254 303 377
#     4  10  19  36  61  89 119 153 207 259 295 354
#     4  12  23  37  61  90 122 162 208 257 306 355
#     4  12  25  44  66  95 130 161 195 250 317 377
#     4  10  21  37  54  78 113 157 201 243 294 354
#
# _framework density 21.894427
#
# number of rings (size 3 to 8) (size 9 to 14) (size 15 to 20)
#    0.000    1.500    0.000    5.625    0.000    2.000 
#    0.000   20.000    0.000    0.000    0.000    0.000 
#    0.000    0.000    0.000    0.000    0.000    0.000 
#
# Total GULP energy -396575.525280 kJ/mol
# GULP energy per Si atom -12392.985165 kJ/mol
# Density = 2.184459 g / cm^3
# Si number density = 21.894427 Si / 1000 Ang^3
#
#
#
# Elastic Constant Matrix: (Units=GPa)
#
#
# Indices 1 2 3 4 5 6 
#
# 1 71.6475 4.3953 19.4076 0.0000 8.8333 0.0000
# 2 4.3953 149.1340 11.6304 0.0000 -4.6904 0.0000
# 3 19.4076 11.6304 102.5852 0.0000 4.3096 0.0000
# 4 0.0000 0.0000 0.0000 34.5541 0.0000 8.8694
# 5 8.8333 -4.6904 4.3096 0.0000 25.9969 0.0000
# 6 0.0000 0.0000 0.0000 8.8694 0.0000 21.9073
#
#
#
# Elastic Compliance Matrix: (Units=1/GPa)
#
#
# Indices 1 2 3 4 5 6 
#
# 1 0.015294 -0.000396 -0.002645 0.000000 -0.004829 0.000000
# 2 -0.000396 0.006823 -0.000761 0.000000 0.001492 0.000000
# 3 -0.002645 -0.000761 0.010375 0.000000 -0.000958 0.000000
# 4 0.000000 0.000000 0.000000 0.032296 0.000000 -0.013075
# 5 -0.004829 0.001492 -0.000958 0.000000 0.040535 0.000000
# 6 0.000000 0.000000 0.000000 -0.013075 0.000000 0.050941
#
#
# Mechanical properties :
#
#
# Convention : Reuss Voigt Hill
#
# Bulk Modulus (GPa) = 40.18359 43.80368 41.99364
# Shear Modulus (GPa) = 29.04184 35.68724 32.36454
#
# Velocity S-wave (km/s) = 3.64600 4.04167 3.84892
# Velocity P-wave (km/s) = 6.00979 6.46764 6.24291
#
# Compressibility (1/GPa) = 0.02488578
#
# Stress axis : x y z
#
# Youngs Moduli (GPa) = 65.38710 146.55552 96.38508
#
# Poissons Ratio (x) = 0.05808 0.25499
# Poissons Ratio (y) = 0.02591 0.07338
# Poissons Ratio (z) = 0.17298 0.11157
#
# Static dielectric constant tensor:
#      x y z
#    x 3.906650 0.000000 0.075110 
#    y 0.000000 7.455000 0.000000 
#    z 0.075110 0.000000 4.176440 
# 
# 
# High freq. dielectric constant tensor:
#      x y z
#    x 1.840310 0.000000 0.005910 
#    y 0.000000 1.894850 0.000000 
#    z 0.005910 0.000000 1.863520 
# 
# From -- ./inp_files/62463.got.cif
#   From: 2010.03.12/outbox.cif.g09.slc.cpg/sg14_32_cif.got.tgz:62463.got - 2010.03.31 13:35:05.
