data_PCOD8124687
_publ_section_title
;
Structure prediction by ZEFSAII (Michael W. Deem and Ramdas Pophale) SiO2 
 PCOD8124687
Probable space group: P 21/C
;
_chemical_formula_sum "Si O2"
_cell_formula_units_Z 28
_cell_length_a 15.536005
_cell_length_b 5.196544
_cell_length_c 17.224942
_cell_angle_alpha 90.000000
_cell_angle_beta 62.817642
_cell_angle_gamma 90.000000
_cell_volume 1237.045143
_symmetry_space_group_name_H-M "P 21/C"
_symmetry_group_IT_number 14
_symmetry_cell_setting 'monoclinic'
loop_
_space_group_symop_operation_xyz
x,y,z
-x,1/2+y,1/2-z
-x,-y,-z
x,1/2-y,1/2+z
loop_
_atom_site_type_symbol
_atom_site_label
_atom_site_fract_x
_atom_site_fract_y
_atom_site_fract_z
Si Si1 0.899907 0.742830 0.348844
Si Si2 0.888434 0.238418 0.254628
Si Si3 0.611754 0.385357 0.470457
Si Si4 0.318496 0.696185 0.213826
Si Si5 0.390309 0.960287 0.319638
Si Si6 0.709436 0.880589 0.500804
Si Si7 0.449599 0.241813 0.645303
O O1 0.880004 0.456047 0.324594
O O2 0.823159 0.816110 0.446260
O O3 0.010719 0.770400 0.334525
O O4 0.886464 0.949567 0.286686
O O5 0.795057 0.254157 0.238058
O O6 0.627247 0.406165 0.367793
O O7 0.648300 0.643686 0.493992
O O8 0.497781 0.350144 0.544685
O O9 0.679979 0.146000 0.468126
O O10 0.352284 0.420178 0.166037
O O11 0.350404 0.706205 0.291375
O O12 0.302173 0.100407 0.400589
O O13 0.438785 0.098307 0.227716
O O14 0.463306 0.941667 0.361665
#
# Coordination Sequence:
#
# PCOD8124687 Si02
#       7
#     4   4   4   4   4   4   4
#     4  10  19  42  65  95 130 158 211 261 341 370
#     4  10  22  37  68  98 122 164 207 279 314 379
#     4  11  25  40  68  95 124 168 226 269 310 371
#     4  12  24  41  63 100 125 168 225 271 308 377
#     4  11  25  40  63  86 135 179 209 258 328 387
#     4  11  22  43  66  94 130 173 212 258 330 390
#     4  11  24  43  59  89 133 179 214 262 321 383
#
# _framework density 22.634582000000002
#
# number of rings (size 3 to 8) (size 9 to 14) (size 15 to 20)
#    0.000    1.143    4.286    1.286    8.000    0.571 
#    0.000    0.714    0.000    0.857    0.000    0.000 
#    0.000    0.000    0.000    0.000    0.000    0.000 
#
# Total GULP energy -346881.210922 kJ/mol
# GULP energy per Si atom -12388.614676 kJ/mol
# Density = 2.258306 g / cm^3
# Si number density = 22.634582 Si / 1000 Ang^3
#
#
#
# Elastic Constant Matrix: (Units=GPa)
#
#
# Indices 1 2 3 4 5 6 
#
# 1 107.5064 24.9294 60.5990 0.0000 -29.2783 0.0000
# 2 24.9294 100.9133 27.1254 0.0000 -0.9124 0.0000
# 3 60.5990 27.1254 134.8055 0.0000 -11.6078 0.0000
# 4 0.0000 0.0000 0.0000 31.0979 0.0000 -8.3356
# 5 -29.2783 -0.9124 -11.6078 0.0000 46.5694 0.0000
# 6 0.0000 0.0000 0.0000 -8.3356 0.0000 21.1492
#
#
#
# Elastic Compliance Matrix: (Units=1/GPa)
#
#
# Indices 1 2 3 4 5 6 
#
# 1 0.015231 -0.002153 -0.005715 0.000000 0.008109 0.000000
# 2 -0.002153 0.010785 -0.001329 0.000000 -0.001474 0.000000
# 3 -0.005715 -0.001329 0.010161 0.000000 -0.001087 0.000000
# 4 0.000000 0.000000 0.000000 0.035955 0.000000 0.014171
# 5 0.008109 -0.001474 -0.001087 0.000000 0.026272 0.000000
# 6 0.000000 0.000000 0.000000 0.014171 0.000000 0.052868
#
#
# Mechanical properties :
#
#
# Convention : Reuss Voigt Hill
#
# Bulk Modulus (GPa) = 56.23544 63.17030 59.70287
# Shear Modulus (GPa) = 28.47453 35.13473 31.80463
#
# Velocity S-wave (km/s) = 3.55069 3.94415 3.75258
# Velocity P-wave (km/s) = 6.45823 6.97933 6.72383
#
# Compressibility (1/GPa) = 0.01778238
#
# Stress axis : x y z
#
# Youngs Moduli (GPa) = 65.65536 92.71833 98.41342
#
# Poissons Ratio (x) = 0.19963 0.56246
# Poissons Ratio (y) = 0.14136 0.13082
# Poissons Ratio (z) = 0.37524 0.12325
#
# Static dielectric constant tensor:
#      x y z
#    x 4.589110 0.000000 -0.056890 
#    y 0.000000 4.539160 0.000000 
#    z -0.056890 0.000000 5.074460 
# 
# 
# High freq. dielectric constant tensor:
#      x y z
#    x 1.881450 0.000000 -0.021090 
#    y 0.000000 1.917250 0.000000 
#    z -0.021090 0.000000 1.895140 
# 
# From -- ./inp_files/58414.got.cif
#   From: 2010.03.12/outbox.cif.g09.slc.cpg/sg14_30_cif.got.tgz:58414.got - 2010.03.31 13:35:05.
