data_PCOD8124113
_publ_section_title
;
Structure prediction by ZEFSAII (Michael W. Deem and Ramdas Pophale) SiO2 
 PCOD8124113
Probable space group: P 21/C
;
_chemical_formula_sum "Si O2"
_cell_formula_units_Z 32
_cell_length_a 11.191820
_cell_length_b 6.703019
_cell_length_c 22.881635
_cell_angle_alpha 90.000000
_cell_angle_beta 86.240129
_cell_angle_gamma 90.000000
_cell_volume 1712.862319
_symmetry_space_group_name_H-M "P 21/C"
_symmetry_group_IT_number 14
_symmetry_cell_setting 'monoclinic'
loop_
_space_group_symop_operation_xyz
x,y,z
-x,1/2+y,1/2-z
-x,-y,-z
x,1/2-y,1/2+z
loop_
_atom_site_type_symbol
_atom_site_label
_atom_site_fract_x
_atom_site_fract_y
_atom_site_fract_z
Si Si1 0.857598 0.732044 0.213608
Si Si2 0.709727 0.053720 0.644125
Si Si3 0.408915 0.297412 0.054681
Si Si4 0.283944 0.879942 0.761039
Si Si5 0.670371 0.141436 0.520351
Si Si6 0.707592 0.393171 0.413349
Si Si7 0.115058 0.899851 0.194976
Si Si8 0.550505 0.397838 0.849847
O O1 0.820289 0.571397 0.165936
O O2 0.874215 0.615144 0.274237
O O3 0.977899 0.841271 0.189911
O O4 0.754204 0.896591 0.221811
O O5 0.682933 0.251595 0.682965
O O6 0.746402 0.122144 0.577599
O O7 0.592812 0.911747 0.646471
O O8 0.547238 0.240821 0.038860
O O9 0.394625 0.417314 0.115897
O O10 0.327516 0.105925 0.061271
O O11 0.361485 0.420542 0.000747
O O12 0.176898 0.775256 0.729584
O O13 0.402750 0.897669 0.717929
O O14 0.743267 0.259017 0.468288
O O15 0.825167 0.414260 0.370270
O O16 0.594889 0.303387 0.380876
#
# Coordination Sequence:
#
# PCOD8124113 Si02
#       8
#     4   4   4   4   4   4   4   4
#     4  11  21  38  59  78 109 149 179 238 281 332
#     4  10  23  35  52  85 117 148 181 218 288 345
#     4   9  17  33  57  79 111 156 181 224 273 321
#     4  10  21  36  56  79 112 149 179 230 280 329
#     4   9  19  35  51  82 119 144 189 223 265 339
#     4  10  19  34  61  84 108 152 188 230 269 321
#     4  10  21  38  59  85 103 138 203 230 276 331
#     4   9  20  35  51  87 119 136 186 227 268 343
#
# _framework density 18.682176999999999
#
# number of rings (size 3 to 8) (size 9 to 14) (size 15 to 20)
#    0.000    2.250    1.250    1.875    1.750    3.000 
#    2.250    0.625    0.000    1.500    0.000    0.000 
#    0.000    0.000    0.000    0.000    0.000    0.000 
#
# Total GULP energy -396843.909081 kJ/mol
# GULP energy per Si atom -12401.372159 kJ/mol
# Density = 1.863966 g / cm^3
# Si number density = 18.682177 Si / 1000 Ang^3
#
#
#
# Elastic Constant Matrix: (Units=GPa)
#
#
# Indices 1 2 3 4 5 6 
#
# 1 57.5800 26.0721 42.0176 0.0000 -5.2868 0.0000
# 2 26.0721 78.5713 42.9835 0.0000 -8.2681 0.0000
# 3 42.0176 42.9835 140.9759 0.0000 -6.9482 0.0000
# 4 0.0000 0.0000 0.0000 24.6241 0.0000 -4.1056
# 5 -5.2868 -8.2681 -6.9482 0.0000 23.4411 0.0000
# 6 0.0000 0.0000 0.0000 -4.1056 0.0000 23.9191
#
#
#
# Elastic Compliance Matrix: (Units=1/GPa)
#
#
# Indices 1 2 3 4 5 6 
#
# 1 0.023698 -0.004606 -0.005557 0.000000 0.002073 0.000000
# 2 -0.004606 0.016562 -0.003491 0.000000 0.003768 0.000000
# 3 -0.005557 -0.003491 0.009835 0.000000 0.000431 0.000000
# 4 0.000000 0.000000 0.000000 0.041807 0.000000 0.007176
# 5 0.002073 0.003768 0.000431 0.000000 0.044584 0.000000
# 6 0.000000 0.000000 0.000000 0.007176 0.000000 0.043039
#
#
# Mechanical properties :
#
#
# Convention : Reuss Voigt Hill
#
# Bulk Modulus (GPa) = 43.88285 55.47482 49.67884
# Shear Modulus (GPa) = 23.31774 25.46713 24.39244
#
# Velocity S-wave (km/s) = 3.53672 3.69613 3.61730
# Velocity P-wave (km/s) = 6.34176 6.92630 6.64047
#
# Compressibility (1/GPa) = 0.02278794
#
# Stress axis : x y z
#
# Youngs Moduli (GPa) = 42.19818 60.37897 101.67457
#
# Poissons Ratio (x) = 0.27808 0.56497
# Poissons Ratio (y) = 0.19435 0.35498
# Poissons Ratio (z) = 0.23448 0.21081
#
# Static dielectric constant tensor:
#      x y z
#    x 3.115700 0.000000 -0.084630 
#    y 0.000000 3.406070 0.000000 
#    z -0.084630 0.000000 3.590490 
# 
# 
# High freq. dielectric constant tensor:
#      x y z
#    x 1.693090 0.000000 -0.007270 
#    y 0.000000 1.729440 0.000000 
#    z -0.007270 0.000000 1.730890 
# 
# From -- ./inp_files/72766.got.cif
#   From: 2010.03.12/outbox.cif.g09.slc.cpg/sg14_37_cif.got.tgz:72766.got - 2010.03.31 13:35:05.
