data_PCOD8124064
_publ_section_title
;
Structure prediction by ZEFSAII (Michael W. Deem and Ramdas Pophale) SiO2 
 PCOD8124064
Probable space group: P 21/C
;
_chemical_formula_sum "Si O2"
_cell_formula_units_Z 28
_cell_length_a 16.411070
_cell_length_b 18.120282
_cell_length_c 8.129582
_cell_angle_alpha 90.000000
_cell_angle_beta 40.925498
_cell_angle_gamma 90.000000
_cell_volume 1583.662009
_symmetry_space_group_name_H-M "P 21/C"
_symmetry_group_IT_number 14
_symmetry_cell_setting 'monoclinic'
loop_
_space_group_symop_operation_xyz
x,y,z
-x,1/2+y,1/2-z
-x,-y,-z
x,1/2-y,1/2+z
loop_
_atom_site_type_symbol
_atom_site_label
_atom_site_fract_x
_atom_site_fract_y
_atom_site_fract_z
Si Si1 0.856029 0.038528 0.892444
Si Si2 0.610402 0.668432 0.100220
Si Si3 0.659234 0.822254 0.889781
Si Si4 0.248240 0.017486 0.609284
Si Si5 0.399227 0.914139 0.792464
Si Si6 0.491692 0.942271 0.299011
Si Si7 0.866953 0.562379 0.054847
O O1 0.849001 0.980108 0.754012
O O2 0.837427 0.001870 0.101591
O O3 0.987229 0.080520 0.691268
O O4 0.746749 0.098398 0.022594
O O5 0.597459 0.683094 0.309275
O O6 0.466032 0.657952 0.265029
O O7 0.677931 0.739107 0.920961
O O8 0.692527 0.596533 0.935406
O O9 0.794174 0.860688 0.680953
O O10 0.557616 0.867461 0.145720
O O11 0.175785 0.018231 0.545222
O O12 0.357387 0.956624 0.419189
O O13 0.476873 0.933174 0.513733
O O14 0.418586 0.987304 0.878239
#
# Coordination Sequence:
#
# PCOD8124064 Si02
#       7
#     4   4   4   4   4   4   4
#     4  10  19  34  56  77 110 139 174 225 257 321
#     4  10  22  31  54  78 106 144 169 229 276 316
#     4  11  21  34  51  80 109 137 183 219 271 327
#     4   9  20  35  54  82 105 138 184 226 268 310
#     4   9  17  32  52  78 103 137 172 214 275 309
#     4   9  17  30  54  76 105 135 169 230 264 307
#     4  10  21  32  54  81 105 142 178 217 264 316
#
# _framework density 17.680541000000002
#
# number of rings (size 3 to 8) (size 9 to 14) (size 15 to 20)
#    0.000    2.286    1.429    2.143    4.000    1.714 
#    0.000    0.000    0.000   12.000    0.000    0.000 
#    0.000    0.000    0.000    0.000    0.000    0.000 
#
# Total GULP energy -346895.310433 kJ/mol
# GULP energy per Si atom -12389.118230 kJ/mol
# Density = 1.764030 g / cm^3
# Si number density = 17.680541 Si / 1000 Ang^3
#
#
#
# Elastic Constant Matrix: (Units=GPa)
#
#
# Indices 1 2 3 4 5 6 
#
# 1 83.0121 9.5060 28.7484 0.0000 -15.3644 0.0000
# 2 9.5060 62.2356 24.0834 0.0000 -15.8743 0.0000
# 3 28.7484 24.0834 89.0503 0.0000 -16.0293 0.0000
# 4 0.0000 0.0000 0.0000 22.8166 0.0000 4.9117
# 5 -15.3644 -15.8743 -16.0293 0.0000 25.4189 0.0000
# 6 0.0000 0.0000 0.0000 4.9117 0.0000 19.0165
#
#
#
# Elastic Compliance Matrix: (Units=1/GPa)
#
#
# Indices 1 2 3 4 5 6 
#
# 1 0.014518 0.001016 -0.003686 0.000000 0.007085 0.000000
# 2 0.001016 0.020146 -0.003837 0.000000 0.010776 0.000000
# 3 -0.003686 -0.003837 0.014242 0.000000 0.004356 0.000000
# 4 0.000000 0.000000 0.000000 0.046408 0.000000 -0.011987
# 5 0.007085 0.010776 0.004356 0.000000 0.053101 0.000000
# 6 0.000000 0.000000 0.000000 -0.011987 0.000000 0.055682
#
#
# Mechanical properties :
#
#
# Convention : Reuss Voigt Hill
#
# Bulk Modulus (GPa) = 27.86140 39.88595 33.87368
# Shear Modulus (GPa) = 21.82697 24.91440 23.37069
#
# Velocity S-wave (km/s) = 3.51738 3.75793 3.63964
# Velocity P-wave (km/s) = 5.68229 6.43720 6.07149
#
# Compressibility (1/GPa) = 0.03589195
#
# Stress axis : x y z
#
# Youngs Moduli (GPa) = 68.87941 49.63732 70.21729
#
# Poissons Ratio (x) = -0.05044 0.25885
# Poissons Ratio (y) = -0.07000 0.26941
# Poissons Ratio (z) = 0.25391 0.19045
#
# Static dielectric constant tensor:
#      x y z
#    x 3.553340 0.000000 0.000320 
#    y 0.000000 2.793920 0.000000 
#    z 0.000320 0.000000 3.333850 
# 
# 
# High freq. dielectric constant tensor:
#      x y z
#    x 1.700510 0.000000 0.007790 
#    y 0.000000 1.646580 0.000000 
#    z 0.007790 0.000000 1.684000 
# 
# From -- ./inp_files/13537.got.cif
#   From: 2010.03.12/outbox.cif.g09.slc.cpg/sg14_7_cif.got.tgz:13537.got - 2010.03.31 13:35:05.
