data_PCOD8124320
_publ_section_title
;
Structure prediction by ZEFSAII (Michael W. Deem and Ramdas Pophale) SiO2 
 PCOD8124320
Probable space group: P 21/C
;
_chemical_formula_sum "Si O2"
_cell_formula_units_Z 32
_cell_length_a 10.032006
_cell_length_b 20.500707
_cell_length_c 8.951478
_cell_angle_alpha 90.000000
_cell_angle_beta 124.613078
_cell_angle_gamma 90.000000
_cell_volume 1515.146962
_symmetry_space_group_name_H-M "P 21/C"
_symmetry_group_IT_number 14
_symmetry_cell_setting 'monoclinic'
loop_
_space_group_symop_operation_xyz
x,y,z
-x,1/2+y,1/2-z
-x,-y,-z
x,1/2-y,1/2+z
loop_
_atom_site_type_symbol
_atom_site_label
_atom_site_fract_x
_atom_site_fract_y
_atom_site_fract_z
Si Si1 0.178949 0.046660 0.411786
Si Si2 0.317666 0.298189 0.748823
Si Si3 0.812411 0.053450 0.086140
Si Si4 0.316451 0.325106 0.075447
Si Si5 0.679858 0.560944 0.318720
Si Si6 0.312276 0.932007 0.671765
Si Si7 0.702642 0.325833 0.330041
Si Si8 0.300647 0.800874 0.505694
O O1 0.241366 0.104112 0.562972
O O2 0.291218 0.042177 0.335893
O O3 0.996401 0.060780 0.250600
O O4 0.187506 0.980772 0.512432
O O5 0.245011 0.231565 0.635708
O O6 0.273374 0.362850 0.623782
O O7 0.248605 0.306196 0.869702
O O8 0.508796 0.291519 0.880951
O O9 0.696150 0.062841 0.154614
O O10 0.773153 0.106875 0.935970
O O11 0.787283 0.982402 0.997573
O O12 0.509163 0.329600 0.208474
O O13 0.491453 0.549203 0.232287
O O14 0.258447 0.859551 0.590870
O O15 0.767792 0.315543 0.202966
O O16 0.771367 0.266351 0.474214
#
# Coordination Sequence:
#
# PCOD8124320 Si02
#       8
#     4   4   4   4   4   4   4   4
#     4  11  23  40  57  83 119 154 189 235 290 341
#     4   8  17  32  56  85 107 137 190 237 274 324
#     4  12  24  37  56  88 121 150 187 239 292 339
#     4   9  18  35  58  81 109 146 186 230 277 335
#     4  10  21  39  61  83 109 152 199 236 277 342
#     4  11  22  39  60  85 113 151 197 238 280 338
#     4  10  19  36  60  86 114 151 192 234 282 341
#     4   9  18  34  59  85 111 145 192 241 279 330
#
# _framework density 21.120062999999998
#
# number of rings (size 3 to 8) (size 9 to 14) (size 15 to 20)
#    0.000    2.000    0.000    4.500    0.000    4.000 
#    0.000    6.250    0.000    0.000    0.000    0.000 
#    0.000    0.000    0.000    0.000    0.000    0.000 
#
# Total GULP energy -396805.226425 kJ/mol
# GULP energy per Si atom -12400.163326 kJ/mol
# Density = 2.107199 g / cm^3
# Si number density = 21.120063 Si / 1000 Ang^3
#
#
#
# Elastic Constant Matrix: (Units=GPa)
#
#
# Indices 1 2 3 4 5 6 
#
# 1 43.8059 16.9940 23.3040 0.0000 -4.2578 0.0000
# 2 16.9940 92.5308 42.8859 0.0000 5.1779 0.0000
# 3 23.3040 42.8859 88.5194 0.0000 -7.8892 0.0000
# 4 0.0000 0.0000 0.0000 50.8142 0.0000 -12.6385
# 5 -4.2578 5.1779 -7.8892 0.0000 26.6892 0.0000
# 6 0.0000 0.0000 0.0000 -12.6385 0.0000 11.1445
#
#
#
# Elastic Compliance Matrix: (Units=1/GPa)
#
#
# Indices 1 2 3 4 5 6 
#
# 1 0.027115 -0.002552 -0.005621 0.000000 0.003159 0.000000
# 2 -0.002552 0.014810 -0.006979 0.000000 -0.005343 0.000000
# 3 -0.005621 -0.006979 0.016637 0.000000 0.005375 0.000000
# 4 0.000000 0.000000 0.000000 0.027411 0.000000 0.031086
# 5 0.003159 -0.005343 0.005375 0.000000 0.040598 0.000000
# 6 0.000000 0.000000 0.000000 0.031086 0.000000 0.124984
#
#
# Mechanical properties :
#
#
# Convention : Reuss Voigt Hill
#
# Bulk Modulus (GPa) = 35.38775 43.46932 39.42853
# Shear Modulus (GPa) = 17.16575 27.17439 22.17007
#
# Velocity S-wave (km/s) = 2.85400 3.59090 3.24345
# Velocity P-wave (km/s) = 5.25855 6.14975 5.72153
#
# Compressibility (1/GPa) = 0.02825837
#
# Stress axis : x y z
#
# Youngs Moduli (GPa) = 36.87996 67.52349 60.10654
#
# Poissons Ratio (x) = 0.17230 0.33784
# Poissons Ratio (y) = 0.09410 0.41951
# Poissons Ratio (z) = 0.20729 0.47128
#
# Static dielectric constant tensor:
#      x y z
#    x 3.607710 0.000000 -0.300640 
#    y 0.000000 4.123320 0.000000 
#    z -0.300640 0.000000 3.769930 
# 
# 
# High freq. dielectric constant tensor:
#      x y z
#    x 1.802200 0.000000 -0.016050 
#    y 0.000000 1.846290 0.000000 
#    z -0.016050 0.000000 1.817730 
# 
# From -- ./inp_files/14333.got.cif
#   From: 2010.03.12/outbox.cif.g09.slc.cpg/sg14_8_cif.got.tgz:14333.got - 2010.03.31 13:35:05.
