data_PCOD8124894
_publ_section_title
;
Structure prediction by ZEFSAII (Michael W. Deem and Ramdas Pophale) SiO2 
 PCOD8124894
Probable space group: P 21/C
;
_chemical_formula_sum "Si O2"
_cell_formula_units_Z 28
_cell_length_a 8.787390
_cell_length_b 7.738432
_cell_length_c 21.260982
_cell_angle_alpha 90.000000
_cell_angle_beta 72.387083
_cell_angle_gamma 90.000000
_cell_volume 1377.986310
_symmetry_space_group_name_H-M "P 21/C"
_symmetry_group_IT_number 14
_symmetry_cell_setting 'monoclinic'
loop_
_space_group_symop_operation_xyz
x,y,z
-x,1/2+y,1/2-z
-x,-y,-z
x,1/2-y,1/2+z
loop_
_atom_site_type_symbol
_atom_site_label
_atom_site_fract_x
_atom_site_fract_y
_atom_site_fract_z
Si Si1 0.612110 0.248039 0.208660
Si Si2 0.295157 0.870079 0.562681
Si Si3 0.011570 0.217730 0.335481
Si Si4 0.662410 0.633943 0.670678
Si Si5 0.475755 0.658517 0.920283
Si Si6 0.437100 0.530631 0.600362
Si Si7 0.180188 0.960382 0.228444
O O1 0.451965 0.249356 0.271016
O O2 0.673164 0.053889 0.199397
O O3 0.585286 0.331521 0.143299
O O4 0.761889 0.342457 0.221449
O O5 0.331630 0.902860 0.484402
O O6 0.349139 0.673462 0.570326
O O7 0.106823 0.884632 0.601997
O O8 0.384137 0.015701 0.593412
O O9 0.163020 0.282508 0.356028
O O10 0.915776 0.371276 0.315483
O O11 0.066423 0.105348 0.269705
O O12 0.598431 0.619798 0.607089
O O13 0.531793 0.848884 0.939307
O O14 0.339512 0.466714 0.674847
#
# Coordination Sequence:
#
# PCOD8124894 Si02
#       7
#     4   4   4   4   4   4   4
#     4  10  21  36  61  83 114 151 198 234 287 354
#     4  10  23  38  60  83 115 156 194 238 288 339
#     4  11  22  36  56  85 125 142 188 241 303 348
#     4  10  20  35  58  89 111 149 186 244 298 346
#     4  10  21  39  62  82 110 156 204 233 275 354
#     4   9  20  38  61  83 110 151 199 237 285 346
#     4  10  22  34  55  89 113 151 180 243 306 339
#
# _framework density 20.319506000000001
#
# number of rings (size 3 to 8) (size 9 to 14) (size 15 to 20)
#    0.000    2.000    0.000    3.857   12.000    0.000 
#    0.000    3.571    0.000    0.000    0.000    0.000 
#    0.000    0.000    0.000    0.000    0.000    0.000 
#
# Total GULP energy -347090.224998 kJ/mol
# GULP energy per Si atom -12396.079464 kJ/mol
# Density = 2.027326 g / cm^3
# Si number density = 20.319506 Si / 1000 Ang^3
#
#
#
# Elastic Constant Matrix: (Units=GPa)
#
#
# Indices 1 2 3 4 5 6 
#
# 1 88.9648 11.1026 36.7044 0.0000 -26.5819 0.0000
# 2 11.1026 53.3228 16.1453 0.0000 -15.3034 0.0000
# 3 36.7044 16.1453 71.9280 0.0000 -21.2356 0.0000
# 4 0.0000 0.0000 0.0000 23.6581 0.0000 -2.5738
# 5 -26.5819 -15.3034 -21.2356 0.0000 22.2688 0.0000
# 6 0.0000 0.0000 0.0000 -2.5738 0.0000 20.8209
#
#
#
# Elastic Compliance Matrix: (Units=1/GPa)
#
#
# Indices 1 2 3 4 5 6 
#
# 1 0.018719 0.003286 -0.004212 0.000000 0.020586 0.000000
# 2 0.003286 0.023963 -0.001442 0.000000 0.019015 0.000000
# 3 -0.004212 -0.001442 0.020320 0.000000 0.013358 0.000000
# 4 0.000000 0.000000 0.000000 0.042845 0.000000 0.005296
# 5 0.020586 0.019015 0.013358 0.000000 0.095285 0.000000
# 6 0.000000 0.000000 0.000000 0.005296 0.000000 0.048683
#
#
# Mechanical properties :
#
#
# Convention : Reuss Voigt Hill
#
# Bulk Modulus (GPa) = 17.16264 38.01336 27.58800
# Shear Modulus (GPa) = 18.24997 23.36711 20.80854
#
# Velocity S-wave (km/s) = 3.00017 3.39482 3.20358
# Velocity P-wave (km/s) = 4.52394 5.84079 5.22403
#
# Compressibility (1/GPa) = 0.05826608
#
# Stress axis : x y z
#
# Youngs Moduli (GPa) = 53.42163 41.73036 49.21360
#
# Poissons Ratio (x) = -0.13712 0.20729
# Poissons Ratio (y) = -0.17553 0.07095
# Poissons Ratio (z) = 0.22502 0.06016
#
# Static dielectric constant tensor:
#      x y z
#    x 3.677730 0.000000 -0.204340 
#    y 0.000000 3.738180 0.000000 
#    z -0.204340 0.000000 3.690020 
# 
# 
# High freq. dielectric constant tensor:
#      x y z
#    x 1.782290 0.000000 -0.003280 
#    y 0.000000 1.800660 0.000000 
#    z -0.003280 0.000000 1.787900 
# 
# From -- ./inp_files/64513.got.cif
#   From: 2010.03.12/outbox.cif.g09.slc.cpg/sg14_33_cif.got.tgz:64513.got - 2010.03.31 13:35:05.
