data_PCOD8124277
_publ_section_title
;
Structure prediction by ZEFSAII (Michael W. Deem and Ramdas Pophale) SiO2 
 PCOD8124277
Probable space group: P 21/C
;
_chemical_formula_sum "Si O2"
_cell_formula_units_Z 28
_cell_length_a 29.227216
_cell_length_b 10.255799
_cell_length_c 13.782100
_cell_angle_alpha 90.000000
_cell_angle_beta 160.566742
_cell_angle_gamma 90.000000
_cell_volume 1374.473427
_symmetry_space_group_name_H-M "P 21/C"
_symmetry_group_IT_number 14
_symmetry_cell_setting 'monoclinic'
loop_
_space_group_symop_operation_xyz
x,y,z
-x,1/2+y,1/2-z
-x,-y,-z
x,1/2-y,1/2+z
loop_
_atom_site_type_symbol
_atom_site_label
_atom_site_fract_x
_atom_site_fract_y
_atom_site_fract_z
Si Si1 0.147382 0.744893 0.904330
Si Si2 0.797408 0.548669 0.201048
Si Si3 0.387282 0.749570 0.024328
Si Si4 0.852728 0.255524 0.315391
Si Si5 0.797346 0.548325 0.988220
Si Si6 0.921346 0.750301 0.592484
Si Si7 0.499928 0.000310 0.831441
O O1 0.148265 0.795109 0.796293
O O2 0.021669 0.813142 0.710898
O O3 0.292614 0.782471 0.241908
O O4 0.120875 0.588305 0.859606
O O5 0.879287 0.412133 0.376456
O O6 0.827389 0.642449 0.351936
O O7 0.834840 0.609945 0.169496
O O8 0.635088 0.516782 0.872877
O O9 0.292467 0.781819 0.927692
O O10 0.484667 0.873263 0.205337
O O11 0.484387 0.625699 0.232354
O O12 0.978452 0.187415 0.624861
O O13 0.635001 0.516576 0.667137
O O14 0.827423 0.641779 0.957263
#
# Coordination Sequence:
#
# PCOD8124277 Si02
#       7
#     4   4   4   4   4   4   4
#     4   9  19  36  56  78 107 145 184 223 273 331
#     4  10  20  34  55  80 106 141 185 228 269 325
#     4   9  19  34  58  82 111 145 186 232 274 323
#     4   9  19  36  56  78 107 145 184 223 273 331
#     4  10  20  34  55  80 106 141 185 228 269 325
#     4  11  19  30  54  82 105 131 176 234 276 311
#     4  10  19  36  57  82 112 146 185 228 273 324
#
# _framework density 20.371437
#
# number of rings (size 3 to 8) (size 9 to 14) (size 15 to 20)
#    0.000    2.286    0.000    3.000    0.000    3.429 
#    0.000    0.714    0.000   72.000    0.000    0.000 
#    0.000    0.000    0.000    0.000    0.000    0.000 
#
# Total GULP energy -347070.203174 kJ/mol
# GULP energy per Si atom -12395.364399 kJ/mol
# Density = 2.032507 g / cm^3
# Si number density = 20.371437 Si / 1000 Ang^3
#
#
#
# Elastic Constant Matrix: (Units=GPa)
#
#
# Indices 1 2 3 4 5 6 
#
# 1 149.3172 37.9940 41.4241 0.0000 -25.4127 0.0000
# 2 37.9940 70.8836 21.0113 0.0000 -5.4953 0.0000
# 3 41.4241 21.0113 60.7113 0.0000 -1.1055 0.0000
# 4 0.0000 0.0000 0.0000 33.8862 0.0000 1.1616
# 5 -25.4127 -5.4953 -1.1055 0.0000 18.4416 0.0000
# 6 0.0000 0.0000 0.0000 1.1616 0.0000 29.8388
#
#
#
# Elastic Compliance Matrix: (Units=1/GPa)
#
#
# Indices 1 2 3 4 5 6 
#
# 1 0.011976 -0.003238 -0.006775 0.000000 0.015132 0.000000
# 2 -0.003238 0.016954 -0.003652 0.000000 0.000372 0.000000
# 3 -0.006775 -0.003652 0.022192 0.000000 -0.009094 0.000000
# 4 0.000000 0.000000 0.000000 0.029550 0.000000 -0.001150
# 5 0.015132 0.000372 -0.009094 0.000000 0.074643 0.000000
# 6 0.000000 0.000000 0.000000 -0.001150 0.000000 0.033558
#
#
# Mechanical properties :
#
#
# Convention : Reuss Voigt Hill
#
# Bulk Modulus (GPa) = 42.02868 53.53011 47.77939
# Shear Modulus (GPa) = 22.30804 28.46551 25.38677
#
# Velocity S-wave (km/s) = 3.31277 3.74214 3.53398
# Velocity P-wave (km/s) = 5.94210 6.70862 6.33696
#
# Compressibility (1/GPa) = 0.02379328
#
# Stress axis : x y z
#
# Youngs Moduli (GPa) = 83.50024 58.98199 45.06029
#
# Poissons Ratio (x) = 0.19097 0.30530
# Poissons Ratio (y) = 0.27035 0.16455
# Poissons Ratio (z) = 0.56574 0.21539
#
# Static dielectric constant tensor:
#      x y z
#    x 3.720360 0.000000 0.009200 
#    y 0.000000 3.379050 0.000000 
#    z 0.009200 0.000000 3.752560 
# 
# 
# High freq. dielectric constant tensor:
#      x y z
#    x 1.801310 0.000000 0.003090 
#    y 0.000000 1.754120 0.000000 
#    z 0.003090 0.000000 1.812040 
# 
# From -- ./inp_files/32220.got.cif
#   From: 2010.03.12/outbox.cif.g09.slc.cpg/sg14_17_cif.got.tgz:32220.got - 2010.03.31 13:35:05.
