data_PCOD8124226
_publ_section_title
;
Structure prediction by ZEFSAII (Michael W. Deem and Ramdas Pophale) SiO2 
 PCOD8124226
Probable space group: P 21/C
;
_chemical_formula_sum "Si O2"
_cell_formula_units_Z 32
_cell_length_a 27.553614
_cell_length_b 13.284173
_cell_length_c 14.727470
_cell_angle_alpha 90.000000
_cell_angle_beta 160.372769
_cell_angle_gamma 90.000000
_cell_volume 1810.715803
_symmetry_space_group_name_H-M "P 21/C"
_symmetry_group_IT_number 14
_symmetry_cell_setting 'monoclinic'
loop_
_space_group_symop_operation_xyz
x,y,z
-x,1/2+y,1/2-z
-x,-y,-z
x,1/2-y,1/2+z
loop_
_atom_site_type_symbol
_atom_site_label
_atom_site_fract_x
_atom_site_fract_y
_atom_site_fract_z
Si Si1 0.502618 0.630056 0.248660
Si Si2 0.526910 0.733367 0.960196
Si Si3 0.837354 0.780983 0.087594
Si Si4 0.369325 0.422386 0.988541
Si Si5 0.228301 0.239350 0.825275
Si Si6 0.677619 0.181365 0.741144
Si Si7 0.839604 0.995078 0.016811
Si Si8 0.992247 0.311286 0.764673
O O1 0.480829 0.681083 0.308091
O O2 0.463014 0.513204 0.194746
O O3 0.668426 0.641912 0.506526
O O4 0.402962 0.683130 0.997443
O O5 0.534696 0.625861 0.923432
O O6 0.412483 0.735535 0.839652
O O7 0.684453 0.755177 0.278871
O O8 0.868442 0.900361 0.131979
O O9 0.848054 0.757890 0.212469
O O10 0.960808 0.717375 0.254548
O O11 0.331501 0.337389 0.996287
O O12 0.214093 0.459058 0.676938
O O13 0.104177 0.237886 0.531292
O O14 0.708832 0.065029 0.826105
O O15 0.832964 0.236613 0.001888
O O16 0.982112 0.066214 0.256632
#
# Coordination Sequence:
#
# PCOD8124226 Si02
#       8
#     4   4   4   4   4   4   4   4
#     4  10  19  35  61  85 116 151 193 240 276 355
#     4  10  19  35  62  85 112 155 195 236 288 342
#     4  11  20  37  62  82 119 158 189 238 296 348
#     4   9  19  37  59  86 116 152 196 230 296 350
#     4  11  21  36  64  87 116 159 194 234 293 350
#     4   9  20  35  59  86 112 143 200 240 285 338
#     4   8  19  36  58  81 116 146 190 238 295 337
#     4  10  21  39  54  89 120 147 192 249 288 344
#
# _framework density 17.67257
#
# number of rings (size 3 to 8) (size 9 to 14) (size 15 to 20)
#    0.750    1.500    5.000    0.000    1.750    3.000 
#    0.000    5.000    0.000    0.000    0.000    0.000 
#    0.000    0.000    0.000    0.000    0.000    0.000 
#
# Total GULP energy -396518.193305 kJ/mol
# GULP energy per Si atom -12391.193541 kJ/mol
# Density = 1.763235 g / cm^3
# Si number density = 17.672570 Si / 1000 Ang^3
#
#
#
# Elastic Constant Matrix: (Units=GPa)
#
#
# Indices 1 2 3 4 5 6 
#
# 1 117.7084 35.6333 26.7622 0.0000 19.4074 0.0000
# 2 35.6333 70.5536 20.7594 0.0000 6.7653 0.0000
# 3 26.7622 20.7594 69.9067 0.0000 18.6870 0.0000
# 4 0.0000 0.0000 0.0000 31.8845 0.0000 0.7881
# 5 19.4074 6.7653 18.6870 0.0000 27.1540 0.0000
# 6 0.0000 0.0000 0.0000 0.7881 0.0000 20.3142
#
#
#
# Elastic Compliance Matrix: (Units=1/GPa)
#
#
# Indices 1 2 3 4 5 6 
#
# 1 0.011193 -0.004701 -0.001303 0.000000 -0.005932 0.000000
# 2 -0.004701 0.017521 -0.003841 0.000000 0.001638 0.000000
# 3 -0.001303 -0.003841 0.018920 0.000000 -0.011132 0.000000
# 4 0.000000 0.000000 0.000000 0.031393 0.000000 -0.001218
# 5 -0.005932 0.001638 -0.011132 0.000000 0.048319 0.000000
# 6 0.000000 0.000000 0.000000 -0.001218 0.000000 0.049274
#
#
# Mechanical properties :
#
#
# Convention : Reuss Voigt Hill
#
# Bulk Modulus (GPa) = 35.78689 47.16427 41.47558
# Shear Modulus (GPa) = 24.31601 27.53811 25.92706
#
# Velocity S-wave (km/s) = 3.71336 3.95174 3.83440
# Velocity P-wave (km/s) = 6.21927 6.89691 6.56684
#
# Compressibility (1/GPa) = 0.02794320
#
# Stress axis : x y z
#
# Youngs Moduli (GPa) = 89.34213 57.07464 52.85351
#
# Poissons Ratio (x) = 0.26829 0.06889
# Poissons Ratio (y) = 0.41997 0.20302
# Poissons Ratio (z) = 0.11645 0.21924
#
# Static dielectric constant tensor:
#      x y z
#    x 3.188030 0.000000 0.030630 
#    y 0.000000 3.223980 0.000000 
#    z 0.030630 0.000000 3.201930 
# 
# 
# High freq. dielectric constant tensor:
#      x y z
#    x 1.674520 0.000000 -0.001670 
#    y 0.000000 1.669520 0.000000 
#    z -0.001670 0.000000 1.676650 
# 
# From -- ./inp_files/52093.got.cif
#   From: 2010.03.12/outbox.cif.g09.slc.cpg/sg14_27_cif.got.tgz:52093.got - 2010.03.31 13:35:05.
