data_PCOD8124874
_publ_section_title
;
Structure prediction by ZEFSAII (Michael W. Deem and Ramdas Pophale) SiO2 
 PCOD8124874
Probable space group: P 21/C
;
_chemical_formula_sum "Si O2"
_cell_formula_units_Z 28
_cell_length_a 9.797201
_cell_length_b 8.644423
_cell_length_c 18.336189
_cell_angle_alpha 90.000000
_cell_angle_beta 78.523984
_cell_angle_gamma 90.000000
_cell_volume 1521.867207
_symmetry_space_group_name_H-M "P 21/C"
_symmetry_group_IT_number 14
_symmetry_cell_setting 'monoclinic'
loop_
_space_group_symop_operation_xyz
x,y,z
-x,1/2+y,1/2-z
-x,-y,-z
x,1/2-y,1/2+z
loop_
_atom_site_type_symbol
_atom_site_label
_atom_site_fract_x
_atom_site_fract_y
_atom_site_fract_z
Si Si1 0.791736 0.807500 0.455950
Si Si2 0.746882 0.304917 0.594443
Si Si3 0.946588 0.135596 0.672125
Si Si4 0.959473 0.292896 0.826027
Si Si5 0.274773 0.846964 0.546147
Si Si6 0.905260 0.598305 0.564106
Si Si7 0.508552 0.831359 0.964844
O O1 0.828771 0.736392 0.530116
O O2 0.668596 0.708125 0.431690
O O3 0.926484 0.803853 0.390628
O O4 0.730685 0.975791 0.477314
O O5 0.800163 0.184699 0.650244
O O6 0.808296 0.249045 0.508582
O O7 0.793906 0.477857 0.608750
O O8 0.577845 0.311988 0.602455
O O9 0.959588 0.222731 0.746550
O O10 0.950578 0.950832 0.681527
O O11 0.800604 0.326727 0.867963
O O12 0.018708 0.165717 0.874096
O O13 0.434745 0.785766 0.531708
O O14 0.000000 0.500000 0.500000
O O15 0.500000 0.000000 0.000000
#
# Coordination Sequence:
#
# PCOD8124874 Si02
#       7
#     4   4   4   4   4   4   4
#     4  11  20  35  60  84 117 148 195 237 298 341
#     4  10  20  35  56  86 115 146 195 236 292 338
#     4  11  23  37  59  86 116 158 190 248 296 358
#     4  11  23  37  59  86 119 151 201 240 302 349
#     4   9  20  36  56  85 113 150 192 243 282 346
#     4  12  19  33  60  89 115 149 196 246 284 344
#     4  10  20  35  58  87 114 152 191 240 288 344
#
# _framework density 18.398451000000001
#
# number of rings (size 3 to 8) (size 9 to 14) (size 15 to 20)
#    0.857    0.571    4.286    2.143    0.000    2.286 
#    0.000    0.000    3.143    0.000    0.000    0.000 
#    0.000    0.000    0.000    0.000    0.000    0.000 
#
# Total GULP energy -346977.876237 kJ/mol
# GULP energy per Si atom -12392.067008 kJ/mol
# Density = 1.835658 g / cm^3
# Si number density = 18.398451 Si / 1000 Ang^3
#
#
#
# Elastic Constant Matrix: (Units=GPa)
#
#
# Indices 1 2 3 4 5 6 
#
# 1 76.8482 15.4079 16.1596 0.0000 20.7614 0.0000
# 2 15.4079 95.8535 23.6106 0.0000 4.8514 0.0000
# 3 16.1596 23.6106 74.1644 0.0000 18.5584 0.0000
# 4 0.0000 0.0000 0.0000 33.9190 0.0000 6.7897
# 5 20.7614 4.8514 18.5584 0.0000 19.2161 0.0000
# 6 0.0000 0.0000 0.0000 6.7897 0.0000 32.1998
#
#
#
# Elastic Compliance Matrix: (Units=1/GPa)
#
#
# Indices 1 2 3 4 5 6 
#
# 1 0.018991 -0.002469 0.002145 0.000000 -0.021966 0.000000
# 2 -0.002469 0.011651 -0.004091 0.000000 0.003678 0.000000
# 3 0.002145 -0.004091 0.019306 0.000000 -0.019929 0.000000
# 4 0.000000 0.000000 0.000000 0.030781 0.000000 -0.006491
# 5 -0.021966 0.003678 -0.019929 0.000000 0.094091 0.000000
# 6 0.000000 0.000000 0.000000 -0.006491 0.000000 0.032425
#
#
# Mechanical properties :
#
#
# Convention : Reuss Voigt Hill
#
# Bulk Modulus (GPa) = 24.32128 39.69136 32.00632
# Shear Modulus (GPa) = 21.75974 29.84617 25.80296
#
# Velocity S-wave (km/s) = 3.44276 4.03204 3.74900
# Velocity P-wave (km/s) = 5.38993 6.58001 6.01448
#
# Compressibility (1/GPa) = 0.04111626
#
# Stress axis : x y z
#
# Youngs Moduli (GPa) = 52.65603 85.82823 51.79818
#
# Poissons Ratio (x) = 0.21193 -0.11110
# Poissons Ratio (y) = 0.13002 0.21193
# Poissons Ratio (z) = -0.11294 0.35116
#
# Static dielectric constant tensor:
#      x y z
#    x 3.386300 0.000000 0.116530 
#    y 0.000000 3.650550 0.000000 
#    z 0.116530 0.000000 3.110160 
# 
# 
# High freq. dielectric constant tensor:
#      x y z
#    x 1.702600 0.000000 0.013910 
#    y 0.000000 1.738230 0.000000 
#    z 0.013910 0.000000 1.679280 
# 
# From -- ./inp_files/56826.got.cif
#   From: 2010.03.12/outbox.cif.g09.slc.cpg/sg14_29_cif.got.tgz:56826.got - 2010.03.31 13:35:05.
