data_PCOD8124741
_publ_section_title
;
Structure prediction by ZEFSAII (Michael W. Deem and Ramdas Pophale) SiO2 
 PCOD8124741
Probable space group: P 21/C
;
_chemical_formula_sum "Si O2"
_cell_formula_units_Z 32
_cell_length_a 8.834071
_cell_length_b 13.825754
_cell_length_c 17.160435
_cell_angle_alpha 90.000000
_cell_angle_beta 125.995124
_cell_angle_gamma 90.000000
_cell_volume 1695.752625
_symmetry_space_group_name_H-M "P 21/C"
_symmetry_group_IT_number 14
_symmetry_cell_setting 'monoclinic'
loop_
_space_group_symop_operation_xyz
x,y,z
-x,1/2+y,1/2-z
-x,-y,-z
x,1/2-y,1/2+z
loop_
_atom_site_type_symbol
_atom_site_label
_atom_site_fract_x
_atom_site_fract_y
_atom_site_fract_z
Si Si1 0.273347 0.637042 0.421129
Si Si2 0.994031 0.766943 0.418142
Si Si3 0.306591 0.867004 0.753139
Si Si4 0.890322 0.942839 0.296238
Si Si5 0.529496 0.671989 0.638510
Si Si6 0.336815 0.148428 0.240623
Si Si7 0.824875 0.310958 0.373290
Si Si8 0.042106 0.986668 0.182261
O O1 0.136007 0.727088 0.395575
O O2 0.353366 0.635035 0.358561
O O3 0.455089 0.645655 0.530355
O O4 0.148715 0.541394 0.399798
O O5 0.067271 0.747233 0.526601
O O6 0.974841 0.881186 0.393560
O O7 0.792494 0.716936 0.351386
O O8 0.492637 0.888059 0.760509
O O9 0.213264 0.764423 0.706731
O O10 0.155565 0.949962 0.686985
O O11 0.701961 0.896594 0.206057
O O12 0.035155 0.946786 0.268171
O O13 0.586663 0.785921 0.663921
O O14 0.369034 0.647135 0.652593
O O15 0.223195 0.056121 0.236406
O O16 0.942197 0.400107 0.375071
#
# Coordination Sequence:
#
# PCOD8124741 Si02
#       8
#     4   4   4   4   4   4   4   4
#     4   9  19  34  54  79 104 134 171 215 261 305
#     4   9  19  35  53  75 104 135 170 216 261 303
#     4  10  20  33  52  76 104 139 176 212 254 307
#     4  10  20  34  53  76 105 136 169 213 261 310
#     4   9  19  35  54  75 104 135 167 212 263 307
#     4   9  19  35  53  77 106 135 170 211 259 310
#     4  10  20  34  54  76 102 139 176 215 257 302
#     4  10  20  33  55  80 105 136 173 215 260 307
#
# _framework density 18.870677000000001
#
# number of rings (size 3 to 8) (size 9 to 14) (size 15 to 20)
#    0.000    2.500    0.000    1.500    0.000   10.000 
#    0.000    0.000    0.000   13.500    0.000    0.000 
#    0.000    0.000    0.000    0.000    0.000    0.000 
#
# Total GULP energy -396746.257228 kJ/mol
# GULP energy per Si atom -12398.320538 kJ/mol
# Density = 1.882773 g / cm^3
# Si number density = 18.870677 Si / 1000 Ang^3
#
#
#
# Elastic Constant Matrix: (Units=GPa)
#
#
# Indices 1 2 3 4 5 6 
#
# 1 88.0191 43.5678 48.2814 0.0000 -10.0191 0.0000
# 2 43.5678 89.1925 50.3316 0.0000 -12.3269 0.0000
# 3 48.2814 50.3316 81.8546 0.0000 -4.2057 0.0000
# 4 0.0000 0.0000 0.0000 29.1250 0.0000 0.3105
# 5 -10.0191 -12.3269 -4.2057 0.0000 22.9983 0.0000
# 6 0.0000 0.0000 0.0000 0.3105 0.0000 24.2457
#
#
#
# Elastic Compliance Matrix: (Units=1/GPa)
#
#
# Indices 1 2 3 4 5 6 
#
# 1 0.018200 -0.003586 -0.008299 0.000000 0.004489 0.000000
# 2 -0.003586 0.019198 -0.009329 0.000000 0.007022 0.000000
# 3 -0.008299 -0.009329 0.022618 0.000000 -0.004479 0.000000
# 4 0.000000 0.000000 0.000000 0.034339 0.000000 -0.000440
# 5 0.004489 0.007022 -0.004479 0.000000 0.048381 0.000000
# 6 0.000000 0.000000 0.000000 -0.000440 0.000000 0.041250
#
#
# Mechanical properties :
#
#
# Convention : Reuss Voigt Hill
#
# Bulk Modulus (GPa) = 56.85846 60.38087 58.61966
# Shear Modulus (GPa) = 21.52606 23.06618 22.29612
#
# Velocity S-wave (km/s) = 3.38111 3.49998 3.44106
# Velocity P-wave (km/s) = 6.74081 6.95699 6.84976
#
# Compressibility (1/GPa) = 0.01758753
#
# Stress axis : x y z
#
# Youngs Moduli (GPa) = 54.94631 52.08848 44.21305
#
# Poissons Ratio (x) = 0.18681 0.36692
# Poissons Ratio (y) = 0.19706 0.41244
# Poissons Ratio (z) = 0.45600 0.48591
#
# Static dielectric constant tensor:
#      x y z
#    x 3.500870 0.000000 0.051360 
#    y 0.000000 3.579550 0.000000 
#    z 0.051360 0.000000 3.285910 
# 
# 
# High freq. dielectric constant tensor:
#      x y z
#    x 1.738150 0.000000 0.002170 
#    y 0.000000 1.738670 0.000000 
#    z 0.002170 0.000000 1.714210 
# 
# From -- ./inp_files/55610.got.cif
#   From: 2010.03.12/outbox.cif.g09.slc.cpg/sg14_28_cif.got.tgz:55610.got - 2010.03.31 13:35:05.
