data_PCOD8124433
_publ_section_title
;
Structure prediction by ZEFSAII (Michael W. Deem and Ramdas Pophale) SiO2 
 PCOD8124433
Probable space group: P 21/C
;
_chemical_formula_sum "Si O2"
_cell_formula_units_Z 28
_cell_length_a 10.865291
_cell_length_b 13.196801
_cell_length_c 8.359998
_cell_angle_alpha 90.000000
_cell_angle_beta 83.953168
_cell_angle_gamma 90.000000
_cell_volume 1192.046223
_symmetry_space_group_name_H-M "P 21/C"
_symmetry_group_IT_number 14
_symmetry_cell_setting 'monoclinic'
loop_
_space_group_symop_operation_xyz
x,y,z
-x,1/2+y,1/2-z
-x,-y,-z
x,1/2-y,1/2+z
loop_
_atom_site_type_symbol
_atom_site_label
_atom_site_fract_x
_atom_site_fract_y
_atom_site_fract_z
Si Si1 0.520528 0.609380 0.326478
Si Si2 0.958810 0.063971 0.655022
Si Si3 0.270600 0.649044 0.952292
Si Si4 0.581947 0.289202 0.358574
Si Si5 0.808314 0.675767 0.897835
Si Si6 0.201381 0.388799 0.741658
Si Si7 0.382344 0.018148 0.627364
O O1 0.499909 0.643008 0.511697
O O2 0.659273 0.568179 0.286854
O O3 0.421109 0.520411 0.298940
O O4 0.501274 0.697335 0.196413
O O5 0.864224 0.152748 0.609644
O O6 0.078053 0.121053 0.714353
O O7 0.889453 0.984376 0.784888
O O8 0.000000 0.000000 0.500000
O O9 0.298737 0.746477 0.059553
O O10 0.374470 0.644003 0.797719
O O11 0.273352 0.548255 0.061117
O O12 0.813824 0.796568 0.879330
O O13 0.674755 0.631698 0.853847
O O14 0.827343 0.656166 0.081206
O O15 0.500000 0.000000 0.500000
#
# Coordination Sequence:
#
# PCOD8124433 Si02
#       7
#     4   4   4   4   4   4   4
#     4  10  19  37  61  94 130 156 205 255 319 380
#     4  10  21  42  63  84 122 170 211 256 316 373
#     4  10  19  38  61  89 127 160 212 253 315 374
#     4   9  21  33  60  99 124 164 202 258 308 382
#     4  11  24  42  67  89 123 173 212 263 318 378
#     4  11  22  42  65  92 122 167 213 261 319 382
#     4  11  20  38  62  88 123 165 202 257 324 381
#
# _framework density 23.489021999999999
#
# number of rings (size 3 to 8) (size 9 to 14) (size 15 to 20)
#    0.000    1.714    4.286    0.857    4.000    2.286 
#    5.143    2.143    0.000    0.000    0.000    0.000 
#    0.000    0.000    0.000    0.000    0.000    0.000 
#
# Total GULP energy -347051.054135 kJ/mol
# GULP energy per Si atom -12394.680505 kJ/mol
# Density = 2.343556 g / cm^3
# Si number density = 23.489022 Si / 1000 Ang^3
#
#
#
# Elastic Constant Matrix: (Units=GPa)
#
#
# Indices 1 2 3 4 5 6 
#
# 1 112.2966 27.6204 2.1786 0.0000 -11.5488 0.0000
# 2 27.6204 63.3547 8.7449 0.0000 5.6047 0.0000
# 3 2.1786 8.7449 65.7640 0.0000 -1.0211 0.0000
# 4 0.0000 0.0000 0.0000 30.2028 0.0000 -4.9093
# 5 -11.5488 5.6047 -1.0211 0.0000 18.9193 0.0000
# 6 0.0000 0.0000 0.0000 -4.9093 0.0000 43.7044
#
#
#
# Elastic Compliance Matrix: (Units=1/GPa)
#
#
# Indices 1 2 3 4 5 6 
#
# 1 0.011175 -0.005699 0.000520 0.000000 0.008538 0.000000
# 2 -0.005699 0.019449 -0.002543 0.000000 -0.009378 0.000000
# 3 0.000520 -0.002543 0.015556 0.000000 0.001910 0.000000
# 4 0.000000 0.000000 0.000000 0.033725 0.000000 0.003788
# 5 0.008538 -0.009378 0.001910 0.000000 0.060949 0.000000
# 6 0.000000 0.000000 0.000000 0.003788 0.000000 0.023307
#
#
# Mechanical properties :
#
#
# Convention : Reuss Voigt Hill
#
# Bulk Modulus (GPa) = 32.53414 35.38922 33.96168
# Shear Modulus (GPa) = 26.33657 32.09006 29.21332
#
# Velocity S-wave (km/s) = 3.35211 3.70019 3.53044
# Velocity P-wave (km/s) = 5.37243 5.77531 5.57751
#
# Compressibility (1/GPa) = 0.03073694
#
# Stress axis : x y z
#
# Youngs Moduli (GPa) = 89.48874 51.41584 64.28188
#
# Poissons Ratio (x) = 0.29301 -0.03344
# Poissons Ratio (y) = 0.50998 0.16347
# Poissons Ratio (z) = -0.04655 0.13075
#
# Static dielectric constant tensor:
#      x y z
#    x 4.668250 0.000000 -0.072610 
#    y 0.000000 4.569770 0.000000 
#    z -0.072610 0.000000 4.080140 
# 
# 
# High freq. dielectric constant tensor:
#      x y z
#    x 1.924860 0.000000 -0.003480 
#    y 0.000000 1.929970 0.000000 
#    z -0.003480 0.000000 1.903680 
# 
# From -- ./inp_files/12801.got.cif
#   From: 2010.03.12/outbox.cif.g09.slc.cpg/sg14_7_cif.got.tgz:12801.got - 2010.03.31 13:35:05.
