data_PCOD8124071
_publ_section_title
;
Structure prediction by ZEFSAII (Michael W. Deem and Ramdas Pophale) SiO2 
 PCOD8124071
Probable space group: P 21/C
;
_chemical_formula_sum "Si O2"
_cell_formula_units_Z 28
_cell_length_a 8.861719
_cell_length_b 19.671690
_cell_length_c 9.864686
_cell_angle_alpha 90.000000
_cell_angle_beta 55.571245
_cell_angle_gamma 90.000000
_cell_volume 1418.427963
_symmetry_space_group_name_H-M "P 21/C"
_symmetry_group_IT_number 14
_symmetry_cell_setting 'monoclinic'
loop_
_space_group_symop_operation_xyz
x,y,z
-x,1/2+y,1/2-z
-x,-y,-z
x,1/2-y,1/2+z
loop_
_atom_site_type_symbol
_atom_site_label
_atom_site_fract_x
_atom_site_fract_y
_atom_site_fract_z
Si Si1 0.378803 0.101481 0.562420
Si Si2 0.887239 0.473603 0.806892
Si Si3 0.692603 0.391941 0.689469
Si Si4 0.947147 0.693841 0.783789
Si Si5 0.787454 0.433208 0.356000
Si Si6 0.868323 0.248246 0.559518
Si Si7 0.684442 0.393169 0.124788
O O1 0.252162 0.036094 0.622207
O O2 0.504122 0.100186 0.365538
O O3 0.264150 0.171529 0.620835
O O4 0.495854 0.097661 0.640392
O O5 0.856160 0.429683 0.686625
O O6 0.098916 0.496363 0.701367
O O7 0.851028 0.428908 0.959600
O O8 0.666961 0.425918 0.553748
O O9 0.742883 0.313044 0.653540
O O10 0.066801 0.626562 0.720719
O O11 0.981518 0.735836 0.901735
O O12 0.005304 0.743729 0.635044
O O13 0.662114 0.427511 0.284999
O O14 0.727683 0.186398 0.614781
#
# Coordination Sequence:
#
# PCOD8124071 Si02
#       7
#     4   4   4   4   4   4   4
#     4  10  21  36  55  79 110 145 175 221 279 316
#     4  10  19  36  57  79 107 143 178 218 271 318
#     4  10  19  34  56  80 108 141 179 224 265 320
#     4   9  19  35  52  76 107 138 178 222 263 318
#     4   9  19  33  55  80 103 134 180 221 258 312
#     4  10  20  36  56  78 104 144 186 218 262 320
#     4  10  19  34  56  80 108 141 179 224 265 320
#
# _framework density 19.740164
#
# number of rings (size 3 to 8) (size 9 to 14) (size 15 to 20)
#    0.000    2.286    0.000    4.286    0.000    1.143 
#    0.000    4.286    0.000   10.286    0.000    0.000 
#    0.000    0.000    0.000    0.000    0.000    0.000 
#
# Total GULP energy -347201.598620 kJ/mol
# GULP energy per Si atom -12400.057094 kJ/mol
# Density = 1.969523 g / cm^3
# Si number density = 19.740164 Si / 1000 Ang^3
#
#
#
# Elastic Constant Matrix: (Units=GPa)
#
#
# Indices 1 2 3 4 5 6 
#
# 1 77.5953 19.6442 51.4378 0.0000 7.4932 0.0000
# 2 19.6442 85.6149 19.0405 0.0000 5.6960 0.0000
# 3 51.4378 19.0405 97.6306 0.0000 34.4411 0.0000
# 4 0.0000 0.0000 0.0000 29.7330 0.0000 6.3256
# 5 7.4932 5.6960 34.4411 0.0000 31.5524 0.0000
# 6 0.0000 0.0000 0.0000 6.3256 0.0000 18.8725
#
#
#
# Elastic Compliance Matrix: (Units=1/GPa)
#
#
# Indices 1 2 3 4 5 6 
#
# 1 0.022912 -0.002534 -0.015968 0.000000 0.012446 0.000000
# 2 -0.002534 0.012498 -0.000844 0.000000 -0.000734 0.000000
# 3 -0.015968 -0.000844 0.028342 0.000000 -0.026993 0.000000
# 4 0.000000 0.000000 0.000000 0.036215 0.000000 -0.012138
# 5 0.012446 -0.000734 -0.026993 0.000000 0.058334 0.000000
# 6 0.000000 0.000000 0.000000 -0.012138 0.000000 0.057056
#
#
# Mechanical properties :
#
#
# Convention : Reuss Voigt Hill
#
# Bulk Modulus (GPa) = 39.90182 49.00953 44.45567
# Shear Modulus (GPa) = 19.05476 27.41280 23.23378
#
# Velocity S-wave (km/s) = 3.11026 3.73054 3.43444
# Velocity P-wave (km/s) = 5.75810 6.59069 6.18841
#
# Compressibility (1/GPa) = 0.02506152
#
# Stress axis : x y z
#
# Youngs Moduli (GPa) = 43.64504 80.01250 35.28302
#
# Poissons Ratio (x) = 0.20275 0.56339
# Poissons Ratio (y) = 0.11060 0.02976
# Poissons Ratio (z) = 0.69692 0.06750
#
# Static dielectric constant tensor:
#      x y z
#    x 3.492640 0.000000 0.248470 
#    y 0.000000 3.741200 0.000000 
#    z 0.248470 0.000000 3.765180 
# 
# 
# High freq. dielectric constant tensor:
#      x y z
#    x 1.750800 0.000000 0.018060 
#    y 0.000000 1.776800 0.000000 
#    z 0.018060 0.000000 1.775630 
# 
# From -- ./inp_files/9885.got.cif
#   From: 2010.03.12/outbox.cif.g09.slc.cpg/sg14_5_cif.got.tgz:9885.got - 2010.03.31 13:35:05.
