data_PCOD8124262
_publ_section_title
;
Structure prediction by ZEFSAII (Michael W. Deem and Ramdas Pophale) SiO2 
 PCOD8124262
Probable space group: P 21/C
;
_chemical_formula_sum "Si O2"
_cell_formula_units_Z 32
_cell_length_a 9.233536
_cell_length_b 22.358291
_cell_length_c 17.251625
_cell_angle_alpha 90.000000
_cell_angle_beta 150.470655
_cell_angle_gamma 90.000000
_cell_volume 1755.368882
_symmetry_space_group_name_H-M "P 21/C"
_symmetry_group_IT_number 14
_symmetry_cell_setting 'monoclinic'
loop_
_space_group_symop_operation_xyz
x,y,z
-x,1/2+y,1/2-z
-x,-y,-z
x,1/2-y,1/2+z
loop_
_atom_site_type_symbol
_atom_site_label
_atom_site_fract_x
_atom_site_fract_y
_atom_site_fract_z
Si Si1 0.697331 0.965649 0.701153
Si Si2 0.630396 0.818522 0.397584
Si Si3 0.349592 0.424024 0.988169
Si Si4 0.680423 0.050772 0.186755
Si Si5 0.625732 0.889185 0.812040
Si Si6 0.267735 0.775110 0.656131
Si Si7 0.732180 0.153076 0.907540
Si Si8 0.356451 0.564570 0.504047
O O1 0.610482 0.926101 0.585667
O O2 0.554809 0.935532 0.710318
O O3 0.047713 0.969376 0.872171
O O4 0.579381 0.032553 0.637467
O O5 0.583913 0.856238 0.454309
O O6 0.432642 0.758080 0.305525
O O7 0.526287 0.859335 0.275618
O O8 0.970142 0.802749 0.548840
O O9 0.025102 0.443640 0.863869
O O10 0.498518 0.086550 0.165562
O O11 0.593655 0.079314 0.063086
O O12 0.604652 0.980212 0.151996
O O13 0.474090 0.826748 0.718394
O O14 0.973246 0.879967 0.983501
O O15 0.213758 0.725300 0.563150
O O16 0.632340 0.127113 0.944071
#
# Coordination Sequence:
#
# PCOD8124262 Si02
#       8
#     4   4   4   4   4   4   4   4
#     4   9  22  36  57  79 118 146 186 225 281 337
#     4  10  20  35  62  78 110 148 183 231 279 324
#     4  10  20  39  54  84 113 151 181 233 277 335
#     4  10  21  33  57  80 118 138 187 228 273 333
#     4  11  20  35  57  81 107 149 183 231 280 326
#     4  10  19  36  55  82 107 141 188 231 267 328
#     4   9  20  35  58  75 110 144 186 222 272 333
#     4   9  20  38  52  83 111 153 177 229 276 330
#
# _framework density 18.229787000000002
#
# number of rings (size 3 to 8) (size 9 to 14) (size 15 to 20)
#    0.750    1.500    2.500    0.000    3.500    2.500 
#    0.000    1.250    0.000    0.000    0.000    0.000 
#    0.000    0.000    0.000    0.000    0.000    0.000 
#
# Total GULP energy -396654.007506 kJ/mol
# GULP energy per Si atom -12395.437735 kJ/mol
# Density = 1.818830 g / cm^3
# Si number density = 18.229787 Si / 1000 Ang^3
#
#
#
# Elastic Constant Matrix: (Units=GPa)
#
#
# Indices 1 2 3 4 5 6 
#
# 1 109.7355 45.6182 22.8507 0.0000 -1.8287 0.0000
# 2 45.6182 69.0230 19.9168 0.0000 -2.5383 0.0000
# 3 22.8507 19.9168 74.1557 0.0000 4.6664 0.0000
# 4 0.0000 0.0000 0.0000 29.2677 0.0000 1.5660
# 5 -1.8287 -2.5383 4.6664 0.0000 15.5352 0.0000
# 6 0.0000 0.0000 0.0000 1.5660 0.0000 32.7447
#
#
#
# Elastic Compliance Matrix: (Units=1/GPa)
#
#
# Indices 1 2 3 4 5 6 
#
# 1 0.012795 -0.007887 -0.001873 0.000000 0.000780 0.000000
# 2 -0.007887 0.020803 -0.003376 0.000000 0.003485 0.000000
# 3 -0.001873 -0.003376 0.015307 0.000000 -0.005370 0.000000
# 4 0.000000 0.000000 0.000000 0.034255 0.000000 -0.001638
# 5 0.000780 0.003485 -0.005370 0.000000 0.066644 0.000000
# 6 0.000000 0.000000 0.000000 -0.001638 0.000000 0.030618
#
#
# Mechanical properties :
#
#
# Convention : Reuss Voigt Hill
#
# Bulk Modulus (GPa) = 44.18608 47.74283 45.96445
# Shear Modulus (GPa) = 23.33850 26.47809 24.90830
#
# Velocity S-wave (km/s) = 3.58193 3.81525 3.70043
# Velocity P-wave (km/s) = 6.43412 6.75681 6.59744
#
# Compressibility (1/GPa) = 0.02263156
#
# Stress axis : x y z
#
# Youngs Moduli (GPa) = 78.15814 48.07046 65.32895
#
# Poissons Ratio (x) = 0.37912 0.12239
# Poissons Ratio (y) = 0.61642 0.22057
# Poissons Ratio (z) = 0.14642 0.16230
#
# Static dielectric constant tensor:
#      x y z
#    x 3.228130 0.000000 0.026640 
#    y 0.000000 3.316860 0.000000 
#    z 0.026640 0.000000 3.425840 
# 
# 
# High freq. dielectric constant tensor:
#      x y z
#    x 1.689360 0.000000 0.006830 
#    y 0.000000 1.699120 0.000000 
#    z 0.006830 0.000000 1.713380 
# 
# From -- ./inp_files/56273.got.cif
#   From: 2010.03.12/outbox.cif.g09.slc.cpg/sg14_29_cif.got.tgz:56273.got - 2010.03.31 13:35:05.
