data_PCOD8124925
_publ_section_title
;
Structure prediction by ZEFSAII (Michael W. Deem and Ramdas Pophale) SiO2 
 PCOD8124925
Probable space group: P 21/C
;
_chemical_formula_sum "Si O2"
_cell_formula_units_Z 32
_cell_length_a 21.453101
_cell_length_b 10.102807
_cell_length_c 16.848573
_cell_angle_alpha 90.000000
_cell_angle_beta 153.672677
_cell_angle_gamma 90.000000
_cell_volume 1619.524653
_symmetry_space_group_name_H-M "P 21/C"
_symmetry_group_IT_number 14
_symmetry_cell_setting 'monoclinic'
loop_
_space_group_symop_operation_xyz
x,y,z
-x,1/2+y,1/2-z
-x,-y,-z
x,1/2-y,1/2+z
loop_
_atom_site_type_symbol
_atom_site_label
_atom_site_fract_x
_atom_site_fract_y
_atom_site_fract_z
Si Si1 0.996311 0.701057 0.428273
Si Si2 0.281826 0.169190 0.300777
Si Si3 0.526632 0.091993 0.691454
Si Si4 0.613304 0.956109 0.067389
Si Si5 0.809806 0.004315 0.943414
Si Si6 0.127308 0.084769 0.820402
Si Si7 0.882619 0.093538 0.330261
Si Si8 0.445312 0.138896 0.163489
O O1 0.088937 0.585417 0.498070
O O2 0.073712 0.757277 0.596302
O O3 0.847407 0.643273 0.286668
O O4 0.983362 0.814257 0.345466
O O5 0.419763 0.104315 0.496709
O O6 0.303235 0.324638 0.311653
O O7 0.259050 0.110697 0.187646
O O8 0.685668 0.092677 0.839740
O O9 0.513626 0.214443 0.738983
O O10 0.491564 0.952786 0.695011
O O11 0.729257 0.070289 0.192684
O O12 0.526255 0.932934 0.887560
O O13 0.500000 0.000000 0.000000
O O14 0.902753 0.940879 0.120951
O O15 0.124716 0.941794 0.772076
O O16 0.278212 0.154571 0.982955
O O17 0.000000 0.000000 0.500000
#
# Coordination Sequence:
#
# PCOD8124925 Si02
#       8
#     4   4   4   4   4   4   4   4
#     4  11  21  41  63  85 126 162 204 246 310 378
#     4  11  22  43  58  86 132 161 191 260 317 363
#     4  10  21  42  62  87 123 160 205 252 311 364
#     4  10  20  35  61  90 118 155 212 245 298 372
#     4  11  25  38  62  95 120 156 210 254 305 366
#     4   9  19  42  59  83 123 161 198 255 301 359
#     4   9  17  37  62  82 114 163 195 250 298 352
#     4   9  19  39  62  84 123 159 195 257 310 363
#
# _framework density 19.758883000000001
#
# number of rings (size 3 to 8) (size 9 to 14) (size 15 to 20)
#    0.000    2.000    5.000    0.750    3.500    3.000 
#    9.000    0.000    0.000    0.000    0.000    0.000 
#    0.000    0.000    0.000    0.000    0.000    0.000 
#
# Total GULP energy -396675.101256 kJ/mol
# GULP energy per Si atom -12396.096914 kJ/mol
# Density = 1.971391 g / cm^3
# Si number density = 19.758883 Si / 1000 Ang^3
#
#
#
# Elastic Constant Matrix: (Units=GPa)
#
#
# Indices 1 2 3 4 5 6 
#
# 1 85.1134 22.9438 18.7690 0.0000 -2.0131 0.0000
# 2 22.9438 53.3085 17.5162 0.0000 -4.4671 0.0000
# 3 18.7690 17.5162 60.0746 0.0000 -7.7866 0.0000
# 4 0.0000 0.0000 0.0000 22.5741 0.0000 -5.5435
# 5 -2.0131 -4.4671 -7.7866 0.0000 35.1492 0.0000
# 6 0.0000 0.0000 0.0000 -5.5435 0.0000 31.3434
#
#
#
# Elastic Compliance Matrix: (Units=1/GPa)
#
#
# Indices 1 2 3 4 5 6 
#
# 1 0.013722 -0.004996 -0.002894 0.000000 -0.000490 0.000000
# 2 -0.004996 0.022626 -0.004840 0.000000 0.001517 0.000000
# 3 -0.002894 -0.004840 0.019418 0.000000 0.003521 0.000000
# 4 0.000000 0.000000 0.000000 0.046310 0.000000 0.008191
# 5 -0.000490 0.001517 0.003521 0.000000 0.029395 0.000000
# 6 0.000000 0.000000 0.000000 0.008191 0.000000 0.033353
#
#
# Mechanical properties :
#
#
# Convention : Reuss Voigt Hill
#
# Bulk Modulus (GPa) = 32.99606 35.21718 34.10662
# Shear Modulus (GPa) = 24.95175 27.09782 26.02479
#
# Velocity S-wave (km/s) = 3.55746 3.70729 3.63315
# Velocity P-wave (km/s) = 5.79738 6.01561 5.90750
#
# Compressibility (1/GPa) = 0.03030665
#
# Stress axis : x y z
#
# Youngs Moduli (GPa) = 72.87323 44.19606 51.49968
#
# Poissons Ratio (x) = 0.22081 0.14904
# Poissons Ratio (y) = 0.36409 0.24924
# Poissons Ratio (z) = 0.21090 0.21389
#
# Static dielectric constant tensor:
#      x y z
#    x 3.714570 0.000000 -0.284990 
#    y 0.000000 3.747370 0.000000 
#    z -0.284990 0.000000 3.981780 
# 
# 
# High freq. dielectric constant tensor:
#      x y z
#    x 1.766370 0.000000 -0.004790 
#    y 0.000000 1.755740 0.000000 
#    z -0.004790 0.000000 1.769190 
# 
# From -- ./inp_files/48932.got.cif
#   From: 2010.03.12/outbox.cif.g09.slc.cpg/sg14_25_cif.got.tgz:48932.got - 2010.03.31 13:35:05.
