data_PCOD8124661
_publ_section_title
;
Structure prediction by ZEFSAII (Michael W. Deem and Ramdas Pophale) SiO2 
 PCOD8124661
Probable space group: P 21/C
;
_chemical_formula_sum "Si O2"
_cell_formula_units_Z 32
_cell_length_a 17.955770
_cell_length_b 13.217104
_cell_length_c 24.099868
_cell_angle_alpha 90.000000
_cell_angle_beta 15.852487
_cell_angle_gamma 90.000000
_cell_volume 1562.336723
_symmetry_space_group_name_H-M "P 21/C"
_symmetry_group_IT_number 14
_symmetry_cell_setting 'monoclinic'
loop_
_space_group_symop_operation_xyz
x,y,z
-x,1/2+y,1/2-z
-x,-y,-z
x,1/2-y,1/2+z
loop_
_atom_site_type_symbol
_atom_site_label
_atom_site_fract_x
_atom_site_fract_y
_atom_site_fract_z
Si Si1 0.814371 0.179490 0.968196
Si Si2 0.377053 0.242315 0.420262
Si Si3 0.656054 0.678016 0.673849
Si Si4 0.931370 0.023434 0.662347
Si Si5 0.208470 0.194435 0.260021
Si Si6 0.186875 0.673204 0.653956
Si Si7 0.109140 0.810312 0.396330
Si Si8 0.530874 0.460365 0.756596
O O1 0.867468 0.131554 0.869510
O O2 0.079055 0.230046 0.807324
O O3 0.580617 0.263232 0.123483
O O4 0.716706 0.086568 0.075474
O O5 0.431768 0.310412 0.327165
O O6 0.572344 0.281081 0.329045
O O7 0.463947 0.124827 0.349857
O O8 0.057561 0.254128 0.662950
O O9 0.678750 0.560165 0.675681
O O10 0.948516 0.730447 0.473088
O O11 0.840413 0.084053 0.781915
O O12 0.884561 0.081878 0.638092
O O13 0.250541 0.997826 0.432561
O O14 0.767759 0.918934 0.780750
O O15 0.027831 0.191415 0.445075
O O16 0.519737 0.228333 0.049339
#
# Coordination Sequence:
#
# PCOD8124661 Si02
#       8
#     4   4   4   4   4   4   4   4
#     4  11  22  40  62  92 130 167 204 266 315 373
#     4  10  23  41  59  92 127 165 207 263 316 373
#     4  11  20  40  66  90 121 169 212 262 306 374
#     4  11  22  39  64  98 126 160 211 266 314 379
#     4  12  23  40  67  96 123 167 215 257 321 366
#     4  11  24  41  59  91 137 162 198 262 324 380
#     4  12  21  40  68  92 122 167 217 260 314 365
#     4  10  19  41  63  90 126 159 220 257 304 373
#
# _framework density 20.482140999999999
#
# number of rings (size 3 to 8) (size 9 to 14) (size 15 to 20)
#    0.000    1.000    8.750    0.750    1.750    1.500 
#    2.250    0.000    0.000    1.500    0.000    0.000 
#    0.000    0.000    0.000    0.000    0.000    0.000 
#
# Total GULP energy -396659.342658 kJ/mol
# GULP energy per Si atom -12395.604458 kJ/mol
# Density = 2.043552 g / cm^3
# Si number density = 20.482141 Si / 1000 Ang^3
#
#
#
# Elastic Constant Matrix: (Units=GPa)
#
#
# Indices 1 2 3 4 5 6 
#
# 1 81.6476 17.4490 34.2744 0.0000 -12.9052 0.0000
# 2 17.4490 68.6526 22.5940 0.0000 -4.4464 0.0000
# 3 34.2744 22.5940 114.5029 0.0000 -18.3761 0.0000
# 4 0.0000 0.0000 0.0000 20.1189 0.0000 -3.6155
# 5 -12.9052 -4.4464 -18.3761 0.0000 35.0882 0.0000
# 6 0.0000 0.0000 0.0000 -3.6155 0.0000 12.1333
#
#
#
# Elastic Compliance Matrix: (Units=1/GPa)
#
#
# Indices 1 2 3 4 5 6 
#
# 1 0.014713 -0.002407 -0.003395 0.000000 0.003328 0.000000
# 2 -0.002407 0.015976 -0.002456 0.000000 -0.000147 0.000000
# 3 -0.003395 -0.002456 0.010900 0.000000 0.004149 0.000000
# 4 0.000000 0.000000 0.000000 0.052517 0.000000 0.015649
# 5 0.003328 -0.000147 0.004149 0.000000 0.031878 0.000000
# 6 0.000000 0.000000 0.000000 0.015649 0.000000 0.087081
#
#
# Mechanical properties :
#
#
# Convention : Reuss Voigt Hill
#
# Bulk Modulus (GPa) = 39.88044 45.93754 42.90899
# Shear Modulus (GPa) = 21.01380 26.16713 23.59047
#
# Velocity S-wave (km/s) = 3.20653 3.57817 3.39744
# Velocity P-wave (km/s) = 5.76387 6.28871 6.03200
#
# Compressibility (1/GPa) = 0.02507495
#
# Stress axis : x y z
#
# Youngs Moduli (GPa) = 67.96519 62.59216 91.74288
#
# Poissons Ratio (x) = 0.15064 0.31148
# Poissons Ratio (y) = 0.16357 0.22529
# Poissons Ratio (z) = 0.23075 0.15370
#
# Static dielectric constant tensor:
#      x y z
#    x 3.767320 0.000000 -0.099880 
#    y 0.000000 3.490370 0.000000 
#    z -0.099880 0.000000 3.912150 
# 
# 
# High freq. dielectric constant tensor:
#      x y z
#    x 1.799980 0.000000 -0.007850 
#    y 0.000000 1.777380 0.000000 
#    z -0.007850 0.000000 1.806750 
# 
# From -- ./inp_files/68688.got.cif
#   From: 2010.03.12/outbox.cif.g09.slc.cpg/sg14_35_cif.got.tgz:68688.got - 2010.03.31 13:35:05.
