data_PCOD8124414
_publ_section_title
;
Structure prediction by ZEFSAII (Michael W. Deem and Ramdas Pophale) SiO2 
 PCOD8124414
Probable space group: P 21/C
;
_chemical_formula_sum "Si O2"
_cell_formula_units_Z 20
_cell_length_a 14.632222
_cell_length_b 9.895383
_cell_length_c 12.763579
_cell_angle_alpha 90.000000
_cell_angle_beta 27.511341
_cell_angle_gamma 90.000000
_cell_volume 853.662206
_symmetry_space_group_name_H-M "P 21/C"
_symmetry_group_IT_number 14
_symmetry_cell_setting 'monoclinic'
loop_
_space_group_symop_operation_xyz
x,y,z
-x,1/2+y,1/2-z
-x,-y,-z
x,1/2-y,1/2+z
loop_
_atom_site_type_symbol
_atom_site_label
_atom_site_fract_x
_atom_site_fract_y
_atom_site_fract_z
Si Si1 0.859883 0.763428 0.476378
Si Si2 0.150082 0.793246 0.852127
Si Si3 0.834377 0.083288 0.956172
Si Si4 0.576534 0.223619 0.614681
Si Si5 0.853395 0.066057 0.478197
O O1 0.958067 0.684756 0.474465
O O2 0.024530 0.783069 0.215571
O O3 0.804519 0.915671 0.568942
O O4 0.657382 0.689895 0.647465
O O5 0.176332 0.918478 0.906710
O O6 0.124390 0.653630 0.940527
O O7 0.347277 0.784984 0.581813
O O8 0.626939 0.126397 0.112437
O O9 0.938155 0.946643 0.805350
O O10 0.670966 0.108013 0.590606
#
# Coordination Sequence:
#
# PCOD8124414 Si02
#       5
#     4   4   4   4   4
#     4   9  20  37  55  84 110 146 185 225 274 326
#     4  10  19  37  60  82 112 143 187 231 266 329
#     4   8  20  38  54  80 116 144 181 226 278 323
#     4  10  20  36  57  85 110 143 189 231 264 328
#     4   9  20  40  55  79 117 147 182 220 285 329
#
# _framework density 23.428470999999998
#
# number of rings (size 3 to 8) (size 9 to 14) (size 15 to 20)
#    1.200    1.600    0.000    0.600    0.000    4.800 
#   10.800    1.000    0.000    0.000    0.000    0.000 
#    0.000    0.000    0.000    0.000    0.000    0.000 
#
# Total GULP energy -247861.717126 kJ/mol
# GULP energy per Si atom -12393.085856 kJ/mol
# Density = 2.337515 g / cm^3
# Si number density = 23.428471 Si / 1000 Ang^3
#
#
#
# Elastic Constant Matrix: (Units=GPa)
#
#
# Indices 1 2 3 4 5 6 
#
# 1 118.5835 -6.3728 59.7154 0.0000 3.5908 0.0000
# 2 -6.3728 20.1093 -1.9520 0.0000 10.4338 0.0000
# 3 59.7154 -1.9520 112.9589 0.0000 -20.4445 0.0000
# 4 0.0000 0.0000 0.0000 25.1889 0.0000 -5.0280
# 5 3.5908 10.4338 -20.4445 0.0000 32.3044 0.0000
# 6 0.0000 0.0000 0.0000 -5.0280 0.0000 19.9184
#
#
#
# Elastic Compliance Matrix: (Units=1/GPa)
#
#
# Indices 1 2 3 4 5 6 
#
# 1 0.013661 0.008611 -0.008867 0.000000 -0.009911 0.000000
# 2 0.008611 0.065949 -0.008404 0.000000 -0.027576 0.000000
# 3 -0.008867 -0.008404 0.015884 0.000000 0.013752 0.000000
# 4 0.000000 0.000000 0.000000 0.041807 0.000000 0.010553
# 5 -0.009911 -0.027576 0.013752 0.000000 0.049667 0.000000
# 6 0.000000 0.000000 0.000000 0.010553 0.000000 0.052869
#
#
# Mechanical properties :
#
#
# Convention : Reuss Voigt Hill
#
# Bulk Modulus (GPa) = 12.79172 39.38144 26.08658
# Shear Modulus (GPa) = 17.65447 28.83307 23.24377
#
# Velocity S-wave (km/s) = 2.74806 3.51192 3.15321
# Velocity P-wave (km/s) = 3.94219 5.76979 4.94122
#
# Compressibility (1/GPa) = 0.07817558
#
# Stress axis : x y z
#
# Youngs Moduli (GPa) = 73.20199 15.16312 62.95638
#
# Poissons Ratio (x) = -0.13057 0.55822
# Poissons Ratio (y) = -0.63034 0.52906
# Poissons Ratio (z) = 0.64907 0.12742
#
# Static dielectric constant tensor:
#      x y z
#    x 4.011590 0.000000 0.062810 
#    y 0.000000 4.284330 0.000000 
#    z 0.062810 0.000000 4.025560 
# 
# 
# High freq. dielectric constant tensor:
#      x y z
#    x 1.921080 0.000000 0.002680 
#    y 0.000000 1.949310 0.000000 
#    z 0.002680 0.000000 1.911220 
# 
# From -- ./inp_files/29964.got.cif
#   From: 2010.03.12/outbox.cif.g09.slc.cpg/sg14_15_cif.got.tgz:29964.got - 2010.03.31 13:35:05.
