data_PCOD8124264
_publ_section_title
;
Structure prediction by ZEFSAII (Michael W. Deem and Ramdas Pophale) SiO2 
 PCOD8124264
Probable space group: P 21/C
;
_chemical_formula_sum "Si O2"
_cell_formula_units_Z 28
_cell_length_a 9.969797
_cell_length_b 17.045652
_cell_length_c 16.019269
_cell_angle_alpha 90.000000
_cell_angle_beta 28.386473
_cell_angle_gamma 90.000000
_cell_volume 1294.246190
_symmetry_space_group_name_H-M "P 21/C"
_symmetry_group_IT_number 14
_symmetry_cell_setting 'monoclinic'
loop_
_space_group_symop_operation_xyz
x,y,z
-x,1/2+y,1/2-z
-x,-y,-z
x,1/2-y,1/2+z
loop_
_atom_site_type_symbol
_atom_site_label
_atom_site_fract_x
_atom_site_fract_y
_atom_site_fract_z
Si Si1 0.774177 0.131451 0.397243
Si Si2 0.906808 0.428281 0.660329
Si Si3 0.641635 0.639788 0.353582
Si Si4 0.771120 0.083800 0.051371
Si Si5 0.727707 0.284911 0.324137
Si Si6 0.244020 0.268620 0.465112
Si Si7 0.716959 0.803802 0.241157
O O1 0.813237 0.221117 0.346819
O O2 0.515478 0.130074 0.605116
O O3 0.711745 0.076042 0.350399
O O4 0.064156 0.099377 0.281149
O O5 0.093640 0.505879 0.560042
O O6 0.120813 0.355299 0.549002
O O7 0.716035 0.425475 0.680896
O O8 0.524020 0.599330 0.334151
O O9 0.399324 0.637731 0.559552
O O10 0.714818 0.731956 0.305895
O O11 0.976430 0.157350 0.924033
O O12 0.504799 0.249334 0.381271
O O13 0.010934 0.299127 0.113947
O O14 0.351885 0.266048 0.311147
#
# Coordination Sequence:
#
# PCOD8124264 Si02
#       7
#     4   4   4   4   4   4   4
#     4  10  21  36  56  83 125 145 197 247 293 349
#     4   9  20  42  57  85 114 164 201 238 293 363
#     4  11  21  36  57  91 116 150 192 252 295 346
#     4  10  22  38  64  81 119 159 203 241 296 354
#     4  10  19  36  55  85 118 151 189 246 297 344
#     4  10  21  35  61  84 117 154 194 245 297 352
#     4  10  22  35  58  90 117 153 197 246 297 351
#
# _framework density 21.634215000000001
#
# number of rings (size 3 to 8) (size 9 to 14) (size 15 to 20)
#    0.000    2.000    2.857    1.714   10.000    1.143 
#    0.000    0.000    0.000    7.714    0.000    0.000 
#    0.000    0.000    0.000    0.000    0.000    0.000 
#
# Total GULP energy -347004.677206 kJ/mol
# GULP energy per Si atom -12393.024186 kJ/mol
# Density = 2.158497 g / cm^3
# Si number density = 21.634215 Si / 1000 Ang^3
#
#
#
# Elastic Constant Matrix: (Units=GPa)
#
#
# Indices 1 2 3 4 5 6 
#
# 1 126.2584 -4.3068 49.8651 0.0000 -8.3081 0.0000
# 2 -4.3068 26.9247 -9.8712 0.0000 6.1330 0.0000
# 3 49.8651 -9.8712 91.0732 0.0000 7.7041 0.0000
# 4 0.0000 0.0000 0.0000 14.7249 0.0000 2.4170
# 5 -8.3081 6.1330 7.7041 0.0000 28.0378 0.0000
# 6 0.0000 0.0000 0.0000 2.4170 0.0000 22.8810
#
#
#
# Elastic Compliance Matrix: (Units=1/GPa)
#
#
# Indices 1 2 3 4 5 6 
#
# 1 0.010815 -0.001924 -0.006590 0.000000 0.005436 0.000000
# 2 -0.001924 0.041867 0.006567 0.000000 -0.011533 0.000000
# 3 -0.006590 0.006567 0.015958 0.000000 -0.007774 0.000000
# 4 0.000000 0.000000 0.000000 0.069110 0.000000 -0.007300
# 5 0.005436 -0.011533 -0.007774 0.000000 0.041936 0.000000
# 6 0.000000 0.000000 0.000000 -0.007300 0.000000 0.044475
#
#
# Mechanical properties :
#
#
# Convention : Reuss Voigt Hill
#
# Bulk Modulus (GPa) = 15.44499 35.07003 25.25751
# Shear Modulus (GPa) = 20.02898 27.03337 23.53117
#
# Velocity S-wave (km/s) = 3.04600 3.53875 3.30158
# Velocity P-wave (km/s) = 4.41876 5.73957 5.12192
#
# Compressibility (1/GPa) = 0.06474590
#
# Stress axis : x y z
#
# Youngs Moduli (GPa) = 92.46393 23.88489 62.66523
#
# Poissons Ratio (x) = 0.04596 0.41296
# Poissons Ratio (y) = 0.17794 -0.41153
# Poissons Ratio (z) = 0.60934 -0.15686
#
# Static dielectric constant tensor:
#      x y z
#    x 4.055970 0.000000 0.343210 
#    y 0.000000 3.466780 0.000000 
#    z 0.343210 0.000000 4.197620 
# 
# 
# High freq. dielectric constant tensor:
#      x y z
#    x 1.864190 0.000000 0.010960 
#    y 0.000000 1.798910 0.000000 
#    z 0.010960 0.000000 1.843800 
# 
# From -- ./inp_files/42097.got.cif
#   From: 2010.03.12/outbox.cif.g09.slc.cpg/sg14_22_cif.got.tgz:42097.got - 2010.03.31 13:35:05.
