data_PCOD8124312
_publ_section_title
;
Structure prediction by ZEFSAII (Michael W. Deem and Ramdas Pophale) SiO2 
 PCOD8124312
Probable space group: P 21/C
;
_chemical_formula_sum "Si O2"
_cell_formula_units_Z 24
_cell_length_a 16.964271
_cell_length_b 11.263775
_cell_length_c 13.491931
_cell_angle_alpha 90.000000
_cell_angle_beta 26.146146
_cell_angle_gamma 90.000000
_cell_volume 1136.054522
_symmetry_space_group_name_H-M "P 21/C"
_symmetry_group_IT_number 14
_symmetry_cell_setting 'monoclinic'
loop_
_space_group_symop_operation_xyz
x,y,z
-x,1/2+y,1/2-z
-x,-y,-z
x,1/2-y,1/2+z
loop_
_atom_site_type_symbol
_atom_site_label
_atom_site_fract_x
_atom_site_fract_y
_atom_site_fract_z
Si Si1 0.552157 0.624380 0.489495
Si Si2 0.707436 0.062133 0.338347
Si Si3 0.960923 0.201442 0.187739
Si Si4 0.208563 0.747996 0.427756
Si Si5 0.936868 0.873813 0.604041
Si Si6 0.333214 0.149341 0.745447
O O1 0.500000 0.500000 0.500000
O O2 0.385422 0.672615 0.739684
O O3 0.724734 0.616722 0.366632
O O4 0.600712 0.716679 0.347734
O O5 0.838477 0.094987 0.280871
O O6 0.755558 0.134961 0.182571
O O7 0.502498 0.084904 0.605576
O O8 0.719164 0.922683 0.297691
O O9 0.853216 0.280436 0.389958
O O10 0.021304 0.285037 0.031657
O O11 0.149853 0.148689 0.017567
O O12 0.046623 0.831128 0.574513
O O13 0.000000 0.000000 0.500000
#
# Coordination Sequence:
#
# PCOD8124312 Si02
#       6
#     4   4   4   4   4   4
#     4  10  19  36  60  82 113 152 193 237 296 350
#     4   9  19  38  59  79 119 154 190 241 290 350
#     4  10  21  35  57  88 117 148 199 243 291 348
#     4  10  21  36  57  89 116 152 196 241 291 349
#     4  10  20  37  59  82 116 160 191 239 296 352
#     4   9  19  36  60  80 110 154 191 236 297 344
#
# _framework density 21.125747
#
# number of rings (size 3 to 8) (size 9 to 14) (size 15 to 20)
#    0.000    2.333    1.667    0.500    0.000    2.667 
#    0.000    3.333    0.000    0.000    0.000    0.000 
#    0.000    0.000    0.000    0.000    0.000    0.000 
#
# Total GULP energy -297317.298548 kJ/mol
# GULP energy per Si atom -12388.220773 kJ/mol
# Density = 2.107766 g / cm^3
# Si number density = 21.125747 Si / 1000 Ang^3
#
#
#
# Elastic Constant Matrix: (Units=GPa)
#
#
# Indices 1 2 3 4 5 6 
#
# 1 57.1786 10.2806 50.9564 0.0000 -24.0693 0.0000
# 2 10.2806 92.5668 15.4963 0.0000 -8.5970 0.0000
# 3 50.9564 15.4963 146.1701 0.0000 -29.3379 0.0000
# 4 0.0000 0.0000 0.0000 19.3874 0.0000 -11.9994
# 5 -24.0693 -8.5970 -29.3379 0.0000 42.4173 0.0000
# 6 0.0000 0.0000 0.0000 -11.9994 0.0000 24.6995
#
#
#
# Elastic Compliance Matrix: (Units=1/GPa)
#
#
# Indices 1 2 3 4 5 6 
#
# 1 0.029340 -0.000912 -0.007928 0.000000 0.010981 0.000000
# 2 -0.000912 0.011127 -0.000596 0.000000 0.001326 0.000000
# 3 -0.007928 -0.000596 0.010150 0.000000 0.002401 0.000000
# 4 0.000000 0.000000 0.000000 0.073758 0.000000 0.035833
# 5 0.010981 0.001326 0.002401 0.000000 0.031736 0.000000
# 6 0.000000 0.000000 0.000000 0.035833 0.000000 0.057895
#
#
# Mechanical properties :
#
#
# Convention : Reuss Voigt Hill
#
# Bulk Modulus (GPa) = 31.49850 49.93134 40.71492
# Shear Modulus (GPa) = 20.53735 31.91296 26.22516
#
# Velocity S-wave (km/s) = 3.12131 3.89089 3.52715
# Velocity P-wave (km/s) = 5.28512 6.62359 5.99185
#
# Compressibility (1/GPa) = 0.03174755
#
# Stress axis : x y z
#
# Youngs Moduli (GPa) = 34.08262 89.87047 98.52096
#
# Poissons Ratio (x) = 0.08192 0.78105
# Poissons Ratio (y) = 0.03107 0.05869
# Poissons Ratio (z) = 0.27020 0.05354
#
# Static dielectric constant tensor:
#      x y z
#    x 3.690450 0.000000 -0.689170 
#    y 0.000000 3.621010 0.000000 
#    z -0.689170 0.000000 4.205350 
# 
# 
# High freq. dielectric constant tensor:
#      x y z
#    x 1.795460 0.000000 -0.045070 
#    y 0.000000 1.826460 0.000000 
#    z -0.045070 0.000000 1.839600 
# 
# From -- ./inp_files/47004.got.cif
#   From: 2010.03.12/outbox.cif.g09.slc.cpg/sg14_24_cif.got.tgz:47004.got - 2010.03.31 13:35:05.
