data_PCOD8124351
_publ_section_title
;
Structure prediction by ZEFSAII (Michael W. Deem and Ramdas Pophale) SiO2 
 PCOD8124351
Probable space group: P 21/C
;
_chemical_formula_sum "Si O2"
_cell_formula_units_Z 24
_cell_length_a 29.072633
_cell_length_b 4.894235
_cell_length_c 22.627899
_cell_angle_alpha 90.000000
_cell_angle_beta 162.186870
_cell_angle_gamma 90.000000
_cell_volume 984.945142
_symmetry_space_group_name_H-M "P 21/C"
_symmetry_group_IT_number 14
_symmetry_cell_setting 'monoclinic'
loop_
_space_group_symop_operation_xyz
x,y,z
-x,1/2+y,1/2-z
-x,-y,-z
x,1/2-y,1/2+z
loop_
_atom_site_type_symbol
_atom_site_label
_atom_site_fract_x
_atom_site_fract_y
_atom_site_fract_z
Si Si1 0.326153 0.756497 0.748921
Si Si2 0.835816 0.059161 0.679179
Si Si3 0.256588 0.445151 0.360931
Si Si4 0.327997 0.238674 0.327698
Si Si5 0.541644 0.170387 0.267784
Si Si6 0.945806 0.443287 0.649713
O O1 0.286154 0.566956 0.756842
O O2 0.223127 0.672826 0.566927
O O3 0.298858 0.067509 0.735586
O O4 0.498167 0.727411 0.939229
O O5 0.821108 0.267525 0.716866
O O6 0.721974 0.135007 0.485355
O O7 0.808460 0.759621 0.670424
O O8 0.996732 0.056783 0.843798
O O9 0.223244 0.346856 0.253394
O O10 0.440237 0.458027 0.591175
O O11 0.502290 0.489413 0.227515
O O12 0.947771 0.692857 0.698515
#
# Coordination Sequence:
#
# PCOD8124351 Si02
#       6
#     4   4   4   4   4   4
#     4  10  23  43  62  94 127 166 221 265 306 387
#     4  10  21  38  56  91 128 157 211 261 311 391
#     4  10  19  36  62  91 120 163 208 260 326 367
#     4  10  21  41  68  91 125 166 215 273 316 369
#     4   8  16  30  50  80 117 150 189 247 299 360
#     4  12  26  44  65  91 130 178 212 258 328 395
#
# _framework density 24.36684
#
# number of rings (size 3 to 8) (size 9 to 14) (size 15 to 20)
#    0.000    2.000    0.000    3.000    2.333    0.000 
#    9.000    5.000    0.000    0.000    0.000    0.000 
#    0.000    0.000    0.000    0.000    0.000    0.000 
#
# Total GULP energy -297412.771644 kJ/mol
# GULP energy per Si atom -12392.198819 kJ/mol
# Density = 2.431138 g / cm^3
# Si number density = 24.366840 Si / 1000 Ang^3
#
#
#
# Elastic Constant Matrix: (Units=GPa)
#
#
# Indices 1 2 3 4 5 6 
#
# 1 71.2865 12.5108 16.6628 0.0000 -6.6379 0.0000
# 2 12.5108 109.9969 13.9895 0.0000 0.1859 0.0000
# 3 16.6628 13.9895 45.8641 0.0000 0.5537 0.0000
# 4 0.0000 0.0000 0.0000 20.6962 0.0000 1.0344
# 5 -6.6379 0.1859 0.5537 0.0000 16.7898 0.0000
# 6 0.0000 0.0000 0.0000 1.0344 0.0000 29.3618
#
#
#
# Elastic Compliance Matrix: (Units=1/GPa)
#
#
# Indices 1 2 3 4 5 6 
#
# 1 0.016149 -0.001136 -0.005600 0.000000 0.006582 0.000000
# 2 -0.001136 0.009538 -0.002491 0.000000 -0.000472 0.000000
# 3 -0.005600 -0.002491 0.024634 0.000000 -0.002999 0.000000
# 4 0.000000 0.000000 0.000000 0.048403 0.000000 -0.001705
# 5 0.006582 -0.000472 -0.002999 0.000000 0.062266 0.000000
# 6 0.000000 0.000000 0.000000 -0.001705 0.000000 0.034118
#
#
# Mechanical properties :
#
#
# Convention : Reuss Voigt Hill
#
# Bulk Modulus (GPa) = 31.37983 34.83039 33.10511
# Shear Modulus (GPa) = 22.30304 25.63518 23.96911
#
# Velocity S-wave (km/s) = 3.02868 3.24705 3.13977
# Velocity P-wave (km/s) = 5.01364 5.32757 5.17299
#
# Compressibility (1/GPa) = 0.03186761
#
# Stress axis : x y z
#
# Youngs Moduli (GPa) = 61.92307 104.84447 40.59407
#
# Poissons Ratio (x) = 0.11907 0.22733
# Poissons Ratio (y) = 0.07032 0.10112
# Poissons Ratio (z) = 0.34678 0.26117
#
# Static dielectric constant tensor:
#      x y z
#    x 3.760170 0.000000 -0.083980 
#    y 0.000000 4.420150 0.000000 
#    z -0.083980 0.000000 4.333380 
# 
# 
# High freq. dielectric constant tensor:
#      x y z
#    x 1.935400 0.000000 -0.004690 
#    y 0.000000 1.982140 0.000000 
#    z -0.004690 0.000000 1.951580 
# 
# From -- ./inp_files/75268.got.cif
#   From: 2010.03.12/outbox.cif.g09.slc.cpg/sg14_38_cif.got.tgz:75268.got - 2010.03.31 13:35:05.
