data_PCOD8124769
_publ_section_title
;
Structure prediction by ZEFSAII (Michael W. Deem and Ramdas Pophale) SiO2 
 PCOD8124769
Probable space group: P 21/C
;
_chemical_formula_sum "Si O2"
_cell_formula_units_Z 16
_cell_length_a 15.908463
_cell_length_b 9.040557
_cell_length_c 20.124566
_cell_angle_alpha 90.000000
_cell_angle_beta 162.388642
_cell_angle_gamma 90.000000
_cell_volume 875.708935
_symmetry_space_group_name_H-M "P 21/C"
_symmetry_group_IT_number 14
_symmetry_cell_setting 'monoclinic'
loop_
_space_group_symop_operation_xyz
x,y,z
-x,1/2+y,1/2-z
-x,-y,-z
x,1/2-y,1/2+z
loop_
_atom_site_type_symbol
_atom_site_label
_atom_site_fract_x
_atom_site_fract_y
_atom_site_fract_z
Si Si1 0.180680 0.154169 0.065116
Si Si2 0.170158 0.318219 0.923189
Si Si3 0.812760 0.314975 0.410426
Si Si4 0.823370 0.341795 0.051575
O O1 0.499899 0.189451 0.321842
O O2 0.126629 0.979765 0.017436
O O3 0.084777 0.228487 0.924490
O O4 0.998007 0.223766 0.986304
O O5 0.094703 0.488833 0.876829
O O6 0.994692 0.261121 0.729548
O O7 0.492707 0.296339 0.148971
O O8 0.896583 0.201196 0.531233
#
# Coordination Sequence:
#
# PCOD8124769 Si02
#       4
#     4   4   4   4
#     4   9  19  36  55  74  99 133 171 208 247 294
#     4  10  20  34  53  76 103 133 166 207 251 297
#     4   9  19  36  55  74  99 133 171 208 247 294
#     4  10  20  34  53  76 103 133 166 207 251 297
#
# _framework density 18.270910000000001
#
# number of rings (size 3 to 8) (size 9 to 14) (size 15 to 20)
#    0.000    2.500    0.000    1.500    0.000    5.000 
#    0.000   10.000    0.000    0.000    0.000    0.000 
#    0.000    0.000    0.000    0.000    0.000    0.000 
#
# Total GULP energy -198475.133589 kJ/mol
# GULP energy per Si atom -12404.695849 kJ/mol
# Density = 1.822932 g / cm^3
# Si number density = 18.270910 Si / 1000 Ang^3
#
#
#
# Elastic Constant Matrix: (Units=GPa)
#
#
# Indices 1 2 3 4 5 6 
#
# 1 93.1498 1.0798 16.1668 0.0000 21.7657 0.0000
# 2 1.0798 38.6676 11.8594 0.0000 2.9152 0.0000
# 3 16.1668 11.8594 53.0691 0.0000 -8.3705 0.0000
# 4 0.0000 0.0000 0.0000 34.3284 0.0000 -7.7240
# 5 21.7657 2.9152 -8.3705 0.0000 21.1271 0.0000
# 6 0.0000 0.0000 0.0000 -7.7240 0.0000 33.7964
#
#
#
# Elastic Compliance Matrix: (Units=1/GPa)
#
#
# Indices 1 2 3 4 5 6 
#
# 1 0.017748 0.004281 -0.009963 0.000000 -0.022822 0.000000
# 2 0.004281 0.029718 -0.009906 0.000000 -0.012435 0.000000
# 3 -0.009963 -0.009906 0.027655 0.000000 0.022588 0.000000
# 4 0.000000 0.000000 0.000000 0.030710 0.000000 0.007018
# 5 -0.022822 -0.012435 0.022588 0.000000 0.081509 0.000000
# 6 0.000000 0.000000 0.000000 0.007018 0.000000 0.031193
#
#
# Mechanical properties :
#
#
# Convention : Reuss Voigt Hill
#
# Bulk Modulus (GPa) = 22.75689 27.01096 24.88393
# Shear Modulus (GPa) = 18.91381 28.23577 23.57479
#
# Velocity S-wave (km/s) = 3.22092 3.93542 3.59596
# Velocity P-wave (km/s) = 5.12979 5.95531 5.55790
#
# Compressibility (1/GPa) = 0.04394273
#
# Stress axis : x y z
#
# Youngs Moduli (GPa) = 56.34582 33.64994 36.15990
#
# Poissons Ratio (x) = -0.14404 0.36025
# Poissons Ratio (y) = -0.24119 0.35822
# Poissons Ratio (z) = 0.56136 0.33335
#
# Static dielectric constant tensor:
#      x y z
#    x 3.455820 0.000000 0.062350 
#    y 0.000000 3.422780 0.000000 
#    z 0.062350 0.000000 3.266770 
# 
# 
# High freq. dielectric constant tensor:
#      x y z
#    x 1.712480 0.000000 -0.003180 
#    y 0.000000 1.713850 0.000000 
#    z -0.003180 0.000000 1.704800 
# 
# From -- ./inp_files/20260.got.cif
#   From: 2010.03.12/outbox.cif.g09.slc.cpg/sg14_11_cif.got.tgz:20260.got - 2010.03.31 13:35:05.
