data_PCOD8124915
_publ_section_title
;
Structure prediction by ZEFSAII (Michael W. Deem and Ramdas Pophale) SiO2 
 PCOD8124915
Probable space group: P 21/C
;
_chemical_formula_sum "Si O2"
_cell_formula_units_Z 32
_cell_length_a 20.321073
_cell_length_b 6.173444
_cell_length_c 25.917224
_cell_angle_alpha 90.000000
_cell_angle_beta 29.464867
_cell_angle_gamma 90.000000
_cell_volume 1599.301807
_symmetry_space_group_name_H-M "P 21/C"
_symmetry_group_IT_number 14
_symmetry_cell_setting 'monoclinic'
loop_
_space_group_symop_operation_xyz
x,y,z
-x,1/2+y,1/2-z
-x,-y,-z
x,1/2-y,1/2+z
loop_
_atom_site_type_symbol
_atom_site_label
_atom_site_fract_x
_atom_site_fract_y
_atom_site_fract_z
Si Si1 0.856507 0.602085 0.040444
Si Si2 0.716651 0.283486 0.202997
Si Si3 0.965063 0.262856 0.891076
Si Si4 0.610533 0.598510 0.707400
Si Si5 0.178266 0.481930 0.586751
Si Si6 0.959822 0.143057 0.722772
Si Si7 0.904624 0.376129 0.656043
Si Si8 0.533409 0.037741 0.147727
O O1 0.834955 0.452467 0.105740
O O2 0.720508 0.721861 0.119636
O O3 0.879483 0.441810 0.977727
O O4 0.979307 0.770758 0.959260
O O5 0.764828 0.162509 0.222055
O O6 0.582740 0.418092 0.305145
O O7 0.685056 0.108233 0.180356
O O8 0.865890 0.079995 0.937949
O O9 0.034181 0.389948 0.796750
O O10 0.071556 0.135917 0.854969
O O11 0.502590 0.705200 0.821490
O O12 0.538557 0.549433 0.702747
O O13 0.137061 0.642467 0.661516
O O14 0.338035 0.478168 0.474503
O O15 0.103956 0.247656 0.640586
O O16 0.894070 0.276892 0.720675
#
# Coordination Sequence:
#
# PCOD8124915 Si02
#       8
#     4   4   4   4   4   4   4   4
#     4  10  21  36  62  88 120 159 202 250 298 359
#     4  11  23  39  56  84 127 163 203 243 295 366
#     4  10  20  35  60  89 122 149 193 256 304 361
#     4  11  22  38  57  89 121 163 198 248 296 365
#     4  11  21  38  63  95 115 155 195 261 314 348
#     4  10  21  39  63  91 121 144 200 258 310 357
#     4  10  22  38  58  87 120 166 198 249 303 353
#     4  11  23  37  60  85 124 160 201 242 306 365
#
# _framework density 20.008731999999998
#
# number of rings (size 3 to 8) (size 9 to 14) (size 15 to 20)
#    0.000    1.500    2.500    4.125    1.750    7.000 
#    0.000    0.625    0.000    1.500    0.000    0.000 
#    0.000    0.000    0.000    0.000    0.000    0.000 
#
# Total GULP energy -396591.128609 kJ/mol
# GULP energy per Si atom -12393.472769 kJ/mol
# Density = 1.996319 g / cm^3
# Si number density = 20.008732 Si / 1000 Ang^3
#
#
#
# Elastic Constant Matrix: (Units=GPa)
#
#
# Indices 1 2 3 4 5 6 
#
# 1 59.6138 7.8362 24.9485 0.0000 -5.8024 0.0000
# 2 7.8362 90.2951 29.4429 0.0000 -1.6326 0.0000
# 3 24.9485 29.4429 108.1578 0.0000 0.0407 0.0000
# 4 0.0000 0.0000 0.0000 21.7429 0.0000 0.2406
# 5 -5.8024 -1.6326 0.0407 0.0000 17.9927 0.0000
# 6 0.0000 0.0000 0.0000 0.2406 0.0000 21.7811
#
#
#
# Elastic Compliance Matrix: (Units=1/GPa)
#
#
# Indices 1 2 3 4 5 6 
#
# 1 0.019239 -0.000120 -0.004407 0.000000 0.006203 0.000000
# 2 -0.000120 0.012177 -0.003287 0.000000 0.001073 0.000000
# 3 -0.004407 -0.003287 0.011158 0.000000 -0.001745 0.000000
# 4 0.000000 0.000000 0.000000 0.045998 0.000000 -0.000508
# 5 0.006203 0.001073 -0.001745 0.000000 0.057680 0.000000
# 6 0.000000 0.000000 0.000000 -0.000508 0.000000 0.045917
#
#
# Mechanical properties :
#
#
# Convention : Reuss Voigt Hill
#
# Bulk Modulus (GPa) = 37.11519 42.50244 39.80881
# Shear Modulus (GPa) = 23.06496 25.35927 24.21212
#
# Velocity S-wave (km/s) = 3.39889 3.56393 3.48239
# Velocity P-wave (km/s) = 5.83036 6.18252 6.00902
#
# Compressibility (1/GPa) = 0.02694315
#
# Stress axis : x y z
#
# Youngs Moduli (GPa) = 51.97844 82.12488 89.62231
#
# Poissons Ratio (x) = 0.00988 0.39500
# Poissons Ratio (y) = 0.00626 0.29462
# Poissons Ratio (z) = 0.22909 0.26998
#
# Static dielectric constant tensor:
#      x y z
#    x 3.443970 0.000000 0.021470 
#    y 0.000000 4.057200 0.000000 
#    z 0.021470 0.000000 3.584890 
# 
# 
# High freq. dielectric constant tensor:
#      x y z
#    x 1.763670 0.000000 -0.001920 
#    y 0.000000 1.797970 0.000000 
#    z -0.001920 0.000000 1.756310 
# 
# From -- ./inp_files/77868.got.cif
#   From: 2010.03.12/outbox.cif.g09.slc.cpg/sg14_39_cif.got.tgz:77868.got - 2010.03.31 13:35:05.
