data_PCOD8124069
_publ_section_title
;
Structure prediction by ZEFSAII (Michael W. Deem and Ramdas Pophale) SiO2 
 PCOD8124069
Probable space group: P 21/C
;
_chemical_formula_sum "Si O2"
_cell_formula_units_Z 28
_cell_length_a 8.991776
_cell_length_b 16.608689
_cell_length_c 13.380008
_cell_angle_alpha 90.000000
_cell_angle_beta 42.056355
_cell_angle_gamma 90.000000
_cell_volume 1338.511309
_symmetry_space_group_name_H-M "P 21/C"
_symmetry_group_IT_number 14
_symmetry_cell_setting 'monoclinic'
loop_
_space_group_symop_operation_xyz
x,y,z
-x,1/2+y,1/2-z
-x,-y,-z
x,1/2-y,1/2+z
loop_
_atom_site_type_symbol
_atom_site_label
_atom_site_fract_x
_atom_site_fract_y
_atom_site_fract_z
Si Si1 0.475711 0.317127 0.717509
Si Si2 0.773497 0.538139 0.074813
Si Si3 0.388171 0.023075 0.657138
Si Si4 0.293254 0.208817 0.966563
Si Si5 0.670228 0.288727 0.407960
Si Si6 0.824867 0.142818 0.204415
Si Si7 0.859947 0.642062 0.837272
O O1 0.328076 0.399022 0.793910
O O2 0.532744 0.288405 0.578801
O O3 0.702975 0.325719 0.666206
O O4 0.325390 0.247454 0.841801
O O5 0.579117 0.471608 0.148322
O O6 0.000000 0.500000 0.000000
O O7 0.831276 0.580776 0.942477
O O8 0.255316 0.106712 0.706426
O O9 0.500000 0.000000 0.500000
O O10 0.216250 0.951347 0.764247
O O11 0.519667 0.168842 0.896028
O O12 0.089553 0.148106 0.060131
O O13 0.253282 0.275380 0.073317
O O14 0.738889 0.197298 0.340850
O O15 0.882467 0.345297 0.315147
#
# Coordination Sequence:
#
# PCOD8124069 Si02
#       7
#     4   4   4   4   4   4   4
#     4   9  19  35  54  78 107 138 176 221 268 317
#     4   9  18  35  55  77 106 140 178 218 262 318
#     4   9  17  34  57  76 103 142 176 213 266 323
#     4   9  19  36  54  77 108 142 178 219 263 317
#     4  10  19  34  56  80 106 137 178 228 266 308
#     4   9  19  36  54  77 107 140 179 222 266 318
#     4   9  19  36  54  77 108 139 177 219 261 317
#
# _framework density 20.918762000000001
#
# number of rings (size 3 to 8) (size 9 to 14) (size 15 to 20)
#    0.000    2.857    0.000    2.571    0.000    4.571 
#    0.000   21.429    0.000    1.714    0.000    0.000 
#    0.000    0.000    0.000    0.000    0.000    0.000 
#
# Total GULP energy -346950.278534 kJ/mol
# GULP energy per Si atom -12391.081376 kJ/mol
# Density = 2.087115 g / cm^3
# Si number density = 20.918762 Si / 1000 Ang^3
#
#
#
# Elastic Constant Matrix: (Units=GPa)
#
#
# Indices 1 2 3 4 5 6 
#
# 1 84.8134 28.6129 19.4087 0.0000 -30.6712 0.0000
# 2 28.6129 39.1879 1.5560 0.0000 -14.8719 0.0000
# 3 19.4087 1.5560 73.3229 0.0000 -16.3938 0.0000
# 4 0.0000 0.0000 0.0000 20.7118 0.0000 -8.4565
# 5 -30.6712 -14.8719 -16.3938 0.0000 43.9764 0.0000
# 6 0.0000 0.0000 0.0000 -8.4565 0.0000 24.7117
#
#
#
# Elastic Compliance Matrix: (Units=1/GPa)
#
#
# Indices 1 2 3 4 5 6 
#
# 1 0.019175 -0.010578 -0.002903 0.000000 0.008714 0.000000
# 2 -0.010578 0.035315 0.003351 0.000000 0.005814 0.000000
# 3 -0.002903 0.003351 0.015422 0.000000 0.004857 0.000000
# 4 0.000000 0.000000 0.000000 0.056123 0.000000 0.019206
# 5 0.008714 0.005814 0.004857 0.000000 0.032594 0.000000
# 6 0.000000 0.000000 0.000000 0.019206 0.000000 0.047039
#
#
# Mechanical properties :
#
#
# Convention : Reuss Voigt Hill
#
# Bulk Modulus (GPa) = 20.14071 32.94217 26.54144
# Shear Modulus (GPa) = 20.62036 27.72977 24.17506
#
# Velocity S-wave (km/s) = 3.14305 3.64482 3.40319
# Velocity P-wave (km/s) = 4.77709 5.78747 5.30638
#
# Compressibility (1/GPa) = 0.04965067
#
# Stress axis : x y z
#
# Youngs Moduli (GPa) = 52.15177 28.31644 64.84401
#
# Poissons Ratio (x) = 0.29954 0.18823
# Poissons Ratio (y) = 0.55167 -0.21726
# Poissons Ratio (z) = 0.15139 -0.09488
#
# Static dielectric constant tensor:
#      x y z
#    x 4.111460 0.000000 -0.382150 
#    y 0.000000 3.682550 0.000000 
#    z -0.382150 0.000000 3.809990 
# 
# 
# High freq. dielectric constant tensor:
#      x y z
#    x 1.821940 0.000000 -0.018560 
#    y 0.000000 1.791000 0.000000 
#    z -0.018560 0.000000 1.819820 
# 
# From -- ./inp_files/41767.got.cif
#   From: 2010.03.12/outbox.cif.g09.slc.cpg/sg14_21_cif.got.tgz:41767.got - 2010.03.31 13:35:05.
