data_PCOD8124348
_publ_section_title
;
Structure prediction by ZEFSAII (Michael W. Deem and Ramdas Pophale) SiO2 
 PCOD8124348
Probable space group: P 21/C
;
_chemical_formula_sum "Si O2"
_cell_formula_units_Z 32
_cell_length_a 8.850194
_cell_length_b 25.644168
_cell_length_c 12.639914
_cell_angle_alpha 90.000000
_cell_angle_beta 144.752420
_cell_angle_gamma 90.000000
_cell_volume 1655.558942
_symmetry_space_group_name_H-M "P 21/C"
_symmetry_group_IT_number 14
_symmetry_cell_setting 'monoclinic'
loop_
_space_group_symop_operation_xyz
x,y,z
-x,1/2+y,1/2-z
-x,-y,-z
x,1/2-y,1/2+z
loop_
_atom_site_type_symbol
_atom_site_label
_atom_site_fract_x
_atom_site_fract_y
_atom_site_fract_z
Si Si1 0.211589 0.784145 0.749572
Si Si2 0.496647 0.116790 0.122493
Si Si3 0.011703 0.684391 0.914513
Si Si4 0.590132 0.464347 0.956835
Si Si5 0.726464 0.765727 0.623855
Si Si6 0.698667 0.492549 0.800797
Si Si7 0.848456 0.579505 0.754786
Si Si8 0.454580 0.147786 0.336066
O O1 0.317420 0.842359 0.831643
O O2 0.099666 0.782591 0.566624
O O3 0.965916 0.771884 0.681584
O O4 0.449790 0.742639 0.904306
O O5 0.659858 0.063899 0.227428
O O6 0.399870 0.142224 0.178471
O O7 0.246158 0.106078 0.907198
O O8 0.779120 0.714523 0.723530
O O9 0.912456 0.624705 0.878653
O O10 0.265565 0.675960 0.985577
O O11 0.524573 0.494288 0.808674
O O12 0.438065 0.409556 0.877804
O O13 0.500000 0.500000 0.000000
O O14 0.899309 0.453727 0.134912
O O15 0.741743 0.815504 0.711235
O O16 0.630902 0.540129 0.681603
O O17 0.000000 0.500000 0.000000
#
# Coordination Sequence:
#
# PCOD8124348 Si02
#       8
#     4   4   4   4   4   4   4   4
#     4  11  25  38  64  88 120 160 207 254 306 369
#     4  10  20  39  59  89 118 163 202 256 317 366
#     4  10  22  39  60  85 124 159 205 253 309 364
#     4   9  19  36  58  84 118 159 195 251 314 362
#     4  12  23  41  61  90 120 162 207 253 310 368
#     4   9  18  34  59  85 116 157 199 245 299 367
#     4  10  19  36  62  85 120 160 204 253 307 373
#     4   9  21  39  59  85 121 159 199 251 310 366
#
# _framework density 19.328818999999999
#
# number of rings (size 3 to 8) (size 9 to 14) (size 15 to 20)
#    0.000    2.000    2.500    2.625    3.500    3.000 
#    0.000    3.750    0.000    0.000    0.000    0.000 
#    0.000    0.000    0.000    0.000    0.000    0.000 
#
# Total GULP energy -396472.911872 kJ/mol
# GULP energy per Si atom -12389.778496 kJ/mol
# Density = 1.928483 g / cm^3
# Si number density = 19.328819 Si / 1000 Ang^3
#
#
#
# Elastic Constant Matrix: (Units=GPa)
#
#
# Indices 1 2 3 4 5 6 
#
# 1 106.4727 73.2601 38.3489 0.0000 -0.9969 0.0000
# 2 73.2601 113.9012 38.2484 0.0000 -11.9002 0.0000
# 3 38.3489 38.2484 89.9419 0.0000 -8.9359 0.0000
# 4 0.0000 0.0000 0.0000 35.5293 0.0000 -3.5324
# 5 -0.9969 -11.9002 -8.9359 0.0000 19.1508 0.0000
# 6 0.0000 0.0000 0.0000 -3.5324 0.0000 34.2814
#
#
#
# Elastic Compliance Matrix: (Units=1/GPa)
#
#
# Indices 1 2 3 4 5 6 
#
# 1 0.018632 -0.011531 -0.003834 0.000000 -0.007984 0.000000
# 2 -0.011531 0.017769 -0.001681 0.000000 0.009657 0.000000
# 3 -0.003834 -0.001681 0.013993 0.000000 0.005285 0.000000
# 4 0.000000 0.000000 0.000000 0.028437 0.000000 0.002930
# 5 -0.007984 0.009657 0.005285 0.000000 0.060269 0.000000
# 6 0.000000 0.000000 0.000000 0.002930 0.000000 0.029472
#
#
# Mechanical properties :
#
#
# Convention : Reuss Voigt Hill
#
# Bulk Modulus (GPa) = 61.33636 67.78119 64.55878
# Shear Modulus (GPa) = 24.02723 28.48953 26.25838
#
# Velocity S-wave (km/s) = 3.52956 3.84336 3.68979
# Velocity P-wave (km/s) = 6.95790 7.40532 7.18509
#
# Compressibility (1/GPa) = 0.01630354
#
# Stress axis : x y z
#
# Youngs Moduli (GPa) = 53.67093 56.27685 71.46535
#
# Poissons Ratio (x) = 0.64891 0.27400
# Poissons Ratio (y) = 0.61886 0.12011
# Poissons Ratio (z) = 0.20577 0.09458
#
# Static dielectric constant tensor:
#      x y z
#    x 3.487020 0.000000 -0.158780 
#    y 0.000000 4.084260 0.000000 
#    z -0.158780 0.000000 3.672980 
# 
# 
# High freq. dielectric constant tensor:
#      x y z
#    x 1.725770 0.000000 -0.013040 
#    y 0.000000 1.765800 0.000000 
#    z -0.013040 0.000000 1.749220 
# 
# From -- ./inp_files/27100.got.cif
#   From: 2010.03.12/outbox.cif.g09.slc.cpg/sg14_14_cif.got.tgz:27100.got - 2010.03.31 13:35:05.
