data_PCOD8124025
_publ_section_title
;
Structure prediction by ZEFSAII (Michael W. Deem and Ramdas Pophale) SiO2 
 PCOD8124025
Probable space group: P 21/C
;
_chemical_formula_sum "Si O2"
_cell_formula_units_Z 32
_cell_length_a 17.775624
_cell_length_b 11.144043
_cell_length_c 18.520709
_cell_angle_alpha 90.000000
_cell_angle_beta 27.461419
_cell_angle_gamma 90.000000
_cell_volume 1691.876313
_symmetry_space_group_name_H-M "P 21/C"
_symmetry_group_IT_number 14
_symmetry_cell_setting 'monoclinic'
loop_
_space_group_symop_operation_xyz
x,y,z
-x,1/2+y,1/2-z
-x,-y,-z
x,1/2-y,1/2+z
loop_
_atom_site_type_symbol
_atom_site_label
_atom_site_fract_x
_atom_site_fract_y
_atom_site_fract_z
Si Si1 0.168353 0.890485 0.233203
Si Si2 0.778211 0.362976 0.549909
Si Si3 0.557378 0.971301 0.063731
Si Si4 0.837002 0.491789 0.970928
Si Si5 0.437213 0.339138 0.764488
Si Si6 0.755971 0.876491 0.030607
Si Si7 0.754854 0.165915 0.677434
Si Si8 0.912115 0.220552 0.312212
O O1 0.138576 0.849978 0.340776
O O2 0.206462 0.775355 0.149382
O O3 0.007269 0.940357 0.332282
O O4 0.311670 0.991215 0.109010
O O5 0.604376 0.325255 0.665062
O O6 0.805981 0.505814 0.534412
O O7 0.781141 0.302048 0.626890
O O8 0.916929 0.310082 0.377744
O O9 0.650597 0.921551 0.053488
O O10 0.433265 0.868266 0.142114
O O11 0.462480 0.094041 0.166423
O O12 0.837073 0.405144 0.901829
O O13 0.688687 0.581224 0.081326
O O14 0.816600 0.422144 0.063225
O O15 0.356070 0.208034 0.823147
O O16 0.908479 0.800327 0.872608
#
# Coordination Sequence:
#
# PCOD8124025 Si02
#       8
#     4   4   4   4   4   4   4   4
#     4  12  20  35  56  85 112 146 183 227 281 329
#     4  10  21  36  54  84 111 144 183 225 279 332
#     4  10  20  35  55  85 110 145 185 230 275 320
#     4  10  21  35  55  84 108 143 185 234 271 322
#     4  10  19  33  59  81 107 143 186 227 275 313
#     4  11  19  34  57  81 110 140 190 231 269 319
#     4  10  22  36  54  80 118 149 177 224 283 334
#     4  11  20  34  57  82 110 137 187 234 269 318
#
# _framework density 18.913912
#
# number of rings (size 3 to 8) (size 9 to 14) (size 15 to 20)
#    0.000    1.500    6.250    0.750    1.750    0.000 
#    0.000    0.625    0.000    3.000    0.000    0.000 
#    0.000    0.000    0.000    0.000    0.000    0.000 
#
# Total GULP energy -396628.569527 kJ/mol
# GULP energy per Si atom -12394.642798 kJ/mol
# Density = 1.887086 g / cm^3
# Si number density = 18.913912 Si / 1000 Ang^3
#
#
#
# Elastic Constant Matrix: (Units=GPa)
#
#
# Indices 1 2 3 4 5 6 
#
# 1 48.6764 19.7057 11.0692 0.0000 13.4720 0.0000
# 2 19.7057 93.4516 26.1593 0.0000 -1.5430 0.0000
# 3 11.0692 26.1593 79.8923 0.0000 -7.5940 0.0000
# 4 0.0000 0.0000 0.0000 31.2785 0.0000 -0.4158
# 5 13.4720 -1.5430 -7.5940 0.0000 20.9893 0.0000
# 6 0.0000 0.0000 0.0000 -0.4158 0.0000 18.2129
#
#
#
# Elastic Compliance Matrix: (Units=1/GPa)
#
#
# Indices 1 2 3 4 5 6 
#
# 1 0.029466 -0.005350 -0.004314 0.000000 -0.020867 0.000000
# 2 -0.005350 0.012758 -0.003128 0.000000 0.003240 0.000000
# 3 -0.004314 -0.003128 0.014892 0.000000 0.007927 0.000000
# 4 0.000000 0.000000 0.000000 0.031981 0.000000 0.000730
# 5 -0.020867 0.003240 0.007927 0.000000 0.064143 0.000000
# 6 0.000000 0.000000 0.000000 0.000730 0.000000 0.054923
#
#
# Mechanical properties :
#
#
# Convention : Reuss Voigt Hill
#
# Bulk Modulus (GPa) = 31.71444 37.32096 34.51770
# Shear Modulus (GPa) = 20.47010 25.10188 22.78599
#
# Velocity S-wave (km/s) = 3.29337 3.64698 3.47467
# Velocity P-wave (km/s) = 5.59159 6.12444 5.86407
#
# Compressibility (1/GPa) = 0.03153138
#
# Stress axis : x y z
#
# Youngs Moduli (GPa) = 33.93719 78.38183 67.14864
#
# Poissons Ratio (x) = 0.41937 0.28969
# Poissons Ratio (y) = 0.18157 0.21005
# Poissons Ratio (z) = 0.14641 0.24519
#
# Static dielectric constant tensor:
#      x y z
#    x 3.074100 0.000000 -0.036330 
#    y 0.000000 3.788080 0.000000 
#    z -0.036330 0.000000 3.715310 
# 
# 
# High freq. dielectric constant tensor:
#      x y z
#    x 1.686820 0.000000 -0.004720 
#    y 0.000000 1.740200 0.000000 
#    z -0.004720 0.000000 1.748040 
# 
# From -- ./inp_files/55418.got.cif
#   From: 2010.03.12/outbox.cif.g09.slc.cpg/sg14_28_cif.got.tgz:55418.got - 2010.03.31 13:35:05.
