data_PCOD8124120
_publ_section_title
;
Structure prediction by ZEFSAII (Michael W. Deem and Ramdas Pophale) SiO2 
 PCOD8124120
Probable space group: P 21/C
;
_chemical_formula_sum "Si O2"
_cell_formula_units_Z 32
_cell_length_a 11.695761
_cell_length_b 18.804502
_cell_length_c 10.257230
_cell_angle_alpha 90.000000
_cell_angle_beta 44.650971
_cell_angle_gamma 90.000000
_cell_volume 1585.417478
_symmetry_space_group_name_H-M "P 21/C"
_symmetry_group_IT_number 14
_symmetry_cell_setting 'monoclinic'
loop_
_space_group_symop_operation_xyz
x,y,z
-x,1/2+y,1/2-z
-x,-y,-z
x,1/2-y,1/2+z
loop_
_atom_site_type_symbol
_atom_site_label
_atom_site_fract_x
_atom_site_fract_y
_atom_site_fract_z
Si Si1 0.260202 0.308757 0.085423
Si Si2 0.995570 0.390430 0.157267
Si Si3 0.845815 0.433697 0.547306
Si Si4 0.721522 0.960572 0.711231
Si Si5 0.666968 0.378839 0.330208
Si Si6 0.528926 0.123285 0.219142
Si Si7 0.664451 0.652877 0.481229
Si Si8 0.829269 0.902758 0.105241
O O1 0.105376 0.325402 0.119135
O O2 0.261648 0.227246 0.130817
O O3 0.264856 0.364337 0.200386
O O4 0.424069 0.314082 0.867359
O O5 0.909759 0.433158 0.345792
O O6 0.857201 0.354619 0.173959
O O7 0.099258 0.450322 0.996093
O O8 0.676048 0.392794 0.697894
O O9 0.803679 0.512834 0.629659
O O10 0.975181 0.393287 0.535797
O O11 0.588673 0.945352 0.705694
O O12 0.701830 0.904347 0.841956
O O13 0.683293 0.036412 0.802489
O O14 0.597171 0.352626 0.524872
O O15 0.535154 0.347035 0.333543
O O16 0.762373 0.632807 0.530294
#
# Coordination Sequence:
#
# PCOD8124120 Si02
#       8
#     4   4   4   4   4   4   4   4
#     4  10  23  37  54  80 113 164 187 227 287 348
#     4   9  19  37  59  85 115 145 190 240 292 337
#     4   9  18  38  61  86 112 149 190 244 286 331
#     4  10  19  34  63  90 113 146 189 245 289 331
#     4  10  19  35  61  87 110 145 189 248 285 319
#     4   9  18  35  57  80 114 146 189 232 285 331
#     4  11  22  36  56  83 119 152 193 233 284 352
#     4  10  21  36  58  82 115 152 192 234 289 344
#
# _framework density 20.183958000000001
#
# number of rings (size 3 to 8) (size 9 to 14) (size 15 to 20)
#    0.000    2.250    0.000    4.125    5.250    0.500 
#    2.250    5.000    0.000    0.000    0.000    0.000 
#    0.000    0.000    0.000    0.000    0.000    0.000 
#
# Total GULP energy -396429.096720 kJ/mol
# GULP energy per Si atom -12388.409273 kJ/mol
# Density = 2.013802 g / cm^3
# Si number density = 20.183958 Si / 1000 Ang^3
#
#
#
# Elastic Constant Matrix: (Units=GPa)
#
#
# Indices 1 2 3 4 5 6 
#
# 1 142.8996 25.2499 41.0599 0.0000 -26.0495 0.0000
# 2 25.2499 72.9801 23.5098 0.0000 2.0794 0.0000
# 3 41.0599 23.5098 77.7029 0.0000 -18.0457 0.0000
# 4 0.0000 0.0000 0.0000 -1.5652 0.0000 -15.8151
# 5 -26.0495 2.0794 -18.0457 0.0000 31.5535 0.0000
# 6 0.0000 0.0000 0.0000 -15.8151 0.0000 9.4067
#
#
#
# Elastic Compliance Matrix: (Units=1/GPa)
#
#
# Indices 1 2 3 4 5 6 
#
# 1 0.009389 -0.002558 -0.002708 0.000000 0.006371 0.000000
# 2 -0.002558 0.016373 -0.005009 0.000000 -0.006055 0.000000
# 3 -0.002708 -0.005009 0.017728 0.000000 0.008233 0.000000
# 4 0.000000 0.000000 0.000000 -0.035519 0.000000 -0.059716
# 5 0.006371 -0.006055 0.008233 0.000000 0.042060 0.000000
# 6 0.000000 0.000000 0.000000 -0.059716 0.000000 0.005910
#
#
# Mechanical properties :
#
#
# Convention : Reuss Voigt Hill
#
# Bulk Modulus (GPa) = 43.58811 52.58021 48.08416
# Shear Modulus (GPa) = 59.42621 21.46322 40.44471
#
# Velocity S-wave (km/s) = 5.43196 3.26449 4.48124
# Velocity P-wave (km/s) = 7.80922 6.34951 7.11689
#
# Compressibility (1/GPa) = 0.02294204
#
# Stress axis : x y z
#
# Youngs Moduli (GPa) = 106.50273 61.07503 56.40808
#
# Poissons Ratio (x) = 0.15622 0.15275
# Poissons Ratio (y) = 0.27241 0.28252
# Poissons Ratio (z) = 0.28841 0.30590
#
# Static dielectric constant tensor:
#      x y z
#    x 4.322350 0.000000 -0.443200 
#    y 0.000000 3.371960 0.000000 
#    z -0.443200 0.000000 3.754830 
# 
# 
# High freq. dielectric constant tensor:
#      x y z
#    x 1.806180 0.000000 -0.024050 
#    y 0.000000 1.758880 0.000000 
#    z -0.024050 0.000000 1.776540 
# 
# From -- ./inp_files/30423.got.cif
#   From: 2010.03.12/outbox.cif.g09.slc.cpg/sg14_16_cif.got.tgz:30423.got - 2010.03.31 13:35:05.
