data_PCOD8124570
_publ_section_title
;
Structure prediction by ZEFSAII (Michael W. Deem and Ramdas Pophale) SiO2 
 PCOD8124570
Probable space group: P 21/C
;
_chemical_formula_sum "Si O2"
_cell_formula_units_Z 32
_cell_length_a 26.183057
_cell_length_b 9.101011
_cell_length_c 14.331302
_cell_angle_alpha 90.000000
_cell_angle_beta 29.060667
_cell_angle_gamma 90.000000
_cell_volume 1658.805324
_symmetry_space_group_name_H-M "P 21/C"
_symmetry_group_IT_number 14
_symmetry_cell_setting 'monoclinic'
loop_
_space_group_symop_operation_xyz
x,y,z
-x,1/2+y,1/2-z
-x,-y,-z
x,1/2-y,1/2+z
loop_
_atom_site_type_symbol
_atom_site_label
_atom_site_fract_x
_atom_site_fract_y
_atom_site_fract_z
Si Si1 0.036422 0.336243 0.425307
Si Si2 0.096446 0.583929 0.894709
Si Si3 0.546955 0.204157 0.847605
Si Si4 0.407705 0.121003 0.234040
Si Si5 0.854607 0.694609 0.087368
Si Si6 0.205644 0.260420 0.513590
Si Si7 0.371487 0.299403 0.472837
Si Si8 0.701908 0.458812 0.538496
O O1 0.052208 0.270643 0.503498
O O2 0.000000 0.500000 0.500000
O O3 0.946766 0.245841 0.510823
O O4 0.144492 0.313362 0.197208
O O5 0.132058 0.483863 0.926286
O O6 0.196067 0.616007 0.669446
O O7 0.000000 0.500000 0.000000
O O8 0.449640 0.219477 0.933442
O O9 0.628901 0.339453 0.707882
O O10 0.601153 0.051953 0.735492
O O11 0.507830 0.185611 0.017188
O O12 0.306245 0.159553 0.334286
O O13 0.409283 0.188285 0.333640
O O14 0.866085 0.754033 0.963948
O O15 0.743532 0.744080 0.307507
O O16 0.249746 0.422853 0.465967
O O17 0.367490 0.461545 0.431380
#
# Coordination Sequence:
#
# PCOD8124570 Si02
#       8
#     4   4   4   4   4   4   4   4
#     4  11  23  40  63  92 119 153 202 257 305 359
#     4   9  18  40  63  82 117 158 196 245 308 354
#     4  11  22  37  60  89 120 163 204 246 303 364
#     4  10  22  38  57  85 125 157 199 251 302 352
#     4  10  20  39  64  82 120 160 196 245 305 361
#     4  11  21  40  61  85 125 161 196 249 308 358
#     4  10  19  39  60  85 118 162 199 246 303 352
#     4  10  21  37  63  89 119 161 205 248 301 364
#
# _framework density 19.290991999999999
#
# number of rings (size 3 to 8) (size 9 to 14) (size 15 to 20)
#    0.000    1.750    6.250    0.750    1.750    3.000 
#    2.250    1.250    0.000    0.000    0.000    0.000 
#    0.000    0.000    0.000    0.000    0.000    0.000 
#
# Total GULP energy -396486.780233 kJ/mol
# GULP energy per Si atom -12390.211882 kJ/mol
# Density = 1.924708 g / cm^3
# Si number density = 19.290992 Si / 1000 Ang^3
#
#
#
# Elastic Constant Matrix: (Units=GPa)
#
#
# Indices 1 2 3 4 5 6 
#
# 1 77.5501 30.9720 11.6181 0.0000 7.5275 0.0000
# 2 30.9720 137.3031 51.9313 0.0000 -5.0943 0.0000
# 3 11.6181 51.9313 73.0772 0.0000 -8.1999 0.0000
# 4 0.0000 0.0000 0.0000 30.4992 0.0000 -6.6389
# 5 7.5275 -5.0943 -8.1999 0.0000 22.2466 0.0000
# 6 0.0000 0.0000 0.0000 -6.6389 0.0000 19.7494
#
#
#
# Elastic Compliance Matrix: (Units=1/GPa)
#
#
# Indices 1 2 3 4 5 6 
#
# 1 0.014916 -0.003331 -0.000685 0.000000 -0.006062 0.000000
# 2 -0.003331 0.010706 -0.006965 0.000000 0.001011 0.000000
# 3 -0.000685 -0.006965 0.019392 0.000000 0.005784 0.000000
# 4 0.000000 0.000000 0.000000 0.035376 0.000000 0.011892
# 5 -0.006062 0.001011 0.005784 0.000000 0.049365 0.000000
# 6 0.000000 0.000000 0.000000 0.011892 0.000000 0.054632
#
#
# Mechanical properties :
#
#
# Convention : Reuss Voigt Hill
#
# Bulk Modulus (GPa) = 43.37850 52.99702 48.18776
# Shear Modulus (GPa) = 23.36072 27.39296 25.37684
#
# Velocity S-wave (km/s) = 3.48367 3.77236 3.63088
# Velocity P-wave (km/s) = 6.22226 6.81955 6.52774
#
# Compressibility (1/GPa) = 0.02305290
#
# Stress axis : x y z
#
# Youngs Moduli (GPa) = 67.04168 93.40147 51.56776
#
# Poissons Ratio (x) = 0.31108 0.03531
# Poissons Ratio (y) = 0.22329 0.35919
# Poissons Ratio (z) = 0.04591 0.65058
#
# Static dielectric constant tensor:
#      x y z
#    x 3.934460 0.000000 0.288500 
#    y 0.000000 3.656440 0.000000 
#    z 0.288500 0.000000 4.397060 
# 
# 
# High freq. dielectric constant tensor:
#      x y z
#    x 1.740410 0.000000 -0.004320 
#    y 0.000000 1.742480 0.000000 
#    z -0.004320 0.000000 1.755660 
# 
# From -- ./inp_files/51906.got.cif
#   From: 2010.03.12/outbox.cif.g09.slc.cpg/sg14_26_cif.got.tgz:51906.got - 2010.03.31 13:35:05.
