data_PCOD8124111
_publ_section_title
;
Structure prediction by ZEFSAII (Michael W. Deem and Ramdas Pophale) SiO2 
 PCOD8124111
Probable space group: P 21/C
;
_chemical_formula_sum "Si O2"
_cell_formula_units_Z 28
_cell_length_a 11.797620
_cell_length_b 6.478267
_cell_length_c 14.316059
_cell_angle_alpha 90.000000
_cell_angle_beta 94.703138
_cell_angle_gamma 90.000000
_cell_volume 1090.465538
_symmetry_space_group_name_H-M "P 21/C"
_symmetry_group_IT_number 14
_symmetry_cell_setting 'monoclinic'
loop_
_space_group_symop_operation_xyz
x,y,z
-x,1/2+y,1/2-z
-x,-y,-z
x,1/2-y,1/2+z
loop_
_atom_site_type_symbol
_atom_site_label
_atom_site_fract_x
_atom_site_fract_y
_atom_site_fract_z
Si Si1 0.493324 0.814720 0.366491
Si Si2 0.151345 0.523278 0.775865
Si Si3 0.215495 0.257849 0.440640
Si Si4 0.104627 0.984691 0.794921
Si Si5 0.659356 0.324263 0.312607
Si Si6 0.528243 0.714921 0.568849
Si Si7 0.740698 0.882893 0.352502
O O1 0.394569 0.748890 0.289369
O O2 0.479773 0.679393 0.460436
O O3 0.616962 0.782177 0.326059
O O4 0.483592 0.050862 0.397864
O O5 0.186088 0.445829 0.879837
O O6 0.247899 0.488827 0.700242
O O7 0.026756 0.452854 0.737460
O O8 0.164054 0.768715 0.786077
O O9 0.123377 0.430690 0.401379
O O10 0.339372 0.344475 0.420395
O O11 0.202889 0.205515 0.548672
O O12 0.169461 0.150463 0.728673
O O13 0.555070 0.417517 0.368064
O O14 0.721355 0.130137 0.366298
#
# Coordination Sequence:
#
# PCOD8124111 Si02
#       7
#     4   4   4   4   4   4   4
#     4   9  16  33  58  91 121 161 208 253 324 396
#     4  11  23  40  66  95 130 175 221 264 334 384
#     4  11  21  43  71  90 132 173 211 286 323 386
#     4  11  23  44  64  93 130 171 224 275 320 393
#     4  10  19  34  60  95 125 164 213 260 320 398
#     4   9  18  32  61  91 120 166 207 255 330 383
#     4   9  22  38  65  96 123 174 218 264 340 377
#
# _framework density 25.677104
#
# number of rings (size 3 to 8) (size 9 to 14) (size 15 to 20)
#    0.000    2.000    2.857    1.714    0.000    0.571 
#    0.000    3.571    6.286    6.857    0.000    0.000 
#    0.000    0.000    0.000    0.000    0.000    0.000 
#
# Total GULP energy -347193.588824 kJ/mol
# GULP energy per Si atom -12399.771029 kJ/mol
# Density = 2.561866 g / cm^3
# Si number density = 25.677104 Si / 1000 Ang^3
#
#
#
# Elastic Constant Matrix: (Units=GPa)
#
#
# Indices 1 2 3 4 5 6 
#
# 1 137.3483 19.1181 57.0750 0.0000 8.5525 0.0000
# 2 19.1181 22.8918 14.5391 0.0000 0.8185 0.0000
# 3 57.0750 14.5391 131.3030 0.0000 18.1671 0.0000
# 4 0.0000 0.0000 0.0000 45.6910 0.0000 0.3984
# 5 8.5525 0.8185 18.1671 0.0000 32.4494 0.0000
# 6 0.0000 0.0000 0.0000 0.3984 0.0000 42.4297
#
#
#
# Elastic Compliance Matrix: (Units=1/GPa)
#
#
# Indices 1 2 3 4 5 6 
#
# 1 0.009544 -0.005764 -0.003450 0.000000 -0.000439 0.000000
# 2 -0.005764 0.050575 -0.003391 0.000000 0.002142 0.000000
# 3 -0.003450 -0.003391 0.010139 0.000000 -0.004681 0.000000
# 4 0.000000 0.000000 0.000000 0.021888 0.000000 -0.000206
# 5 -0.000439 0.002142 -0.004681 0.000000 0.033500 0.000000
# 6 0.000000 0.000000 0.000000 -0.000206 0.000000 0.023570
#
#
# Mechanical properties :
#
#
# Convention : Reuss Voigt Hill
#
# Bulk Modulus (GPa) = 22.19848 52.55639 37.37744
# Shear Modulus (GPa) = 26.39354 37.50142 31.94748
#
# Velocity S-wave (km/s) = 3.20957 3.82580 3.53115
# Velocity P-wave (km/s) = 4.73277 6.32679 5.58692
#
# Compressibility (1/GPa) = 0.04504812
#
# Stress axis : x y z
#
# Youngs Moduli (GPa) = 104.77926 19.77275 98.63237
#
# Poissons Ratio (x) = 0.11397 0.34024
# Poissons Ratio (y) = 0.60394 0.33446
# Poissons Ratio (z) = 0.36145 0.06705
#
# Static dielectric constant tensor:
#      x y z
#    x 4.763140 0.000000 -0.199560 
#    y 0.000000 4.745460 0.000000 
#    z -0.199560 0.000000 4.570290 
# 
# 
# High freq. dielectric constant tensor:
#      x y z
#    x 2.028190 0.000000 -0.004250 
#    y 0.000000 2.066990 0.000000 
#    z -0.004250 0.000000 2.014160 
# 
# From -- ./inp_files/43192.got.cif
#   From: 2010.03.12/outbox.cif.g09.slc.cpg/sg14_22_cif.got.tgz:43192.got - 2010.03.31 13:35:05.
