data_PCOD8124605
_publ_section_title
;
Structure prediction by ZEFSAII (Michael W. Deem and Ramdas Pophale) SiO2 
 PCOD8124605
Probable space group: P 21/C
;
_chemical_formula_sum "Si O2"
_cell_formula_units_Z 32
_cell_length_a 21.124680
_cell_length_b 14.163955
_cell_length_c 14.645643
_cell_angle_alpha 90.000000
_cell_angle_beta 160.489772
_cell_angle_gamma 90.000000
_cell_volume 1463.515224
_symmetry_space_group_name_H-M "P 21/C"
_symmetry_group_IT_number 14
_symmetry_cell_setting 'monoclinic'
loop_
_space_group_symop_operation_xyz
x,y,z
-x,1/2+y,1/2-z
-x,-y,-z
x,1/2-y,1/2+z
loop_
_atom_site_type_symbol
_atom_site_label
_atom_site_fract_x
_atom_site_fract_y
_atom_site_fract_z
Si Si1 0.485688 0.983317 0.298218
Si Si2 0.004266 0.239085 0.837335
Si Si3 0.914135 0.446949 0.694186
Si Si4 0.403771 0.325369 0.618545
Si Si5 0.015745 0.853772 0.377738
Si Si6 0.620907 0.814365 0.565915
Si Si7 0.671566 0.091381 0.704697
Si Si8 0.761326 0.235881 0.683747
O O1 0.509950 0.070883 0.261145
O O2 0.516848 0.022777 0.445468
O O3 0.631681 0.893994 0.497458
O O4 0.273287 0.943137 0.996186
O O5 0.034577 0.351968 0.871680
O O6 0.858653 0.214795 0.719467
O O7 0.925328 0.202732 0.633129
O O8 0.198959 0.184848 0.123362
O O9 0.045254 0.534925 0.900597
O O10 0.837026 0.461664 0.485982
O O11 0.202128 0.331427 0.393681
O O12 0.386093 0.288286 0.491395
O O13 0.535752 0.253718 0.857196
O O14 0.151696 0.827123 0.647219
O O15 0.433435 0.833646 0.370792
O O16 0.790270 0.146264 0.788749
#
# Coordination Sequence:
#
# PCOD8124605 Si02
#       8
#     4   4   4   4   4   4   4   4
#     4   9  19  37  63  91 116 171 220 252 297 386
#     4  12  23  39  65  98 125 165 211 262 325 367
#     4  10  20  37  64  94 122 165 211 258 312 387
#     4  10  22  41  62  91 127 170 212 256 316 375
#     4  11  23  44  63  93 132 162 213 267 312 377
#     4  11  20  38  65  92 124 167 211 260 317 372
#     4  10  19  39  65  90 122 162 220 258 307 372
#     4  11  22  39  64  93 125 164 209 262 312 372
#
# _framework density 21.865162999999999
#
# number of rings (size 3 to 8) (size 9 to 14) (size 15 to 20)
#    0.000    1.500    2.500    6.000    0.000    0.500 
#    2.250    8.125    0.000    3.000    0.000    0.000 
#    0.000    0.000    0.000    0.000    0.000    0.000 
#
# Total GULP energy -396516.927344 kJ/mol
# GULP energy per Si atom -12391.153980 kJ/mol
# Density = 2.181540 g / cm^3
# Si number density = 21.865163 Si / 1000 Ang^3
#
#
#
# Elastic Constant Matrix: (Units=GPa)
#
#
# Indices 1 2 3 4 5 6 
#
# 1 79.8293 18.9050 6.3702 0.0000 1.7265 0.0000
# 2 18.9050 95.1243 27.6187 0.0000 9.5760 0.0000
# 3 6.3702 27.6187 55.4895 0.0000 -5.4747 0.0000
# 4 0.0000 0.0000 0.0000 43.0364 0.0000 -9.9987
# 5 1.7265 9.5760 -5.4747 0.0000 18.7115 0.0000
# 6 0.0000 0.0000 0.0000 -9.9987 0.0000 29.5794
#
#
#
# Elastic Compliance Matrix: (Units=1/GPa)
#
#
# Indices 1 2 3 4 5 6 
#
# 1 0.013148 -0.002545 -0.000241 0.000000 0.000019 0.000000
# 2 -0.002545 0.014182 -0.007681 0.000000 -0.009270 0.000000
# 3 -0.000241 -0.007681 0.022924 0.000000 0.010660 0.000000
# 4 0.000000 0.000000 0.000000 0.025217 0.000000 0.008524
# 5 0.000019 -0.009270 0.010660 0.000000 0.061304 0.000000
# 6 0.000000 0.000000 0.000000 0.008524 0.000000 0.036689
#
#
# Mechanical properties :
#
#
# Convention : Reuss Voigt Hill
#
# Bulk Modulus (GPa) = 34.10645 37.35899 35.73272
# Shear Modulus (GPa) = 24.48930 30.10208 27.29569
#
# Velocity S-wave (km/s) = 3.35029 3.71444 3.53705
# Velocity P-wave (km/s) = 5.53158 5.95980 5.74968
#
# Compressibility (1/GPa) = 0.02931997
#
# Stress axis : x y z
#
# Youngs Moduli (GPa) = 76.05576 70.51322 43.62257
#
# Poissons Ratio (x) = 0.17946 0.01051
# Poissons Ratio (y) = 0.19357 0.33507
# Poissons Ratio (z) = 0.01832 0.54162
#
# Static dielectric constant tensor:
#      x y z
#    x 3.756540 0.000000 -0.272830 
#    y 0.000000 4.121470 0.000000 
#    z -0.272830 0.000000 3.904790 
# 
# 
# High freq. dielectric constant tensor:
#      x y z
#    x 1.835990 0.000000 -0.027710 
#    y 0.000000 1.860960 0.000000 
#    z -0.027710 0.000000 1.851470 
# 
# From -- ./inp_files/50699.got.cif
#   From: 2010.03.12/outbox.cif.g09.slc.cpg/sg14_26_cif.got.tgz:50699.got - 2010.03.31 13:35:05.
