data_PCOD8124216
_publ_section_title
;
Structure prediction by ZEFSAII (Michael W. Deem and Ramdas Pophale) SiO2 
 PCOD8124216
Probable space group: P 21/C
;
_chemical_formula_sum "Si O2"
_cell_formula_units_Z 32
_cell_length_a 19.558614
_cell_length_b 5.161979
_cell_length_c 13.289630
_cell_angle_alpha 90.000000
_cell_angle_beta 98.439490
_cell_angle_gamma 90.000000
_cell_volume 1327.207282
_symmetry_space_group_name_H-M "P 21/C"
_symmetry_group_IT_number 14
_symmetry_cell_setting 'monoclinic'
loop_
_space_group_symop_operation_xyz
x,y,z
-x,1/2+y,1/2-z
-x,-y,-z
x,1/2-y,1/2+z
loop_
_atom_site_type_symbol
_atom_site_label
_atom_site_fract_x
_atom_site_fract_y
_atom_site_fract_z
Si Si1 0.625684 0.977944 0.489805
Si Si2 0.458498 0.039403 0.714128
Si Si3 0.742235 0.799993 0.889128
Si Si4 0.735588 0.156593 0.054357
Si Si5 0.664321 0.803671 0.186816
Si Si6 0.859392 0.961906 0.310191
Si Si7 0.150623 0.539056 0.823051
Si Si8 0.004777 0.645702 0.813546
O O1 0.555620 0.990409 0.409201
O O2 0.682528 0.812013 0.445183
O O3 0.615990 0.858189 0.599426
O O4 0.656824 0.264361 0.509461
O O5 0.488633 0.324171 0.737891
O O6 0.386885 0.010447 0.760497
O O7 0.707122 0.880883 0.774304
O O8 0.804391 0.595949 0.886325
O O9 0.771189 0.038903 0.961402
O O10 0.781337 0.406467 0.095157
O O11 0.725899 0.964287 0.146723
O O12 0.847959 0.753841 0.216792
O O13 0.938190 0.920254 0.369439
O O14 0.850038 0.254976 0.269513
O O15 0.081092 0.586620 0.875880
O O16 0.998081 0.448399 0.716745
#
# Coordination Sequence:
#
# PCOD8124216 Si02
#       8
#     4   4   4   4   4   4   4   4
#     4  10  25  42  68  95 129 166 214 256 313 375
#     4  11  28  47  70 100 133 166 207 257 311 380
#     4  10  22  38  60  95 127 166 213 268 318 371
#     4  11  23  38  65  93 129 168 212 268 313 376
#     4  10  23  44  67  93 128 169 211 260 316 374
#     4  10  19  35  60  86 124 169 214 261 319 370
#     4  10  20  35  60  90 121 168 215 259 318 374
#     4   8  16  31  53  84 118 162 215 257 306 380
#
# _framework density 24.110778
#
# number of rings (size 3 to 8) (size 9 to 14) (size 15 to 20)
#    0.000    2.000    1.250    0.750   10.500    2.000 
#    0.000    0.625    0.000    0.750    0.000    0.000 
#    0.000    0.000    0.000    0.000    0.000    0.000 
#
# Total GULP energy -396496.921065 kJ/mol
# GULP energy per Si atom -12390.528783 kJ/mol
# Density = 2.405590 g / cm^3
# Si number density = 24.110778 Si / 1000 Ang^3
#
#
#
# Elastic Constant Matrix: (Units=GPa)
#
#
# Indices 1 2 3 4 5 6 
#
# 1 65.1156 -10.1767 11.6646 0.0000 11.5600 0.0000
# 2 -10.1767 60.9879 7.7428 0.0000 2.9311 0.0000
# 3 11.6646 7.7428 90.6181 0.0000 1.9077 0.0000
# 4 0.0000 0.0000 0.0000 13.8052 0.0000 13.6646
# 5 11.5600 2.9311 1.9077 0.0000 17.5019 0.0000
# 6 0.0000 0.0000 0.0000 13.6646 0.0000 32.0745
#
#
#
# Elastic Compliance Matrix: (Units=1/GPa)
#
#
# Indices 1 2 3 4 5 6 
#
# 1 0.018700 0.004049 -0.002485 0.000000 -0.012759 0.000000
# 2 0.004049 0.017575 -0.001909 0.000000 -0.005410 0.000000
# 3 -0.002485 -0.001909 0.011503 0.000000 0.000707 0.000000
# 4 0.000000 0.000000 0.000000 0.125254 0.000000 -0.053362
# 5 -0.012759 -0.005410 0.000707 0.000000 0.066393 0.000000
# 6 0.000000 0.000000 0.000000 -0.053362 0.000000 0.053911
#
#
# Mechanical properties :
#
#
# Convention : Reuss Voigt Hill
#
# Bulk Modulus (GPa) = 21.23623 26.13146 23.68384
# Shear Modulus (GPa) = 16.14352 26.50905 21.32628
#
# Velocity S-wave (km/s) = 2.59039 3.31942 2.97730
# Velocity P-wave (km/s) = 4.21589 5.05500 4.65439
#
# Compressibility (1/GPa) = 0.04708934
#
# Stress axis : x y z
#
# Youngs Moduli (GPa) = 53.47521 56.90004 86.93106
#
# Poissons Ratio (x) = -0.23039 0.21598
# Poissons Ratio (y) = -0.21652 0.16595
# Poissons Ratio (z) = 0.13286 0.10862
#
# Static dielectric constant tensor:
#      x y z
#    x 4.677190 0.000000 0.087090 
#    y 0.000000 4.204800 0.000000 
#    z 0.087090 0.000000 4.305760 
# 
# 
# High freq. dielectric constant tensor:
#      x y z
#    x 1.968420 0.000000 0.002110 
#    y 0.000000 1.951630 0.000000 
#    z 0.002110 0.000000 1.926110 
# 
# From -- ./inp_files/48165.got.cif
#   From: 2010.03.12/outbox.cif.g09.slc.cpg/sg14_25_cif.got.tgz:48165.got - 2010.03.31 13:35:05.
