data_PCOD8124244
_publ_section_title
;
Structure prediction by ZEFSAII (Michael W. Deem and Ramdas Pophale) SiO2 
 PCOD8124244
Probable space group: P 21/C
;
_chemical_formula_sum "Si O2"
_cell_formula_units_Z 28
_cell_length_a 7.248942
_cell_length_b 21.500931
_cell_length_c 12.416987
_cell_angle_alpha 90.000000
_cell_angle_beta 40.092014
_cell_angle_gamma 90.000000
_cell_volume 1246.365598
_symmetry_space_group_name_H-M "P 21/C"
_symmetry_group_IT_number 14
_symmetry_cell_setting 'monoclinic'
loop_
_space_group_symop_operation_xyz
x,y,z
-x,1/2+y,1/2-z
-x,-y,-z
x,1/2-y,1/2+z
loop_
_atom_site_type_symbol
_atom_site_label
_atom_site_fract_x
_atom_site_fract_y
_atom_site_fract_z
Si Si1 0.529995 0.638623 0.269478
Si Si2 0.624730 0.181808 0.393923
Si Si3 0.726565 0.798348 0.887079
Si Si4 0.347604 0.064504 0.590625
Si Si5 0.981699 0.070189 0.546077
Si Si6 0.456635 0.082137 0.909460
Si Si7 0.819869 0.042025 0.951410
O O1 0.396074 0.668652 0.223664
O O2 0.549508 0.687841 0.357377
O O3 0.856568 0.613016 0.113069
O O4 0.313921 0.582869 0.394192
O O5 0.381686 0.232441 0.524031
O O6 0.575873 0.121052 0.492276
O O7 0.935522 0.208621 0.283966
O O8 0.676687 0.851854 0.998829
O O9 0.146977 0.082029 0.581862
O O10 0.156066 0.058961 0.784535
O O11 0.500000 0.000000 0.500000
O O12 0.649409 0.089242 0.714331
O O13 0.000000 0.000000 0.500000
O O14 0.657575 0.054448 0.912493
O O15 0.205515 0.030947 0.003697
#
# Coordination Sequence:
#
# PCOD8124244 Si02
#       7
#     4   4   4   4   4   4   4
#     4  10  23  43  68  95 135 172 226 279 333 399
#     4  11  27  46  66 100 133 176 231 278 333 411
#     4  11  26  46  69  92 136 179 223 274 339 397
#     4  10  22  39  62  92 137 166 221 283 331 390
#     4  10  19  35  62  97 129 170 217 267 335 397
#     4   9  18  35  63  93 128 170 214 263 329 397
#     4   9  17  35  65  92 126 171 212 267 335 388
#
# _framework density 22.465318
#
# number of rings (size 3 to 8) (size 9 to 14) (size 15 to 20)
#    0.000    2.000    1.429    0.857   12.000    1.143 
#    2.571    2.143    0.000    0.000    0.000    0.000 
#    0.000    0.000    0.000    0.000    0.000    0.000 
#
# Total GULP energy -347177.942547 kJ/mol
# GULP energy per Si atom -12399.212234 kJ/mol
# Density = 2.241419 g / cm^3
# Si number density = 22.465318 Si / 1000 Ang^3
#
#
#
# Elastic Constant Matrix: (Units=GPa)
#
#
# Indices 1 2 3 4 5 6 
#
# 1 32.1897 12.8253 17.8884 0.0000 -3.8439 0.0000
# 2 12.8253 144.2764 65.3343 0.0000 -3.0976 0.0000
# 3 17.8884 65.3343 168.5056 0.0000 -7.9918 0.0000
# 4 0.0000 0.0000 0.0000 44.2156 0.0000 -1.1220
# 5 -3.8439 -3.0976 -7.9918 0.0000 33.3843 0.0000
# 6 0.0000 0.0000 0.0000 -1.1220 0.0000 26.0673
#
#
#
# Elastic Compliance Matrix: (Units=1/GPa)
#
#
# Indices 1 2 3 4 5 6 
#
# 1 0.033639 -0.001666 -0.002780 0.000000 0.003053 0.000000
# 2 -0.001666 0.008490 -0.003122 0.000000 -0.000151 0.000000
# 3 -0.002780 -0.003122 0.007496 0.000000 0.001185 0.000000
# 4 0.000000 0.000000 0.000000 0.022641 0.000000 0.000975
# 5 0.003053 -0.000151 0.001185 0.000000 0.030575 0.000000
# 6 0.000000 0.000000 0.000000 0.000975 0.000000 0.038404
#
#
# Mechanical properties :
#
#
# Convention : Reuss Voigt Hill
#
# Bulk Modulus (GPa) = 28.99477 59.67419 44.33448
# Shear Modulus (GPa) = 29.78338 37.32836 33.55587
#
# Velocity S-wave (km/s) = 3.64503 4.08069 3.86900
# Velocity P-wave (km/s) = 5.53620 6.98736 6.30368
#
# Compressibility (1/GPa) = 0.03448898
#
# Stress axis : x y z
#
# Youngs Moduli (GPa) = 29.72716 117.78895 133.39741
#
# Poissons Ratio (x) = 0.19620 0.37091
# Poissons Ratio (y) = 0.04952 0.41648
# Poissons Ratio (z) = 0.08266 0.36775
#
# Static dielectric constant tensor:
#      x y z
#    x 3.816180 0.000000 0.033100 
#    y 0.000000 3.933390 0.000000 
#    z 0.033100 0.000000 4.598950 
# 
# 
# High freq. dielectric constant tensor:
#      x y z
#    x 1.868990 0.000000 0.000290 
#    y 0.000000 1.873520 0.000000 
#    z 0.000290 0.000000 1.906810 
# 
# From -- ./inp_files/42030.got.cif
#   From: 2010.03.12/outbox.cif.g09.slc.cpg/sg14_22_cif.got.tgz:42030.got - 2010.03.31 13:35:05.
