data_PCOD8124691
_publ_section_title
;
Structure prediction by ZEFSAII (Michael W. Deem and Ramdas Pophale) SiO2 
 PCOD8124691
Probable space group: P 21/C
;
_chemical_formula_sum "Si O2"
_cell_formula_units_Z 28
_cell_length_a 18.898362
_cell_length_b 13.078917
_cell_length_c 13.855790
_cell_angle_alpha 90.000000
_cell_angle_beta 22.249798
_cell_angle_gamma 90.000000
_cell_volume 1296.760797
_symmetry_space_group_name_H-M "P 21/C"
_symmetry_group_IT_number 14
_symmetry_cell_setting 'monoclinic'
loop_
_space_group_symop_operation_xyz
x,y,z
-x,1/2+y,1/2-z
-x,-y,-z
x,1/2-y,1/2+z
loop_
_atom_site_type_symbol
_atom_site_label
_atom_site_fract_x
_atom_site_fract_y
_atom_site_fract_z
Si Si1 0.173183 0.056837 0.832963
Si Si2 0.035730 0.900245 0.288807
Si Si3 0.664915 0.477551 0.216598
Si Si4 0.614586 0.424817 0.068385
Si Si5 0.071427 0.728658 0.383499
Si Si6 0.110391 0.772459 0.549464
Si Si7 0.224097 0.410753 0.488818
O O1 0.200820 0.038755 0.912068
O O2 0.352567 0.016802 0.549627
O O3 0.133685 0.177370 0.869186
O O4 0.000000 0.000000 0.000000
O O5 0.043853 0.844260 0.382026
O O6 0.136638 0.822940 0.087140
O O7 0.826443 0.936601 0.524316
O O8 0.163001 0.000211 0.139649
O O9 0.500000 0.500000 0.500000
O O10 0.586978 0.480366 0.205962
O O11 0.738150 0.362084 0.135919
O O12 0.427903 0.371891 0.262976
O O13 0.777865 0.338802 0.867786
O O14 0.133318 0.725955 0.414998
O O15 0.904802 0.812523 0.834942
#
# Coordination Sequence:
#
# PCOD8124691 Si02
#       7
#     4   4   4   4   4   4   4
#     4  10  19  42  67  92 125 172 215 267 331 387
#     4  11  22  45  65  94 130 180 222 264 346 401
#     4  11  26  44  67  95 138 177 221 286 337 394
#     4  11  23  44  64  99 131 168 226 275 334 390
#     4  11  22  40  69  92 127 174 219 270 326 407
#     4  11  23  44  66  95 133 174 224 270 336 407
#     4  11  24  40  68  98 135 169 217 283 331 392
#
# _framework density 21.592262999999999
#
# number of rings (size 3 to 8) (size 9 to 14) (size 15 to 20)
#    0.000    1.143    2.857    5.571    4.000    2.286 
#    5.143    0.000    0.000    0.000    0.000    0.000 
#    0.000    0.000    0.000    0.000    0.000    0.000 
#
# Total GULP energy -347057.435449 kJ/mol
# GULP energy per Si atom -12394.908409 kJ/mol
# Density = 2.154312 g / cm^3
# Si number density = 21.592263 Si / 1000 Ang^3
#
#
#
# Elastic Constant Matrix: (Units=GPa)
#
#
# Indices 1 2 3 4 5 6 
#
# 1 66.6189 -2.8839 32.2554 0.0000 1.1228 0.0000
# 2 -2.8839 62.6612 12.1900 0.0000 1.9751 0.0000
# 3 32.2554 12.1900 83.9878 0.0000 7.7341 0.0000
# 4 0.0000 0.0000 0.0000 25.3845 0.0000 8.6759
# 5 1.1228 1.9751 7.7341 0.0000 37.9991 0.0000
# 6 0.0000 0.0000 0.0000 8.6759 0.0000 31.2408
#
#
#
# Elastic Compliance Matrix: (Units=1/GPa)
#
#
# Indices 1 2 3 4 5 6 
#
# 1 0.018793 0.002323 -0.007636 0.000000 0.000878 0.000000
# 2 0.002323 0.016715 -0.003293 0.000000 -0.000267 0.000000
# 3 -0.007636 -0.003293 0.015572 0.000000 -0.002773 0.000000
# 4 0.000000 0.000000 0.000000 0.043525 0.000000 -0.012087
# 5 0.000878 -0.000267 -0.002773 0.000000 0.026869 0.000000
# 6 0.000000 0.000000 0.000000 -0.012087 0.000000 0.035366
#
#
# Mechanical properties :
#
#
# Convention : Reuss Voigt Hill
#
# Bulk Modulus (GPa) = 29.52646 32.93234 31.22940
# Shear Modulus (GPa) = 26.97705 30.37199 28.67452
#
# Velocity S-wave (km/s) = 3.53850 3.75455 3.64813
# Velocity P-wave (km/s) = 5.51352 5.83786 5.67800
#
# Compressibility (1/GPa) = 0.03386792
#
# Stress axis : x y z
#
# Youngs Moduli (GPa) = 53.20993 59.82709 64.21677
#
# Poissons Ratio (x) = -0.13896 0.49033
# Poissons Ratio (y) = -0.12359 0.21149
# Poissons Ratio (z) = 0.40629 0.19703
#
# Static dielectric constant tensor:
#      x y z
#    x 3.875620 0.000000 0.162830 
#    y 0.000000 3.980420 0.000000 
#    z 0.162830 0.000000 3.921520 
# 
# 
# High freq. dielectric constant tensor:
#      x y z
#    x 1.856580 0.000000 0.011560 
#    y 0.000000 1.849850 0.000000 
#    z 0.011560 0.000000 1.833600 
# 
# From -- ./inp_files/50564.got.cif
#   From: 2010.03.12/outbox.cif.g09.slc.cpg/sg14_26_cif.got.tgz:50564.got - 2010.03.31 13:35:05.
