data_PCOD8124421
_publ_section_title
;
Structure prediction by ZEFSAII (Michael W. Deem and Ramdas Pophale) SiO2 
 PCOD8124421
Probable space group: P 21/C
;
_chemical_formula_sum "Si O2"
_cell_formula_units_Z 24
_cell_length_a 7.960339
_cell_length_b 10.180147
_cell_length_c 27.801345
_cell_angle_alpha 90.000000
_cell_angle_beta 33.756857
_cell_angle_gamma 90.000000
_cell_volume 1251.895747
_symmetry_space_group_name_H-M "P 21/C"
_symmetry_group_IT_number 14
_symmetry_cell_setting 'monoclinic'
loop_
_space_group_symop_operation_xyz
x,y,z
-x,1/2+y,1/2-z
-x,-y,-z
x,1/2-y,1/2+z
loop_
_atom_site_type_symbol
_atom_site_label
_atom_site_fract_x
_atom_site_fract_y
_atom_site_fract_z
Si Si1 0.231168 0.742639 0.709942
Si Si2 0.544129 0.526852 0.186327
Si Si3 0.348456 0.481896 0.730210
Si Si4 0.316151 0.616895 0.097402
Si Si5 0.451802 0.229361 0.648159
Si Si6 0.777926 0.388831 0.987106
O O1 0.294183 0.875655 0.724392
O O2 0.413046 0.620954 0.689246
O O3 0.332973 0.760411 0.629937
O O4 0.875773 0.716303 0.797793
O O5 0.496458 0.518200 0.254717
O O6 0.496341 0.381974 0.177479
O O7 0.869584 0.582068 0.094020
O O8 0.500842 0.368742 0.662057
O O9 0.989738 0.463682 0.820359
O O10 0.320103 0.668401 0.041626
O O11 0.599559 0.523393 0.040615
O O12 0.697073 0.217405 0.547081
#
# Coordination Sequence:
#
# PCOD8124421 Si02
#       6
#     4   4   4   4   4   4
#     4  11  20  37  56  86 115 152 185 232 288 336
#     4  11  22  36  61  85 113 149 194 239 271 333
#     4  10  21  36  56  87 120 146 185 231 290 334
#     4   9  19  35  60  85 114 148 187 236 274 335
#     4  11  20  37  59  86 112 152 190 232 282 337
#     4  10  19  37  60  89 108 145 200 234 272 326
#
# _framework density 19.170926000000001
#
# number of rings (size 3 to 8) (size 9 to 14) (size 15 to 20)
#    0.000    1.667    3.333    2.500    0.000    0.000 
#    0.000    1.667    0.000    0.000    0.000    0.000 
#    0.000    0.000    0.000    0.000    0.000    0.000 
#
# Total GULP energy -297671.313638 kJ/mol
# GULP energy per Si atom -12402.971402 kJ/mol
# Density = 1.912729 g / cm^3
# Si number density = 19.170926 Si / 1000 Ang^3
#
#
#
# Elastic Constant Matrix: (Units=GPa)
#
#
# Indices 1 2 3 4 5 6 
#
# 1 92.9756 29.3186 25.7692 0.0000 19.9171 0.0000
# 2 29.3186 82.9157 14.9021 0.0000 29.5154 0.0000
# 3 25.7692 14.9021 62.3482 0.0000 15.5946 0.0000
# 4 0.0000 0.0000 0.0000 24.8503 0.0000 -0.3302
# 5 19.9171 29.5154 15.5946 0.0000 30.9060 0.0000
# 6 0.0000 0.0000 0.0000 -0.3302 0.0000 28.8576
#
#
#
# Elastic Compliance Matrix: (Units=1/GPa)
#
#
# Indices 1 2 3 4 5 6 
#
# 1 0.013574 -0.002554 -0.003916 0.000000 -0.004333 0.000000
# 2 -0.002554 0.018752 0.000734 0.000000 -0.016633 0.000000
# 3 -0.003916 0.000734 0.019485 0.000000 -0.008009 0.000000
# 4 0.000000 0.000000 0.000000 0.040247 0.000000 0.000460
# 5 -0.004333 -0.016633 -0.008009 0.000000 0.055074 0.000000
# 6 0.000000 0.000000 0.000000 0.000460 0.000000 0.034658
#
#
# Mechanical properties :
#
#
# Convention : Reuss Voigt Hill
#
# Bulk Modulus (GPa) = 24.78939 42.02437 33.40688
# Shear Modulus (GPa) = 24.18836 28.13942 26.16389
#
# Velocity S-wave (km/s) = 3.55592 3.83537 3.69829
# Velocity P-wave (km/s) = 5.46061 6.44840 5.97495
#
# Compressibility (1/GPa) = 0.04033984
#
# Stress axis : x y z
#
# Youngs Moduli (GPa) = 73.66794 53.32653 51.32038
#
# Poissons Ratio (x) = 0.13617 0.20099
# Poissons Ratio (y) = 0.18811 -0.03765
# Poissons Ratio (z) = 0.28851 -0.03912
#
# Static dielectric constant tensor:
#      x y z
#    x 3.767890 0.000000 0.221440 
#    y 0.000000 3.324860 0.000000 
#    z 0.221440 0.000000 3.466590 
# 
# 
# High freq. dielectric constant tensor:
#      x y z
#    x 1.767230 0.000000 0.012180 
#    y 0.000000 1.727230 0.000000 
#    z 0.012180 0.000000 1.731230 
# 
# From -- ./inp_files/61672.got.cif
#   From: 2010.03.12/outbox.cif.g09.slc.cpg/sg14_31_cif.got.tgz:61672.got - 2010.03.31 13:35:05.
