data_PCOD8124830
_publ_section_title
;
Structure prediction by ZEFSAII (Michael W. Deem and Ramdas Pophale) SiO2 
 PCOD8124830
Probable space group: P 21/C
;
_chemical_formula_sum "Si O2"
_cell_formula_units_Z 32
_cell_length_a 10.393163
_cell_length_b 17.740782
_cell_length_c 21.598134
_cell_angle_alpha 90.000000
_cell_angle_beta 155.866606
_cell_angle_gamma 90.000000
_cell_volume 1628.223157
_symmetry_space_group_name_H-M "P 21/C"
_symmetry_group_IT_number 14
_symmetry_cell_setting 'monoclinic'
loop_
_space_group_symop_operation_xyz
x,y,z
-x,1/2+y,1/2-z
-x,-y,-z
x,1/2-y,1/2+z
loop_
_atom_site_type_symbol
_atom_site_label
_atom_site_fract_x
_atom_site_fract_y
_atom_site_fract_z
Si Si1 0.942345 0.700792 0.977517
Si Si2 0.763628 0.492429 0.985690
Si Si3 0.365354 0.784629 0.874965
Si Si4 0.846634 0.332174 0.064698
Si Si5 0.357692 0.928919 0.698000
Si Si6 0.810105 0.642867 0.478524
Si Si7 0.601233 0.133677 0.683319
Si Si8 0.246465 0.251017 0.341521
O O1 0.958558 0.786581 0.007116
O O2 0.624849 0.659628 0.859916
O O3 0.965841 0.694593 0.913818
O O4 0.235579 0.657103 0.136913
O O5 0.599653 0.466766 0.849719
O O6 0.541698 0.559619 0.913421
O O7 0.787923 0.421889 0.042533
O O8 0.119567 0.520532 0.133000
O O9 0.487574 0.835457 0.872765
O O10 0.367110 0.696686 0.855441
O O11 0.007536 0.805331 0.737216
O O12 0.587159 0.798235 0.031360
O O13 0.056818 0.309083 0.215294
O O14 0.501924 0.294496 0.914192
O O15 0.697137 0.922307 0.881340
O O16 0.064943 0.612689 0.639057
#
# Coordination Sequence:
#
# PCOD8124830 Si02
#       8
#     4   4   4   4   4   4   4   4
#     4   9  19  33  56  91 119 145 189 236 300 340
#     4   9  20  39  55  82 120 156 185 214 298 361
#     4  10  20  39  59  85 116 141 203 246 281 319
#     4  10  22  39  60  83 117 149 189 236 288 353
#     4   9  19  35  55  85 124 153 178 233 289 348
#     4  11  20  31  61  91 113 145 195 249 282 319
#     4  10  20  34  61  88 116 152 184 240 285 346
#     4  10  22  38  59  83 108 154 190 244 285 317
#
# _framework density 19.653324999999999
#
# number of rings (size 3 to 8) (size 9 to 14) (size 15 to 20)
#    0.000    2.250    1.250    2.250    8.750    0.500 
#    0.000    5.000    0.000    1.500    0.000    0.000 
#    0.000    0.000    0.000    0.000    0.000    0.000 
#
# Total GULP energy -396715.099893 kJ/mol
# GULP energy per Si atom -12397.346872 kJ/mol
# Density = 1.960859 g / cm^3
# Si number density = 19.653325 Si / 1000 Ang^3
#
#
#
# Elastic Constant Matrix: (Units=GPa)
#
#
# Indices 1 2 3 4 5 6 
#
# 1 74.1812 13.9551 18.2709 0.0000 4.2682 0.0000
# 2 13.9551 77.5896 27.2924 0.0000 -1.3152 0.0000
# 3 18.2709 27.2924 95.1735 0.0000 -4.7520 0.0000
# 4 0.0000 0.0000 0.0000 18.1893 0.0000 -0.6238
# 5 4.2682 -1.3152 -4.7520 0.0000 22.4204 0.0000
# 6 0.0000 0.0000 0.0000 -0.6238 0.0000 16.5537
#
#
#
# Elastic Compliance Matrix: (Units=1/GPa)
#
#
# Indices 1 2 3 4 5 6 
#
# 1 0.014625 -0.001825 -0.002455 0.000000 -0.003411 0.000000
# 2 -0.001825 0.014562 -0.003806 0.000000 0.000395 0.000000
# 3 -0.002455 -0.003806 0.012211 0.000000 0.002832 0.000000
# 4 0.000000 0.000000 0.000000 0.055048 0.000000 0.002074
# 5 -0.003411 0.000395 0.002832 0.000000 0.045875 0.000000
# 6 0.000000 0.000000 0.000000 0.002074 0.000000 0.060487
#
#
# Mechanical properties :
#
#
# Convention : Reuss Voigt Hill
#
# Bulk Modulus (GPa) = 39.63956 40.66455 40.15206
# Shear Modulus (GPa) = 21.98883 23.92775 22.95829
#
# Velocity S-wave (km/s) = 3.34853 3.49304 3.42155
# Velocity P-wave (km/s) = 5.92987 6.08312 6.00698
#
# Compressibility (1/GPa) = 0.02522732
#
# Stress axis : x y z
#
# Youngs Moduli (GPa) = 68.37775 68.67220 81.89247
#
# Poissons Ratio (x) = 0.12531 0.20101
# Poissons Ratio (y) = 0.12477 0.31167
# Poissons Ratio (z) = 0.16784 0.26135
#
# Static dielectric constant tensor:
#      x y z
#    x 3.598150 0.000000 0.149360 
#    y 0.000000 3.449010 0.000000 
#    z 0.149360 0.000000 3.567760 
# 
# 
# High freq. dielectric constant tensor:
#      x y z
#    x 1.759590 0.000000 0.001630 
#    y 0.000000 1.738780 0.000000 
#    z 0.001630 0.000000 1.771300 
# 
# From -- ./inp_files/73370.got.cif
#   From: 2010.03.12/outbox.cif.g09.slc.cpg/sg14_37_cif.got.tgz:73370.got - 2010.03.31 13:35:05.
