data_PCOD8124443
_publ_section_title
;
Structure prediction by ZEFSAII (Michael W. Deem and Ramdas Pophale) SiO2 
 PCOD8124443
Probable space group: P 21/C
;
_chemical_formula_sum "Si O2"
_cell_formula_units_Z 28
_cell_length_a 21.323940
_cell_length_b 8.466293
_cell_length_c 19.370427
_cell_angle_alpha 90.000000
_cell_angle_beta 158.469443
_cell_angle_gamma 90.000000
_cell_volume 1283.402587
_symmetry_space_group_name_H-M "P 21/C"
_symmetry_group_IT_number 14
_symmetry_cell_setting 'monoclinic'
loop_
_space_group_symop_operation_xyz
x,y,z
-x,1/2+y,1/2-z
-x,-y,-z
x,1/2-y,1/2+z
loop_
_atom_site_type_symbol
_atom_site_label
_atom_site_fract_x
_atom_site_fract_y
_atom_site_fract_z
Si Si1 0.164724 0.324041 0.095173
Si Si2 0.683021 0.923244 0.992328
Si Si3 0.645093 0.974773 0.703727
Si Si4 0.378856 0.818038 0.186341
Si Si5 0.934821 0.124958 0.583966
Si Si6 0.115803 0.701679 0.607327
Si Si7 0.334012 0.966579 0.871970
O O1 0.189232 0.421175 0.191202
O O2 0.326117 0.208299 0.242941
O O3 0.122863 0.442510 0.989337
O O4 0.005360 0.211398 0.949904
O O5 0.648704 0.056928 0.901600
O O6 0.553111 0.777409 0.848965
O O7 0.642935 0.001221 0.024499
O O8 0.881784 0.869381 0.189367
O O9 0.599576 0.087521 0.720515
O O10 0.824922 0.024633 0.850699
O O11 0.500000 0.000000 0.500000
O O12 0.213689 0.702658 0.021182
O O13 0.961100 0.218007 0.539899
O O14 0.289368 0.786386 0.810594
O O15 0.500000 0.000000 0.000000
#
# Coordination Sequence:
#
# PCOD8124443 Si02
#       7
#     4   4   4   4   4   4   4
#     4  11  19  38  67 100 129 164 221 275 332 401
#     4  12  24  48  68  95 140 179 225 279 345 392
#     4  11  24  40  62  99 139 170 214 281 337 384
#     4  11  29  44  66 100 131 182 231 275 330 423
#     4  10  22  45  72  93 134 175 226 277 336 395
#     4  10  19  37  63 102 125 166 222 266 328 400
#     4  11  20  37  70  97 128 173 222 276 336 395
#
# _framework density 21.817007
#
# number of rings (size 3 to 8) (size 9 to 14) (size 15 to 20)
#    0.000    1.143    2.857    5.571    0.000    5.714 
#    0.000    0.000    0.000    0.000    0.000    0.000 
#    0.000    0.000    0.000    0.000    0.000    0.000 
#
# Total GULP energy -347028.305208 kJ/mol
# GULP energy per Si atom -12393.868043 kJ/mol
# Density = 2.176735 g / cm^3
# Si number density = 21.817007 Si / 1000 Ang^3
#
#
#
# Elastic Constant Matrix: (Units=GPa)
#
#
# Indices 1 2 3 4 5 6 
#
# 1 93.6336 39.6449 49.6511 0.0000 -2.6116 0.0000
# 2 39.6449 103.9375 41.9360 0.0000 -9.9810 0.0000
# 3 49.6511 41.9360 132.7878 0.0000 -6.5414 0.0000
# 4 0.0000 0.0000 0.0000 24.6418 0.0000 -0.8166
# 5 -2.6116 -9.9810 -6.5414 0.0000 26.6666 0.0000
# 6 0.0000 0.0000 0.0000 -0.8166 0.0000 16.3276
#
#
#
# Elastic Compliance Matrix: (Units=1/GPa)
#
#
# Indices 1 2 3 4 5 6 
#
# 1 0.014579 -0.003948 -0.004258 0.000000 -0.001094 0.000000
# 2 -0.003948 0.012392 -0.002255 0.000000 0.003698 0.000000
# 3 -0.004258 -0.002255 0.009893 0.000000 0.001166 0.000000
# 4 0.000000 0.000000 0.000000 0.040649 0.000000 0.002033
# 5 -0.001094 0.003698 0.001166 0.000000 0.039063 0.000000
# 6 0.000000 0.000000 0.000000 0.002033 0.000000 0.061348
#
#
# Mechanical properties :
#
#
# Convention : Reuss Voigt Hill
#
# Bulk Modulus (GPa) = 62.73182 65.86920 64.30051
# Shear Modulus (GPa) = 24.49060 26.80233 25.64647
#
# Velocity S-wave (km/s) = 3.35408 3.50881 3.43231
# Velocity P-wave (km/s) = 6.61935 6.83175 6.72639
#
# Compressibility (1/GPa) = 0.01594087
#
# Stress axis : x y z
#
# Youngs Moduli (GPa) = 68.59153 80.69684 101.08414
#
# Poissons Ratio (x) = 0.31858 0.43046
# Poissons Ratio (y) = 0.27079 0.22797
# Poissons Ratio (z) = 0.29209 0.18199
#
# Static dielectric constant tensor:
#      x y z
#    x 3.679000 0.000000 0.185030 
#    y 0.000000 5.198020 0.000000 
#    z 0.185030 0.000000 4.548580 
# 
# 
# High freq. dielectric constant tensor:
#      x y z
#    x 1.839430 0.000000 0.016980 
#    y 0.000000 1.869600 0.000000 
#    z 0.016980 0.000000 1.865700 
# 
# From -- ./inp_files/70220.got.cif
#   From: 2010.03.12/outbox.cif.g09.slc.cpg/sg14_36_cif.got.tgz:70220.got - 2010.03.31 13:35:05.
