data_PCOD8124292
_publ_section_title
;
Structure prediction by ZEFSAII (Michael W. Deem and Ramdas Pophale) SiO2 
 PCOD8124292
Probable space group: P 21/C
;
_chemical_formula_sum "Si O2"
_cell_formula_units_Z 28
_cell_length_a 12.025651
_cell_length_b 8.309809
_cell_length_c 14.169104
_cell_angle_alpha 90.000000
_cell_angle_beta 70.520683
_cell_angle_gamma 90.000000
_cell_volume 1334.885643
_symmetry_space_group_name_H-M "P 21/C"
_symmetry_group_IT_number 14
_symmetry_cell_setting 'monoclinic'
loop_
_space_group_symop_operation_xyz
x,y,z
-x,1/2+y,1/2-z
-x,-y,-z
x,1/2-y,1/2+z
loop_
_atom_site_type_symbol
_atom_site_label
_atom_site_fract_x
_atom_site_fract_y
_atom_site_fract_z
Si Si1 0.337480 0.839859 0.881179
Si Si2 0.955132 0.911403 0.606448
Si Si3 0.781052 0.872738 0.162377
Si Si4 0.590387 0.616998 0.230035
Si Si5 0.615787 0.045814 0.522679
Si Si6 0.242242 0.874989 0.258312
Si Si7 0.181783 0.920508 0.665146
O O1 0.451898 0.864096 0.782708
O O2 0.376902 0.742149 0.963772
O O3 0.247846 0.722020 0.854249
O O4 0.263645 0.007608 0.910424
O O5 0.884309 0.747557 0.597613
O O6 0.062512 0.877676 0.645398
O O7 0.872600 0.016795 0.696819
O O8 0.000000 0.000000 0.500000
O O9 0.661407 0.781730 0.227761
O O10 0.832943 0.972328 0.236608
O O11 0.618723 0.554943 0.117438
O O12 0.641003 0.484817 0.289384
O O13 0.728190 0.989375 0.430221
O O14 0.500000 0.000000 0.500000
O O15 0.234701 0.754816 0.173217
#
# Coordination Sequence:
#
# PCOD8124292 Si02
#       7
#     4   4   4   4   4   4   4
#     4  10  19  36  58  85 118 155 195 240 291 350
#     4  11  22  40  62  85 114 153 197 246 301 357
#     4  10  21  37  61  87 114 156 202 246 296 356
#     4  10  19  37  60  85 118 158 195 242 300 353
#     4  11  22  37  60  88 121 160 196 244 302 357
#     4   9  20  36  56  83 114 150 189 237 293 348
#     4  11  21  39  59  85 117 152 195 243 294 357
#
# _framework density 20.975577999999999
#
# number of rings (size 3 to 8) (size 9 to 14) (size 15 to 20)
#    0.000    1.714    0.000    7.714    0.000    0.000 
#    0.000   16.429    0.000    0.000    0.000    0.000 
#    0.000    0.000    0.000    0.000    0.000    0.000 
#
# Total GULP energy -346941.492837 kJ/mol
# GULP energy per Si atom -12390.767601 kJ/mol
# Density = 2.092784 g / cm^3
# Si number density = 20.975578 Si / 1000 Ang^3
#
#
#
# Elastic Constant Matrix: (Units=GPa)
#
#
# Indices 1 2 3 4 5 6 
#
# 1 133.8868 52.9606 23.6672 0.0000 8.2880 0.0000
# 2 52.9606 120.4750 22.0378 0.0000 14.1518 0.0000
# 3 23.6672 22.0378 66.6150 0.0000 1.0150 0.0000
# 4 0.0000 0.0000 0.0000 29.0869 0.0000 7.5492
# 5 8.2880 14.1518 1.0150 0.0000 29.9205 0.0000
# 6 0.0000 0.0000 0.0000 7.5492 0.0000 41.9357
#
#
#
# Elastic Compliance Matrix: (Units=1/GPa)
#
#
# Indices 1 2 3 4 5 6 
#
# 1 0.009322 -0.003619 -0.002102 0.000000 -0.000799 0.000000
# 2 -0.003619 0.010769 -0.002215 0.000000 -0.004016 0.000000
# 3 -0.002102 -0.002215 0.016475 0.000000 0.001071 0.000000
# 4 0.000000 0.000000 0.000000 0.036065 0.000000 -0.006492
# 5 -0.000799 -0.004016 0.001071 0.000000 0.035506 0.000000
# 6 0.000000 0.000000 0.000000 -0.006492 0.000000 0.025015
#
#
# Mechanical properties :
#
#
# Convention : Reuss Voigt Hill
#
# Bulk Modulus (GPa) = 48.32972 57.58977 52.95974
# Shear Modulus (GPa) = 32.06726 35.00939 33.53832
#
# Velocity S-wave (km/s) = 3.91422 4.08984 4.00299
# Velocity P-wave (km/s) = 6.59690 7.05816 6.83142
#
# Compressibility (1/GPa) = 0.02069120
#
# Stress axis : x y z
#
# Youngs Moduli (GPa) = 107.27555 92.86335 60.69762
#
# Poissons Ratio (x) = 0.33611 0.12760
# Poissons Ratio (y) = 0.38828 0.13447
# Poissons Ratio (z) = 0.22553 0.20573
#
# Static dielectric constant tensor:
#      x y z
#    x 4.229840 0.000000 0.220880 
#    y 0.000000 4.207790 0.000000 
#    z 0.220880 0.000000 3.572170 
# 
# 
# High freq. dielectric constant tensor:
#      x y z
#    x 1.841320 0.000000 0.001740 
#    y 0.000000 1.832450 0.000000 
#    z 0.001740 0.000000 1.785710 
# 
# From -- ./inp_files/43383.got.cif
#   From: 2010.03.12/outbox.cif.g09.slc.cpg/sg14_22_cif.got.tgz:43383.got - 2010.03.31 13:35:05.
