data_PCOD8124636
_publ_section_title
;
Structure prediction by ZEFSAII (Michael W. Deem and Ramdas Pophale) SiO2 
 PCOD8124636
Probable space group: P 21/C
;
_chemical_formula_sum "Si O2"
_cell_formula_units_Z 32
_cell_length_a 16.138382
_cell_length_b 11.964596
_cell_length_c 14.058066
_cell_angle_alpha 90.000000
_cell_angle_beta 31.548319
_cell_angle_gamma 90.000000
_cell_volume 1420.253319
_symmetry_space_group_name_H-M "P 21/C"
_symmetry_group_IT_number 14
_symmetry_cell_setting 'monoclinic'
loop_
_space_group_symop_operation_xyz
x,y,z
-x,1/2+y,1/2-z
-x,-y,-z
x,1/2-y,1/2+z
loop_
_atom_site_type_symbol
_atom_site_label
_atom_site_fract_x
_atom_site_fract_y
_atom_site_fract_z
Si Si1 0.474554 0.347376 0.252971
Si Si2 0.297383 0.107561 0.227383
Si Si3 0.414347 0.211936 0.481318
Si Si4 0.766996 0.311236 0.667278
Si Si5 0.398563 0.545860 0.471203
Si Si6 0.026211 0.249421 0.550704
Si Si7 0.795186 0.264204 0.432252
Si Si8 0.722200 0.572576 0.736701
O O1 0.408259 0.232831 0.372155
O O2 0.451977 0.444590 0.351869
O O3 0.386706 0.374946 0.240870
O O4 0.661656 0.331962 0.048660
O O5 0.442552 0.116131 0.159804
O O6 0.130055 0.134287 0.443504
O O7 0.298512 0.205021 0.148539
O O8 0.312000 0.992295 0.154378
O O9 0.592052 0.239287 0.340642
O O10 0.361244 0.090641 0.576497
O O11 0.847480 0.283735 0.488635
O O12 0.758775 0.443611 0.691333
O O13 0.864968 0.241514 0.647976
O O14 0.273278 0.619026 0.538252
O O15 0.113711 0.361356 0.431323
O O16 0.961855 0.266510 0.720455
#
# Coordination Sequence:
#
# PCOD8124636 Si02
#       8
#     4   4   4   4   4   4   4   4
#     4  10  21  39  64  93 121 159 216 271 300 366
#     4   9  20  38  65  90 119 158 212 261 314 372
#     4   9  20  37  65  90 117 163 211 269 308 353
#     4  11  22  40  61  91 127 169 210 255 315 383
#     4  10  19  40  64  90 116 161 220 265 304 359
#     4  11  24  40  58  90 134 169 198 254 326 383
#     4  11  23  40  61  91 130 163 206 264 316 376
#     4  11  21  40  63  91 125 167 214 259 311 374
#
# _framework density 22.531192000000001
#
# number of rings (size 3 to 8) (size 9 to 14) (size 15 to 20)
#    0.000    1.750    1.250    3.750    0.000    4.500 
#    2.250    0.000    0.000    0.000    0.000    0.000 
#    0.000    0.000    0.000    0.000    0.000    0.000 
#
# Total GULP energy -396545.009790 kJ/mol
# GULP energy per Si atom -12392.031556 kJ/mol
# Density = 2.247991 g / cm^3
# Si number density = 22.531192 Si / 1000 Ang^3
#
#
#
# Elastic Constant Matrix: (Units=GPa)
#
#
# Indices 1 2 3 4 5 6 
#
# 1 40.6669 9.6547 10.0799 0.0000 6.5603 0.0000
# 2 9.6547 51.6724 14.4657 0.0000 -2.4394 0.0000
# 3 10.0799 14.4657 126.8026 0.0000 8.0392 0.0000
# 4 0.0000 0.0000 0.0000 25.5735 0.0000 -1.9353
# 5 6.5603 -2.4394 8.0392 0.0000 27.7835 0.0000
# 6 0.0000 0.0000 0.0000 -1.9353 0.0000 31.5172
#
#
#
# Elastic Compliance Matrix: (Units=1/GPa)
#
#
# Indices 1 2 3 4 5 6 
#
# 1 0.027129 -0.005049 -0.001168 0.000000 -0.006511 0.000000
# 2 -0.005049 0.021097 -0.002240 0.000000 0.003693 0.000000
# 3 -0.001168 -0.002240 0.008383 0.000000 -0.002347 0.000000
# 4 0.000000 0.000000 0.000000 0.039286 0.000000 0.002412
# 5 -0.006511 0.003693 -0.002347 0.000000 0.038533 0.000000
# 6 0.000000 0.000000 0.000000 0.002412 0.000000 0.031877
#
#
# Mechanical properties :
#
#
# Convention : Reuss Voigt Hill
#
# Bulk Modulus (GPa) = 25.19128 31.94916 28.57022
# Shear Modulus (GPa) = 25.45175 29.30427 27.37801
#
# Velocity S-wave (km/s) = 3.36463 3.61031 3.48963
# Velocity P-wave (km/s) = 5.12828 5.62049 5.38001
#
# Compressibility (1/GPa) = 0.03969628
#
# Stress axis : x y z
#
# Youngs Moduli (GPa) = 36.86151 47.39924 119.28389
#
# Poissons Ratio (x) = 0.23933 0.13929
# Poissons Ratio (y) = 0.18612 0.26714
# Poissons Ratio (z) = 0.04304 0.10615
#
# Static dielectric constant tensor:
#      x y z
#    x 4.054960 0.000000 0.277720 
#    y 0.000000 4.003550 0.000000 
#    z 0.277720 0.000000 4.380260 
# 
# 
# High freq. dielectric constant tensor:
#      x y z
#    x 1.879520 0.000000 0.015490 
#    y 0.000000 1.878840 0.000000 
#    z 0.015490 0.000000 1.896610 
# 
# From -- ./inp_files/48909.got.cif
#   From: 2010.03.12/outbox.cif.g09.slc.cpg/sg14_25_cif.got.tgz:48909.got - 2010.03.31 13:35:05.
