data_PCOD8124272
_publ_section_title
;
Structure prediction by ZEFSAII (Michael W. Deem and Ramdas Pophale) SiO2 
 PCOD8124272
Probable space group: P 21/C
;
_chemical_formula_sum "Si O2"
_cell_formula_units_Z 28
_cell_length_a 9.275196
_cell_length_b 14.448186
_cell_length_c 12.437107
_cell_angle_alpha 90.000000
_cell_angle_beta 64.438046
_cell_angle_gamma 90.000000
_cell_volume 1503.556450
_symmetry_space_group_name_H-M "P 21/C"
_symmetry_group_IT_number 14
_symmetry_cell_setting 'monoclinic'
loop_
_space_group_symop_operation_xyz
x,y,z
-x,1/2+y,1/2-z
-x,-y,-z
x,1/2-y,1/2+z
loop_
_atom_site_type_symbol
_atom_site_label
_atom_site_fract_x
_atom_site_fract_y
_atom_site_fract_z
Si Si1 0.652023 0.735670 0.885312
Si Si2 0.736497 0.568617 0.720829
Si Si3 0.620650 0.137940 0.448787
Si Si4 0.132778 0.205843 0.992536
Si Si5 0.181622 0.135005 0.319316
Si Si6 0.589605 0.513986 0.125900
Si Si7 0.081120 0.613227 0.271305
O O1 0.732085 0.638379 0.823440
O O2 0.728391 0.766927 0.971395
O O3 0.674074 0.809910 0.784162
O O4 0.460471 0.724730 0.964097
O O5 0.802968 0.618015 0.593948
O O6 0.555299 0.532078 0.758858
O O7 0.856792 0.486217 0.711113
O O8 0.481523 0.101337 0.414514
O O9 0.775958 0.169759 0.332762
O O10 0.668900 0.057944 0.517151
O O11 0.975273 0.174457 0.108964
O O12 0.092442 0.294586 0.930607
O O13 0.262750 0.046535 0.348396
O O14 0.059742 0.098271 0.269135
#
# Coordination Sequence:
#
# PCOD8124272 Si02
#       7
#     4   4   4   4   4   4   4
#     4   9  18  35  58  77 105 142 184 219 262 321
#     4   9  19  36  59  77 105 145 184 216 265 325
#     4   9  17  34  55  76 105 137 182 217 258 320
#     4  10  19  36  57  77 110 147 176 220 277 318
#     4  10  20  34  56  81 108 140 180 224 274 312
#     4   9  17  33  57  79  97 143 182 217 257 322
#     4  10  21  34  52  83 112 142 180 219 269 322
#
# _framework density 18.622515
#
# number of rings (size 3 to 8) (size 9 to 14) (size 15 to 20)
#    0.000    2.571    1.429    1.286    0.000    0.571 
#    5.143    2.857    6.286    0.000    0.000    0.000 
#    0.000    0.000    0.000    0.000    0.000    0.000 
#
# Total GULP energy -347100.388364 kJ/mol
# GULP energy per Si atom -12396.442442 kJ/mol
# Density = 1.858013 g / cm^3
# Si number density = 18.622515 Si / 1000 Ang^3
#
#
#
# Elastic Constant Matrix: (Units=GPa)
#
#
# Indices 1 2 3 4 5 6 
#
# 1 69.9831 41.3499 53.5964 0.0000 -5.1897 0.0000
# 2 41.3499 68.7559 49.0037 0.0000 -5.8297 0.0000
# 3 53.5964 49.0037 141.4105 0.0000 -20.4078 0.0000
# 4 0.0000 0.0000 0.0000 13.2335 0.0000 1.5553
# 5 -5.1897 -5.8297 -20.4078 0.0000 30.9302 0.0000
# 6 0.0000 0.0000 0.0000 1.5553 0.0000 29.3599
#
#
#
# Elastic Compliance Matrix: (Units=1/GPa)
#
#
# Indices 1 2 3 4 5 6 
#
# 1 0.025312 -0.011092 -0.006011 0.000000 -0.001810 0.000000
# 2 -0.011092 0.024196 -0.004190 0.000000 -0.000065 0.000000
# 3 -0.006011 -0.004190 0.011652 0.000000 0.005890 0.000000
# 4 0.000000 0.000000 0.000000 0.076039 0.000000 -0.004028
# 5 -0.001810 -0.000065 0.005890 0.000000 0.035901 0.000000
# 6 0.000000 0.000000 0.000000 -0.004028 0.000000 0.034273
#
#
# Mechanical properties :
#
#
# Convention : Reuss Voigt Hill
#
# Bulk Modulus (GPa) = 53.84007 63.11661 58.47834
# Shear Modulus (GPa) = 19.51972 23.78469 21.65221
#
# Velocity S-wave (km/s) = 3.24107 3.57767 3.41352
# Velocity P-wave (km/s) = 6.55592 7.14371 6.85611
#
# Compressibility (1/GPa) = 0.01857353
#
# Stress axis : x y z
#
# Youngs Moduli (GPa) = 39.50639 41.32944 85.82328
#
# Poissons Ratio (x) = 0.45843 0.51589
# Poissons Ratio (y) = 0.43821 0.35961
# Poissons Ratio (z) = 0.23748 0.17317
#
# Static dielectric constant tensor:
#      x y z
#    x 3.105220 0.000000 -0.088870 
#    y 0.000000 3.362900 0.000000 
#    z -0.088870 0.000000 3.737700 
# 
# 
# High freq. dielectric constant tensor:
#      x y z
#    x 1.698510 0.000000 -0.002880 
#    y 0.000000 1.709390 0.000000 
#    z -0.002880 0.000000 1.740430 
# 
# From -- ./inp_files/25198.got.cif
#   From: 2010.03.12/outbox.cif.g09.slc.cpg/sg14_13_cif.got.tgz:25198.got - 2010.03.31 13:35:05.
