data_PCOD8124990
_publ_section_title
;
Structure prediction by ZEFSAII (Michael W. Deem and Ramdas Pophale) SiO2 
 PCOD8124990
Probable space group: P 21/C
;
_chemical_formula_sum "Si O2"
_cell_formula_units_Z 32
_cell_length_a 16.225547
_cell_length_b 16.641649
_cell_length_c 13.618371
_cell_angle_alpha 90.000000
_cell_angle_beta 27.488887
_cell_angle_gamma 90.000000
_cell_volume 1697.323457
_symmetry_space_group_name_H-M "P 21/C"
_symmetry_group_IT_number 14
_symmetry_cell_setting 'monoclinic'
loop_
_space_group_symop_operation_xyz
x,y,z
-x,1/2+y,1/2-z
-x,-y,-z
x,1/2-y,1/2+z
loop_
_atom_site_type_symbol
_atom_site_label
_atom_site_fract_x
_atom_site_fract_y
_atom_site_fract_z
Si Si1 0.135547 0.668337 0.908507
Si Si2 0.913998 0.660364 0.390065
Si Si3 0.651243 0.748321 0.532837
Si Si4 0.747841 0.250039 0.527052
Si Si5 0.015190 0.978726 0.669249
Si Si6 0.679694 0.605716 0.132184
Si Si7 0.220877 0.230820 0.309177
Si Si8 0.282542 0.900482 0.065002
O O1 0.214742 0.736853 0.896777
O O2 0.276965 0.647387 0.673955
O O3 0.089712 0.587992 0.016859
O O4 0.966748 0.704262 0.033624
O O5 0.940049 0.564533 0.348118
O O6 0.805181 0.688849 0.408196
O O7 0.804199 0.686235 0.602483
O O8 0.110964 0.699826 0.186194
O O9 0.456161 0.722634 0.780427
O O10 0.700591 0.838150 0.514862
O O11 0.643567 0.747653 0.422791
O O12 0.768160 0.343171 0.473745
O O13 0.175781 0.036414 0.529250
O O14 0.855324 0.026138 0.785807
O O15 0.704152 0.659964 0.202763
O O16 0.483275 0.565801 0.341855
#
# Coordination Sequence:
#
# PCOD8124990 Si02
#       8
#     4   4   4   4   4   4   4   4
#     4  11  21  34  61  85 109 145 188 229 276 326
#     4  10  21  37  57  82 112 146 186 234 272 329
#     4  10  20  37  59  80 110 147 191 232 272 321
#     4  10  20  36  58  82 109 148 190 227 273 326
#     4  11  22  36  52  84 118 143 178 227 283 341
#     4  10  23  36  57  83 115 149 182 226 280 334
#     4  11  19  38  61  83 110 144 193 233 271 322
#     4  11  21  38  58  80 117 150 177 229 283 328
#
# _framework density 18.853211999999999
#
# number of rings (size 3 to 8) (size 9 to 14) (size 15 to 20)
#    0.000    1.500    5.000    1.875    0.000    2.500 
#    0.000    0.625    0.000    1.500    0.000    0.000 
#    0.000    0.000    0.000    0.000    0.000    0.000 
#
# Total GULP energy -396698.116274 kJ/mol
# GULP energy per Si atom -12396.816134 kJ/mol
# Density = 1.881030 g / cm^3
# Si number density = 18.853212 Si / 1000 Ang^3
#
#
#
# Elastic Constant Matrix: (Units=GPa)
#
#
# Indices 1 2 3 4 5 6 
#
# 1 73.9631 45.1039 35.0948 0.0000 -2.1973 0.0000
# 2 45.1039 71.0417 35.1094 0.0000 -0.6617 0.0000
# 3 35.0948 35.1094 81.3065 0.0000 -6.7048 0.0000
# 4 0.0000 0.0000 0.0000 12.6786 0.0000 4.3729
# 5 -2.1973 -0.6617 -6.7048 0.0000 31.0462 0.0000
# 6 0.0000 0.0000 0.0000 4.3729 0.0000 8.8629
#
#
#
# Elastic Compliance Matrix: (Units=1/GPa)
#
#
# Indices 1 2 3 4 5 6 
#
# 1 0.023389 -0.012551 -0.004644 0.000000 0.000385 0.000000
# 2 -0.012551 0.024683 -0.005366 0.000000 -0.001521 0.000000
# 3 -0.004644 -0.005366 0.016885 0.000000 0.003203 0.000000
# 4 0.000000 0.000000 0.000000 0.095047 0.000000 -0.046896
# 5 0.000385 -0.001521 0.003203 0.000000 0.032897 0.000000
# 6 0.000000 0.000000 0.000000 -0.046896 0.000000 0.135968
#
#
# Mechanical properties :
#
#
# Convention : Reuss Voigt Hill
#
# Bulk Modulus (GPa) = 50.41822 50.76974 50.59398
# Shear Modulus (GPa) = 13.13706 17.91776 15.52741
#
# Velocity S-wave (km/s) = 2.64257 3.08617 2.87295
# Velocity P-wave (km/s) = 6.00928 6.29974 6.15622
#
# Compressibility (1/GPa) = 0.01983410
#
# Stress axis : x y z
#
# Youngs Moduli (GPa) = 42.75530 40.51450 59.22346
#
# Poissons Ratio (x) = 0.50848 0.27504
# Poissons Ratio (y) = 0.53661 0.31782
# Poissons Ratio (z) = 0.19856 0.21742
#
# Static dielectric constant tensor:
#      x y z
#    x 3.702320 0.000000 0.059060 
#    y 0.000000 3.385460 0.000000 
#    z 0.059060 0.000000 3.693900 
# 
# 
# High freq. dielectric constant tensor:
#      x y z
#    x 1.731610 0.000000 -0.011720 
#    y 0.000000 1.708740 0.000000 
#    z -0.011720 0.000000 1.743840 
# 
# From -- ./inp_files/33037.got.cif
#   From: 2010.03.12/outbox.cif.g09.slc.cpg/sg14_17_cif.got.tgz:33037.got - 2010.03.31 13:35:05.
