data_PCOD8124732
_publ_section_title
;
Structure prediction by ZEFSAII (Michael W. Deem and Ramdas Pophale) SiO2 
 PCOD8124732
Probable space group: P 21/C
;
_chemical_formula_sum "Si O2"
_cell_formula_units_Z 32
_cell_length_a 21.247979
_cell_length_b 17.608660
_cell_length_c 8.958782
_cell_angle_alpha 90.000000
_cell_angle_beta 32.513615
_cell_angle_gamma 90.000000
_cell_volume 1801.653949
_symmetry_space_group_name_H-M "P 21/C"
_symmetry_group_IT_number 14
_symmetry_cell_setting 'monoclinic'
loop_
_space_group_symop_operation_xyz
x,y,z
-x,1/2+y,1/2-z
-x,-y,-z
x,1/2-y,1/2+z
loop_
_atom_site_type_symbol
_atom_site_label
_atom_site_fract_x
_atom_site_fract_y
_atom_site_fract_z
Si Si1 0.663032 0.449483 0.091592
Si Si2 0.761456 0.824766 0.551953
Si Si3 0.663034 0.050518 0.256275
Si Si4 0.122711 0.016968 0.680313
Si Si5 0.544216 0.887604 0.829173
Si Si6 0.544216 0.612395 0.993965
Si Si7 0.122711 0.483033 0.828843
Si Si8 0.761456 0.824767 0.902223
O O1 0.581892 0.387716 0.337297
O O2 0.594879 0.528200 0.222496
O O3 0.690540 0.421097 0.868921
O O4 0.783466 0.458116 0.941052
O O5 0.841869 0.896755 0.350948
O O6 0.631228 0.834083 0.747022
O O7 0.751363 0.812892 0.747275
O O8 0.818915 0.749999 0.362171
O O9 0.581891 0.112284 0.335137
O O10 0.594877 0.971802 0.397991
O O11 0.783467 0.041885 0.925081
O O12 0.115558 0.003880 0.518885
O O13 0.000000 0.000000 0.000000
O O14 0.529479 0.855632 0.691043
O O15 0.631228 0.665915 0.728066
O O16 0.158129 0.396755 0.718429
O O17 0.000000 0.500000 0.000000
#
# Coordination Sequence:
#
# PCOD8124732 Si02
#       8
#     4   4   4   4   4   4   4   4
#     4   9  16  27  45  69  96 124 155 194 239 286
#     4  10  20  33  50  73 100 130 165 206 253 305
#     4   9  16  27  45  69  96 124 155 194 239 286
#     4  10  20  33  50  73 100 132 172 213 253 300
#     4   9  16  27  45  69  96 124 154 191 238 289
#     4   9  16  27  45  69  96 124 154 191 238 289
#     4  10  20  33  50  73 100 132 172 213 253 300
#     4  10  20  33  50  73 100 130 165 206 253 305
#
# _framework density 17.761457
#
# number of rings (size 3 to 8) (size 9 to 14) (size 15 to 20)
#    0.000    2.500    0.000    3.000    0.000    9.000 
#    0.000    0.000    0.000    1.500    0.000    7.000 
#    0.000    0.000    0.000    0.000    0.000    0.000 
#
# Total GULP energy -396792.162386 kJ/mol
# GULP energy per Si atom -12399.755075 kJ/mol
# Density = 1.772103 g / cm^3
# Si number density = 17.761457 Si / 1000 Ang^3
#
#
#
# Elastic Constant Matrix: (Units=GPa)
#
#
# Indices 1 2 3 4 5 6 
#
# 1 143.6891 42.1601 71.6862 0.0000 -0.8742 0.0000
# 2 42.1601 54.9586 40.2039 0.0000 1.7621 0.0000
# 3 71.6862 40.2039 142.6632 0.0000 1.8011 0.0000
# 4 0.0000 0.0000 0.0000 16.8750 0.0000 5.1046
# 5 -0.8742 1.7621 1.8011 0.0000 34.0752 0.0000
# 6 0.0000 0.0000 0.0000 5.1046 0.0000 22.5404
#
#
#
# Elastic Compliance Matrix: (Units=1/GPa)
#
#
# Indices 1 2 3 4 5 6 
#
# 1 0.010369 -0.005240 -0.003743 0.000000 0.000735 0.000000
# 2 -0.005240 0.025593 -0.004564 0.000000 -0.001217 0.000000
# 3 -0.003743 -0.004564 0.010181 0.000000 -0.000398 0.000000
# 4 0.000000 0.000000 0.000000 0.063617 0.000000 -0.014407
# 5 0.000735 -0.001217 -0.000398 0.000000 0.029450 0.000000
# 6 0.000000 0.000000 0.000000 -0.014407 0.000000 0.047627
#
#
# Mechanical properties :
#
#
# Convention : Reuss Voigt Hill
#
# Bulk Modulus (GPa) = 52.49400 72.15681 62.32541
# Shear Modulus (GPa) = 22.69839 27.18217 24.94028
#
# Velocity S-wave (km/s) = 3.57873 3.91628 3.75130
# Velocity P-wave (km/s) = 6.83342 7.82070 7.34367
#
# Compressibility (1/GPa) = 0.01904980
#
# Stress axis : x y z
#
# Youngs Moduli (GPa) = 96.44545 39.07365 98.21801
#
# Poissons Ratio (x) = 0.20473 0.36761
# Poissons Ratio (y) = 0.50533 0.44828
# Poissons Ratio (z) = 0.36097 0.17834
#
# Static dielectric constant tensor:
#      x y z
#    x 3.456330 0.000000 0.145340 
#    y 0.000000 3.073660 0.000000 
#    z 0.145340 0.000000 3.294840 
# 
# 
# High freq. dielectric constant tensor:
#      x y z
#    x 1.700810 0.000000 0.016440 
#    y 0.000000 1.648600 0.000000 
#    z 0.016440 0.000000 1.682550 
# 
# From -- ./inp_files/19201.got.cif
#   From: 2010.03.12/outbox.cif.g09.slc.cpg/sg14_10_cif.got.tgz:19201.got - 2010.03.31 13:35:05.
