data_PCOD8124347
_publ_section_title
;
Structure prediction by ZEFSAII (Michael W. Deem and Ramdas Pophale) SiO2 
 PCOD8124347
Probable space group: P 21/C
;
_chemical_formula_sum "Si O2"
_cell_formula_units_Z 20
_cell_length_a 13.752026
_cell_length_b 7.617126
_cell_length_c 15.462233
_cell_angle_alpha 90.000000
_cell_angle_beta 140.862442
_cell_angle_gamma 90.000000
_cell_volume 1022.318641
_symmetry_space_group_name_H-M "P 21/C"
_symmetry_group_IT_number 14
_symmetry_cell_setting 'monoclinic'
loop_
_space_group_symop_operation_xyz
x,y,z
-x,1/2+y,1/2-z
-x,-y,-z
x,1/2-y,1/2+z
loop_
_atom_site_type_symbol
_atom_site_label
_atom_site_fract_x
_atom_site_fract_y
_atom_site_fract_z
Si Si1 0.235364 0.774105 0.073371
Si Si2 0.863306 0.588667 0.592172
Si Si3 0.582690 0.397229 0.450738
Si Si4 0.973939 0.968029 0.631052
Si Si5 0.301759 0.619051 0.289444
O O1 0.378102 0.768260 0.102632
O O2 0.299794 0.773310 0.215819
O O3 0.135539 0.599516 0.994952
O O4 0.131917 0.947791 0.984114
O O5 0.695730 0.569341 0.522677
O O6 0.888151 0.781732 0.573645
O O7 0.998342 0.538414 0.752689
O O8 0.406032 0.457263 0.326353
O O9 0.623928 0.303378 0.570877
O O10 0.131147 0.953048 0.686464
#
# Coordination Sequence:
#
# PCOD8124347 Si02
#       5
#     4   4   4   4   4
#     4  10  21  36  61  84 113 157 191 232 289 340
#     4   9  19  35  59  83 118 151 189 233 285 337
#     4   8  20  39  57  83 120 152 186 238 286 336
#     4  11  18  36  62  85 115 153 190 237 285 333
#     4  10  19  36  62  84 114 153 191 236 287 337
#
# _framework density 19.563372000000001
#
# number of rings (size 3 to 8) (size 9 to 14) (size 15 to 20)
#    1.200    1.200    2.000    0.600    0.000    2.400 
#    0.000    0.000    4.400    6.000    0.000    0.000 
#    0.000    0.000    0.000    0.000    0.000    0.000 
#
# Total GULP energy -247819.561606 kJ/mol
# GULP energy per Si atom -12390.978080 kJ/mol
# Density = 1.951884 g / cm^3
# Si number density = 19.563372 Si / 1000 Ang^3
#
#
#
# Elastic Constant Matrix: (Units=GPa)
#
#
# Indices 1 2 3 4 5 6 
#
# 1 89.4825 6.0097 17.6317 0.0000 5.3639 0.0000
# 2 6.0097 65.7705 -0.6129 0.0000 7.0943 0.0000
# 3 17.6317 -0.6129 37.5567 0.0000 2.5844 0.0000
# 4 0.0000 0.0000 0.0000 10.7007 0.0000 -4.0466
# 5 5.3639 7.0943 2.5844 0.0000 11.8368 0.0000
# 6 0.0000 0.0000 0.0000 -4.0466 0.0000 28.7925
#
#
#
# Elastic Compliance Matrix: (Units=1/GPa)
#
#
# Indices 1 2 3 4 5 6 
#
# 1 0.012579 -0.000770 -0.005642 0.000000 -0.004007 0.000000
# 2 -0.000770 0.016336 0.001297 0.000000 -0.009725 0.000000
# 3 -0.005642 0.001297 0.029619 0.000000 -0.004687 0.000000
# 4 0.000000 0.000000 0.000000 0.098698 0.000000 0.013871
# 5 -0.004007 -0.009725 -0.004687 0.000000 0.093150 0.000000
# 6 0.000000 0.000000 0.000000 0.013871 0.000000 0.036681
#
#
# Mechanical properties :
#
#
# Convention : Reuss Voigt Hill
#
# Bulk Modulus (GPa) = 20.70216 26.54073 23.62145
# Shear Modulus (GPa) = 15.95438 21.58475 18.76956
#
# Velocity S-wave (km/s) = 2.85883 3.32524 3.10082
# Velocity P-wave (km/s) = 4.63706 5.32343 4.99206
#
# Compressibility (1/GPa) = 0.04830413
#
# Stress axis : x y z
#
# Youngs Moduli (GPa) = 79.49738 61.21526 33.76207
#
# Poissons Ratio (x) = 0.04712 0.19050
# Poissons Ratio (y) = 0.06119 -0.04380
# Poissons Ratio (z) = 0.44855 -0.07941
#
# Static dielectric constant tensor:
#      x y z
#    x 3.585850 0.000000 -0.114900 
#    y 0.000000 3.110430 0.000000 
#    z -0.114900 0.000000 3.548770 
# 
# 
# High freq. dielectric constant tensor:
#      x y z
#    x 1.763570 0.000000 -0.008160 
#    y 0.000000 1.719450 0.000000 
#    z -0.008160 0.000000 1.765460 
# 
# From -- ./inp_files/46210.got.cif
#   From: 2010.03.12/outbox.cif.g09.slc.cpg/sg14_24_cif.got.tgz:46210.got - 2010.03.31 13:35:05.
