data_PCOD8124008
_publ_section_title
;
Structure prediction by ZEFSAII (Michael W. Deem and Ramdas Pophale) SiO2 
 PCOD8124008
Probable space group: P 21/C
;
_chemical_formula_sum "Si O2"
_cell_formula_units_Z 32
_cell_length_a 5.160174
_cell_length_b 14.325812
_cell_length_c 23.333338
_cell_angle_alpha 90.000000
_cell_angle_beta 76.379572
_cell_angle_gamma 90.000000
_cell_volume 1676.377472
_symmetry_space_group_name_H-M "P 21/C"
_symmetry_group_IT_number 14
_symmetry_cell_setting 'monoclinic'
loop_
_space_group_symop_operation_xyz
x,y,z
-x,1/2+y,1/2-z
-x,-y,-z
x,1/2-y,1/2+z
loop_
_atom_site_type_symbol
_atom_site_label
_atom_site_fract_x
_atom_site_fract_y
_atom_site_fract_z
Si Si1 0.286218 0.247154 0.379461
Si Si2 0.031720 0.486870 0.093606
Si Si3 0.024283 0.483467 0.223154
Si Si4 0.572455 0.823552 0.305103
Si Si5 0.746934 0.310098 0.940895
Si Si6 0.430201 0.878786 0.433271
Si Si7 0.919388 0.809386 0.722168
Si Si8 0.683220 0.155401 0.795173
O O1 0.485337 0.205235 0.416316
O O2 0.275170 0.178667 0.323395
O O3 0.410939 0.345149 0.347336
O O4 0.990057 0.264930 0.421299
O O5 0.107646 0.594176 0.083948
O O6 0.291321 0.426167 0.065290
O O7 0.922099 0.467006 0.163387
O O8 0.795020 0.459018 0.062502
O O9 0.055755 0.593523 0.233767
O O10 0.821135 0.445781 0.282973
O O11 0.299786 0.426387 0.213752
O O12 0.453506 0.815967 0.374891
O O13 0.781551 0.738717 0.284584
O O14 0.346620 0.811285 0.269287
O O15 0.653335 0.309811 0.011469
O O16 0.137362 0.736620 0.685537
#
# Coordination Sequence:
#
# PCOD8124008 Si02
#       8
#     4   4   4   4   4   4   4   4
#     4  11  21  36  53  79 108 146 187 231 264 320
#     4  11  20  33  50  78 113 147 188 218 264 336
#     4  10  19  33  56  82 109 153 178 228 284 332
#     4   9  21  34  55  80 116 144 185 231 274 326
#     4  12  22  34  54  76 112 153 191 221 270 324
#     4  11  22  36  50  78 113 152 185 226 269 327
#     4  10  20  36  58  79 115 145 189 227 282 331
#     4  10  19  36  54  80 114 141 183 240 276 328
#
# _framework density 19.08878
#
# number of rings (size 3 to 8) (size 9 to 14) (size 15 to 20)
#    0.000    1.500    3.750    2.250    0.000    3.000 
#    0.000    0.000    0.000    0.000    0.000    1.750 
#    0.000    0.500    0.000    0.000    0.000    0.000 
#
# Total GULP energy -396467.779211 kJ/mol
# GULP energy per Si atom -12389.618100 kJ/mol
# Density = 1.904533 g / cm^3
# Si number density = 19.088780 Si / 1000 Ang^3
#
#
#
# Elastic Constant Matrix: (Units=GPa)
#
#
# Indices 1 2 3 4 5 6 
#
# 1 85.2362 14.4793 29.7216 0.0000 0.2909 0.0000
# 2 14.4793 54.5716 15.4814 0.0000 -2.3670 0.0000
# 3 29.7216 15.4814 82.2504 0.0000 -3.0562 0.0000
# 4 0.0000 0.0000 0.0000 22.4329 0.0000 -2.1324
# 5 0.2909 -2.3670 -3.0562 0.0000 30.4488 0.0000
# 6 0.0000 0.0000 0.0000 -2.1324 0.0000 16.9606
#
#
#
# Elastic Compliance Matrix: (Units=1/GPa)
#
#
# Indices 1 2 3 4 5 6 
#
# 1 0.013723 -0.002387 -0.004538 0.000000 -0.000772 0.000000
# 2 -0.002387 0.019813 -0.002819 0.000000 0.001280 0.000000
# 3 -0.004538 -0.002819 0.014376 0.000000 0.001267 0.000000
# 4 0.000000 0.000000 0.000000 0.045117 0.000000 0.005672
# 5 -0.000772 0.001280 0.001267 0.000000 0.033076 0.000000
# 6 0.000000 0.000000 0.000000 0.005672 0.000000 0.059673
#
#
# Mechanical properties :
#
#
# Convention : Reuss Voigt Hill
#
# Bulk Modulus (GPa) = 35.18311 37.93585 36.55948
# Shear Modulus (GPa) = 23.28393 24.79353 24.03873
#
# Velocity S-wave (km/s) = 3.49631 3.60787 3.55253
# Velocity P-wave (km/s) = 5.89663 6.10509 6.00177
#
# Compressibility (1/GPa) = 0.02842273
#
# Stress axis : x y z
#
# Youngs Moduli (GPa) = 72.87210 50.47148 69.56242
#
# Poissons Ratio (x) = 0.12048 0.31568
# Poissons Ratio (y) = 0.17395 0.19611
# Poissons Ratio (z) = 0.33070 0.14229
#
# Static dielectric constant tensor:
#      x y z
#    x 3.738320 0.000000 -0.119010 
#    y 0.000000 3.206440 0.000000 
#    z -0.119010 0.000000 3.638210 
# 
# 
# High freq. dielectric constant tensor:
#      x y z
#    x 1.761990 0.000000 -0.004410 
#    y 0.000000 1.685910 0.000000 
#    z -0.004410 0.000000 1.737110 
# 
# From -- ./inp_files/71378.got.cif
#   From: 2010.03.12/outbox.cif.g09.slc.cpg/sg14_36_cif.got.tgz:71378.got - 2010.03.31 13:35:05.
