data_PCOD8124079
_publ_section_title
;
Structure prediction by ZEFSAII (Michael W. Deem and Ramdas Pophale) SiO2 
 PCOD8124079
Probable space group: P 21/C
;
_chemical_formula_sum "Si O2"
_cell_formula_units_Z 32
_cell_length_a 11.904840
_cell_length_b 14.383788
_cell_length_c 9.543124
_cell_angle_alpha 90.000000
_cell_angle_beta 80.023927
_cell_angle_gamma 90.000000
_cell_volume 1609.425220
_symmetry_space_group_name_H-M "P 21/C"
_symmetry_group_IT_number 14
_symmetry_cell_setting 'monoclinic'
loop_
_space_group_symop_operation_xyz
x,y,z
-x,1/2+y,1/2-z
-x,-y,-z
x,1/2-y,1/2+z
loop_
_atom_site_type_symbol
_atom_site_label
_atom_site_fract_x
_atom_site_fract_y
_atom_site_fract_z
Si Si1 0.967547 0.164861 0.363290
Si Si2 0.218936 0.977826 0.649849
Si Si3 0.771347 0.845191 0.682263
Si Si4 0.454048 0.814293 0.372039
Si Si5 0.720028 0.458345 0.183154
Si Si6 0.712433 0.674015 0.881237
Si Si7 0.645350 0.316162 0.804444
Si Si8 0.132366 0.701492 0.814683
O O1 0.900375 0.077630 0.306770
O O2 0.907283 0.200138 0.516751
O O3 0.966814 0.255597 0.261091
O O4 0.094900 0.131797 0.364754
O O5 0.248041 0.982248 0.481536
O O6 0.322781 0.925770 0.710284
O O7 0.214622 0.086260 0.696236
O O8 0.755837 0.766855 0.800625
O O9 0.722715 0.810679 0.544931
O O10 0.708179 0.939020 0.754239
O O11 0.395503 0.896946 0.292818
O O12 0.580767 0.846232 0.377141
O O13 0.384426 0.792143 0.528473
O O14 0.454949 0.718782 0.278262
O O15 0.824654 0.402536 0.235105
O O16 0.757671 0.265177 0.726609
#
# Coordination Sequence:
#
# PCOD8124079 Si02
#       8
#     4   4   4   4   4   4   4   4
#     4  10  19  34  57  80 107 141 172 221 271 304
#     4   8  18  34  55  79 102 137 185 218 252 315
#     4  11  23  37  53  78 110 141 179 219 264 320
#     4  10  19  34  57  80 107 141 172 221 271 304
#     4   8  18  34  55  79 102 137 185 218 252 315
#     4  11  23  37  53  78 110 141 179 219 264 320
#     4   9  17  33  56  82 105 133 178 219 260 314
#     4   9  17  33  56  82 105 133 178 219 260 314
#
# _framework density 19.882876
#
# number of rings (size 3 to 8) (size 9 to 14) (size 15 to 20)
#    0.000    2.500    0.000    3.750    0.000   11.000 
#    0.000    5.000    0.000   10.500    0.000    0.000 
#    0.000    0.000    0.000    0.000    0.000    0.000 
#
# Total GULP energy -396450.152196 kJ/mol
# GULP energy per Si atom -12389.067256 kJ/mol
# Density = 1.983762 g / cm^3
# Si number density = 19.882876 Si / 1000 Ang^3
#
#
#
# Elastic Constant Matrix: (Units=GPa)
#
#
# Indices 1 2 3 4 5 6 
#
# 1 88.5537 18.8487 6.1364 0.0000 7.0862 0.0000
# 2 18.8487 70.2024 5.0955 0.0000 6.7739 0.0000
# 3 6.1364 5.0955 35.1702 0.0000 3.6746 0.0000
# 4 0.0000 0.0000 0.0000 27.2806 0.0000 3.1122
# 5 7.0862 6.7739 3.6746 0.0000 25.3358 0.0000
# 6 0.0000 0.0000 0.0000 3.1122 0.0000 25.6952
#
#
#
# Elastic Compliance Matrix: (Units=1/GPa)
#
#
# Indices 1 2 3 4 5 6 
#
# 1 0.012213 -0.002940 -0.001452 0.000000 -0.002419 0.000000
# 2 -0.002940 0.015435 -0.001399 0.000000 -0.003101 0.000000
# 3 -0.001452 -0.001399 0.029251 0.000000 -0.003462 0.000000
# 4 0.000000 0.000000 0.000000 0.037170 0.000000 -0.004502
# 5 -0.002419 -0.003101 -0.003462 0.000000 0.041478 0.000000
# 6 0.000000 0.000000 0.000000 -0.004502 0.000000 0.039463
#
#
# Mechanical properties :
#
#
# Convention : Reuss Voigt Hill
#
# Bulk Modulus (GPa) = 22.06751 28.23193 25.14972
# Shear Modulus (GPa) = 24.78969 26.58538 25.68754
#
# Velocity S-wave (km/s) = 3.53482 3.66060 3.59826
# Velocity P-wave (km/s) = 5.27093 5.66539 5.47172
#
# Compressibility (1/GPa) = 0.04531548
#
# Stress axis : x y z
#
# Youngs Moduli (GPa) = 81.88270 64.78889 34.18692
#
# Poissons Ratio (x) = 0.19049 0.04964
# Poissons Ratio (y) = 0.24075 0.04783
# Poissons Ratio (z) = 0.11890 0.09065
#
# Static dielectric constant tensor:
#      x y z
#    x 3.770010 0.000000 0.276770 
#    y 0.000000 4.188810 0.000000 
#    z 0.276770 0.000000 3.507310 
# 
# 
# High freq. dielectric constant tensor:
#      x y z
#    x 1.775780 0.000000 0.008310 
#    y 0.000000 1.782150 0.000000 
#    z 0.008310 0.000000 1.740210 
# 
# From -- ./inp_files/29085.got.cif
#   From: 2010.03.12/outbox.cif.g09.slc.cpg/sg14_15_cif.got.tgz:29085.got - 2010.03.31 13:35:05.
