data_PCOD8124479
_publ_section_title
;
Structure prediction by ZEFSAII (Michael W. Deem and Ramdas Pophale) SiO2 
 PCOD8124479
Probable space group: P 21/C
;
_chemical_formula_sum "Si O2"
_cell_formula_units_Z 28
_cell_length_a 12.035126
_cell_length_b 12.187543
_cell_length_c 10.200376
_cell_angle_alpha 90.000000
_cell_angle_beta 111.004945
_cell_angle_gamma 90.000000
_cell_volume 1396.755309
_symmetry_space_group_name_H-M "P 21/C"
_symmetry_group_IT_number 14
_symmetry_cell_setting 'monoclinic'
loop_
_space_group_symop_operation_xyz
x,y,z
-x,1/2+y,1/2-z
-x,-y,-z
x,1/2-y,1/2+z
loop_
_atom_site_type_symbol
_atom_site_label
_atom_site_fract_x
_atom_site_fract_y
_atom_site_fract_z
Si Si1 0.754234 0.986627 0.772298
Si Si2 0.495478 0.545617 0.197135
Si Si3 0.139650 0.599821 0.441754
Si Si4 0.584075 0.144551 0.586441
Si Si5 0.906563 0.338802 0.977159
Si Si6 0.679735 0.366352 0.696695
Si Si7 0.057038 0.448053 0.836412
O O1 0.636200 0.927722 0.782719
O O2 0.828698 0.909827 0.702359
O O3 0.713950 0.092556 0.670376
O O4 0.843741 0.026867 0.922591
O O5 0.483143 0.427114 0.120013
O O6 0.411348 0.539927 0.289806
O O7 0.443645 0.641122 0.080282
O O8 0.086481 0.720508 0.450847
O O9 0.267993 0.608059 0.424289
O O10 0.052396 0.534015 0.309308
O O11 0.587809 0.265978 0.643627
O O12 0.784524 0.345532 0.844494
O O13 0.020155 0.355704 0.927412
O O14 0.913831 0.434824 0.086830
#
# Coordination Sequence:
#
# PCOD8124479 Si02
#       7
#     4   4   4   4   4   4   4
#     4  10  19  38  55  83 116 154 184 242 290 346
#     4   9  20  34  57  84 115 149 187 238 294 334
#     4  11  22  35  62  88 112 155 203 247 278 345
#     4   9  19  34  59  85 108 149 196 237 279 344
#     4  10  21  38  59  89 110 152 201 245 287 341
#     4  11  19  35  62  88 111 151 200 241 280 341
#     4  10  22  36  60  83 119 149 198 246 295 338
#
# _framework density 20.046461000000001
#
# number of rings (size 3 to 8) (size 9 to 14) (size 15 to 20)
#    0.857    1.143    1.429    3.000    2.000    0.571 
#    0.000    1.429    0.000    0.000    0.000    0.000 
#    0.000    0.000    0.000    0.000    0.000    0.000 
#
# Total GULP energy -346885.918470 kJ/mol
# GULP energy per Si atom -12388.782803 kJ/mol
# Density = 2.000083 g / cm^3
# Si number density = 20.046461 Si / 1000 Ang^3
#
#
#
# Elastic Constant Matrix: (Units=GPa)
#
#
# Indices 1 2 3 4 5 6 
#
# 1 114.5418 26.6896 22.1813 0.0000 -38.1724 0.0000
# 2 26.6896 43.5984 28.5721 0.0000 -13.0420 0.0000
# 3 22.1813 28.5721 83.9696 0.0000 -3.0439 0.0000
# 4 0.0000 0.0000 0.0000 30.3835 0.0000 3.3985
# 5 -38.1724 -13.0420 -3.0439 0.0000 31.9463 0.0000
# 6 0.0000 0.0000 0.0000 3.3985 0.0000 25.5652
#
#
#
# Elastic Compliance Matrix: (Units=1/GPa)
#
#
# Indices 1 2 3 4 5 6 
#
# 1 0.015637 -0.002690 -0.002587 0.000000 0.017340 0.000000
# 2 -0.002690 0.034536 -0.010683 0.000000 0.009867 0.000000
# 3 -0.002587 -0.010683 0.016013 0.000000 -0.005926 0.000000
# 4 0.000000 0.000000 0.000000 0.033409 0.000000 -0.004441
# 5 0.017340 0.009867 -0.005926 0.000000 0.055485 0.000000
# 6 0.000000 0.000000 0.000000 -0.004441 0.000000 0.039706
#
#
# Mechanical properties :
#
#
# Convention : Reuss Voigt Hill
#
# Bulk Modulus (GPa) = 29.18388 44.11063 36.64726
# Shear Modulus (GPa) = 20.99709 28.55678 24.77694
#
# Velocity S-wave (km/s) = 3.23990 3.77839 3.51946
# Velocity P-wave (km/s) = 5.34656 6.40991 5.90223
#
# Compressibility (1/GPa) = 0.03426549
#
# Stress axis : x y z
#
# Youngs Moduli (GPa) = 63.95169 28.95504 62.45053
#
# Poissons Ratio (x) = 0.07790 0.16153
# Poissons Ratio (y) = 0.17205 0.66717
# Poissons Ratio (z) = 0.16542 0.30933
#
# Static dielectric constant tensor:
#      x y z
#    x 3.794360 0.000000 -0.178120 
#    y 0.000000 3.206470 0.000000 
#    z -0.178120 0.000000 3.678630 
# 
# 
# High freq. dielectric constant tensor:
#      x y z
#    x 1.788000 0.000000 -0.010500 
#    y 0.000000 1.734500 0.000000 
#    z -0.010500 0.000000 1.789010 
# 
# From -- ./inp_files/28692.got.cif
#   From: 2010.03.12/outbox.cif.g09.slc.cpg/sg14_15_cif.got.tgz:28692.got - 2010.03.31 13:35:05.
