data_PCOD8124628
_publ_section_title
;
Structure prediction by ZEFSAII (Michael W. Deem and Ramdas Pophale) SiO2 
 PCOD8124628
Probable space group: P 21/C
;
_chemical_formula_sum "Si O2"
_cell_formula_units_Z 24
_cell_length_a 11.188225
_cell_length_b 8.370321
_cell_length_c 18.279810
_cell_angle_alpha 90.000000
_cell_angle_beta 34.699821
_cell_angle_gamma 90.000000
_cell_volume 974.537568
_symmetry_space_group_name_H-M "P 21/C"
_symmetry_group_IT_number 14
_symmetry_cell_setting 'monoclinic'
loop_
_space_group_symop_operation_xyz
x,y,z
-x,1/2+y,1/2-z
-x,-y,-z
x,1/2-y,1/2+z
loop_
_atom_site_type_symbol
_atom_site_label
_atom_site_fract_x
_atom_site_fract_y
_atom_site_fract_z
Si Si1 0.017128 0.965369 0.113114
Si Si2 0.122322 0.551143 0.111934
Si Si3 0.579558 0.334513 0.552380
Si Si4 0.938179 0.261579 0.551817
Si Si5 0.803406 0.757795 0.335524
Si Si6 0.761820 0.549732 0.172001
O O1 0.834938 0.866483 0.245622
O O2 0.231110 0.963794 0.055761
O O3 0.096422 0.874332 0.000098
O O4 0.942750 0.140315 0.126036
O O5 0.202210 0.374267 0.091831
O O6 0.000769 0.634024 0.243404
O O7 0.948181 0.549220 0.137668
O O8 0.320195 0.657818 0.988528
O O9 0.420944 0.330436 0.562667
O O10 0.456650 0.387156 0.687326
O O11 0.160143 0.165096 0.432902
O O12 0.745402 0.134029 0.652856
#
# Coordination Sequence:
#
# PCOD8124628 Si02
#       6
#     4   4   4   4   4   4
#     4  10  21  39  61  88 124 161 207 258 316 374
#     4  10  21  39  63  87 127 168 210 266 316 370
#     4  10  19  40  61  94 117 157 211 258 309 373
#     4  10  20  40  60  82 124 168 196 256 324 368
#     4  10  21  39  63  87 127 168 210 266 316 370
#     4  10  21  39  61  88 124 161 207 258 316 374
#
# _framework density 24.627065000000002
#
# number of rings (size 3 to 8) (size 9 to 14) (size 15 to 20)
#    0.000    2.000    5.000    0.500    2.333    1.333 
#    0.000   15.000    0.000    0.000    0.000    0.000 
#    0.000    0.000    0.000    0.000    0.000    0.000 
#
# Total GULP energy -297425.729117 kJ/mol
# GULP energy per Si atom -12392.738713 kJ/mol
# Density = 2.457101 g / cm^3
# Si number density = 24.627065 Si / 1000 Ang^3
#
#
#
# Elastic Constant Matrix: (Units=GPa)
#
#
# Indices 1 2 3 4 5 6 
#
# 1 42.3229 3.0230 5.5850 0.0000 -15.5520 0.0000
# 2 3.0230 69.1251 11.0814 0.0000 -10.4166 0.0000
# 3 5.5850 11.0814 94.0803 0.0000 -13.0686 0.0000
# 4 0.0000 0.0000 0.0000 39.7005 0.0000 6.8935
# 5 -15.5520 -10.4166 -13.0686 0.0000 27.2017 0.0000
# 6 0.0000 0.0000 0.0000 6.8935 0.0000 49.9381
#
#
#
# Elastic Compliance Matrix: (Units=1/GPa)
#
#
# Indices 1 2 3 4 5 6 
#
# 1 0.030058 0.001301 0.000556 0.000000 0.017950 0.000000
# 2 0.001301 0.015509 -0.001045 0.000000 0.006181 0.000000
# 3 0.000556 -0.001045 0.011474 0.000000 0.005430 0.000000
# 4 0.000000 0.000000 0.000000 0.025807 0.000000 -0.003562
# 5 0.017950 0.006181 0.005430 0.000000 0.052001 0.000000
# 6 0.000000 0.000000 0.000000 -0.003562 0.000000 0.020517
#
#
# Mechanical properties :
#
#
# Convention : Reuss Voigt Hill
#
# Bulk Modulus (GPa) = 17.04643 27.21191 22.12917
# Shear Modulus (GPa) = 28.85253 35.75731 32.30492
#
# Velocity S-wave (km/s) = 3.42655 3.81458 3.62576
# Velocity P-wave (km/s) = 4.75308 5.52041 5.15106
#
# Compressibility (1/GPa) = 0.05866331
#
# Stress axis : x y z
#
# Youngs Moduli (GPa) = 33.26943 64.48043 87.15663
#
# Poissons Ratio (x) = -0.08391 -0.04844
# Poissons Ratio (y) = -0.04330 0.09111
# Poissons Ratio (z) = -0.01849 0.06741
#
# Static dielectric constant tensor:
#      x y z
#    x 4.314520 0.000000 0.142680 
#    y 0.000000 4.951740 0.000000 
#    z 0.142680 0.000000 4.338100 
# 
# 
# High freq. dielectric constant tensor:
#      x y z
#    x 1.965140 0.000000 0.011160 
#    y 0.000000 1.993750 0.000000 
#    z 0.011160 0.000000 1.957320 
# 
# From -- ./inp_files/73025.got.cif
#   From: 2010.03.12/outbox.cif.g09.slc.cpg/sg14_37_cif.got.tgz:73025.got - 2010.03.31 13:35:05.
