data_PCOD8124730
_publ_section_title
;
Structure prediction by ZEFSAII (Michael W. Deem and Ramdas Pophale) SiO2 
 PCOD8124730
Probable space group: P 21/C
;
_chemical_formula_sum "Si O2"
_cell_formula_units_Z 32
_cell_length_a 10.836506
_cell_length_b 20.343058
_cell_length_c 9.022817
_cell_angle_alpha 90.000000
_cell_angle_beta 65.397908
_cell_angle_gamma 90.000000
_cell_volume 1808.494019
_symmetry_space_group_name_H-M "P 21/C"
_symmetry_group_IT_number 14
_symmetry_cell_setting 'monoclinic'
loop_
_space_group_symop_operation_xyz
x,y,z
-x,1/2+y,1/2-z
-x,-y,-z
x,1/2-y,1/2+z
loop_
_atom_site_type_symbol
_atom_site_label
_atom_site_fract_x
_atom_site_fract_y
_atom_site_fract_z
Si Si1 0.344948 0.075778 0.902221
Si Si2 0.161533 0.317109 0.343186
Si Si3 0.651560 0.071839 0.749238
Si Si4 0.849376 0.316720 0.151125
Si Si5 0.348440 0.928160 0.900800
Si Si6 0.838467 0.682892 0.004722
Si Si7 0.150624 0.683281 0.500506
Si Si8 0.655052 0.575779 0.247173
O O1 0.246560 0.122683 0.862008
O O2 0.499567 0.092904 0.779796
O O3 0.313041 0.001577 0.863527
O O4 0.321494 0.084303 0.089251
O O5 0.211487 0.250001 0.394257
O O6 0.005197 0.331302 0.461536
O O7 0.184697 0.309975 0.157650
O O8 0.759291 0.123763 0.629793
O O9 0.686959 0.998422 0.676569
O O10 0.661273 0.070571 0.919362
O O11 0.827518 0.308791 0.336238
O O12 0.798728 0.250001 0.100632
O O13 0.005197 0.331302 0.033264
O O14 0.500433 0.907094 0.779367
O O15 0.240710 0.876236 0.889086
O O16 0.753439 0.622684 0.108574
#
# Coordination Sequence:
#
# PCOD8124730 Si02
#       8
#     4   4   4   4   4   4   4   4
#     4   9  17  32  53  73  96 127 160 194 236 287
#     4  10  20  33  49  70  97 127 159 198 240 282
#     4   8  16  32  52  72  96 128 161 193 235 286
#     4   9  18  33  50  69  95 126 161 198 236 281
#     4   8  16  32  52  72  96 128 161 193 235 286
#     4  10  20  33  49  70  97 127 159 198 240 282
#     4   9  18  33  50  69  95 126 161 198 236 281
#     4   9  17  32  53  73  96 127 160 194 236 287
#
# _framework density 17.694281
#
# number of rings (size 3 to 8) (size 9 to 14) (size 15 to 20)
#    0.000    3.000    0.000    2.250    0.000    3.000 
#    0.000    7.500    0.000    0.000    0.000    0.000 
#    0.000    0.000    0.000    0.000    0.000    0.000 
#
# Total GULP energy -396741.742830 kJ/mol
# GULP energy per Si atom -12398.179463 kJ/mol
# Density = 1.765401 g / cm^3
# Si number density = 17.694281 Si / 1000 Ang^3
#
#
#
# Elastic Constant Matrix: (Units=GPa)
#
#
# Indices 1 2 3 4 5 6 
#
# 1 94.3674 90.7792 36.7997 0.0000 -9.4974 0.0000
# 2 90.7792 159.7298 53.1891 0.0000 -17.0124 0.0000
# 3 36.7997 53.1891 52.6192 0.0000 -9.3972 0.0000
# 4 0.0000 0.0000 0.0000 31.5770 0.0000 -1.6693
# 5 -9.4974 -17.0124 -9.3972 0.0000 18.3373 0.0000
# 6 0.0000 0.0000 0.0000 -1.6693 0.0000 35.2637
#
#
#
# Elastic Compliance Matrix: (Units=1/GPa)
#
#
# Indices 1 2 3 4 5 6 
#
# 1 0.024102 -0.012280 -0.004676 0.000000 -0.001306 0.000000
# 2 -0.012280 0.016005 -0.006687 0.000000 0.005062 0.000000
# 3 -0.004676 -0.006687 0.030263 0.000000 0.006883 0.000000
# 4 0.000000 0.000000 0.000000 0.031748 0.000000 0.001503
# 5 -0.001306 0.005062 0.006883 0.000000 0.062081 0.000000
# 6 0.000000 0.000000 0.000000 0.001503 0.000000 0.028429
#
#
# Mechanical properties :
#
#
# Convention : Reuss Voigt Hill
#
# Bulk Modulus (GPa) = 43.31824 74.25028 58.78426
# Shear Modulus (GPa) = 20.19313 25.43216 22.81265
#
# Velocity S-wave (km/s) = 3.38187 3.79530 3.59453
# Velocity P-wave (km/s) = 6.30745 7.82686 7.10787
#
# Compressibility (1/GPa) = 0.02308496
#
# Stress axis : x y z
#
# Youngs Moduli (GPa) = 41.49074 62.47952 33.04330
#
# Poissons Ratio (x) = 0.76723 0.15452
# Poissons Ratio (y) = 0.50949 0.22095
# Poissons Ratio (z) = 0.19403 0.41778
#
# Static dielectric constant tensor:
#      x y z
#    x 3.400650 0.000000 -0.152180 
#    y 0.000000 3.669940 0.000000 
#    z -0.152180 0.000000 3.064400 
# 
# 
# High freq. dielectric constant tensor:
#      x y z
#    x 1.681480 0.000000 -0.008520 
#    y 0.000000 1.693770 0.000000 
#    z -0.008520 0.000000 1.662660 
# 
# From -- ./inp_files/13723.got.cif
#   From: 2010.03.12/outbox.cif.g09.slc.cpg/sg14_7_cif.got.tgz:13723.got - 2010.03.31 13:35:05.
