data_PCOD8124977
_publ_section_title
;
Structure prediction by ZEFSAII (Michael W. Deem and Ramdas Pophale) SiO2 
 PCOD8124977
Probable space group: P 21/C
;
_chemical_formula_sum "Si O2"
_cell_formula_units_Z 32
_cell_length_a 16.013967
_cell_length_b 13.543479
_cell_length_c 12.920490
_cell_angle_alpha 90.000000
_cell_angle_beta 148.643244
_cell_angle_gamma 90.000000
_cell_volume 1458.197845
_symmetry_space_group_name_H-M "P 21/C"
_symmetry_group_IT_number 14
_symmetry_cell_setting 'monoclinic'
loop_
_space_group_symop_operation_xyz
x,y,z
-x,1/2+y,1/2-z
-x,-y,-z
x,1/2-y,1/2+z
loop_
_atom_site_type_symbol
_atom_site_label
_atom_site_fract_x
_atom_site_fract_y
_atom_site_fract_z
Si Si1 0.201614 0.215708 0.267117
Si Si2 0.299073 0.670636 0.877110
Si Si3 0.892548 0.122999 0.022139
Si Si4 0.638003 0.876928 0.380395
Si Si5 0.279032 0.877248 0.949255
Si Si6 0.167919 0.414798 0.326517
Si Si7 0.890595 0.040805 0.665864
Si Si8 0.334096 0.173734 0.194876
O O1 0.338915 0.159965 0.477498
O O2 0.219235 0.335063 0.293859
O O3 0.216567 0.169825 0.169388
O O4 0.027119 0.199956 0.130436
O O5 0.245995 0.625262 0.711248
O O6 0.194039 0.624372 0.856919
O O7 0.277170 0.789534 0.862610
O O8 0.484774 0.642412 0.086880
O O9 0.819840 0.157284 0.054542
O O10 0.976127 0.015787 0.122551
O O11 0.456183 0.908820 0.171912
O O12 0.681764 0.787118 0.352751
O O13 0.756716 0.966612 0.479541
O O14 0.202332 0.975802 0.817813
O O15 0.273407 0.399525 0.542303
O O16 0.980930 0.409047 0.163675
#
# Coordination Sequence:
#
# PCOD8124977 Si02
#       8
#     4   4   4   4   4   4   4   4
#     4  10  20  37  58  82 112 146 183 231 280 330
#     4  11  21  36  57  83 113 149 187 231 276 328
#     4  10  21  35  56  84 112 144 187 232 276 328
#     4   9  20  37  56  81 112 145 186 231 276 329
#     4  10  21  38  57  82 113 148 189 229 275 331
#     4  10  21  38  59  83 112 147 183 229 280 331
#     4  10  20  36  57  83 112 146 184 231 279 326
#     4  10  21  37  59  82 111 147 186 228 279 331
#
# _framework density 21.944897000000001
#
# number of rings (size 3 to 8) (size 9 to 14) (size 15 to 20)
#    0.000    2.000    0.000    3.375    0.000    7.000 
#    0.000   13.750    0.000    0.000    0.000    0.000 
#    0.000    0.000    0.000    0.000    0.000    0.000 
#
# Total GULP energy -396725.525630 kJ/mol
# GULP energy per Si atom -12397.672676 kJ/mol
# Density = 2.189495 g / cm^3
# Si number density = 21.944897 Si / 1000 Ang^3
#
#
#
# Elastic Constant Matrix: (Units=GPa)
#
#
# Indices 1 2 3 4 5 6 
#
# 1 51.0337 3.8557 10.1028 0.0000 14.6925 0.0000
# 2 3.8557 69.2004 13.6976 0.0000 8.1084 0.0000
# 3 10.1028 13.6976 69.6927 0.0000 11.7621 0.0000
# 4 0.0000 0.0000 0.0000 24.5377 0.0000 8.6685
# 5 14.6925 8.1084 11.7621 0.0000 27.0566 0.0000
# 6 0.0000 0.0000 0.0000 8.6685 0.0000 25.7767
#
#
#
# Elastic Compliance Matrix: (Units=1/GPa)
#
#
# Indices 1 2 3 4 5 6 
#
# 1 0.023353 0.000406 -0.001408 0.000000 -0.012191 0.000000
# 2 0.000406 0.015352 -0.002442 0.000000 -0.003760 0.000000
# 3 -0.001408 -0.002442 0.015950 0.000000 -0.005438 0.000000
# 4 0.000000 0.000000 0.000000 0.046248 0.000000 -0.015553
# 5 -0.012191 -0.003760 -0.005438 0.000000 0.047070 0.000000
# 6 0.000000 0.000000 0.000000 -0.015553 0.000000 0.044025
#
#
# Mechanical properties :
#
#
# Convention : Reuss Voigt Hill
#
# Bulk Modulus (GPa) = 20.93435 27.24878 24.09157
# Shear Modulus (GPa) = 23.27666 26.29226 24.78446
#
# Velocity S-wave (km/s) = 3.26035 3.46512 3.36429
# Velocity P-wave (km/s) = 4.87169 5.33416 5.10816
#
# Compressibility (1/GPa) = 0.04776838
#
# Stress axis : x y z
#
# Youngs Moduli (GPa) = 42.82180 65.13812 62.69439
#
# Poissons Ratio (x) = -0.02644 0.08825
# Poissons Ratio (y) = -0.01738 0.15308
# Poissons Ratio (z) = 0.06027 0.15904
#
# Static dielectric constant tensor:
#      x y z
#    x 3.734580 0.000000 0.193660 
#    y 0.000000 3.899890 0.000000 
#    z 0.193660 0.000000 4.179290 
# 
# 
# High freq. dielectric constant tensor:
#      x y z
#    x 1.847860 0.000000 0.020050 
#    y 0.000000 1.868830 0.000000 
#    z 0.020050 0.000000 1.860160 
# 
# From -- ./inp_files/49048.got.cif
#   From: 2010.03.12/outbox.cif.g09.slc.cpg/sg14_25_cif.got.tgz:49048.got - 2010.03.31 13:35:05.
