data_PCOD8124350
_publ_section_title
;
Structure prediction by ZEFSAII (Michael W. Deem and Ramdas Pophale) SiO2 
 PCOD8124350
Probable space group: P 21/C
;
_chemical_formula_sum "Si O2"
_cell_formula_units_Z 32
_cell_length_a 8.516484
_cell_length_b 27.253063
_cell_length_c 11.700938
_cell_angle_alpha 90.000000
_cell_angle_beta 34.897774
_cell_angle_gamma 90.000000
_cell_volume 1553.742036
_symmetry_space_group_name_H-M "P 21/C"
_symmetry_group_IT_number 14
_symmetry_cell_setting 'monoclinic'
loop_
_space_group_symop_operation_xyz
x,y,z
-x,1/2+y,1/2-z
-x,-y,-z
x,1/2-y,1/2+z
loop_
_atom_site_type_symbol
_atom_site_label
_atom_site_fract_x
_atom_site_fract_y
_atom_site_fract_z
Si Si1 0.193840 0.479763 0.048437
Si Si2 0.061336 0.436663 0.689044
Si Si3 0.921844 0.123974 0.488529
Si Si4 0.370722 0.962824 0.238284
Si Si5 0.771925 0.213271 0.431467
Si Si6 0.903069 0.346836 0.638764
Si Si7 0.709654 0.870675 0.513535
Si Si8 0.152834 0.198410 0.769425
O O1 0.175881 0.520785 0.160257
O O2 0.881011 0.476940 0.191849
O O3 0.392499 0.497988 0.828302
O O4 0.299300 0.426892 0.026300
O O5 0.078828 0.406313 0.796564
O O6 0.350532 0.463450 0.498951
O O7 0.993326 0.400927 0.624968
O O8 0.136423 0.136102 0.459432
O O9 0.672244 0.091877 0.686235
O O10 0.789564 0.173760 0.522095
O O11 0.925280 0.192589 0.227932
O O12 0.451370 0.224078 0.598244
O O13 0.917495 0.262252 0.386243
O O14 0.590977 0.349939 0.783739
O O15 0.095569 0.329411 0.421732
O O16 0.860654 0.840575 0.324501
#
# Coordination Sequence:
#
# PCOD8124350 Si02
#       8
#     4   4   4   4   4   4   4   4
#     4   9  19  34  56  86 124 160 198 253 296 355
#     4  10  19  36  62  88 118 163 205 245 300 365
#     4   9  20  38  61  89 121 155 200 257 301 351
#     4   9  17  33  57  89 119 156 205 248 300 358
#     4  10  24  43  64  90 119 158 200 255 308 365
#     4  10  24  42  60  89 124 159 201 252 307 371
#     4  10  23  41  58  92 128 160 202 255 302 359
#     4  11  25  43  65  89 124 159 203 253 310 369
#
# _framework density 20.595438000000001
#
# number of rings (size 3 to 8) (size 9 to 14) (size 15 to 20)
#    0.000    2.250    0.000    1.875    3.500    5.500 
#    4.500    1.250    0.000    0.000    0.000    0.000 
#    0.000    0.000    0.000    0.000    0.000    0.000 
#
# Total GULP energy -396826.602438 kJ/mol
# GULP energy per Si atom -12400.831326 kJ/mol
# Density = 2.054856 g / cm^3
# Si number density = 20.595438 Si / 1000 Ang^3
#
#
#
# Elastic Constant Matrix: (Units=GPa)
#
#
# Indices 1 2 3 4 5 6 
#
# 1 71.1908 33.5383 15.6214 0.0000 9.2163 0.0000
# 2 33.5383 113.8403 29.3079 0.0000 7.8420 0.0000
# 3 15.6214 29.3079 93.4712 0.0000 6.6055 0.0000
# 4 0.0000 0.0000 0.0000 26.6757 0.0000 2.0205
# 5 9.2163 7.8420 6.6055 0.0000 21.3738 0.0000
# 6 0.0000 0.0000 0.0000 2.0205 0.0000 34.1183
#
#
#
# Elastic Compliance Matrix: (Units=1/GPa)
#
#
# Indices 1 2 3 4 5 6 
#
# 1 0.017045 -0.004366 -0.001097 0.000000 -0.005408 0.000000
# 2 -0.004366 0.010822 -0.002572 0.000000 -0.001293 0.000000
# 3 -0.001097 -0.002572 0.011847 0.000000 -0.002244 0.000000
# 4 0.000000 0.000000 0.000000 0.037656 0.000000 -0.002230
# 5 -0.005408 -0.001293 -0.002244 0.000000 0.050286 0.000000
# 6 0.000000 0.000000 0.000000 -0.002230 0.000000 0.029442
#
#
# Mechanical properties :
#
#
# Convention : Reuss Voigt Hill
#
# Bulk Modulus (GPa) = 42.29781 48.38195 45.33988
# Shear Modulus (GPa) = 27.61663 29.76920 28.69291
#
# Velocity S-wave (km/s) = 3.66582 3.80600 3.73657
# Velocity P-wave (km/s) = 6.20481 6.54651 6.37795
#
# Compressibility (1/GPa) = 0.02364189
#
# Stress axis : x y z
#
# Youngs Moduli (GPa) = 58.66896 92.40550 84.40983
#
# Poissons Ratio (x) = 0.40349 0.09262
# Poissons Ratio (y) = 0.25618 0.21711
# Poissons Ratio (z) = 0.06438 0.23767
#
# Static dielectric constant tensor:
#      x y z
#    x 3.571610 0.000000 0.113730 
#    y 0.000000 3.879880 0.000000 
#    z 0.113730 0.000000 3.649270 
# 
# 
# High freq. dielectric constant tensor:
#      x y z
#    x 1.797370 0.000000 0.005370 
#    y 0.000000 1.812320 0.000000 
#    z 0.005370 0.000000 1.805710 
# 
# From -- ./inp_files/27010.got.cif
#   From: 2010.03.12/outbox.cif.g09.slc.cpg/sg14_14_cif.got.tgz:27010.got - 2010.03.31 13:35:05.
