data_PCOD8124374
_publ_section_title
;
Structure prediction by ZEFSAII (Michael W. Deem and Ramdas Pophale) SiO2 
 PCOD8124374
Probable space group: P 21/C
;
_chemical_formula_sum "Si O2"
_cell_formula_units_Z 28
_cell_length_a 8.747387
_cell_length_b 18.766606
_cell_length_c 9.000317
_cell_angle_alpha 90.000000
_cell_angle_beta 88.034173
_cell_angle_gamma 90.000000
_cell_volume 1476.611376
_symmetry_space_group_name_H-M "P 21/C"
_symmetry_group_IT_number 14
_symmetry_cell_setting 'monoclinic'
loop_
_space_group_symop_operation_xyz
x,y,z
-x,1/2+y,1/2-z
-x,-y,-z
x,1/2-y,1/2+z
loop_
_atom_site_type_symbol
_atom_site_label
_atom_site_fract_x
_atom_site_fract_y
_atom_site_fract_z
Si Si1 0.902613 0.111144 0.261198
Si Si2 0.194950 0.572995 0.535269
Si Si3 0.269768 0.178287 0.805232
Si Si4 0.623917 0.323028 0.307053
Si Si5 0.790080 0.210680 0.508657
Si Si6 0.117886 0.041033 0.828956
Si Si7 0.097584 0.281352 0.606606
O O1 0.819846 0.140258 0.409338
O O2 0.060397 0.154270 0.223574
O O3 0.924846 0.025284 0.279358
O O4 0.802421 0.123606 0.113021
O O5 0.332973 0.596546 0.638684
O O6 0.197306 0.490607 0.478447
O O7 0.035546 0.584697 0.627635
O O8 0.446096 0.189782 0.836860
O O9 0.236278 0.096912 0.751550
O O10 0.224602 0.231994 0.677543
O O11 0.168618 0.188726 0.954541
O O12 0.723526 0.270278 0.403161
O O13 0.665538 0.312405 0.134102
O O14 0.946040 0.235181 0.581178
#
# Coordination Sequence:
#
# PCOD8124374 Si02
#       7
#     4   4   4   4   4   4   4
#     4  10  19  36  66  86 107 153 211 248 277 336
#     4   9  17  38  63  83 112 152 206 238 285 348
#     4  12  24  37  59  91 127 147 194 250 311 348
#     4  12  23  36  57  92 121 161 184 249 310 356
#     4  12  20  38  61  85 116 156 208 237 292 353
#     4   9  18  38  63  86 116 152 207 248 281 355
#     4  12  20  38  63  88 110 155 205 251 278 353
#
# _framework density 18.962333999999998
#
# number of rings (size 3 to 8) (size 9 to 14) (size 15 to 20)
#    0.857    0.286    5.714    1.714    0.000    0.571 
#    0.000    3.571    0.000    0.000    0.000    0.000 
#    0.000    0.000    0.000    0.000    0.000    0.000 
#
# Total GULP energy -346977.100980 kJ/mol
# GULP energy per Si atom -12392.039321 kJ/mol
# Density = 1.891918 g / cm^3
# Si number density = 18.962334 Si / 1000 Ang^3
#
#
#
# Elastic Constant Matrix: (Units=GPa)
#
#
# Indices 1 2 3 4 5 6 
#
# 1 81.5695 28.7825 11.5830 0.0000 7.2127 0.0000
# 2 28.7825 88.4832 25.4582 0.0000 8.5640 0.0000
# 3 11.5830 25.4582 49.3647 0.0000 -4.3512 0.0000
# 4 0.0000 0.0000 0.0000 29.2053 0.0000 6.4125
# 5 7.2127 8.5640 -4.3512 0.0000 27.7864 0.0000
# 6 0.0000 0.0000 0.0000 6.4125 0.0000 20.7330
#
#
#
# Elastic Compliance Matrix: (Units=1/GPa)
#
#
# Indices 1 2 3 4 5 6 
#
# 1 0.014085 -0.003876 -0.001545 0.000000 -0.002704 0.000000
# 2 -0.003876 0.015133 -0.007318 0.000000 -0.004804 0.000000
# 3 -0.001545 -0.007318 0.024973 0.000000 0.006567 0.000000
# 4 0.000000 0.000000 0.000000 0.036735 0.000000 -0.011362
# 5 -0.002704 -0.004804 0.006567 0.000000 0.039200 0.000000
# 6 0.000000 0.000000 0.000000 -0.011362 0.000000 0.051746
#
#
# Mechanical properties :
#
#
# Convention : Reuss Voigt Hill
#
# Bulk Modulus (GPa) = 34.82627 39.00719 36.91673
# Shear Modulus (GPa) = 23.04991 25.78453 24.41722
#
# Velocity S-wave (km/s) = 3.49027 3.69151 3.59230
# Velocity P-wave (km/s) = 5.88631 6.22778 6.05945
#
# Compressibility (1/GPa) = 0.02871395
#
# Stress axis : x y z
#
# Youngs Moduli (GPa) = 70.99515 66.08116 40.04354
#
# Poissons Ratio (x) = 0.25612 0.06185
# Poissons Ratio (y) = 0.27516 0.29305
# Poissons Ratio (z) = 0.10965 0.48360
#
# Static dielectric constant tensor:
#      x y z
#    x 3.197770 0.000000 -0.013910 
#    y 0.000000 3.579440 0.000000 
#    z -0.013910 0.000000 3.384950 
# 
# 
# High freq. dielectric constant tensor:
#      x y z
#    x 1.709540 0.000000 -0.007410 
#    y 0.000000 1.742830 0.000000 
#    z -0.007410 0.000000 1.725550 
# 
# From -- ./inp_files/9920.got.cif
#   From: 2010.03.12/outbox.cif.g09.slc.cpg/sg14_5_cif.got.tgz:9920.got - 2010.03.31 13:35:05.
