data_PCOD8124513
_publ_section_title
;
Structure prediction by ZEFSAII (Michael W. Deem and Ramdas Pophale) SiO2 
 PCOD8124513
Probable space group: P 21/C
;
_chemical_formula_sum "Si O2"
_cell_formula_units_Z 28
_cell_length_a 25.610604
_cell_length_b 13.713510
_cell_length_c 14.789090
_cell_angle_alpha 90.000000
_cell_angle_beta 16.687335
_cell_angle_gamma 90.000000
_cell_volume 1491.478135
_symmetry_space_group_name_H-M "P 21/C"
_symmetry_group_IT_number 14
_symmetry_cell_setting 'monoclinic'
loop_
_space_group_symop_operation_xyz
x,y,z
-x,1/2+y,1/2-z
-x,-y,-z
x,1/2-y,1/2+z
loop_
_atom_site_type_symbol
_atom_site_label
_atom_site_fract_x
_atom_site_fract_y
_atom_site_fract_z
Si Si1 0.157624 0.743827 0.621981
Si Si2 0.493281 0.445253 0.734934
Si Si3 0.348890 0.362306 0.254312
Si Si4 0.762197 0.803598 0.244261
Si Si5 0.696187 0.051636 0.076312
Si Si6 0.398776 0.734701 0.553061
Si Si7 0.426775 0.833513 0.322265
O O1 0.144104 0.628484 0.667579
O O2 0.228425 0.761926 0.402968
O O3 0.293901 0.794477 0.465767
O O4 0.955945 0.784287 0.967853
O O5 0.657606 0.454799 0.533787
O O6 0.562565 0.377118 0.538373
O O7 0.438143 0.550859 0.790044
O O8 0.316614 0.398522 0.075097
O O9 0.210521 0.322001 0.408410
O O10 0.247506 0.445097 0.481161
O O11 0.519760 0.408248 0.919834
O O12 0.417305 0.275900 0.205848
O O13 0.626442 0.712697 0.481162
O O14 0.349046 0.802663 0.549359
#
# Coordination Sequence:
#
# PCOD8124513 Si02
#       7
#     4   4   4   4   4   4   4
#     4  11  22  40  60  90 124 157 196 258 298 356
#     4  10  20  37  63  87 118 164 198 244 305 364
#     4   9  16  34  61  83 107 161 195 240 290 357
#     4  10  22  41  59  89 126 154 203 253 301 355
#     4   9  16  33  62  84 109 151 208 238 285 344
#     4  10  19  38  61  86 119 156 201 249 302 349
#     4  11  21  41  63  85 123 160 201 249 303 357
#
# _framework density 18.773323000000001
#
# number of rings (size 3 to 8) (size 9 to 14) (size 15 to 20)
#    0.000    2.000    7.143    0.000    2.000    1.143 
#    7.714    0.714    0.000    0.000    0.000    0.000 
#    0.000    0.000    0.000    0.000    0.000    0.000 
#
# Total GULP energy -347156.838565 kJ/mol
# GULP energy per Si atom -12398.458520 kJ/mol
# Density = 1.873059 g / cm^3
# Si number density = 18.773323 Si / 1000 Ang^3
#
#
#
# Elastic Constant Matrix: (Units=GPa)
#
#
# Indices 1 2 3 4 5 6 
#
# 1 93.4328 30.4552 32.7132 0.0000 4.6894 0.0000
# 2 30.4552 130.2723 32.7038 0.0000 0.5396 0.0000
# 3 32.7132 32.7038 72.1559 0.0000 -8.3461 0.0000
# 4 0.0000 0.0000 0.0000 13.8224 0.0000 3.9921
# 5 4.6894 0.5396 -8.3461 0.0000 15.1028 0.0000
# 6 0.0000 0.0000 0.0000 3.9921 0.0000 27.6174
#
#
#
# Elastic Compliance Matrix: (Units=1/GPa)
#
#
# Indices 1 2 3 4 5 6 
#
# 1 0.013882 -0.001586 -0.006481 0.000000 -0.007836 0.000000
# 2 -0.001586 0.008943 -0.003541 0.000000 -0.001784 0.000000
# 3 -0.006481 -0.003541 0.019923 0.000000 0.013149 0.000000
# 4 0.000000 0.000000 0.000000 0.075498 0.000000 -0.010913
# 5 -0.007836 -0.001784 0.013149 0.000000 0.075976 0.000000
# 6 0.000000 0.000000 0.000000 -0.010913 0.000000 0.037787
#
#
# Mechanical properties :
#
#
# Convention : Reuss Voigt Hill
#
# Bulk Modulus (GPa) = 51.19640 54.17839 52.68739
# Shear Modulus (GPa) = 19.10318 24.64108 21.87213
#
# Velocity S-wave (km/s) = 3.19340 3.62686 3.41701
# Velocity P-wave (km/s) = 6.39743 6.81621 6.61013
#
# Compressibility (1/GPa) = 0.01953262
#
# Stress axis : x y z
#
# Youngs Moduli (GPa) = 72.03372 111.81627 50.19326
#
# Poissons Ratio (x) = 0.17733 0.32532
# Poissons Ratio (y) = 0.11424 0.17772
# Poissons Ratio (z) = 0.46688 0.39591
#
# Static dielectric constant tensor:
#      x y z
#    x 3.689340 0.000000 0.065940 
#    y 0.000000 3.672510 0.000000 
#    z 0.065940 0.000000 2.989840 
# 
# 
# High freq. dielectric constant tensor:
#      x y z
#    x 1.742500 0.000000 0.002920 
#    y 0.000000 1.735480 0.000000 
#    z 0.002920 0.000000 1.685010 
# 
# From -- ./inp_files/51522.got.cif
#   From: 2010.03.12/outbox.cif.g09.slc.cpg/sg14_26_cif.got.tgz:51522.got - 2010.03.31 13:35:05.
