data_PCOD8124888
_publ_section_title
;
Structure prediction by ZEFSAII (Michael W. Deem and Ramdas Pophale) SiO2 
 PCOD8124888
Probable space group: P 21/C
;
_chemical_formula_sum "Si O2"
_cell_formula_units_Z 28
_cell_length_a 9.218636
_cell_length_b 17.683110
_cell_length_c 13.758357
_cell_angle_alpha 90.000000
_cell_angle_beta 41.734445
_cell_angle_gamma 90.000000
_cell_volume 1492.989695
_symmetry_space_group_name_H-M "P 21/C"
_symmetry_group_IT_number 14
_symmetry_cell_setting 'monoclinic'
loop_
_space_group_symop_operation_xyz
x,y,z
-x,1/2+y,1/2-z
-x,-y,-z
x,1/2-y,1/2+z
loop_
_atom_site_type_symbol
_atom_site_label
_atom_site_fract_x
_atom_site_fract_y
_atom_site_fract_z
Si Si1 0.247695 0.136850 0.414616
Si Si2 0.499996 0.500001 0.280673
Si Si3 0.792870 0.383604 0.242669
Si Si4 0.207123 0.883605 0.035549
Si Si5 0.605068 0.780040 0.837567
Si Si6 0.752299 0.636848 0.662319
Si Si7 0.605082 0.719958 0.557361
O O1 0.238964 0.169385 0.308968
O O2 0.387352 0.192865 0.413369
O O3 0.003144 0.129945 0.572777
O O4 0.367500 0.056156 0.356116
O O5 0.666468 0.456591 0.267278
O O6 0.333518 0.543409 0.433754
O O7 0.367497 0.443847 0.276384
O O8 0.862641 0.398703 0.318675
O O9 0.642960 0.308993 0.309488
O O10 0.996843 0.870053 0.075941
O O11 0.357028 0.808993 0.952460
O O12 0.612630 0.692863 0.800733
O O13 0.691978 0.788257 0.904011
O O14 0.761043 0.669383 0.547933
#
# Coordination Sequence:
#
# PCOD8124888 Si02
#       7
#     4   4   4   4   4   4   4
#     4  10  20  35  58  83 110 141 183 230 271 316
#     4  10  21  36  53  80 112 148 183 222 265 322
#     4  10  20  37  59  81 110 146 181 221 273 329
#     4  10  20  37  59  81 110 146 181 221 273 329
#     4   9  20  37  57  81 108 141 182 225 272 327
#     4  10  20  35  58  83 110 141 183 230 271 316
#     4   9  20  37  57  81 108 141 182 225 272 327
#
# _framework density 18.754314000000001
#
# number of rings (size 3 to 8) (size 9 to 14) (size 15 to 20)
#    0.000    2.286    0.000    2.143    0.000   10.286 
#    0.000    2.857    0.000   10.286    0.000    0.000 
#    0.000    0.000    0.000    0.000    0.000    0.000 
#
# Total GULP energy -347230.693924 kJ/mol
# GULP energy per Si atom -12401.096212 kJ/mol
# Density = 1.871163 g / cm^3
# Si number density = 18.754314 Si / 1000 Ang^3
#
#
#
# Elastic Constant Matrix: (Units=GPa)
#
#
# Indices 1 2 3 4 5 6 
#
# 1 148.9206 63.4049 77.3300 0.0000 5.2521 0.0000
# 2 63.4049 130.3770 63.6633 0.0000 -0.4806 0.0000
# 3 77.3300 63.6633 140.2817 0.0000 10.2430 0.0000
# 4 0.0000 0.0000 0.0000 24.2988 0.0000 -3.9378
# 5 5.2521 -0.4806 10.2430 0.0000 25.3715 0.0000
# 6 0.0000 0.0000 0.0000 -3.9378 0.0000 22.1067
#
#
#
# Elastic Compliance Matrix: (Units=1/GPa)
#
#
# Indices 1 2 3 4 5 6 
#
# 1 0.010168 -0.002858 -0.004276 0.000000 -0.000433 0.000000
# 2 -0.002858 0.010762 -0.003469 0.000000 0.002196 0.000000
# 3 -0.004276 -0.003469 0.011334 0.000000 -0.003756 0.000000
# 4 0.000000 0.000000 0.000000 0.042378 0.000000 0.007549
# 5 -0.000433 0.002196 -0.003756 0.000000 0.041062 0.000000
# 6 0.000000 0.000000 0.000000 0.007549 0.000000 0.046580
#
#
# Mechanical properties :
#
#
# Convention : Reuss Voigt Hill
#
# Bulk Modulus (GPa) = 90.43668 92.04174 91.23921
# Shear Modulus (GPa) = 26.71290 28.70082 27.70686
#
# Velocity S-wave (km/s) = 3.77816 3.91622 3.84781
# Velocity P-wave (km/s) = 8.20726 8.34465 8.27624
#
# Compressibility (1/GPa) = 0.01105746
#
# Stress axis : x y z
#
# Youngs Moduli (GPa) = 98.35090 92.91951 88.22824
#
# Poissons Ratio (x) = 0.26559 0.37728
# Poissons Ratio (y) = 0.28111 0.30604
# Poissons Ratio (z) = 0.42057 0.32232
#
# Static dielectric constant tensor:
#      x y z
#    x 3.495120 0.000000 0.152080 
#    y 0.000000 3.637850 0.000000 
#    z 0.152080 0.000000 3.410340 
# 
# 
# High freq. dielectric constant tensor:
#      x y z
#    x 1.727650 0.000000 0.007800 
#    y 0.000000 1.735030 0.000000 
#    z 0.007800 0.000000 1.723290 
# 
# From -- ./inp_files/41770.got.cif
#   From: 2010.03.12/outbox.cif.g09.slc.cpg/sg14_21_cif.got.tgz:41770.got - 2010.03.31 13:35:05.
