data_PCOD8124369
_publ_section_title
;
Structure prediction by ZEFSAII (Michael W. Deem and Ramdas Pophale) SiO2 
 PCOD8124369
Probable space group: P 21/C
;
_chemical_formula_sum "Si O2"
_cell_formula_units_Z 32
_cell_length_a 13.798590
_cell_length_b 17.962319
_cell_length_c 17.208040
_cell_angle_alpha 90.000000
_cell_angle_beta 160.579470
_cell_angle_gamma 90.000000
_cell_volume 1418.139565
_symmetry_space_group_name_H-M "P 21/C"
_symmetry_group_IT_number 14
_symmetry_cell_setting 'monoclinic'
loop_
_space_group_symop_operation_xyz
x,y,z
-x,1/2+y,1/2-z
-x,-y,-z
x,1/2-y,1/2+z
loop_
_atom_site_type_symbol
_atom_site_label
_atom_site_fract_x
_atom_site_fract_y
_atom_site_fract_z
Si Si1 0.494409 0.261438 0.456077
Si Si2 0.071170 0.029305 0.225492
Si Si3 0.437965 0.073522 0.202593
Si Si4 0.879589 0.958771 0.291540
Si Si5 0.457372 0.096457 0.391378
Si Si6 0.137600 0.358242 0.084097
Si Si7 0.965873 0.387109 0.801457
Si Si8 0.548204 0.650917 0.434964
O O1 0.583736 0.176409 0.512986
O O2 0.759209 0.316028 0.632866
O O3 0.380576 0.274997 0.459520
O O4 0.239978 0.281823 0.201869
O O5 0.178780 0.075418 0.232383
O O6 0.084017 0.085732 0.308068
O O7 0.282468 0.960826 0.401998
O O8 0.750375 0.998181 0.965704
O O9 0.772054 0.048682 0.451257
O O10 0.346946 0.099332 0.219452
O O11 0.379154 0.146154 0.102121
O O12 0.764865 0.928528 0.288453
O O13 0.738387 0.915030 0.114233
O O14 0.789066 0.044597 0.210097
O O15 0.232012 0.366606 0.064031
O O16 0.793104 0.358908 0.814543
#
# Coordination Sequence:
#
# PCOD8124369 Si02
#       8
#     4   4   4   4   4   4   4   4
#     4  10  24  42  62  96 139 171 209 272 337 399
#     4  11  25  45  71  93 125 177 231 276 314 381
#     4  11  20  40  70  94 122 172 229 272 319 382
#     4  10  19  36  64  96 132 165 218 269 323 392
#     4  11  25  48  66  92 131 175 227 275 320 383
#     4   9  21  35  62  95 136 173 206 263 333 398
#     4  11  21  39  64  99 132 168 216 270 336 387
#     4   9  19  39  63  96 134 170 210 266 334 387
#
# _framework density 22.564774
#
# number of rings (size 3 to 8) (size 9 to 14) (size 15 to 20)
#    0.000    1.750    2.500    0.750    1.750    6.500 
#   11.250    0.000    0.000    0.000    0.000    0.000 
#    0.000    0.000    0.000    0.000    0.000    0.000 
#
# Total GULP energy -396426.331359 kJ/mol
# GULP energy per Si atom -12388.322855 kJ/mol
# Density = 2.251342 g / cm^3
# Si number density = 22.564774 Si / 1000 Ang^3
#
#
#
# Elastic Constant Matrix: (Units=GPa)
#
#
# Indices 1 2 3 4 5 6 
#
# 1 173.4713 62.7874 47.6524 0.0000 -36.6557 0.0000
# 2 62.7874 113.0290 27.6105 0.0000 -9.9527 0.0000
# 3 47.6524 27.6105 96.9677 0.0000 -16.6074 0.0000
# 4 0.0000 0.0000 0.0000 17.3697 0.0000 1.8932
# 5 -36.6557 -9.9527 -16.6074 0.0000 39.6480 0.0000
# 6 0.0000 0.0000 0.0000 1.8932 0.0000 16.1168
#
#
#
# Elastic Compliance Matrix: (Units=1/GPa)
#
#
# Indices 1 2 3 4 5 6 
#
# 1 0.009221 -0.003989 -0.002270 0.000000 0.006573 0.000000
# 2 -0.003989 0.011302 -0.001512 0.000000 -0.001484 0.000000
# 3 -0.002270 -0.001512 0.012318 0.000000 0.002682 0.000000
# 4 0.000000 0.000000 0.000000 0.058318 0.000000 -0.006851
# 5 0.006573 -0.001484 0.002682 0.000000 0.032049 0.000000
# 6 0.000000 0.000000 0.000000 -0.006851 0.000000 0.062852
#
#
# Mechanical properties :
#
#
# Convention : Reuss Voigt Hill
#
# Bulk Modulus (GPa) = 57.80651 73.28537 65.54594
# Shear Modulus (GPa) = 24.11176 30.98808 27.54992
#
# Velocity S-wave (km/s) = 3.27243 3.70982 3.49797
# Velocity P-wave (km/s) = 6.32076 7.13433 6.73983
#
# Compressibility (1/GPa) = 0.01729909
#
# Stress axis : x y z
#
# Youngs Moduli (GPa) = 108.45023 88.48164 81.18228
#
# Poissons Ratio (x) = 0.35295 0.18427
# Poissons Ratio (y) = 0.43260 0.12275
# Poissons Ratio (z) = 0.24616 0.13378
#
# Static dielectric constant tensor:
#      x y z
#    x 4.594970 0.000000 -0.565540 
#    y 0.000000 3.795170 0.000000 
#    z -0.565540 0.000000 4.290000 
# 
# 
# High freq. dielectric constant tensor:
#      x y z
#    x 1.893510 0.000000 -0.030740 
#    y 0.000000 1.863290 0.000000 
#    z -0.030740 0.000000 1.895340 
# 
# From -- ./inp_files/59724.got.cif
#   From: 2010.03.12/outbox.cif.g09.slc.cpg/sg14_30_cif.got.tgz:59724.got - 2010.03.31 13:35:05.
