data_PCOD8124495
_publ_section_title
;
Structure prediction by ZEFSAII (Michael W. Deem and Ramdas Pophale) SiO2 
 PCOD8124495
Probable space group: P 21/C
;
_chemical_formula_sum "Si O2"
_cell_formula_units_Z 32
_cell_length_a 5.567848
_cell_length_b 20.902772
_cell_length_c 13.592152
_cell_angle_alpha 90.000000
_cell_angle_beta 94.958753
_cell_angle_gamma 90.000000
_cell_volume 1575.980873
_symmetry_space_group_name_H-M "P 21/C"
_symmetry_group_IT_number 14
_symmetry_cell_setting 'monoclinic'
loop_
_space_group_symop_operation_xyz
x,y,z
-x,1/2+y,1/2-z
-x,-y,-z
x,1/2-y,1/2+z
loop_
_atom_site_type_symbol
_atom_site_label
_atom_site_fract_x
_atom_site_fract_y
_atom_site_fract_z
Si Si1 0.707615 0.290994 0.603712
Si Si2 0.444573 0.558518 0.795167
Si Si3 0.544768 0.702764 0.769862
Si Si4 0.008624 0.106849 0.028995
Si Si5 0.299035 0.211138 0.944865
Si Si6 0.936755 0.690467 0.943615
Si Si7 0.026842 0.047202 0.590943
Si Si8 0.677544 0.493734 0.416483
O O1 0.623631 0.263450 0.706484
O O2 0.879231 0.353553 0.613540
O O3 0.487558 0.314787 0.530751
O O4 0.818399 0.230289 0.550798
O O5 0.415883 0.635088 0.786077
O O6 0.704905 0.539649 0.851946
O O7 0.454321 0.525117 0.689068
O O8 0.201937 0.535193 0.843962
O O9 0.593692 0.711236 0.658265
O O10 0.794894 0.705236 0.837496
O O11 0.858528 0.061894 0.951902
O O12 0.200235 0.063179 0.093456
O O13 0.092164 0.158334 0.950354
O O14 0.216032 0.283364 0.968643
O O15 0.995487 0.616712 0.958955
O O16 0.000000 0.000000 0.500000
O O17 0.500000 0.500000 0.500000
#
# Coordination Sequence:
#
# PCOD8124495 Si02
#       8
#     4   4   4   4   4   4   4   4
#     4  10  19  38  59  89 124 163 204 271 320 388
#     4  11  24  41  72  97 126 177 231 267 333 398
#     4  10  20  36  64  92 121 159 224 264 316 389
#     4  10  22  37  63  88 137 166 207 261 343 386
#     4  10  21  38  62  93 121 170 209 265 330 394
#     4   9  21  38  62  87 128 161 211 265 327 374
#     4  11  24  46  69  96 130 176 230 282 322 383
#     4  11  24  40  63  96 134 172 213 273 331 412
#
# _framework density 20.304815000000001
#
# number of rings (size 3 to 8) (size 9 to 14) (size 15 to 20)
#    0.000    1.750    1.250    2.625    7.000    2.000 
#    0.000    6.250    0.000    0.000    0.000    0.000 
#    0.000    0.000    0.000    0.000    0.000    0.000 
#
# Total GULP energy -396543.277642 kJ/mol
# GULP energy per Si atom -12391.977426 kJ/mol
# Density = 2.025860 g / cm^3
# Si number density = 20.304815 Si / 1000 Ang^3
#
#
#
# Elastic Constant Matrix: (Units=GPa)
#
#
# Indices 1 2 3 4 5 6 
#
# 1 103.1019 37.7364 43.6948 0.0000 -15.0744 0.0000
# 2 37.7364 120.0432 55.9560 0.0000 -4.7341 0.0000
# 3 43.6948 55.9560 119.5456 0.0000 -18.7801 0.0000
# 4 0.0000 0.0000 0.0000 21.8061 0.0000 -8.2761
# 5 -15.0744 -4.7341 -18.7801 0.0000 28.7106 0.0000
# 6 0.0000 0.0000 0.0000 -8.2761 0.0000 24.7168
#
#
#
# Elastic Compliance Matrix: (Units=1/GPa)
#
#
# Indices 1 2 3 4 5 6 
#
# 1 0.012374 -0.002466 -0.002688 0.000000 0.004332 0.000000
# 2 -0.002466 0.011220 -0.004751 0.000000 -0.002553 0.000000
# 3 -0.002688 -0.004751 0.012512 0.000000 0.005990 0.000000
# 4 0.000000 0.000000 0.000000 0.052535 0.000000 0.017591
# 5 0.004332 -0.002553 0.005990 0.000000 0.040602 0.000000
# 6 0.000000 0.000000 0.000000 0.017591 0.000000 0.046348
#
#
# Mechanical properties :
#
#
# Convention : Reuss Voigt Hill
#
# Bulk Modulus (GPa) = 61.36624 68.60725 64.98674
# Shear Modulus (GPa) = 24.89614 28.73360 26.81487
#
# Velocity S-wave (km/s) = 3.50540 3.76588 3.63797
# Velocity P-wave (km/s) = 6.83168 7.26437 7.05135
#
# Compressibility (1/GPa) = 0.01629561
#
# Stress axis : x y z
#
# Youngs Moduli (GPa) = 80.81221 89.12973 79.92090
#
# Poissons Ratio (x) = 0.21981 0.21483
# Poissons Ratio (y) = 0.19929 0.37972
# Poissons Ratio (z) = 0.21722 0.42347
#
# Static dielectric constant tensor:
#      x y z
#    x 3.929660 0.000000 -0.108840 
#    y 0.000000 4.348420 0.000000 
#    z -0.108840 0.000000 3.418360 
# 
# 
# High freq. dielectric constant tensor:
#      x y z
#    x 1.809610 0.000000 -0.008620 
#    y 0.000000 1.801130 0.000000 
#    z -0.008620 0.000000 1.769750 
# 
# From -- ./inp_files/21791.got.cif
#   From: 2010.03.12/outbox.cif.g09.slc.cpg/sg14_11_cif.got.tgz:21791.got - 2010.03.31 13:35:05.
