data_PCOD8124742
_publ_section_title
;
Structure prediction by ZEFSAII (Michael W. Deem and Ramdas Pophale) SiO2 
 PCOD8124742
Probable space group: P 21/C
;
_chemical_formula_sum "Si O2"
_cell_formula_units_Z 24
_cell_length_a 17.239438
_cell_length_b 8.965200
_cell_length_c 23.427139
_cell_angle_alpha 90.000000
_cell_angle_beta 19.339198
_cell_angle_gamma 90.000000
_cell_volume 1199.058072
_symmetry_space_group_name_H-M "P 21/C"
_symmetry_group_IT_number 14
_symmetry_cell_setting 'monoclinic'
loop_
_space_group_symop_operation_xyz
x,y,z
-x,1/2+y,1/2-z
-x,-y,-z
x,1/2-y,1/2+z
loop_
_atom_site_type_symbol
_atom_site_label
_atom_site_fract_x
_atom_site_fract_y
_atom_site_fract_z
Si Si1 0.847330 0.940856 0.868489
Si Si2 0.354994 0.233888 0.782513
Si Si3 0.538044 0.348570 0.440422
Si Si4 0.124164 0.848638 0.397326
Si Si5 0.515866 0.559276 0.699902
Si Si6 0.305130 0.766266 0.557406
O O1 0.118182 0.897246 0.678559
O O2 0.822489 0.107428 0.861202
O O3 0.696056 0.823975 0.934887
O O4 0.754565 0.934549 0.997711
O O5 0.412286 0.392689 0.771438
O O6 0.431200 0.102897 0.772091
O O7 0.486972 0.211208 0.631543
O O8 0.075383 0.220590 0.964181
O O9 0.500000 0.500000 0.500000
O O10 0.763820 0.362073 0.243115
O O11 0.582641 0.220614 0.456876
O O12 0.327745 0.823835 0.303149
O O13 0.000000 0.000000 0.500000
#
# Coordination Sequence:
#
# PCOD8124742 Si02
#       6
#     4   4   4   4   4   4
#     4   9  19  34  51  74 101 129 164 205 247 293
#     4  10  20  33  52  77 101 130 168 206 248 297
#     4   9  17  31  51  73  99 131 167 205 245 294
#     4   9  17  31  51  73  99 131 167 205 245 294
#     4   9  19  34  51  74 101 129 164 205 247 293
#     4  10  20  33  52  77 101 130 168 206 248 297
#
# _framework density 20.015712000000001
#
# number of rings (size 3 to 8) (size 9 to 14) (size 15 to 20)
#    0.000    2.667    0.000    4.000    0.000    8.000 
#    0.000    1.667    0.000    0.000    0.000    0.000 
#    0.000    0.000    0.000    0.000    0.000    0.000 
#
# Total GULP energy -297475.568245 kJ/mol
# GULP energy per Si atom -12394.815344 kJ/mol
# Density = 1.997016 g / cm^3
# Si number density = 20.015712 Si / 1000 Ang^3
#
#
#
# Elastic Constant Matrix: (Units=GPa)
#
#
# Indices 1 2 3 4 5 6 
#
# 1 43.3348 -7.8853 -8.1030 0.0000 22.9377 0.0000
# 2 -7.8853 14.5329 -1.5550 0.0000 5.5374 0.0000
# 3 -8.1030 -1.5550 82.2306 0.0000 11.4061 0.0000
# 4 0.0000 0.0000 0.0000 26.3507 0.0000 -0.0585
# 5 22.9377 5.5374 11.4061 0.0000 28.5327 0.0000
# 6 0.0000 0.0000 0.0000 -0.0585 0.0000 26.3797
#
#
#
# Elastic Compliance Matrix: (Units=1/GPa)
#
#
# Indices 1 2 3 4 5 6 
#
# 1 0.125336 0.124387 0.033907 0.000000 -0.138454 0.000000
# 2 0.124387 0.198774 0.037306 0.000000 -0.153486 0.000000
# 3 0.033907 0.037306 0.022225 0.000000 -0.043383 0.000000
# 4 0.000000 0.000000 0.000000 0.037950 0.000000 0.000084
# 5 -0.138454 -0.153486 -0.043383 0.000000 0.193482 0.000000
# 6 0.000000 0.000000 0.000000 0.000084 0.000000 0.037908
#
#
# Mechanical properties :
#
#
# Convention : Reuss Voigt Hill
#
# Bulk Modulus (GPa) = 1.35587 11.66796 6.51191
# Shear Modulus (GPa) = 10.63109 26.76205 18.69657
#
# Velocity S-wave (km/s) = 2.30714 3.66054 3.05961
# Velocity P-wave (km/s) = 2.78856 4.86910 3.96763
#
# Compressibility (1/GPa) = 0.73753602
#
# Stress axis : x y z
#
# Youngs Moduli (GPa) = 7.97858 5.03085 44.99381
#
# Poissons Ratio (x) = -0.62577 -1.52563
# Poissons Ratio (y) = -0.99243 -1.67853
# Poissons Ratio (z) = -0.27053 -0.18768
#
# Static dielectric constant tensor:
#      x y z
#    x 4.376570 0.000000 -0.371610 
#    y 0.000000 3.180520 0.000000 
#    z -0.371610 0.000000 3.966900 
# 
# 
# High freq. dielectric constant tensor:
#      x y z
#    x 1.787700 0.000000 0.002930 
#    y 0.000000 1.734190 0.000000 
#    z 0.002930 0.000000 1.790850 
# 
# From -- ./inp_files/32136.got.cif
#   From: 2010.03.12/outbox.cif.g09.slc.cpg/sg14_17_cif.got.tgz:32136.got - 2010.03.31 13:35:05.
