data_PCOD8124243
_publ_section_title
;
Structure prediction by ZEFSAII (Michael W. Deem and Ramdas Pophale) SiO2 
 PCOD8124243
Probable space group: P 21/C
;
_chemical_formula_sum "Si O2"
_cell_formula_units_Z 32
_cell_length_a 5.271796
_cell_length_b 29.499524
_cell_length_c 9.688808
_cell_angle_alpha 90.000000
_cell_angle_beta 101.582686
_cell_angle_gamma 90.000000
_cell_volume 1476.075855
_symmetry_space_group_name_H-M "P 21/C"
_symmetry_group_IT_number 14
_symmetry_cell_setting 'monoclinic'
loop_
_space_group_symop_operation_xyz
x,y,z
-x,1/2+y,1/2-z
-x,-y,-z
x,1/2-y,1/2+z
loop_
_atom_site_type_symbol
_atom_site_label
_atom_site_fract_x
_atom_site_fract_y
_atom_site_fract_z
Si Si1 0.073646 0.315073 0.686453
Si Si2 0.148179 0.646881 0.597432
Si Si3 0.720329 0.049461 0.406627
Si Si4 0.207191 0.282877 0.168403
Si Si5 0.718897 0.551283 0.911666
Si Si6 0.324149 0.376534 0.329029
Si Si7 0.679858 0.184156 0.587054
Si Si8 0.607016 0.359646 0.798924
O O1 0.182942 0.265683 0.741795
O O2 0.322053 0.348025 0.712624
O O3 0.956742 0.314639 0.517914
O O4 0.841245 0.330587 0.760409
O O5 0.402206 0.622645 0.557612
O O6 0.264744 0.663799 0.755694
O O7 0.917090 0.610243 0.598419
O O8 0.503404 0.052246 0.499745
O O9 0.655436 0.086578 0.281332
O O10 0.001740 0.062449 0.495670
O O11 0.725113 0.998869 0.342527
O O12 0.250874 0.324250 0.279641
O O13 0.435733 0.281761 0.079352
O O14 0.932058 0.289318 0.060819
O O15 0.653474 0.589891 0.795653
O O16 0.605660 0.146931 0.465517
#
# Coordination Sequence:
#
# PCOD8124243 Si02
#       8
#     4   4   4   4   4   4   4   4
#     4  12  26  40  58  86 127 167 200 245 309 359
#     4  10  22  39  58  82 117 163 204 239 289 359
#     4  10  20  35  60  93 128 152 190 252 319 366
#     4  10  21  37  58  87 118 155 202 249 295 351
#     4  10  19  35  62  96 121 152 196 254 311 360
#     4  10  19  36  60  84 114 153 206 249 289 352
#     4  10  21  37  62  84 112 153 205 252 289 347
#     4  12  24  41  62  92 125 158 199 255 311 356
#
# _framework density 21.679103000000001
#
# number of rings (size 3 to 8) (size 9 to 14) (size 15 to 20)
#    0.000    1.500    0.000    6.750    0.000    6.000 
#    0.000    0.000    0.000    4.500    0.000    0.000 
#    0.000    0.000    0.000    0.000    0.000    0.000 
#
# Total GULP energy -396429.161927 kJ/mol
# GULP energy per Si atom -12388.411310 kJ/mol
# Density = 2.162976 g / cm^3
# Si number density = 21.679103 Si / 1000 Ang^3
#
#
#
# Elastic Constant Matrix: (Units=GPa)
#
#
# Indices 1 2 3 4 5 6 
#
# 1 203.0422 20.2146 21.2571 0.0000 20.9179 0.0000
# 2 20.2146 105.5450 32.0474 0.0000 12.9600 0.0000
# 3 21.2571 32.0474 62.0397 0.0000 7.1131 0.0000
# 4 0.0000 0.0000 0.0000 21.0137 0.0000 0.1518
# 5 20.9179 12.9600 7.1131 0.0000 28.7130 0.0000
# 6 0.0000 0.0000 0.0000 0.1518 0.0000 28.8480
#
#
#
# Elastic Compliance Matrix: (Units=1/GPa)
#
#
# Indices 1 2 3 4 5 6 
#
# 1 0.005452 -0.000196 -0.001360 0.000000 -0.003547 0.000000
# 2 -0.000196 0.011648 -0.005520 0.000000 -0.003748 0.000000
# 3 -0.001360 -0.005520 0.019594 0.000000 -0.001371 0.000000
# 4 0.000000 0.000000 0.000000 0.047590 0.000000 -0.000250
# 5 -0.003547 -0.003748 -0.001371 0.000000 0.039443 0.000000
# 6 0.000000 0.000000 0.000000 -0.000250 0.000000 0.034666
#
#
# Mechanical properties :
#
#
# Convention : Reuss Voigt Hill
#
# Bulk Modulus (GPa) = 44.36274 57.51835 50.94054
# Shear Modulus (GPa) = 27.76856 35.52212 31.64534
#
# Velocity S-wave (km/s) = 3.58284 4.05228 3.82477
# Velocity P-wave (km/s) = 6.13379 6.96304 6.56153
#
# Compressibility (1/GPa) = 0.02254144
#
# Stress axis : x y z
#
# Youngs Moduli (GPa) = 183.40558 85.84803 51.03671
#
# Poissons Ratio (x) = 0.01680 0.06943
# Poissons Ratio (y) = 0.03589 0.28175
# Poissons Ratio (z) = 0.24952 0.47392
#
# Static dielectric constant tensor:
#      x y z
#    x 5.396000 0.000000 0.075740 
#    y 0.000000 3.937730 0.000000 
#    z 0.075740 0.000000 3.533480 
# 
# 
# High freq. dielectric constant tensor:
#      x y z
#    x 1.902400 0.000000 0.007600 
#    y 0.000000 1.827290 0.000000 
#    z 0.007600 0.000000 1.812300 
# 
# From -- ./inp_files/6992.got.cif
#   From: 2010.03.12/outbox.cif.g09.slc.cpg/sg14_4_cif.got.tgz:6992.got - 2010.03.31 13:35:05.
