data_PCOD8124981
_publ_section_title
;
Structure prediction by ZEFSAII (Michael W. Deem and Ramdas Pophale) SiO2 
 PCOD8124981
Probable space group: P 21/C
;
_chemical_formula_sum "Si O2"
_cell_formula_units_Z 32
_cell_length_a 14.695555
_cell_length_b 9.379513
_cell_length_c 12.074823
_cell_angle_alpha 90.000000
_cell_angle_beta 72.945807
_cell_angle_gamma 90.000000
_cell_volume 1591.173627
_symmetry_space_group_name_H-M "P 21/C"
_symmetry_group_IT_number 14
_symmetry_cell_setting 'monoclinic'
loop_
_space_group_symop_operation_xyz
x,y,z
-x,1/2+y,1/2-z
-x,-y,-z
x,1/2-y,1/2+z
loop_
_atom_site_type_symbol
_atom_site_label
_atom_site_fract_x
_atom_site_fract_y
_atom_site_fract_z
Si Si1 0.000475 0.093419 0.388629
Si Si2 0.353552 0.084845 0.063439
Si Si3 0.461123 0.596959 0.361921
Si Si4 0.081172 0.396949 0.437449
Si Si5 0.636395 0.603106 0.975631
Si Si6 0.480005 0.910216 0.347714
Si Si7 0.162063 0.456083 0.183513
Si Si8 0.146983 0.129508 0.155722
O O1 0.030531 0.251297 0.415059
O O2 0.073535 0.045686 0.263362
O O3 0.000000 0.000000 0.500000
O O4 0.896583 0.072569 0.368555
O O5 0.431582 0.094553 0.131113
O O6 0.345821 0.232753 0.995567
O O7 0.250166 0.069506 0.157533
O O8 0.380915 0.948992 0.978819
O O9 0.438972 0.755857 0.325488
O O10 0.454628 0.480452 0.268503
O O11 0.145444 0.474451 0.320941
O O12 0.144179 0.390334 0.524903
O O13 0.000000 0.500000 0.500000
O O14 0.544653 0.608704 0.931205
O O15 0.726444 0.529118 0.884329
O O16 0.610367 0.511432 0.093382
O O17 0.126860 0.296726 0.173244
#
# Coordination Sequence:
#
# PCOD8124981 Si02
#       8
#     4   4   4   4   4   4   4   4
#     4  11  22  39  62  88 120 155 199 251 299 355
#     4   9  20  38  60  82 111 151 199 243 287 351
#     4  10  20  36  59  86 116 155 190 242 299 349
#     4  11  22  39  63  85 120 158 198 246 303 354
#     4   9  20  38  58  82 112 153 195 242 289 354
#     4  10  20  36  57  85 118 151 193 239 295 354
#     4  10  21  39  60  89 116 155 204 248 300 360
#     4  10  21  39  63  89 115 156 206 246 297 365
#
# _framework density 20.110942000000001
#
# number of rings (size 3 to 8) (size 9 to 14) (size 15 to 20)
#    0.000    2.000    2.500    0.750    1.750    2.000 
#    6.750    0.000    0.000    0.000    0.000    0.000 
#    0.000    0.000    0.000    0.000    0.000    0.000 
#
# Total GULP energy -396443.567143 kJ/mol
# GULP energy per Si atom -12388.861473 kJ/mol
# Density = 2.006517 g / cm^3
# Si number density = 20.110942 Si / 1000 Ang^3
#
#
#
# Elastic Constant Matrix: (Units=GPa)
#
#
# Indices 1 2 3 4 5 6 
#
# 1 63.8180 12.3195 19.4958 0.0000 -18.8352 0.0000
# 2 12.3195 80.4313 21.1369 0.0000 -5.0003 0.0000
# 3 19.4958 21.1369 98.6091 0.0000 -1.7132 0.0000
# 4 0.0000 0.0000 0.0000 34.1147 0.0000 -3.5622
# 5 -18.8352 -5.0003 -1.7132 0.0000 30.9328 0.0000
# 6 0.0000 0.0000 0.0000 -3.5622 0.0000 23.7169
#
#
#
# Elastic Compliance Matrix: (Units=1/GPa)
#
#
# Indices 1 2 3 4 5 6 
#
# 1 0.020614 -0.001471 -0.003550 0.000000 0.012118 0.000000
# 2 -0.001471 0.013402 -0.002562 0.000000 0.001129 0.000000
# 3 -0.003550 -0.002562 0.011358 0.000000 -0.001947 0.000000
# 4 0.000000 0.000000 0.000000 0.029780 0.000000 0.004473
# 5 0.012118 0.001129 -0.001947 0.000000 0.039781 0.000000
# 6 0.000000 0.000000 0.000000 0.004473 0.000000 0.042836
#
#
# Mechanical properties :
#
#
# Convention : Reuss Voigt Hill
#
# Bulk Modulus (GPa) = 33.10370 38.75142 35.92756
# Shear Modulus (GPa) = 27.32129 30.41329 28.86729
#
# Velocity S-wave (km/s) = 3.68982 3.89302 3.79278
# Velocity P-wave (km/s) = 5.88637 6.28634 6.08964
#
# Compressibility (1/GPa) = 0.03020811
#
# Stress axis : x y z
#
# Youngs Moduli (GPa) = 48.50966 74.61677 88.04173
#
# Poissons Ratio (x) = 0.10978 0.31253
# Poissons Ratio (y) = 0.07137 0.22558
# Poissons Ratio (z) = 0.17220 0.19118
#
# Static dielectric constant tensor:
#      x y z
#    x 3.496700 0.000000 -0.173550 
#    y 0.000000 3.753590 0.000000 
#    z -0.173550 0.000000 3.633030 
# 
# 
# High freq. dielectric constant tensor:
#      x y z
#    x 1.771760 0.000000 -0.009000 
#    y 0.000000 1.775360 0.000000 
#    z -0.009000 0.000000 1.793360 
# 
# From -- ./inp_files/31812.got.cif
#   From: 2010.03.12/outbox.cif.g09.slc.cpg/sg14_16_cif.got.tgz:31812.got - 2010.03.31 13:35:05.
