data_PCOD8124366
_publ_section_title
;
Structure prediction by ZEFSAII (Michael W. Deem and Ramdas Pophale) SiO2 
 PCOD8124366
Probable space group: P 21/C
;
_chemical_formula_sum "Si O2"
_cell_formula_units_Z 28
_cell_length_a 9.520822
_cell_length_b 7.757536
_cell_length_c 18.671311
_cell_angle_alpha 90.000000
_cell_angle_beta 110.159885
_cell_angle_gamma 90.000000
_cell_volume 1294.541151
_symmetry_space_group_name_H-M "P 21/C"
_symmetry_group_IT_number 14
_symmetry_cell_setting 'monoclinic'
loop_
_space_group_symop_operation_xyz
x,y,z
-x,1/2+y,1/2-z
-x,-y,-z
x,1/2-y,1/2+z
loop_
_atom_site_type_symbol
_atom_site_label
_atom_site_fract_x
_atom_site_fract_y
_atom_site_fract_z
Si Si1 0.462752 0.204894 0.057836
Si Si2 0.562444 0.171042 0.922355
Si Si3 0.694500 0.517611 0.774272
Si Si4 0.834590 0.129992 0.432726
Si Si5 0.267878 0.320772 0.816218
Si Si6 0.840830 0.647100 0.048398
Si Si7 0.601574 0.356271 0.212708
O O1 0.522112 0.352953 0.120486
O O2 0.475332 0.025978 0.103744
O O3 0.574079 0.195139 0.010000
O O4 0.291134 0.230102 0.003140
O O5 0.717783 0.213909 0.910975
O O6 0.437770 0.299720 0.872085
O O7 0.789479 0.511966 0.864536
O O8 0.782696 0.648075 0.735892
O O9 0.528470 0.600704 0.753065
O O10 0.685293 0.322449 0.743671
O O11 0.995903 0.215814 0.446284
O O12 0.826162 0.041459 0.509661
O O13 0.161273 0.357569 0.865443
O O14 0.273658 0.491434 0.766861
#
# Coordination Sequence:
#
# PCOD8124366 Si02
#       7
#     4   4   4   4   4   4   4
#     4  10  20  35  63  95 122 154 210 262 312 362
#     4  10  19  36  64  94 118 156 208 264 306 373
#     4  12  23  37  62  96 126 162 212 262 316 377
#     4  11  22  41  63  88 128 170 217 253 314 384
#     4  11  22  41  65  92 129 160 211 266 319 366
#     4  10  23  42  63  89 126 172 210 260 311 375
#     4  12  21  36  63  96 119 163 205 266 313 366
#
# _framework density 21.629284999999999
#
# number of rings (size 3 to 8) (size 9 to 14) (size 15 to 20)
#    0.000    1.143    5.714    0.857    0.000    2.857 
#    2.571    0.000    0.000    0.000    0.000    0.000 
#    0.000    0.000    0.000    0.000    0.000    0.000 
#
# Total GULP energy -347182.036684 kJ/mol
# GULP energy per Si atom -12399.358453 kJ/mol
# Density = 2.158006 g / cm^3
# Si number density = 21.629285 Si / 1000 Ang^3
#
#
#
# Elastic Constant Matrix: (Units=GPa)
#
#
# Indices 1 2 3 4 5 6 
#
# 1 95.7181 29.9940 14.8186 0.0000 -9.4484 0.0000
# 2 29.9940 119.5995 28.3523 0.0000 -15.3838 0.0000
# 3 14.8186 28.3523 65.7381 0.0000 -19.7759 0.0000
# 4 0.0000 0.0000 0.0000 34.0343 0.0000 -5.8226
# 5 -9.4484 -15.3838 -19.7759 0.0000 32.0500 0.0000
# 6 0.0000 0.0000 0.0000 -5.8226 0.0000 23.4372
#
#
#
# Elastic Compliance Matrix: (Units=1/GPa)
#
#
# Indices 1 2 3 4 5 6 
#
# 1 0.011532 -0.002435 -0.001078 0.000000 0.001565 0.000000
# 2 -0.002435 0.009986 -0.003109 0.000000 0.002157 0.000000
# 3 -0.001078 -0.003109 0.019956 0.000000 0.010503 0.000000
# 4 0.000000 0.000000 0.000000 0.030686 0.000000 0.007624
# 5 0.001565 0.002157 0.010503 0.000000 0.039179 0.000000
# 6 0.000000 0.000000 0.000000 0.007624 0.000000 0.044561
#
#
# Mechanical properties :
#
#
# Convention : Reuss Voigt Hill
#
# Bulk Modulus (GPa) = 35.42519 47.48727 41.45623
# Shear Modulus (GPa) = 28.00259 31.76369 29.88314
#
# Velocity S-wave (km/s) = 3.60204 3.83632 3.72103
# Velocity P-wave (km/s) = 5.80633 6.45182 6.13757
#
# Compressibility (1/GPa) = 0.02822850
#
# Stress axis : x y z
#
# Youngs Moduli (GPa) = 86.71631 100.13556 50.11142
#
# Poissons Ratio (x) = 0.24384 0.05404
# Poissons Ratio (y) = 0.21116 0.15581
# Poissons Ratio (z) = 0.09351 0.31135
#
# Static dielectric constant tensor:
#      x y z
#    x 3.710200 0.000000 -0.259270 
#    y 0.000000 3.755040 0.000000 
#    z -0.259270 0.000000 3.981250 
# 
# 
# High freq. dielectric constant tensor:
#      x y z
#    x 1.823140 0.000000 -0.023920 
#    y 0.000000 1.845650 0.000000 
#    z -0.023920 0.000000 1.853650 
# 
# From -- ./inp_files/64598.got.cif
#   From: 2010.03.12/outbox.cif.g09.slc.cpg/sg14_33_cif.got.tgz:64598.got - 2010.03.31 13:35:05.
