data_PCOD8124548
_publ_section_title
;
Structure prediction by ZEFSAII (Michael W. Deem and Ramdas Pophale) SiO2 
 PCOD8124548
Probable space group: P 21/C
;
_chemical_formula_sum "Si O2"
_cell_formula_units_Z 28
_cell_length_a 16.655590
_cell_length_b 5.028501
_cell_length_c 29.222810
_cell_angle_alpha 90.000000
_cell_angle_beta 149.624519
_cell_angle_gamma 90.000000
_cell_volume 1237.607982
_symmetry_space_group_name_H-M "P 21/C"
_symmetry_group_IT_number 14
_symmetry_cell_setting 'monoclinic'
loop_
_space_group_symop_operation_xyz
x,y,z
-x,1/2+y,1/2-z
-x,-y,-z
x,1/2-y,1/2+z
loop_
_atom_site_type_symbol
_atom_site_label
_atom_site_fract_x
_atom_site_fract_y
_atom_site_fract_z
Si Si1 0.709884 0.570851 0.248241
Si Si2 0.504252 0.368641 0.221596
Si Si3 0.985581 0.872966 0.352141
Si Si4 0.911045 0.202959 0.691171
Si Si5 0.720363 0.867800 0.470895
Si Si6 0.555112 0.357522 0.420621
Si Si7 0.304017 0.667442 0.338497
O O1 0.667475 0.398878 0.272294
O O2 0.663984 0.418222 0.178618
O O3 0.895903 0.655674 0.340115
O O4 0.588939 0.825491 0.187913
O O5 0.499338 0.071744 0.238212
O O6 0.350251 0.423181 0.114074
O O7 0.849258 0.023365 0.257695
O O8 0.098144 0.739975 0.368084
O O9 0.090646 0.070410 0.435383
O O10 0.739712 0.250866 0.630878
O O11 0.044399 0.396562 0.777824
O O12 0.638954 0.070998 0.467641
O O13 0.688257 0.563493 0.468374
O O14 0.461676 0.480305 0.418598
#
# Coordination Sequence:
#
# PCOD8124548 Si02
#       7
#     4   4   4   4   4   4   4
#     4  10  20  40  66  89 118 162 208 238 303 368
#     4  11  23  41  65  88 113 157 210 249 297 374
#     4  10  23  37  63  94 127 160 195 254 306 349
#     4  10  20  35  57  92 123 160 207 243 282 353
#     4  11  23  40  62  91 125 156 197 253 318 351
#     4  10  20  37  62  84 119 168 200 238 292 369
#     4  10  19  38  65  89 119 166 212 240 281 367
#
# _framework density 22.624289000000001
#
# number of rings (size 3 to 8) (size 9 to 14) (size 15 to 20)
#    0.000    1.714    4.286    1.714    4.000    0.000 
#    0.000    2.857    0.000    0.000    0.000    0.000 
#    0.000    0.000    0.000    0.000    0.000    0.000 
#
# Total GULP energy -346878.416493 kJ/mol
# GULP energy per Si atom -12388.514875 kJ/mol
# Density = 2.257280 g / cm^3
# Si number density = 22.624289 Si / 1000 Ang^3
#
#
#
# Elastic Constant Matrix: (Units=GPa)
#
#
# Indices 1 2 3 4 5 6 
#
# 1 92.4101 4.1763 -0.3259 0.0000 -2.2824 0.0000
# 2 4.1763 70.8877 -11.5256 0.0000 0.5482 0.0000
# 3 -0.3259 -11.5256 29.6846 0.0000 -1.4409 0.0000
# 4 0.0000 0.0000 0.0000 15.5556 0.0000 0.8751
# 5 -2.2824 0.5482 -1.4409 0.0000 14.5425 0.0000
# 6 0.0000 0.0000 0.0000 0.8751 0.0000 29.9401
#
#
#
# Elastic Compliance Matrix: (Units=1/GPa)
#
#
# Indices 1 2 3 4 5 6 
#
# 1 0.010894 -0.000664 -0.000054 0.000000 0.001729 0.000000
# 2 -0.000664 0.015098 0.005850 0.000000 -0.000094 0.000000
# 3 -0.000054 0.005850 0.036121 0.000000 0.003350 0.000000
# 4 0.000000 0.000000 0.000000 0.064391 0.000000 -0.001882
# 5 0.001729 -0.000094 0.003350 0.000000 0.069371 0.000000
# 6 0.000000 0.000000 0.000000 -0.001882 0.000000 0.033455
#
#
# Mechanical properties :
#
#
# Convention : Reuss Voigt Hill
#
# Bulk Modulus (GPa) = 13.81664 19.73689 16.77677
# Shear Modulus (GPa) = 20.55994 25.38482 22.97238
#
# Velocity S-wave (km/s) = 3.01783 3.35329 3.18997
# Velocity P-wave (km/s) = 4.27356 4.87190 4.58250
#
# Compressibility (1/GPa) = 0.07237647
#
# Stress axis : x y z
#
# Youngs Moduli (GPa) = 91.79484 66.23462 27.68474
#
# Poissons Ratio (x) = 0.04398 0.00150
# Poissons Ratio (y) = 0.06095 -0.16196
# Poissons Ratio (z) = 0.00498 -0.38748
#
# Static dielectric constant tensor:
#      x y z
#    x 4.431450 0.000000 0.340040 
#    y 0.000000 4.146270 0.000000 
#    z 0.340040 0.000000 3.751020 
# 
# 
# High freq. dielectric constant tensor:
#      x y z
#    x 1.883370 0.000000 0.026920 
#    y 0.000000 1.902510 0.000000 
#    z 0.026920 0.000000 1.853420 
# 
# From -- ./inp_files/80248.got.cif
#   From: 2010.03.12/outbox.cif.g09.slc.cpg/sg14_41_cif.got.tgz:80248.got - 2010.03.31 13:35:05.
