data_PCOD8124313
_publ_section_title
;
Structure prediction by ZEFSAII (Michael W. Deem and Ramdas Pophale) SiO2 
 PCOD8124313
Probable space group: P 21/C
;
_chemical_formula_sum "Si O2"
_cell_formula_units_Z 32
_cell_length_a 14.131212
_cell_length_b 17.692426
_cell_length_c 12.487829
_cell_angle_alpha 90.000000
_cell_angle_beta 150.355557
_cell_angle_gamma 90.000000
_cell_volume 1544.265782
_symmetry_space_group_name_H-M "P 21/C"
_symmetry_group_IT_number 14
_symmetry_cell_setting 'monoclinic'
loop_
_space_group_symop_operation_xyz
x,y,z
-x,1/2+y,1/2-z
-x,-y,-z
x,1/2-y,1/2+z
loop_
_atom_site_type_symbol
_atom_site_label
_atom_site_fract_x
_atom_site_fract_y
_atom_site_fract_z
Si Si1 0.896798 0.505829 0.747034
Si Si2 0.520077 0.330879 0.168125
Si Si3 0.255696 0.454413 0.834282
Si Si4 0.671724 0.025931 0.381759
Si Si5 0.650642 0.168878 0.227135
Si Si6 0.034632 0.123906 0.526438
Si Si7 0.591308 0.868223 0.210755
Si Si8 0.190886 0.958717 0.060908
O O1 0.833801 0.575391 0.760430
O O2 0.760935 0.495723 0.508782
O O3 0.102361 0.528480 0.906127
O O4 0.902397 0.429880 0.822654
O O5 0.553189 0.246817 0.161537
O O6 0.461565 0.324007 0.234009
O O7 0.716104 0.376484 0.343847
O O8 0.350734 0.371297 0.933493
O O9 0.281902 0.488717 0.742196
O O10 0.033821 0.446285 0.645160
O O11 0.368551 0.507952 0.031786
O O12 0.595846 0.106814 0.264562
O O13 0.590967 0.958475 0.229302
O O14 0.882380 0.177838 0.437932
O O15 0.569324 0.145614 0.033442
O O16 0.197980 0.164590 0.616536
#
# Coordination Sequence:
#
# PCOD8124313 Si02
#       8
#     4   4   4   4   4   4   4   4
#     4   8  15  31  59  88 106 135 191 241 280 330
#     4  11  24  37  55  87 122 150 189 243 296 349
#     4   9  20  38  60  84 116 158 201 235 279 350
#     4   8  17  35  60  87 111 142 193 244 278 332
#     4  11  22  36  58  87 116 149 189 237 296 348
#     4   9  18  35  57  84 114 141 184 244 289 336
#     4  10  21  38  59  82 112 152 192 236 290 343
#     4  10  19  36  60  82 114 160 196 237 291 342
#
# _framework density 20.721822
#
# number of rings (size 3 to 8) (size 9 to 14) (size 15 to 20)
#    0.000    2.500    0.000    3.000    0.000    4.000 
#    0.000    1.250    0.000   12.000    0.000    1.750 
#    0.000    0.000    0.000    0.000    0.000    0.000 
#
# Total GULP energy -396618.088084 kJ/mol
# GULP energy per Si atom -12394.315253 kJ/mol
# Density = 2.067466 g / cm^3
# Si number density = 20.721822 Si / 1000 Ang^3
#
#
#
# Elastic Constant Matrix: (Units=GPa)
#
#
# Indices 1 2 3 4 5 6 
#
# 1 94.1231 44.2701 36.8908 0.0000 -7.4207 0.0000
# 2 44.2701 105.0611 53.2390 0.0000 -9.0136 0.0000
# 3 36.8908 53.2390 102.7345 0.0000 -23.4526 0.0000
# 4 0.0000 0.0000 0.0000 18.0989 0.0000 10.2899
# 5 -7.4207 -9.0136 -23.4526 0.0000 32.8448 0.0000
# 6 0.0000 0.0000 0.0000 10.2899 0.0000 19.9438
#
#
#
# Elastic Compliance Matrix: (Units=1/GPa)
#
#
# Indices 1 2 3 4 5 6 
#
# 1 0.013753 -0.004466 -0.002622 0.000000 0.000009 0.000000
# 2 -0.004466 0.014418 -0.006207 0.000000 -0.001484 0.000000
# 3 -0.002622 -0.006207 0.015971 0.000000 0.009108 0.000000
# 4 0.000000 0.000000 0.000000 0.078187 0.000000 -0.040340
# 5 0.000009 -0.001484 0.009108 0.000000 0.036545 0.000000
# 6 0.000000 0.000000 0.000000 -0.040340 0.000000 0.070954
#
#
# Mechanical properties :
#
#
# Convention : Reuss Voigt Hill
#
# Bulk Modulus (GPa) = 56.97110 63.41316 60.19213
# Shear Modulus (GPa) = 19.06437 25.34542 22.20490
#
# Velocity S-wave (km/s) = 3.03646 3.50112 3.27704
# Velocity P-wave (km/s) = 6.31240 6.85655 6.59010
#
# Compressibility (1/GPa) = 0.01755276
#
# Stress axis : x y z
#
# Youngs Moduli (GPa) = 72.70975 69.35800 62.61224
#
# Poissons Ratio (x) = 0.30973 0.16419
# Poissons Ratio (y) = 0.32470 0.38863
# Poissons Ratio (z) = 0.19067 0.43050
#
# Static dielectric constant tensor:
#      x y z
#    x 4.144880 0.000000 -0.175920 
#    y 0.000000 3.423020 0.000000 
#    z -0.175920 0.000000 3.881090 
# 
# 
# High freq. dielectric constant tensor:
#      x y z
#    x 1.830360 0.000000 0.004480 
#    y 0.000000 1.760850 0.000000 
#    z 0.004480 0.000000 1.820420 
# 
# From -- ./inp_files/33059.got.cif
#   From: 2010.03.12/outbox.cif.g09.slc.cpg/sg14_17_cif.got.tgz:33059.got - 2010.03.31 13:35:05.
