data_PCOD8124878
_publ_section_title
;
Structure prediction by ZEFSAII (Michael W. Deem and Ramdas Pophale) SiO2 
 PCOD8124878
Probable space group: P 21/C
;
_chemical_formula_sum "Si O2"
_cell_formula_units_Z 20
_cell_length_a 21.556445
_cell_length_b 9.414605
_cell_length_c 13.683247
_cell_angle_alpha 90.000000
_cell_angle_beta 159.529367
_cell_angle_gamma 90.000000
_cell_volume 971.175851
_symmetry_space_group_name_H-M "P 21/C"
_symmetry_group_IT_number 14
_symmetry_cell_setting 'monoclinic'
loop_
_space_group_symop_operation_xyz
x,y,z
-x,1/2+y,1/2-z
-x,-y,-z
x,1/2-y,1/2+z
loop_
_atom_site_type_symbol
_atom_site_label
_atom_site_fract_x
_atom_site_fract_y
_atom_site_fract_z
Si Si1 0.815221 0.075085 0.106270
Si Si2 0.177857 0.124670 0.716237
Si Si3 0.654588 0.089382 0.678211
Si Si4 0.576421 0.085650 0.022781
Si Si5 0.573223 0.613751 0.900167
O O1 0.982288 0.168971 0.389800
O O2 0.829505 0.920736 0.180146
O O3 0.823335 0.063999 0.999572
O O4 0.627019 0.145793 0.858114
O O5 0.313059 0.251237 0.901763
O O6 0.244425 0.989171 0.751512
O O7 0.617604 0.255355 0.616545
O O8 0.500000 0.000000 0.500000
O O9 0.670285 0.022876 0.592921
O O10 0.428999 0.086732 0.719031
O O11 0.500000 0.000000 0.000000
#
# Coordination Sequence:
#
# PCOD8124878 Si02
#       5
#     4   4   4   4   4
#     4   9  20  38  60  87 117 151 194 237 293 347
#     4  10  21  38  62  85 117 156 192 242 291 344
#     4  10  20  35  57  82 115 150 187 238 286 337
#     4  11  21  35  58  86 115 153 195 234 286 347
#     4  10  20  38  62  86 116 153 193 240 291 342
#
# _framework density 20.593592000000001
#
# number of rings (size 3 to 8) (size 9 to 14) (size 15 to 20)
#    0.000    2.000    0.000    6.000    0.000    3.200 
#    0.000    4.000    0.000   30.000    0.000    0.000 
#    0.000    0.000    0.000    0.000    0.000    0.000 
#
# Total GULP energy -247841.217398 kJ/mol
# GULP energy per Si atom -12392.060870 kJ/mol
# Density = 2.054672 g / cm^3
# Si number density = 20.593592 Si / 1000 Ang^3
#
#
#
# Elastic Constant Matrix: (Units=GPa)
#
#
# Indices 1 2 3 4 5 6 
#
# 1 96.3262 51.1003 58.2035 0.0000 -35.2414 0.0000
# 2 51.1003 142.0706 69.3242 0.0000 -13.3870 0.0000
# 3 58.2035 69.3242 173.8689 0.0000 -25.1382 0.0000
# 4 0.0000 0.0000 0.0000 25.3002 0.0000 1.5512
# 5 -35.2414 -13.3870 -25.1382 0.0000 42.6737 0.0000
# 6 0.0000 0.0000 0.0000 1.5512 0.0000 33.6032
#
#
#
# Elastic Compliance Matrix: (Units=1/GPa)
#
#
# Indices 1 2 3 4 5 6 
#
# 1 0.018984 -0.004255 -0.002826 0.000000 0.012679 0.000000
# 2 -0.004255 0.009715 -0.002751 0.000000 -0.002087 0.000000
# 3 -0.002826 -0.002751 0.008015 0.000000 0.001525 0.000000
# 4 0.000000 0.000000 0.000000 0.039638 0.000000 -0.001830
# 5 0.012679 -0.002087 0.001525 0.000000 0.034148 0.000000
# 6 0.000000 0.000000 0.000000 -0.001830 0.000000 0.029844
#
#
# Mechanical properties :
#
#
# Convention : Reuss Voigt Hill
#
# Bulk Modulus (GPa) = 58.64646 85.50240 72.07443
# Shear Modulus (GPa) = 30.17700 35.89125 33.03413
#
# Velocity S-wave (km/s) = 3.83215 4.17926 4.00946
# Velocity P-wave (km/s) = 6.93688 8.05589 7.51724
#
# Compressibility (1/GPa) = 0.01705133
#
# Stress axis : x y z
#
# Youngs Moduli (GPa) = 52.67466 102.93551 124.77289
#
# Poissons Ratio (x) = 0.43799 0.35255
# Poissons Ratio (y) = 0.22413 0.34322
# Poissons Ratio (z) = 0.14883 0.28315
#
# Static dielectric constant tensor:
#      x y z
#    x 4.182160 0.000000 -0.661850 
#    y 0.000000 3.640780 0.000000 
#    z -0.661850 0.000000 4.186060 
# 
# 
# High freq. dielectric constant tensor:
#      x y z
#    x 1.800590 0.000000 -0.033060 
#    y 0.000000 1.792070 0.000000 
#    z -0.033060 0.000000 1.806240 
# 
# From -- ./inp_files/51099.got.cif
#   From: 2010.03.12/outbox.cif.g09.slc.cpg/sg14_26_cif.got.tgz:51099.got - 2010.03.31 13:35:05.
