data_PCOD8124034
_publ_section_title
;
Structure prediction by ZEFSAII (Michael W. Deem and Ramdas Pophale) SiO2 
 PCOD8124034
Probable space group: P 21/C
;
_chemical_formula_sum "Si O2"
_cell_formula_units_Z 24
_cell_length_a 6.860813
_cell_length_b 20.093738
_cell_length_c 13.433950
_cell_angle_alpha 90.000000
_cell_angle_beta 38.537710
_cell_angle_gamma 90.000000
_cell_volume 1153.848303
_symmetry_space_group_name_H-M "P 21/C"
_symmetry_group_IT_number 14
_symmetry_cell_setting 'monoclinic'
loop_
_space_group_symop_operation_xyz
x,y,z
-x,1/2+y,1/2-z
-x,-y,-z
x,1/2-y,1/2+z
loop_
_atom_site_type_symbol
_atom_site_label
_atom_site_fract_x
_atom_site_fract_y
_atom_site_fract_z
Si Si1 0.020776 0.251546 0.388815
Si Si2 0.560020 0.660027 0.892788
Si Si3 0.643671 0.425750 0.853706
Si Si4 0.809587 0.950199 0.720437
Si Si5 0.410634 0.838743 0.810879
Si Si6 0.346351 0.951371 0.360923
O O1 0.146356 0.290888 0.239828
O O2 0.314476 0.214230 0.321801
O O3 0.759145 0.200170 0.456938
O O4 0.885301 0.302603 0.523098
O O5 0.540246 0.616889 0.797267
O O6 0.589838 0.608757 0.972662
O O7 0.712439 0.372882 0.740001
O O8 0.483700 0.492058 0.878938
O O9 0.976737 0.448279 0.767653
O O10 0.538961 0.894731 0.836992
O O11 0.000617 0.933957 0.541721
O O12 0.660293 0.023447 0.752187
#
# Coordination Sequence:
#
# PCOD8124034 Si02
#       6
#     4   4   4   4   4   4
#     4  10  21  36  55  77 114 150 176 218 278 327
#     4  10  19  36  57  83 106 146 183 221 270 327
#     4  10  19  33  61  84 106 139 189 229 267 318
#     4   9  16  32  54  79 105 136 176 224 268 309
#     4  10  20  36  54  79 110 143 180 224 271 323
#     4   9  17  31  58  84 105 139 184 230 263 323
#
# _framework density 20.799962000000001
#
# number of rings (size 3 to 8) (size 9 to 14) (size 15 to 20)
#    0.000    2.333    3.333    2.000    0.000    1.333 
#    0.000    3.333    0.000    5.000    0.000    0.000 
#    0.000    0.000    0.000    0.000    0.000    0.000 
#
# Total GULP energy -297362.719771 kJ/mol
# GULP energy per Si atom -12390.113324 kJ/mol
# Density = 2.075262 g / cm^3
# Si number density = 20.799962 Si / 1000 Ang^3
#
#
#
# Elastic Constant Matrix: (Units=GPa)
#
#
# Indices 1 2 3 4 5 6 
#
# 1 89.4516 22.2161 23.0507 0.0000 -5.3197 0.0000
# 2 22.2161 88.2240 34.2038 0.0000 -5.3461 0.0000
# 3 23.0507 34.2038 72.2459 0.0000 -8.0530 0.0000
# 4 0.0000 0.0000 0.0000 14.1678 0.0000 6.8705
# 5 -5.3197 -5.3461 -8.0530 0.0000 15.1186 0.0000
# 6 0.0000 0.0000 0.0000 6.8705 0.0000 20.7483
#
#
#
# Elastic Compliance Matrix: (Units=1/GPa)
#
#
# Indices 1 2 3 4 5 6 
#
# 1 0.012519 -0.001917 -0.002840 0.000000 0.002214 0.000000
# 2 -0.001917 0.014209 -0.005986 0.000000 0.001161 0.000000
# 3 -0.002840 -0.005986 0.018322 0.000000 0.006643 0.000000
# 4 0.000000 0.000000 0.000000 0.084085 0.000000 -0.027843
# 5 0.002214 0.001161 0.006643 0.000000 0.070872 0.000000
# 6 0.000000 0.000000 0.000000 -0.027843 0.000000 0.057417
#
#
# Mechanical properties :
#
#
# Convention : Reuss Voigt Hill
#
# Bulk Modulus (GPa) = 42.43745 45.42919 43.93332
# Shear Modulus (GPa) = 17.43597 21.37031 19.40314
#
# Velocity S-wave (km/s) = 2.89843 3.20882 3.05756
# Velocity P-wave (km/s) = 5.62567 5.96801 5.79936
#
# Compressibility (1/GPa) = 0.02356409
#
# Stress axis : x y z
#
# Youngs Moduli (GPa) = 79.87942 70.38004 54.57919
#
# Poissons Ratio (x) = 0.13494 0.15499
# Poissons Ratio (y) = 0.15315 0.32669
# Poissons Ratio (z) = 0.22683 0.42127
#
# Static dielectric constant tensor:
#      x y z
#    x 3.654170 0.000000 -0.168930 
#    y 0.000000 4.226760 0.000000 
#    z -0.168930 0.000000 3.372140 
# 
# 
# High freq. dielectric constant tensor:
#      x y z
#    x 1.795240 0.000000 -0.018580 
#    y 0.000000 1.838820 0.000000 
#    z -0.018580 0.000000 1.771590 
# 
# From -- ./inp_files/56172.got.cif
#   From: 2010.03.12/outbox.cif.g09.slc.cpg/sg14_29_cif.got.tgz:56172.got - 2010.03.31 13:35:05.
