data_PCOD8124136
_publ_section_title
;
Structure prediction by ZEFSAII (Michael W. Deem and Ramdas Pophale) SiO2 
 PCOD8124136
Probable space group: P 21/C
;
_chemical_formula_sum "Si O2"
_cell_formula_units_Z 28
_cell_length_a 17.382947
_cell_length_b 10.035106
_cell_length_c 21.639602
_cell_angle_alpha 90.000000
_cell_angle_beta 154.655472
_cell_angle_gamma 90.000000
_cell_volume 1615.844791
_symmetry_space_group_name_H-M "P 21/C"
_symmetry_group_IT_number 14
_symmetry_cell_setting 'monoclinic'
loop_
_space_group_symop_operation_xyz
x,y,z
-x,1/2+y,1/2-z
-x,-y,-z
x,1/2-y,1/2+z
loop_
_atom_site_type_symbol
_atom_site_label
_atom_site_fract_x
_atom_site_fract_y
_atom_site_fract_z
Si Si1 0.503953 0.129596 0.583434
Si Si2 0.479861 0.326087 0.928286
Si Si3 0.877279 0.221674 0.846741
Si Si4 0.842260 0.817880 0.367400
Si Si5 0.886645 0.160359 0.718741
Si Si6 0.859588 0.592977 0.118586
Si Si7 0.046949 0.018771 0.445621
O O1 0.446675 0.197416 0.476973
O O2 0.684656 0.200312 0.739705
O O3 0.341476 0.144244 0.513291
O O4 0.563265 0.977923 0.617765
O O5 0.349412 0.232618 0.793899
O O6 0.683628 0.292110 0.056833
O O7 0.905326 0.130364 0.805937
O O8 0.883553 0.374080 0.826044
O O9 0.039442 0.199669 0.014034
O O10 0.960741 0.874091 0.396006
O O11 0.816489 0.937507 0.399415
O O12 0.016436 0.276354 0.788447
O O13 0.928123 0.018393 0.716700
O O14 0.851992 0.521794 0.046333
#
# Coordination Sequence:
#
# PCOD8124136 Si02
#       7
#     4   4   4   4   4   4   4
#     4   9  18  32  51  77 104 132 172 220 261 307
#     4   9  18  33  54  75 101 140 174 213 259 315
#     4   8  16  35  53  74 104 135 176 217 250 315
#     4   9  17  34  57  71 102 142 174 212 260 311
#     4   9  19  35  54  77 108 138 176 219 267 310
#     4  10  19  35  54  76 110 136 169 224 271 301
#     4   8  18  34  53  74 106 139 170 217 257 311
#
# _framework density 17.328396000000001
#
# number of rings (size 3 to 8) (size 9 to 14) (size 15 to 20)
#    0.857    2.286    0.000    0.857    2.000    0.571 
#    2.571    5.000    6.286    0.000    0.000    0.000 
#    0.000    0.000    0.000    0.000    0.000    0.000 
#
# Total GULP energy -346871.767452 kJ/mol
# GULP energy per Si atom -12388.277409 kJ/mol
# Density = 1.728896 g / cm^3
# Si number density = 17.328396 Si / 1000 Ang^3
#
#
#
# Elastic Constant Matrix: (Units=GPa)
#
#
# Indices 1 2 3 4 5 6 
#
# 1 82.6484 13.7962 16.3408 0.0000 18.7715 0.0000
# 2 13.7962 31.1220 4.9068 0.0000 8.9323 0.0000
# 3 16.3408 4.9068 55.1530 0.0000 12.4872 0.0000
# 4 0.0000 0.0000 0.0000 27.8940 0.0000 0.6793
# 5 18.7715 8.9323 12.4872 0.0000 22.6983 0.0000
# 6 0.0000 0.0000 0.0000 0.6793 0.0000 25.7676
#
#
#
# Elastic Compliance Matrix: (Units=1/GPa)
#
#
# Indices 1 2 3 4 5 6 
#
# 1 0.015411 -0.003578 -0.001920 0.000000 -0.010281 0.000000
# 2 -0.003578 0.037054 0.000451 0.000000 -0.011870 0.000000
# 3 -0.001920 0.000451 0.020950 0.000000 -0.010115 0.000000
# 4 0.000000 0.000000 0.000000 0.035873 0.000000 -0.000946
# 5 -0.010281 -0.011870 -0.010115 0.000000 0.062794 0.000000
# 6 0.000000 0.000000 0.000000 -0.000946 0.000000 0.038833
#
#
# Mechanical properties :
#
#
# Convention : Reuss Voigt Hill
#
# Bulk Modulus (GPa) = 15.79260 26.55678 21.17469
# Shear Modulus (GPa) = 20.65114 24.19730 22.42422
#
# Velocity S-wave (km/s) = 3.45592 3.74089 3.60123
# Velocity P-wave (km/s) = 5.00580 5.83249 5.43488
#
# Compressibility (1/GPa) = 0.06332081
#
# Stress axis : x y z
#
# Youngs Moduli (GPa) = 64.88695 26.98792 47.73201
#
# Poissons Ratio (x) = 0.09657 0.09165
# Poissons Ratio (y) = 0.23219 -0.02154
# Poissons Ratio (z) = 0.12459 -0.01218
#
# Static dielectric constant tensor:
#      x y z
#    x 3.265750 0.000000 -0.024270 
#    y 0.000000 3.007220 0.000000 
#    z -0.024270 0.000000 3.058190 
# 
# 
# High freq. dielectric constant tensor:
#      x y z
#    x 1.666780 0.000000 0.000790 
#    y 0.000000 1.650240 0.000000 
#    z 0.000790 0.000000 1.653330 
# 
# From -- ./inp_files/74366.got.cif
#   From: 2010.03.12/outbox.cif.g09.slc.cpg/sg14_38_cif.got.tgz:74366.got - 2010.03.31 13:35:05.
