data_PCOD8124978
_publ_section_title
;
Structure prediction by ZEFSAII (Michael W. Deem and Ramdas Pophale) SiO2 
 PCOD8124978
Probable space group: P 21/C
;
_chemical_formula_sum "Si O2"
_cell_formula_units_Z 32
_cell_length_a 21.626315
_cell_length_b 9.556734
_cell_length_c 9.023478
_cell_angle_alpha 90.000000
_cell_angle_beta 58.105304
_cell_angle_gamma 90.000000
_cell_volume 1583.376575
_symmetry_space_group_name_H-M "P 21/C"
_symmetry_group_IT_number 14
_symmetry_cell_setting 'monoclinic'
loop_
_space_group_symop_operation_xyz
x,y,z
-x,1/2+y,1/2-z
-x,-y,-z
x,1/2-y,1/2+z
loop_
_atom_site_type_symbol
_atom_site_label
_atom_site_fract_x
_atom_site_fract_y
_atom_site_fract_z
Si Si1 0.948872 0.112542 0.141119
Si Si2 0.215379 0.850630 0.637499
Si Si3 0.470764 0.926318 0.274865
Si Si4 0.507190 0.677124 0.430279
Si Si5 0.781062 0.073762 0.695156
Si Si6 0.946817 0.402243 0.981432
Si Si7 0.323558 0.431986 0.058764
Si Si8 0.326571 0.338321 0.736542
O O1 0.863348 0.079565 0.237446
O O2 0.972967 0.121644 0.280882
O O3 0.957400 0.257498 0.049303
O O4 0.000000 0.000000 0.000000
O O5 0.227104 0.690046 0.667584
O O6 0.238369 0.855319 0.436825
O O7 0.266955 0.947503 0.671279
O O8 0.508912 0.830726 0.353076
O O9 0.518609 0.061029 0.159520
O O10 0.399677 0.989082 0.441165
O O11 0.457379 0.830535 0.142567
O O12 0.587567 0.626901 0.382742
O O13 0.866058 0.029373 0.589756
O O14 0.725122 0.944202 0.793727
O O15 0.000000 0.500000 0.000000
O O16 0.319749 0.321800 0.195718
O O17 0.300878 0.348419 0.938922
#
# Coordination Sequence:
#
# PCOD8124978 Si02
#       8
#     4   4   4   4   4   4   4   4
#     4  10  20  36  57  83 117 150 187 236 282 335
#     4   9  20  37  57  83 111 144 187 230 278 338
#     4  10  22  37  57  83 112 144 184 234 280 338
#     4  10  21  39  58  83 115 146 187 235 285 338
#     4   9  20  38  58  82 113 146 186 233 278 333
#     4  10  20  36  58  85 115 151 191 231 282 338
#     4  10  22  38  56  81 110 144 187 231 283 340
#     4  10  21  39  57  79 113 147 183 231 281 335
#
# _framework density 20.209973999999999
#
# number of rings (size 3 to 8) (size 9 to 14) (size 15 to 20)
#    0.000    2.250    0.000    2.250    0.000    9.000 
#    0.000    2.500    0.000    0.000    0.000    0.000 
#    0.000    0.000    0.000    0.000    0.000    0.000 
#
# Total GULP energy -396458.732463 kJ/mol
# GULP energy per Si atom -12389.335389 kJ/mol
# Density = 2.016398 g / cm^3
# Si number density = 20.209974 Si / 1000 Ang^3
#
#
#
# Elastic Constant Matrix: (Units=GPa)
#
#
# Indices 1 2 3 4 5 6 
#
# 1 94.7001 61.2970 37.5780 0.0000 0.2448 0.0000
# 2 61.2970 83.5952 37.1769 0.0000 -4.3290 0.0000
# 3 37.5780 37.1769 77.0597 0.0000 0.7180 0.0000
# 4 0.0000 0.0000 0.0000 40.9079 0.0000 7.8568
# 5 0.2448 -4.3290 0.7180 0.0000 20.5632 0.0000
# 6 0.0000 0.0000 0.0000 7.8568 0.0000 43.3730
#
#
#
# Elastic Compliance Matrix: (Units=1/GPa)
#
#
# Indices 1 2 3 4 5 6 
#
# 1 0.021027 -0.014044 -0.003450 0.000000 -0.003086 0.000000
# 2 -0.014044 0.024861 -0.005197 0.000000 0.005582 0.000000
# 3 -0.003450 -0.005197 0.017182 0.000000 -0.001653 0.000000
# 4 0.000000 0.000000 0.000000 0.025326 0.000000 -0.004588
# 5 -0.003086 0.005582 -0.001653 0.000000 0.049900 0.000000
# 6 0.000000 0.000000 0.000000 -0.004588 0.000000 0.023887
#
#
# Mechanical properties :
#
#
# Convention : Reuss Voigt Hill
#
# Bulk Modulus (GPa) = 56.53608 58.60653 57.57130
# Shear Modulus (GPa) = 23.42360 28.92235 26.17298
#
# Velocity S-wave (km/s) = 3.40812 3.78708 3.60259
# Velocity P-wave (km/s) = 6.59713 6.94150 6.77150
#
# Compressibility (1/GPa) = 0.01768782
#
# Stress axis : x y z
#
# Youngs Moduli (GPa) = 47.55887 40.22429 58.20053
#
# Poissons Ratio (x) = 0.56490 0.20076
# Poissons Ratio (y) = 0.66790 0.30249
# Poissons Ratio (z) = 0.16406 0.20906
#
# Static dielectric constant tensor:
#      x y z
#    x 3.745210 0.000000 0.030290 
#    y 0.000000 3.628820 0.000000 
#    z 0.030290 0.000000 3.778920 
# 
# 
# High freq. dielectric constant tensor:
#      x y z
#    x 1.778190 0.000000 0.004870 
#    y 0.000000 1.789400 0.000000 
#    z 0.004870 0.000000 1.789870 
# 
# From -- ./inp_files/19360.got.cif
#   From: 2010.03.12/outbox.cif.g09.slc.cpg/sg14_10_cif.got.tgz:19360.got - 2010.03.31 13:35:05.
