data_PCOD8124682
_publ_section_title
;
Structure prediction by ZEFSAII (Michael W. Deem and Ramdas Pophale) SiO2 
 PCOD8124682
Probable space group: P 21/C
;
_chemical_formula_sum "Si O2"
_cell_formula_units_Z 24
_cell_length_a 8.614720
_cell_length_b 12.940525
_cell_length_c 14.213142
_cell_angle_alpha 90.000000
_cell_angle_beta 42.602702
_cell_angle_gamma 90.000000
_cell_volume 1072.542537
_symmetry_space_group_name_H-M "P 21/C"
_symmetry_group_IT_number 14
_symmetry_cell_setting 'monoclinic'
loop_
_space_group_symop_operation_xyz
x,y,z
-x,1/2+y,1/2-z
-x,-y,-z
x,1/2-y,1/2+z
loop_
_atom_site_type_symbol
_atom_site_label
_atom_site_fract_x
_atom_site_fract_y
_atom_site_fract_z
Si Si1 0.030441 0.746143 0.148543
Si Si2 0.773376 0.551005 0.277446
Si Si3 0.047858 0.689691 0.436827
Si Si4 0.118127 0.123992 0.613778
Si Si5 0.602924 0.310523 0.872538
Si Si6 0.373563 0.089291 0.949070
O O1 0.231748 0.682613 0.110568
O O2 0.820847 0.666756 0.218730
O O3 0.939260 0.836195 0.256214
O O4 0.123642 0.795521 0.010724
O O5 0.743912 0.553028 0.402456
O O6 0.543188 0.500680 0.334697
O O7 0.996415 0.484454 0.150409
O O8 0.265403 0.650369 0.279851
O O9 0.966498 0.796452 0.427116
O O10 0.834716 0.608900 0.530391
O O11 0.391945 0.111664 0.482312
O O12 0.524181 0.191670 0.898023
#
# Coordination Sequence:
#
# PCOD8124682 Si02
#       6
#     4   4   4   4   4   4
#     4  11  22  39  68  95 123 171 215 257 328 373
#     4  11  20  40  71  91 123 175 217 254 323 385
#     4  10  21  40  64  94 125 161 214 264 318 376
#     4  10  22  41  63  91 130 162 214 269 312 377
#     4  10  19  42  61  90 130 168 201 269 320 369
#     4  10  20  40  68  86 127 172 211 260 317 379
#
# _framework density 22.376736999999999
#
# number of rings (size 3 to 8) (size 9 to 14) (size 15 to 20)
#    0.000    1.667    8.333    0.000    0.000    4.000 
#    0.000    0.833    7.333    0.000    0.000    0.000 
#    0.000    0.000    0.000    0.000    0.000    0.000 
#
# Total GULP energy -297563.946983 kJ/mol
# GULP energy per Si atom -12398.497791 kJ/mol
# Density = 2.232581 g / cm^3
# Si number density = 22.376737 Si / 1000 Ang^3
#
#
#
# Elastic Constant Matrix: (Units=GPa)
#
#
# Indices 1 2 3 4 5 6 
#
# 1 63.4624 -2.6177 70.5811 0.0000 15.0029 0.0000
# 2 -2.6177 26.5822 6.4308 0.0000 -4.1045 0.0000
# 3 70.5811 6.4308 134.6383 0.0000 -5.0395 0.0000
# 4 0.0000 0.0000 0.0000 23.2930 0.0000 -14.2169
# 5 15.0029 -4.1045 -5.0395 0.0000 40.5300 0.0000
# 6 0.0000 0.0000 0.0000 -14.2169 0.0000 15.2434
#
#
#
# Elastic Compliance Matrix: (Units=1/GPa)
#
#
# Indices 1 2 3 4 5 6 
#
# 1 0.055460 0.009204 -0.030388 0.000000 -0.023376 0.000000
# 2 0.009204 0.040130 -0.006748 0.000000 -0.000182 0.000000
# 3 -0.030388 -0.006748 0.024188 0.000000 0.013573 0.000000
# 4 0.000000 0.000000 0.000000 0.099666 0.000000 0.092955
# 5 -0.023376 -0.000182 0.013573 0.000000 0.034995 0.000000
# 6 0.000000 0.000000 0.000000 0.092955 0.000000 0.152297
#
#
# Mechanical properties :
#
#
# Convention : Reuss Voigt Hill
#
# Bulk Modulus (GPa) = 15.64647 41.49680 28.57163
# Shear Modulus (GPa) = 10.33255 25.83254 18.08254
#
# Velocity S-wave (km/s) = 2.15118 3.40139 2.84579
# Velocity P-wave (km/s) = 3.63009 5.83188 4.85738
#
# Compressibility (1/GPa) = 0.06391217
#
# Stress axis : x y z
#
# Youngs Moduli (GPa) = 18.03087 24.91908 41.34263
#
# Poissons Ratio (x) = -0.22935 1.25634
# Poissons Ratio (y) = -0.16595 0.27899
# Poissons Ratio (z) = 0.54793 0.16816
#
# Static dielectric constant tensor:
#      x y z
#    x 3.816870 0.000000 -0.343450 
#    y 0.000000 3.920280 0.000000 
#    z -0.343450 0.000000 4.304080 
# 
# 
# High freq. dielectric constant tensor:
#      x y z
#    x 1.859430 0.000000 -0.019850 
#    y 0.000000 1.862350 0.000000 
#    z -0.019850 0.000000 1.889630 
# 
# From -- ./inp_files/41070.got.cif
#   From: 2010.03.12/outbox.cif.g09.slc.cpg/sg14_21_cif.got.tgz:41070.got - 2010.03.31 13:35:05.
