data_PCOD8124904
_publ_section_title
;
Structure prediction by ZEFSAII (Michael W. Deem and Ramdas Pophale) SiO2 
 PCOD8124904
Probable space group: P 21/C
;
_chemical_formula_sum "Si O2"
_cell_formula_units_Z 32
_cell_length_a 9.950148
_cell_length_b 10.638930
_cell_length_c 15.861567
_cell_angle_alpha 90.000000
_cell_angle_beta 68.877930
_cell_angle_gamma 90.000000
_cell_volume 1566.278580
_symmetry_space_group_name_H-M "P 21/C"
_symmetry_group_IT_number 14
_symmetry_cell_setting 'monoclinic'
loop_
_space_group_symop_operation_xyz
x,y,z
-x,1/2+y,1/2-z
-x,-y,-z
x,1/2-y,1/2+z
loop_
_atom_site_type_symbol
_atom_site_label
_atom_site_fract_x
_atom_site_fract_y
_atom_site_fract_z
Si Si1 0.159656 0.505633 0.559407
Si Si2 0.298429 0.677684 0.650441
Si Si3 0.638512 0.647153 0.161662
Si Si4 0.109795 0.643383 0.403323
Si Si5 0.397507 0.199626 0.666974
Si Si6 0.296365 0.875291 0.340329
Si Si7 0.685893 0.068337 0.282089
Si Si8 0.605506 0.817133 0.011928
O O1 0.172090 0.590898 0.641004
O O2 0.106490 0.601685 0.500563
O O3 0.313050 0.449123 0.497181
O O4 0.047761 0.390028 0.599387
O O5 0.343581 0.630319 0.732321
O O6 0.251145 0.825143 0.667899
O O7 0.435932 0.662128 0.559342
O O8 0.673410 0.727480 0.237628
O O9 0.736514 0.521275 0.131900
O O10 0.474202 0.605952 0.208100
O O11 0.666335 0.723876 0.069895
O O12 0.152360 0.791551 0.388752
O O13 0.224520 0.562967 0.324355
O O14 0.569604 0.178715 0.636227
O O15 0.362090 0.270490 0.589342
O O16 0.314218 0.067374 0.675425
#
# Coordination Sequence:
#
# PCOD8124904 Si02
#       8
#     4   4   4   4   4   4   4   4
#     4  11  23  36  60  84 116 162 213 244 311 358
#     4  10  20  36  58  91 112 153 204 256 299 361
#     4  10  20  35  59  93 119 155 195 252 316 357
#     4  10  21  40  57  81 117 165 203 255 293 370
#     4  11  19  35  61  92 122 159 189 254 321 351
#     4  10  20  37  62  85 125 155 199 251 311 360
#     4   9  20  36  57  84 121 152 198 244 303 361
#     4  11  22  35  57  93 122 147 208 256 300 375
#
# _framework density 20.430592000000001
#
# number of rings (size 3 to 8) (size 9 to 14) (size 15 to 20)
#    0.000    1.750    3.750    2.625    1.750    5.500 
#    4.500    0.625    5.500    0.000    0.000    0.000 
#    0.000    0.000    0.000    0.000    0.000    0.000 
#
# Total GULP energy -396700.456358 kJ/mol
# GULP energy per Si atom -12396.889261 kJ/mol
# Density = 2.038409 g / cm^3
# Si number density = 20.430592 Si / 1000 Ang^3
#
#
#
# Elastic Constant Matrix: (Units=GPa)
#
#
# Indices 1 2 3 4 5 6 
#
# 1 47.3037 48.3955 33.0809 0.0000 12.9979 0.0000
# 2 48.3955 136.7312 32.6324 0.0000 12.0277 0.0000
# 3 33.0809 32.6324 88.7396 0.0000 19.5594 0.0000
# 4 0.0000 0.0000 0.0000 27.5082 0.0000 1.6495
# 5 12.9979 12.0277 19.5594 0.0000 24.7736 0.0000
# 6 0.0000 0.0000 0.0000 1.6495 0.0000 35.6529
#
#
#
# Elastic Compliance Matrix: (Units=1/GPa)
#
#
# Indices 1 2 3 4 5 6 
#
# 1 0.042490 -0.011993 -0.009443 0.000000 -0.009016 0.000000
# 2 -0.011993 0.011476 0.000111 0.000000 0.000633 0.000000
# 3 -0.009443 0.000111 0.016548 0.000000 -0.008165 0.000000
# 4 0.000000 0.000000 0.000000 0.036454 0.000000 -0.001687
# 5 -0.009016 0.000633 -0.008165 0.000000 0.051235 0.000000
# 6 0.000000 0.000000 0.000000 -0.001687 0.000000 0.028126
#
#
# Mechanical properties :
#
#
# Convention : Reuss Voigt Hill
#
# Bulk Modulus (GPa) = 35.88617 55.66582 45.77599
# Shear Modulus (GPa) = 20.98499 28.16465 24.57482
#
# Velocity S-wave (km/s) = 3.20837 3.71691 3.47197
# Velocity P-wave (km/s) = 5.59714 6.76210 6.20701
#
# Compressibility (1/GPa) = 0.02786589
#
# Stress axis : x y z
#
# Youngs Moduli (GPa) = 23.53492 87.13694 60.43125
#
# Poissons Ratio (x) = 1.04500 0.57062
# Poissons Ratio (y) = 0.28224 -0.00671
# Poissons Ratio (z) = 0.22223 -0.00968
#
# Static dielectric constant tensor:
#      x y z
#    x 3.455820 0.000000 0.081810 
#    y 0.000000 4.200890 0.000000 
#    z 0.081810 0.000000 3.531100 
# 
# 
# High freq. dielectric constant tensor:
#      x y z
#    x 1.762140 0.000000 0.013600 
#    y 0.000000 1.810830 0.000000 
#    z 0.013600 0.000000 1.791560 
# 
# From -- ./inp_files/40291.got.cif
#   From: 2010.03.12/outbox.cif.g09.slc.cpg/sg14_21_cif.got.tgz:40291.got - 2010.03.31 13:35:05.
