data_PCOD8124155
_publ_section_title
;
Structure prediction by ZEFSAII (Michael W. Deem and Ramdas Pophale) SiO2 
 PCOD8124155
Probable space group: P 21/C
;
_chemical_formula_sum "Si O2"
_cell_formula_units_Z 24
_cell_length_a 13.076974
_cell_length_b 11.941942
_cell_length_c 16.932353
_cell_angle_alpha 90.000000
_cell_angle_beta 22.875367
_cell_angle_gamma 90.000000
_cell_volume 1027.886619
_symmetry_space_group_name_H-M "P 21/C"
_symmetry_group_IT_number 14
_symmetry_cell_setting 'monoclinic'
loop_
_space_group_symop_operation_xyz
x,y,z
-x,1/2+y,1/2-z
-x,-y,-z
x,1/2-y,1/2+z
loop_
_atom_site_type_symbol
_atom_site_label
_atom_site_fract_x
_atom_site_fract_y
_atom_site_fract_z
Si Si1 0.229892 0.788432 0.984177
Si Si2 0.288703 0.371379 0.080894
Si Si3 0.752711 0.644252 0.454291
Si Si4 0.095297 0.401911 0.830984
Si Si5 0.623741 0.535072 0.216343
Si Si6 0.666604 0.122659 0.454592
O O1 0.454995 0.870569 0.789379
O O2 0.068168 0.713756 0.035768
O O3 0.369009 0.699754 0.943850
O O4 0.023112 0.868463 0.177490
O O5 0.347082 0.273286 0.975966
O O6 0.372701 0.493177 0.989178
O O7 0.452502 0.342072 0.043199
O O8 0.544196 0.577964 0.654598
O O9 0.777164 0.599483 0.346477
O O10 0.039895 0.636581 0.290671
O O11 0.319118 0.415354 0.737051
O O12 0.893973 0.508055 0.978637
#
# Coordination Sequence:
#
# PCOD8124155 Si02
#       6
#     4   4   4   4   4   4
#     4  10  19  35  56  81 113 154 179 236 282 331
#     4   9  17  32  54  84 116 145 185 232 275 333
#     4  10  20  36  59  86 106 155 186 225 285 333
#     4   9  22  37  56  85 111 145 187 232 275 329
#     4  11  20  40  59  81 115 146 188 234 280 333
#     4   9  17  32  54  82 113 146 185 229 275 328
#
# _framework density 23.348880000000001
#
# number of rings (size 3 to 8) (size 9 to 14) (size 15 to 20)
#    0.000    2.667    1.667    2.500    0.000    0.000 
#    9.000    1.667    0.000    5.000    0.000    0.000 
#    0.000    0.000    0.000    0.000    0.000    0.000 
#
# Total GULP energy -297451.212070 kJ/mol
# GULP energy per Si atom -12393.800503 kJ/mol
# Density = 2.329574 g / cm^3
# Si number density = 23.348880 Si / 1000 Ang^3
#
#
#
# Elastic Constant Matrix: (Units=GPa)
#
#
# Indices 1 2 3 4 5 6 
#
# 1 31.9745 9.8627 9.5215 0.0000 -14.7004 0.0000
# 2 9.8627 127.2722 26.9148 0.0000 -13.7054 0.0000
# 3 9.5215 26.9148 51.8963 0.0000 -8.2488 0.0000
# 4 0.0000 0.0000 0.0000 36.8518 0.0000 -13.7488
# 5 -14.7004 -13.7054 -8.2488 0.0000 30.5496 0.0000
# 6 0.0000 0.0000 0.0000 -13.7488 0.0000 24.9553
#
#
#
# Elastic Compliance Matrix: (Units=1/GPa)
#
#
# Indices 1 2 3 4 5 6 
#
# 1 0.041193 -0.000251 -0.004487 0.000000 0.018498 0.000000
# 2 -0.000251 0.009070 -0.004211 0.000000 0.002811 0.000000
# 3 -0.004487 -0.004211 0.022603 0.000000 0.002055 0.000000
# 4 0.000000 0.000000 0.000000 0.034156 0.000000 0.018818
# 5 0.018498 0.002811 0.002055 0.000000 0.043451 0.000000
# 6 0.000000 0.000000 0.000000 0.018818 0.000000 0.050439
#
#
# Mechanical properties :
#
#
# Convention : Reuss Voigt Hill
#
# Bulk Modulus (GPa) = 18.19279 33.74901 25.97090
# Shear Modulus (GPa) = 21.08518 29.46094 25.27306
#
# Velocity S-wave (km/s) = 3.00834 3.55600 3.29357
# Velocity P-wave (km/s) = 4.45819 5.59873 5.06069
#
# Compressibility (1/GPa) = 0.05496682
#
# Stress axis : x y z
#
# Youngs Moduli (GPa) = 24.27599 110.25520 44.24197
#
# Poissons Ratio (x) = 0.02771 0.19852
# Poissons Ratio (y) = 0.00610 0.18630
# Poissons Ratio (z) = 0.10893 0.46428
#
# Static dielectric constant tensor:
#      x y z
#    x 3.842170 0.000000 -0.444260 
#    y 0.000000 4.406280 0.000000 
#    z -0.444260 0.000000 3.999060 
# 
# 
# High freq. dielectric constant tensor:
#      x y z
#    x 1.890060 0.000000 -0.028830 
#    y 0.000000 1.941270 0.000000 
#    z -0.028830 0.000000 1.913150 
# 
# From -- ./inp_files/65483.got.cif
#   From: 2010.03.12/outbox.cif.g09.slc.cpg/sg14_33_cif.got.tgz:65483.got - 2010.03.31 13:35:05.
