data_PCOD8124792
_publ_section_title
;
Structure prediction by ZEFSAII (Michael W. Deem and Ramdas Pophale) SiO2 
 PCOD8124792
Probable space group: P 21/C
;
_chemical_formula_sum "Si O2"
_cell_formula_units_Z 32
_cell_length_a 16.929321
_cell_length_b 9.213985
_cell_length_c 22.159173
_cell_angle_alpha 90.000000
_cell_angle_beta 29.681971
_cell_angle_gamma 90.000000
_cell_volume 1711.623917
_symmetry_space_group_name_H-M "P 21/C"
_symmetry_group_IT_number 14
_symmetry_cell_setting 'monoclinic'
loop_
_space_group_symop_operation_xyz
x,y,z
-x,1/2+y,1/2-z
-x,-y,-z
x,1/2-y,1/2+z
loop_
_atom_site_type_symbol
_atom_site_label
_atom_site_fract_x
_atom_site_fract_y
_atom_site_fract_z
Si Si1 0.852162 0.326392 0.634490
Si Si2 0.146311 0.163532 0.855501
Si Si3 0.104538 0.330158 0.760121
Si Si4 0.477166 0.320438 0.197567
Si Si5 0.522436 0.342353 0.790758
Si Si6 0.896260 0.332656 0.228473
Si Si7 0.770237 0.828897 0.433516
Si Si8 0.771659 0.335768 0.921271
O O1 0.859450 0.491650 0.652347
O O2 0.692072 0.294115 0.704005
O O3 0.998419 0.286345 0.494155
O O4 0.857660 0.221747 0.687701
O O5 0.141753 0.242159 0.795098
O O6 0.306043 0.212576 0.782910
O O7 0.220009 0.275214 0.630496
O O8 0.143109 0.498058 0.743497
O O9 0.921282 0.299243 0.864625
O O10 0.492888 0.486175 0.206976
O O11 0.499121 0.221666 0.240691
O O12 0.612535 0.279704 0.059340
O O13 0.387367 0.284077 0.925673
O O14 0.080909 0.303253 0.120855
O O15 0.783862 0.248199 0.350081
O O16 0.763887 0.993038 0.413271
#
# Coordination Sequence:
#
# PCOD8124792 Si02
#       8
#     4   4   4   4   4   4   4   4
#     4  10  21  36  54  77 106 139 172 209 258 312
#     4  10  21  36  54  77 106 139 172 209 258 312
#     4  10  20  34  55  80 104 135 174 215 257 301
#     4  10  21  36  55  78 104 137 174 213 258 306
#     4  10  21  36  55  78 104 137 174 213 258 306
#     4  10  20  34  55  80 104 135 174 215 257 301
#     4   9  19  36  55  76 105 139 173 210 256 308
#     4   9  19  36  55  76 105 139 173 210 256 308
#
# _framework density 18.695695000000001
#
# number of rings (size 3 to 8) (size 9 to 14) (size 15 to 20)
#    0.000    2.250    0.000    2.250    0.000    4.500 
#    0.000    5.000    0.000    0.000    0.000    0.000 
#    0.000    0.000    0.000    0.000    0.000    0.000 
#
# Total GULP energy -396961.743320 kJ/mol
# GULP energy per Si atom -12405.054479 kJ/mol
# Density = 1.865314 g / cm^3
# Si number density = 18.695695 Si / 1000 Ang^3
#
#
#
# Elastic Constant Matrix: (Units=GPa)
#
#
# Indices 1 2 3 4 5 6 
#
# 1 58.8537 8.2707 21.7055 0.0000 -5.6018 0.0000
# 2 8.2707 22.8635 3.4666 0.0000 -5.9848 0.0000
# 3 21.7055 3.4666 111.6028 0.0000 -24.0359 0.0000
# 4 0.0000 0.0000 0.0000 25.1967 0.0000 9.0564
# 5 -5.6018 -5.9848 -24.0359 0.0000 21.8338 0.0000
# 6 0.0000 0.0000 0.0000 9.0564 0.0000 35.7639
#
#
#
# Elastic Compliance Matrix: (Units=1/GPa)
#
#
# Indices 1 2 3 4 5 6 
#
# 1 0.019211 -0.006648 -0.003750 0.000000 -0.001021 0.000000
# 2 -0.006648 0.049675 0.003035 0.000000 0.015251 0.000000
# 3 -0.003750 0.003035 0.012541 0.000000 0.013675 0.000000
# 4 0.000000 0.000000 0.000000 0.043662 0.000000 -0.011056
# 5 -0.001021 0.015251 0.013675 0.000000 0.064773 0.000000
# 6 0.000000 0.000000 0.000000 -0.011056 0.000000 0.030761
#
#
# Mechanical properties :
#
#
# Convention : Reuss Voigt Hill
#
# Bulk Modulus (GPa) = 14.99252 28.91173 21.95212
# Shear Modulus (GPa) = 19.41120 27.21736 23.31428
#
# Velocity S-wave (km/s) = 3.22572 3.81965 3.53518
# Velocity P-wave (km/s) = 4.68085 5.91193 5.33203
#
# Compressibility (1/GPa) = 0.06669993
#
# Stress axis : x y z
#
# Youngs Moduli (GPa) = 52.05263 20.13082 79.74092
#
# Poissons Ratio (x) = 0.13384 0.29902
# Poissons Ratio (y) = 0.34607 -0.24199
# Poissons Ratio (z) = 0.19519 -0.06109
#
# Static dielectric constant tensor:
#      x y z
#    x 3.337630 0.000000 -0.097170 
#    y 0.000000 3.392040 0.000000 
#    z -0.097170 0.000000 3.663650 
# 
# 
# High freq. dielectric constant tensor:
#      x y z
#    x 1.727240 0.000000 0.001300 
#    y 0.000000 1.723210 0.000000 
#    z 0.001300 0.000000 1.738760 
# 
# From -- ./inp_files/69128.got.cif
#   From: 2010.03.12/outbox.cif.g09.slc.cpg/sg14_35_cif.got.tgz:69128.got - 2010.03.31 13:35:05.
