data_PCOD8124459
_publ_section_title
;
Structure prediction by ZEFSAII (Michael W. Deem and Ramdas Pophale) SiO2 
 PCOD8124459
Probable space group: P 21/C
;
_chemical_formula_sum "Si O2"
_cell_formula_units_Z 28
_cell_length_a 8.581324
_cell_length_b 11.292728
_cell_length_c 24.703654
_cell_angle_alpha 90.000000
_cell_angle_beta 146.331554
_cell_angle_gamma 90.000000
_cell_volume 1327.170592
_symmetry_space_group_name_H-M "P 21/C"
_symmetry_group_IT_number 14
_symmetry_cell_setting 'monoclinic'
loop_
_space_group_symop_operation_xyz
x,y,z
-x,1/2+y,1/2-z
-x,-y,-z
x,1/2-y,1/2+z
loop_
_atom_site_type_symbol
_atom_site_label
_atom_site_fract_x
_atom_site_fract_y
_atom_site_fract_z
Si Si1 0.462209 0.720505 0.122171
Si Si2 0.405156 0.014231 0.664189
Si Si3 0.946996 0.850464 0.004682
Si Si4 0.049295 0.752380 0.836428
Si Si5 0.566172 0.843102 0.432077
Si Si6 0.818520 0.069373 0.543362
Si Si7 0.126007 0.444740 0.625415
O O1 0.394018 0.623601 0.147692
O O2 0.791686 0.751536 0.220116
O O3 0.274977 0.835140 0.082307
O O4 0.387767 0.669036 0.041544
O O5 0.532202 0.089713 0.650977
O O6 0.089021 0.056526 0.582987
O O7 0.616855 0.022400 0.776234
O O8 0.845540 0.731314 0.003124
O O9 0.773124 0.868087 0.897677
O O10 0.910909 0.959920 0.036146
O O11 0.336523 0.754017 0.884922
O O12 0.064759 0.621100 0.867148
O O13 0.022706 0.860814 0.871993
O O14 0.651070 0.944371 0.501022
#
# Coordination Sequence:
#
# PCOD8124459 Si02
#       7
#     4   4   4   4   4   4   4
#     4  10  19  37  65  87 123 165 208 265 305 370
#     4  10  19  39  66  93 117 161 221 268 300 369
#     4  11  20  41  64  88 121 169 222 251 312 375
#     4  11  23  38  59  95 135 162 202 257 333 370
#     4  11  22  39  63  94 124 164 210 264 311 382
#     4  11  19  41  67  90 122 168 219 265 305 375
#     4  10  23  38  62  92 126 166 209 261 315 377
#
# _framework density 21.097514
#
# number of rings (size 3 to 8) (size 9 to 14) (size 15 to 20)
#    0.000    1.429    4.286    2.143    0.000    1.714 
#    2.571   12.857    0.000    0.000    0.000    0.000 
#    0.000    0.000    0.000    0.000    0.000    0.000 
#
# Total GULP energy -346935.401380 kJ/mol
# GULP energy per Si atom -12390.550049 kJ/mol
# Density = 2.104950 g / cm^3
# Si number density = 21.097514 Si / 1000 Ang^3
#
#
#
# Elastic Constant Matrix: (Units=GPa)
#
#
# Indices 1 2 3 4 5 6 
#
# 1 32.7941 19.2968 28.8181 0.0000 9.6721 0.0000
# 2 19.2968 96.5258 37.4973 0.0000 5.7959 0.0000
# 3 28.8181 37.4973 106.8882 0.0000 2.9512 0.0000
# 4 0.0000 0.0000 0.0000 33.5586 0.0000 -0.3521
# 5 9.6721 5.7959 2.9512 0.0000 26.7777 0.0000
# 6 0.0000 0.0000 0.0000 -0.3521 0.0000 33.8066
#
#
#
# Elastic Compliance Matrix: (Units=1/GPa)
#
#
# Indices 1 2 3 4 5 6 
#
# 1 0.046790 -0.004312 -0.010694 0.000000 -0.014789 0.000000
# 2 -0.004312 0.012515 -0.003206 0.000000 -0.000798 0.000000
# 3 -0.010694 -0.003206 0.013278 0.000000 0.003093 0.000000
# 4 0.000000 0.000000 0.000000 0.029802 0.000000 0.000310
# 5 -0.014789 -0.000798 0.003093 0.000000 0.042518 0.000000
# 6 0.000000 0.000000 0.000000 0.000310 0.000000 0.029583
#
#
# Mechanical properties :
#
#
# Convention : Reuss Voigt Hill
#
# Bulk Modulus (GPa) = 27.65514 45.27029 36.46271
# Shear Modulus (GPa) = 22.42530 28.86830 25.64680
#
# Velocity S-wave (km/s) = 3.26381 3.70310 3.49037
# Velocity P-wave (km/s) = 5.22876 6.30779 5.79345
#
# Compressibility (1/GPa) = 0.03615965
#
# Stress axis : x y z
#
# Youngs Moduli (GPa) = 21.37229 79.90283 75.31205
#
# Poissons Ratio (x) = 0.34450 0.80540
# Poissons Ratio (y) = 0.09215 0.24145
# Poissons Ratio (z) = 0.22856 0.25617
#
# Static dielectric constant tensor:
#      x y z
#    x 3.579850 0.000000 -0.104920 
#    y 0.000000 3.852740 0.000000 
#    z -0.104920 0.000000 4.035220 
# 
# 
# High freq. dielectric constant tensor:
#      x y z
#    x 1.801530 0.000000 -0.012230 
#    y 0.000000 1.831780 0.000000 
#    z -0.012230 0.000000 1.824550 
# 
# From -- ./inp_files/76669.got.cif
#   From: 2010.03.12/outbox.cif.g09.slc.cpg/sg14_39_cif.got.tgz:76669.got - 2010.03.31 13:35:05.
