data_PCOD8124499
_publ_section_title
;
Structure prediction by ZEFSAII (Michael W. Deem and Ramdas Pophale) SiO2 
 PCOD8124499
Probable space group: P 21/C
;
_chemical_formula_sum "Si O2"
_cell_formula_units_Z 32
_cell_length_a 18.435142
_cell_length_b 13.727427
_cell_length_c 25.325213
_cell_angle_alpha 90.000000
_cell_angle_beta 15.415861
_cell_angle_gamma 90.000000
_cell_volume 1703.653552
_symmetry_space_group_name_H-M "P 21/C"
_symmetry_group_IT_number 14
_symmetry_cell_setting 'monoclinic'
loop_
_space_group_symop_operation_xyz
x,y,z
-x,1/2+y,1/2-z
-x,-y,-z
x,1/2-y,1/2+z
loop_
_atom_site_type_symbol
_atom_site_label
_atom_site_fract_x
_atom_site_fract_y
_atom_site_fract_z
Si Si1 0.964738 0.361311 0.064596
Si Si2 0.813646 0.899484 0.021622
Si Si3 0.790780 0.241823 0.787119
Si Si4 0.685580 0.876664 0.409896
Si Si5 0.565309 0.001741 0.793657
Si Si6 0.751323 0.336180 0.431384
Si Si7 0.336389 0.195486 0.772426
Si Si8 0.731280 0.533459 0.766962
O O1 0.909487 0.338575 0.164390
O O2 0.684039 0.399790 0.235985
O O3 0.191923 0.444514 0.905062
O O4 0.071452 0.266805 0.957336
O O5 0.988451 0.828446 0.860787
O O6 0.619693 0.840450 0.198090
O O7 0.015461 0.960752 0.917905
O O8 0.645665 0.972006 0.103616
O O9 0.730426 0.190611 0.884739
O O10 0.517332 0.285357 0.952898
O O11 0.785441 0.904396 0.281593
O O12 0.936058 0.844483 0.270600
O O13 0.547091 0.971050 0.534143
O O14 0.411323 0.937155 0.945809
O O15 0.611612 0.250885 0.563420
O O16 0.283422 0.104996 0.771815
#
# Coordination Sequence:
#
# PCOD8124499 Si02
#       8
#     4   4   4   4   4   4   4   4
#     4   9  22  41  56  81 118 152 187 234 285 338
#     4  10  21  38  60  85 113 148 191 238 287 340
#     4  10  22  40  58  87 117 147 194 238 281 341
#     4  10  21  36  59  87 118 147 184 241 288 331
#     4  10  21  40  58  80 117 154 189 232 287 339
#     4  11  22  37  60  87 115 152 194 231 283 347
#     4  10  21  38  59  87 112 146 193 236 282 344
#     4  10  19  38  60  83 118 145 185 242 290 332
#
# _framework density 18.783161
#
# number of rings (size 3 to 8) (size 9 to 14) (size 15 to 20)
#    0.000    2.000    2.500    0.375    1.750    2.500 
#    4.500    0.000    0.000    0.000    0.000    0.000 
#    0.000    0.000    0.000    0.000    0.000    0.000 
#
# Total GULP energy -396869.356134 kJ/mol
# GULP energy per Si atom -12402.167379 kJ/mol
# Density = 1.874041 g / cm^3
# Si number density = 18.783161 Si / 1000 Ang^3
#
#
#
# Elastic Constant Matrix: (Units=GPa)
#
#
# Indices 1 2 3 4 5 6 
#
# 1 75.4640 54.1727 50.5251 0.0000 9.3410 0.0000
# 2 54.1727 97.2141 42.0214 0.0000 6.5857 0.0000
# 3 50.5251 42.0214 92.6049 0.0000 4.5808 0.0000
# 4 0.0000 0.0000 0.0000 23.2698 0.0000 1.8012
# 5 9.3410 6.5857 4.5808 0.0000 29.5483 0.0000
# 6 0.0000 0.0000 0.0000 1.8012 0.0000 35.2687
#
#
#
# Elastic Compliance Matrix: (Units=1/GPa)
#
#
# Indices 1 2 3 4 5 6 
#
# 1 0.028960 -0.011290 -0.010429 0.000000 -0.005022 0.000000
# 2 -0.011290 0.017312 -0.001695 0.000000 -0.000027 0.000000
# 3 -0.010429 -0.001695 0.017208 0.000000 0.001007 0.000000
# 4 0.000000 0.000000 0.000000 0.043145 0.000000 -0.002203
# 5 -0.005022 -0.000027 0.001007 0.000000 0.035280 0.000000
# 6 0.000000 0.000000 0.000000 -0.002203 0.000000 0.028466
#
#
# Mechanical properties :
#
#
# Convention : Reuss Voigt Hill
#
# Bulk Modulus (GPa) = 60.05005 62.08015 61.06510
# Shear Modulus (GPa) = 22.44671 25.52161 23.98416
#
# Velocity S-wave (km/s) = 3.46069 3.69012 3.57725
# Velocity P-wave (km/s) = 6.92879 7.16091 7.04581
#
# Compressibility (1/GPa) = 0.01665278
#
# Stress axis : x y z
#
# Youngs Moduli (GPa) = 34.53039 57.76283 58.11271
#
# Poissons Ratio (x) = 0.65213 0.60607
# Poissons Ratio (y) = 0.38984 0.09849
# Poissons Ratio (z) = 0.36012 0.09790
#
# Static dielectric constant tensor:
#      x y z
#    x 3.164230 0.000000 0.105230 
#    y 0.000000 3.607610 0.000000 
#    z 0.105230 0.000000 3.592140 
# 
# 
# High freq. dielectric constant tensor:
#      x y z
#    x 1.712890 0.000000 0.010330 
#    y 0.000000 1.739580 0.000000 
#    z 0.010330 0.000000 1.738310 
# 
# From -- ./inp_files/68625.got.cif
#   From: 2010.03.12/outbox.cif.g09.slc.cpg/sg14_35_cif.got.tgz:68625.got - 2010.03.31 13:35:05.
