data_PCOD8124448
_publ_section_title
;
Structure prediction by ZEFSAII (Michael W. Deem and Ramdas Pophale) SiO2 
 PCOD8124448
Probable space group: P 21/C
;
_chemical_formula_sum "Si O2"
_cell_formula_units_Z 32
_cell_length_a 8.968030
_cell_length_b 12.811321
_cell_length_c 24.903659
_cell_angle_alpha 90.000000
_cell_angle_beta 33.812833
_cell_angle_gamma 90.000000
_cell_volume 1592.227176
_symmetry_space_group_name_H-M "P 21/C"
_symmetry_group_IT_number 14
_symmetry_cell_setting 'monoclinic'
loop_
_space_group_symop_operation_xyz
x,y,z
-x,1/2+y,1/2-z
-x,-y,-z
x,1/2-y,1/2+z
loop_
_atom_site_type_symbol
_atom_site_label
_atom_site_fract_x
_atom_site_fract_y
_atom_site_fract_z
Si Si1 0.820103 0.987967 0.630997
Si Si2 0.223154 0.549091 0.100559
Si Si3 0.125209 0.648676 0.493203
Si Si4 0.886640 0.839656 0.515398
Si Si5 0.369342 0.014838 0.847177
Si Si6 0.567204 0.602376 0.447278
Si Si7 0.821422 0.456509 0.297240
Si Si8 0.440281 0.760552 0.077868
O O1 0.949066 0.101387 0.580464
O O2 0.768848 0.924738 0.591771
O O3 0.527686 0.997884 0.744573
O O4 0.023787 0.930464 0.610601
O O5 0.269198 0.660264 0.113517
O O6 0.093120 0.466440 0.181672
O O7 0.500000 0.500000 0.000000
O O8 0.214310 0.589254 0.412206
O O9 0.330270 0.641590 0.480322
O O10 0.094238 0.768554 0.485833
O O11 0.843260 0.605915 0.599612
O O12 0.646466 0.769746 0.563245
O O13 0.564313 0.047345 0.836301
O O14 0.500000 0.500000 0.500000
O O15 0.814737 0.562131 0.336376
O O16 0.621413 0.695414 0.473688
O O17 0.788351 0.346731 0.338579
#
# Coordination Sequence:
#
# PCOD8124448 Si02
#       8
#     4   4   4   4   4   4   4   4
#     4  10  23  42  57  88 126 160 202 259 299 371
#     4  11  22  40  62  87 126 168 201 253 315 367
#     4  10  19  37  63  91 117 161 201 253 304 359
#     4  11  22  39  63  88 123 160 209 252 303 371
#     4   9  19  37  63  87 121 155 203 253 299 354
#     4   9  20  38  61  92 124 154 201 257 307 363
#     4   9  20  40  61  91 127 153 212 262 292 372
#     4  11  21  40  63  93 120 169 203 252 323 360
#
# _framework density 20.097633999999999
#
# number of rings (size 3 to 8) (size 9 to 14) (size 15 to 20)
#    0.000    2.000    2.500    0.750    1.750    2.000 
#    4.500    2.500    0.000    0.000    0.000    0.000 
#    0.000    0.000    0.000    0.000    0.000    0.000 
#
# Total GULP energy -396655.227008 kJ/mol
# GULP energy per Si atom -12395.475844 kJ/mol
# Density = 2.005189 g / cm^3
# Si number density = 20.097634 Si / 1000 Ang^3
#
#
#
# Elastic Constant Matrix: (Units=GPa)
#
#
# Indices 1 2 3 4 5 6 
#
# 1 79.1997 37.7538 32.2813 0.0000 8.7541 0.0000
# 2 37.7538 112.7562 44.7841 0.0000 1.9644 0.0000
# 3 32.2813 44.7841 143.6728 0.0000 0.8416 0.0000
# 4 0.0000 0.0000 0.0000 21.1404 0.0000 7.2277
# 5 8.7541 1.9644 0.8416 0.0000 25.6103 0.0000
# 6 0.0000 0.0000 0.0000 7.2277 0.0000 39.0903
#
#
#
# Elastic Compliance Matrix: (Units=1/GPa)
#
#
# Indices 1 2 3 4 5 6 
#
# 1 0.016227 -0.004460 -0.002226 0.000000 -0.005131 0.000000
# 2 -0.004460 0.011359 -0.002543 0.000000 0.000737 0.000000
# 3 -0.002226 -0.002543 0.008249 0.000000 0.000685 0.000000
# 4 0.000000 0.000000 0.000000 0.050495 0.000000 -0.009336
# 5 -0.005131 0.000737 0.000685 0.000000 0.040722 0.000000
# 6 0.000000 0.000000 0.000000 -0.009336 0.000000 0.027308
#
#
# Mechanical properties :
#
#
# Convention : Reuss Voigt Hill
#
# Bulk Modulus (GPa) = 57.54451 62.80746 60.17599
# Shear Modulus (GPa) = 27.99414 31.88883 29.94149
#
# Velocity S-wave (km/s) = 3.73622 3.98766 3.86398
# Velocity P-wave (km/s) = 6.87801 7.24713 7.06498
#
# Compressibility (1/GPa) = 0.01737785
#
# Stress axis : x y z
#
# Youngs Moduli (GPa) = 61.62734 88.03503 121.22656
#
# Poissons Ratio (x) = 0.39261 0.26981
# Poissons Ratio (y) = 0.27484 0.30828
# Poissons Ratio (z) = 0.13716 0.22387
#
# Static dielectric constant tensor:
#      x y z
#    x 3.632850 0.000000 0.307600 
#    y 0.000000 3.760940 0.000000 
#    z 0.307600 0.000000 3.893660 
# 
# 
# High freq. dielectric constant tensor:
#      x y z
#    x 1.780920 0.000000 0.015260 
#    y 0.000000 1.785900 0.000000 
#    z 0.015260 0.000000 1.780110 
# 
# From -- ./inp_files/72344.got.cif
#   From: 2010.03.12/outbox.cif.g09.slc.cpg/sg14_37_cif.got.tgz:72344.got - 2010.03.31 13:35:05.
