data_PCOD8125910
_publ_section_title
;
Structure prediction by ZEFSAII (Michael W. Deem and Ramdas Pophale) SiO2 
 PCOD8125910
Probable space group: P 21/C
;
_chemical_formula_sum "Si O2"
_cell_formula_units_Z 28
_cell_length_a 19.876108
_cell_length_b 8.448110
_cell_length_c 16.881152
_cell_angle_alpha 90.000000
_cell_angle_beta 151.896884
_cell_angle_gamma 90.000000
_cell_volume 1335.269970
_symmetry_space_group_name_H-M "P 21/C"
_symmetry_group_IT_number 14
_symmetry_cell_setting 'monoclinic'
loop_
_space_group_symop_operation_xyz
x,y,z
-x,1/2+y,1/2-z
-x,-y,-z
x,1/2-y,1/2+z
loop_
_atom_site_type_symbol
_atom_site_label
_atom_site_fract_x
_atom_site_fract_y
_atom_site_fract_z
Si Si1 0.774350 0.232475 0.942516
Si Si2 0.379037 0.588986 0.978659
Si Si3 0.393355 0.023241 0.671600
Si Si4 0.288708 0.898250 0.954684
Si Si5 0.691505 0.946365 0.749492
Si Si6 0.842945 0.759919 0.520920
Si Si7 0.033930 0.069718 0.713145
O O1 0.670476 0.383372 0.841538
O O2 0.786987 0.157707 0.042625
O O3 0.707707 0.113882 0.810520
O O4 0.931470 0.289839 0.074913
O O5 0.291622 0.476955 0.827018
O O6 0.385787 0.507587 0.070601
O O7 0.296634 0.756519 0.899797
O O8 0.535282 0.622787 0.105991
O O9 0.555992 0.035265 0.866836
O O10 0.308562 0.186818 0.597850
O O11 0.177078 0.035036 0.808607
O O12 0.809137 0.818703 0.900102
O O13 0.914631 0.619829 0.645670
O O14 0.944246 0.909043 0.620823
#
# Coordination Sequence:
#
# PCOD8125910 Si02
#       7
#     4   4   4   4   4   4   4
#     4  10  21  36  59  87 117 158 197 248 291 359
#     4  10  22  36  61  92 116 158 191 255 300 354
#     4  10  21  36  64  90 116 146 208 249 295 338
#     4  11  19  37  59  92 115 151 204 250 284 357
#     4  11  20  39  62  85 124 153 201 240 311 355
#     4  11  20  37  62  90 115 158 198 247 290 359
#     4  11  21  35  62  86 120 153 208 240 297 347
#
# _framework density 20.969541
#
# number of rings (size 3 to 8) (size 9 to 14) (size 15 to 20)
#    0.000    1.429    5.714    0.000    2.000    0.000 
#    0.000    2.143    6.286    0.000    0.000    0.000 
#    0.000    0.000    0.000    0.000    0.000    0.000 
#
# Total GULP energy -347022.768065 kJ/mol
# GULP energy per Si atom -12393.670288 kJ/mol
# Density = 2.092181 g / cm^3
# Si number density = 20.969541 Si / 1000 Ang^3
#
#
#
# Elastic Constant Matrix: (Units=GPa)
#
#
# Indices 1 2 3 4 5 6 
#
# 1 48.6609 8.3622 21.0426 0.0000 7.7146 0.0000
# 2 8.3622 60.4525 21.8222 0.0000 8.3372 0.0000
# 3 21.0426 21.8222 79.2212 0.0000 31.9910 0.0000
# 4 0.0000 0.0000 0.0000 40.1604 0.0000 7.6689
# 5 7.7146 8.3372 31.9910 0.0000 22.7406 0.0000
# 6 0.0000 0.0000 0.0000 7.6689 0.0000 24.7100
#
#
#
# Elastic Compliance Matrix: (Units=1/GPa)
#
#
# Indices 1 2 3 4 5 6 
#
# 1 0.023314 -0.001083 -0.006624 0.000000 0.001806 0.000000
# 2 -0.001083 0.018426 -0.005113 0.000000 0.000805 0.000000
# 3 -0.006624 -0.005113 0.032706 0.000000 -0.041889 0.000000
# 4 0.000000 0.000000 0.000000 0.026469 0.000000 -0.008215
# 5 0.001806 0.000805 -0.041889 0.000000 0.101995 0.000000
# 6 0.000000 0.000000 0.000000 -0.008215 0.000000 0.043019
#
#
# Mechanical properties :
#
#
# Convention : Reuss Voigt Hill
#
# Bulk Modulus (GPa) = 20.48862 32.30985 26.39924
# Shear Modulus (GPa) = 17.37085 26.66270 22.01678
#
# Velocity S-wave (km/s) = 2.88129 3.56967 3.24379
# Velocity P-wave (km/s) = 4.56738 5.69487 5.16200
#
# Compressibility (1/GPa) = 0.04880758
#
# Stress axis : x y z
#
# Youngs Moduli (GPa) = 42.89178 54.26980 30.57527
#
# Poissons Ratio (x) = 0.05878 0.20252
# Poissons Ratio (y) = 0.04645 0.15633
# Poissons Ratio (z) = 0.28410 0.27749
#
# Static dielectric constant tensor:
#      x y z
#    x 3.617150 0.000000 0.293550 
#    y 0.000000 4.048490 0.000000 
#    z 0.293550 0.000000 4.048880 
# 
# 
# High freq. dielectric constant tensor:
#      x y z
#    x 1.777400 0.000000 0.020570 
#    y 0.000000 1.831970 0.000000 
#    z 0.020570 0.000000 1.832990 
# 
# From -- ./inp_files/61075.got.cif
#   From: 2010.03.12/outbox.cif.g09.slc.cpg/sg14_31_cif.got.tgz:61075.got - 2010.03.31 13:35:05.
