data_PCOD8125872
_publ_section_title
;
Structure prediction by ZEFSAII (Michael W. Deem and Ramdas Pophale) SiO2 
 PCOD8125872
Probable space group: P 21/C
;
_chemical_formula_sum "Si O2"
_cell_formula_units_Z 32
_cell_length_a 22.579767
_cell_length_b 5.280043
_cell_length_c 11.091986
_cell_angle_alpha 90.000000
_cell_angle_beta 86.234408
_cell_angle_gamma 90.000000
_cell_volume 1319.555348
_symmetry_space_group_name_H-M "P 21/C"
_symmetry_group_IT_number 14
_symmetry_cell_setting 'monoclinic'
loop_
_space_group_symop_operation_xyz
x,y,z
-x,1/2+y,1/2-z
-x,-y,-z
x,1/2-y,1/2+z
loop_
_atom_site_type_symbol
_atom_site_label
_atom_site_fract_x
_atom_site_fract_y
_atom_site_fract_z
Si Si1 0.682175 0.048948 0.589561
Si Si2 0.574123 0.035912 0.782571
Si Si3 0.963019 0.147784 0.745666
Si Si4 0.790756 0.434791 0.250166
Si Si5 0.935167 0.378625 0.508314
Si Si6 0.720123 0.953218 0.998126
Si Si7 0.464635 0.035585 0.625568
Si Si8 0.828957 0.569794 0.654939
O O1 0.745310 0.068536 0.645984
O O2 0.685212 0.814977 0.493479
O O3 0.628073 0.994560 0.685068
O O4 0.672578 0.319927 0.525782
O O5 0.510370 0.047105 0.728680
O O6 0.581142 0.300152 0.853777
O O7 0.573672 0.794872 0.872853
O O8 0.932364 0.167407 0.616790
O O9 0.014430 0.360988 0.743814
O O10 0.922745 0.212624 0.871550
O O11 0.754795 0.468377 0.375756
O O12 0.829679 0.176356 0.243299
O O13 0.836052 0.672615 0.231442
O O14 0.882242 0.570384 0.550548
O O15 0.000000 0.500000 0.500000
O O16 0.765025 0.926548 0.102271
O O17 0.500000 0.000000 0.500000
#
# Coordination Sequence:
#
# PCOD8125872 Si02
#       8
#     4   4   4   4   4   4   4   4
#     4  10  21  37  59  87 111 149 194 243 290 343
#     4  10  21  36  55  83 117 148 197 241 280 344
#     4  10  22  40  62  88 123 155 198 245 292 349
#     4  10  22  40  60  84 117 147 194 239 298 350
#     4  10  23  43  63  93 123 161 201 249 299 366
#     4  10  21  39  59  83 115 147 191 242 295 354
#     4  10  21  36  54  81 118 158 190 234 287 344
#     4  10  23  39  59  87 114 153 189 240 296 355
#
# _framework density 24.250592999999999
#
# number of rings (size 3 to 8) (size 9 to 14) (size 15 to 20)
#    0.000    2.000    0.000    2.250    1.750    6.000 
#    4.500    0.000    0.000    0.000    0.000    0.000 
#    0.000    0.000    0.000    0.000    0.000    0.000 
#
# Total GULP energy -396502.228730 kJ/mol
# GULP energy per Si atom -12390.694648 kJ/mol
# Density = 2.419540 g / cm^3
# Si number density = 24.250593 Si / 1000 Ang^3
#
#
#
# Elastic Constant Matrix: (Units=GPa)
#
#
# Indices 1 2 3 4 5 6 
#
# 1 38.1518 11.2308 -11.5706 0.0000 -22.0087 0.0000
# 2 11.2308 184.3387 33.4511 0.0000 -20.4990 0.0000
# 3 -11.5706 33.4511 130.5044 0.0000 -24.9643 0.0000
# 4 0.0000 0.0000 0.0000 30.9035 0.0000 -20.6775
# 5 -22.0087 -20.4990 -24.9643 0.0000 39.4270 0.0000
# 6 0.0000 0.0000 0.0000 -20.6775 0.0000 10.9660
#
#
#
# Elastic Compliance Matrix: (Units=1/GPa)
#
#
# Indices 1 2 3 4 5 6 
#
# 1 0.049792 -0.001271 0.011299 0.000000 0.034288 0.000000
# 2 -0.001271 0.005914 -0.001338 0.000000 0.001518 0.000000
# 3 0.011299 -0.001338 0.011470 0.000000 0.012874 0.000000
# 4 0.000000 0.000000 0.000000 -0.123671 0.000000 -0.233193
# 5 0.034288 0.001518 0.012874 0.000000 0.053445 0.000000
# 6 0.000000 0.000000 0.000000 -0.233193 0.000000 -0.348518
#
#
# Mechanical properties :
#
#
# Convention : Reuss Voigt Hill
#
# Bulk Modulus (GPa) = 11.82644 46.57975 29.20309
# Shear Modulus (GPa) = -14.67294 37.58487 11.45596
#
# Velocity S-wave (km/s) = -2.46246 3.94109 2.17583
# Velocity P-wave (km/s) = 1.78817 6.32131 4.28727
#
# Compressibility (1/GPa) = 0.08455630
#
# Stress axis : x y z
#
# Youngs Moduli (GPa) = 20.08356 169.09406 87.18282
#
# Poissons Ratio (x) = 0.21493 -0.98511
# Poissons Ratio (y) = 0.02553 0.11667
# Poissons Ratio (z) = -0.22693 0.22628
#
# Static dielectric constant tensor:
#      x y z
#    x 4.301640 0.000000 0.139040 
#    y 0.000000 5.281330 0.000000 
#    z 0.139040 0.000000 4.585700 
# 
# 
# High freq. dielectric constant tensor:
#      x y z
#    x 1.949070 0.000000 -0.012610 
#    y 0.000000 1.976230 0.000000 
#    z -0.012610 0.000000 1.962970 
# 
# From -- ./inp_files/35598.got.cif
#   From: 2010.03.12/outbox.cif.g09.slc.cpg/sg14_18_cif.got.tgz:35598.got - 2010.03.31 13:35:05.
