data_PCOD8125476
_publ_section_title
;
Structure prediction by ZEFSAII (Michael W. Deem and Ramdas Pophale) SiO2 
 PCOD8125476
Probable space group: P 21/C
;
_chemical_formula_sum "Si O2"
_cell_formula_units_Z 24
_cell_length_a 22.006429
_cell_length_b 8.841749
_cell_length_c 15.484694
_cell_angle_alpha 90.000000
_cell_angle_beta 159.677985
_cell_angle_gamma 90.000000
_cell_volume 1046.381757
_symmetry_space_group_name_H-M "P 21/C"
_symmetry_group_IT_number 14
_symmetry_cell_setting 'monoclinic'
loop_
_space_group_symop_operation_xyz
x,y,z
-x,1/2+y,1/2-z
-x,-y,-z
x,1/2-y,1/2+z
loop_
_atom_site_type_symbol
_atom_site_label
_atom_site_fract_x
_atom_site_fract_y
_atom_site_fract_z
Si Si1 0.667718 0.063360 0.998262
Si Si2 0.192590 0.616507 0.968107
Si Si3 0.674526 0.417591 0.030105
Si Si4 0.310938 0.060013 0.272403
Si Si5 0.072877 0.564899 0.304908
Si Si6 0.569874 0.619150 0.524830
O O1 0.504194 0.009297 0.723446
O O2 0.641449 0.237413 0.991246
O O3 0.842737 0.033021 0.175865
O O4 0.688696 0.964414 0.112322
O O5 0.389707 0.680303 0.241723
O O6 0.188012 0.547647 0.864599
O O7 0.063319 0.757105 0.807283
O O8 0.128616 0.494707 0.954963
O O9 0.753173 0.480972 0.224215
O O10 0.318922 0.242186 0.289907
O O11 0.500000 0.000000 0.500000
O O12 0.172973 0.020814 0.015118
O O13 0.500000 0.500000 0.500000
#
# Coordination Sequence:
#
# PCOD8125476 Si02
#       6
#     4   4   4   4   4   4
#     4  10  21  38  64  91 124 166 209 257 312 373
#     4  10  24  41  60  94 127 163 206 254 321 373
#     4  10  20  39  62  91 125 163 213 259 305 379
#     4  12  21  40  67  93 123 161 213 261 307 365
#     4  11  24  41  65  91 128 165 204 259 320 372
#     4  11  24  41  66  96 120 162 217 259 306 379
#
# _framework density 22.93618
#
# number of rings (size 3 to 8) (size 9 to 14) (size 15 to 20)
#    0.000    1.333    3.333    3.000    2.333    3.333 
#    0.000    0.833    0.000    0.000    0.000    0.000 
#    0.000    0.000    0.000    0.000    0.000    0.000 
#
# Total GULP energy -297567.188494 kJ/mol
# GULP energy per Si atom -12398.632854 kJ/mol
# Density = 2.288398 g / cm^3
# Si number density = 22.936180 Si / 1000 Ang^3
#
#
#
# Elastic Constant Matrix: (Units=GPa)
#
#
# Indices 1 2 3 4 5 6 
#
# 1 140.8244 62.6177 6.5530 0.0000 13.7415 0.0000
# 2 62.6177 119.2713 5.0615 0.0000 22.4543 0.0000
# 3 6.5530 5.0615 17.9665 0.0000 11.8802 0.0000
# 4 0.0000 0.0000 0.0000 31.1363 0.0000 5.4223
# 5 13.7415 22.4543 11.8802 0.0000 35.7484 0.0000
# 6 0.0000 0.0000 0.0000 5.4223 0.0000 48.1086
#
#
#
# Elastic Compliance Matrix: (Units=1/GPa)
#
#
# Indices 1 2 3 4 5 6 
#
# 1 0.009338 -0.004843 -0.002153 0.000000 0.000168 0.000000
# 2 -0.004843 0.012057 0.002751 0.000000 -0.006626 0.000000
# 3 -0.002153 0.002751 0.072111 0.000000 -0.024865 0.000000
# 4 0.000000 0.000000 0.000000 0.032760 0.000000 -0.003692
# 5 0.000168 -0.006626 -0.024865 0.000000 0.040334 0.000000
# 6 0.000000 0.000000 0.000000 -0.003692 0.000000 0.021202
#
#
# Mechanical properties :
#
#
# Convention : Reuss Voigt Hill
#
# Bulk Modulus (GPa) = 11.76221 47.39186 29.57703
# Shear Modulus (GPa) = 22.25873 36.58733 29.42303
#
# Velocity S-wave (km/s) = 3.11861 3.99830 3.58554
# Velocity P-wave (km/s) = 4.25523 6.48248 5.48314
#
# Compressibility (1/GPa) = 0.08501802
#
# Stress axis : x y z
#
# Youngs Moduli (GPa) = 107.08696 82.93627 13.86754
#
# Poissons Ratio (x) = 0.40164 0.02985
# Poissons Ratio (y) = 0.51860 -0.03815
# Poissons Ratio (z) = 0.23051 -0.22816
#
# Static dielectric constant tensor:
#      x y z
#    x 4.464090 0.000000 0.023270 
#    y 0.000000 4.173690 0.000000 
#    z 0.023270 0.000000 4.226620 
# 
# 
# High freq. dielectric constant tensor:
#      x y z
#    x 1.923360 0.000000 0.005690 
#    y 0.000000 1.916050 0.000000 
#    z 0.005690 0.000000 1.883790 
# 
# From -- ./inp_files/61814.got.cif
#   From: 2010.03.12/outbox.cif.g09.slc.cpg/sg14_31_cif.got.tgz:61814.got - 2010.03.31 13:35:05.
