data_PCOD8125585
_publ_section_title
;
Structure prediction by ZEFSAII (Michael W. Deem and Ramdas Pophale) SiO2 
 PCOD8125585
Probable space group: P 21/C
;
_chemical_formula_sum "Si O2"
_cell_formula_units_Z 28
_cell_length_a 9.423961
_cell_length_b 10.996910
_cell_length_c 13.509295
_cell_angle_alpha 90.000000
_cell_angle_beta 68.778995
_cell_angle_gamma 90.000000
_cell_volume 1305.094077
_symmetry_space_group_name_H-M "P 21/C"
_symmetry_group_IT_number 14
_symmetry_cell_setting 'monoclinic'
loop_
_space_group_symop_operation_xyz
x,y,z
-x,1/2+y,1/2-z
-x,-y,-z
x,1/2-y,1/2+z
loop_
_atom_site_type_symbol
_atom_site_label
_atom_site_fract_x
_atom_site_fract_y
_atom_site_fract_z
Si Si1 0.756883 0.328465 0.926675
Si Si2 0.583453 0.801062 0.751740
Si Si3 0.281358 0.078536 0.461350
Si Si4 0.247750 0.838938 0.797564
Si Si5 0.003188 0.261802 0.009834
Si Si6 0.731733 0.906644 0.102991
Si Si7 0.449703 0.203519 0.017048
O O1 0.785197 0.372115 0.807671
O O2 0.700910 0.441635 0.006922
O O3 0.914365 0.275983 0.928717
O O4 0.631701 0.221419 0.965549
O O5 0.646978 0.910879 0.667248
O O6 0.409107 0.772001 0.767021
O O7 0.678952 0.679089 0.706660
O O8 0.601443 0.838473 0.861084
O O9 0.373811 0.167180 0.510515
O O10 0.104497 0.118532 0.504558
O O11 0.116193 0.749990 0.870079
O O12 0.251341 0.957654 0.864981
O O13 0.106875 0.141390 0.978371
O O14 0.606979 0.899380 0.045713
#
# Coordination Sequence:
#
# PCOD8125585 Si02
#       7
#     4   4   4   4   4   4   4
#     4  12  22  40  67  94 123 165 214 260 316 371
#     4  10  21  38  63  95 121 161 208 265 308 374
#     4  10  23  41  64  96 123 168 208 266 308 377
#     4  12  23  39  68  91 124 174 208 256 325 372
#     4  10  24  43  58  93 136 156 213 263 308 379
#     4  10  24  43  62  93 127 165 210 266 310 384
#     4  10  20  40  63  90 127 158 207 262 315 372
#
# _framework density 21.454391999999999
#
# number of rings (size 3 to 8) (size 9 to 14) (size 15 to 20)
#    0.000    1.714    4.286    2.143    2.000    6.286 
#    0.000    0.000    0.000    0.000    0.000    0.000 
#    0.000    0.000    0.000    0.000    0.000    0.000 
#
# Total GULP energy -347259.445447 kJ/mol
# GULP energy per Si atom -12402.123052 kJ/mol
# Density = 2.140556 g / cm^3
# Si number density = 21.454392 Si / 1000 Ang^3
#
#
#
# Elastic Constant Matrix: (Units=GPa)
#
#
# Indices 1 2 3 4 5 6 
#
# 1 114.7956 12.1624 35.0525 0.0000 -2.5585 0.0000
# 2 12.1624 29.6577 30.4798 0.0000 2.3503 0.0000
# 3 35.0525 30.4798 147.2844 0.0000 12.5482 0.0000
# 4 0.0000 0.0000 0.0000 28.8166 0.0000 2.8293
# 5 -2.5585 2.3503 12.5482 0.0000 48.6244 0.0000
# 6 0.0000 0.0000 0.0000 2.8293 0.0000 19.3552
#
#
#
# Elastic Compliance Matrix: (Units=1/GPa)
#
#
# Indices 1 2 3 4 5 6 
#
# 1 0.009543 -0.001994 -0.001952 0.000000 0.001102 0.000000
# 2 -0.001994 0.043246 -0.008474 0.000000 -0.000008 0.000000
# 3 -0.001952 -0.008474 0.009184 0.000000 -0.002063 0.000000
# 4 0.000000 0.000000 0.000000 0.035207 0.000000 -0.005147
# 5 0.001102 -0.000008 -0.002063 0.000000 0.021157 0.000000
# 6 0.000000 0.000000 0.000000 -0.005147 0.000000 0.052418
#
#
# Mechanical properties :
#
#
# Convention : Reuss Voigt Hill
#
# Bulk Modulus (GPa) = 26.93195 49.68077 38.30636
# Shear Modulus (GPa) = 24.04155 33.62878 28.83516
#
# Velocity S-wave (km/s) = 3.35115 3.96340 3.67007
# Velocity P-wave (km/s) = 5.24919 6.64466 5.98772
#
# Compressibility (1/GPa) = 0.03713061
#
# Stress axis : x y z
#
# Youngs Moduli (GPa) = 104.78702 23.12375 108.88884
#
# Poissons Ratio (x) = 0.04612 0.21259
# Poissons Ratio (y) = 0.20899 0.92273
# Poissons Ratio (z) = 0.20458 0.19595
#
# Static dielectric constant tensor:
#      x y z
#    x 4.126780 0.000000 0.002460 
#    y 0.000000 3.486380 0.000000 
#    z 0.002460 0.000000 3.970610 
# 
# 
# High freq. dielectric constant tensor:
#      x y z
#    x 1.855470 0.000000 -0.000200 
#    y 0.000000 1.817510 0.000000 
#    z -0.000200 0.000000 1.847180 
# 
# From -- ./inp_files/40014.got.cif
#   From: 2010.03.12/outbox.cif.g09.slc.cpg/sg14_21_cif.got.tgz:40014.got - 2010.03.31 13:35:05.
