data_PCOD8125038
_publ_section_title
;
Structure prediction by ZEFSAII (Michael W. Deem and Ramdas Pophale) SiO2 
 PCOD8125038
Probable space group: P 21/C
;
_chemical_formula_sum "Si O2"
_cell_formula_units_Z 32
_cell_length_a 15.341538
_cell_length_b 9.262554
_cell_length_c 18.936387
_cell_angle_alpha 90.000000
_cell_angle_beta 142.531382
_cell_angle_gamma 90.000000
_cell_volume 1636.943635
_symmetry_space_group_name_H-M "P 21/C"
_symmetry_group_IT_number 14
_symmetry_cell_setting 'monoclinic'
loop_
_space_group_symop_operation_xyz
x,y,z
-x,1/2+y,1/2-z
-x,-y,-z
x,1/2-y,1/2+z
loop_
_atom_site_type_symbol
_atom_site_label
_atom_site_fract_x
_atom_site_fract_y
_atom_site_fract_z
Si Si1 0.787028 0.443473 0.482972
Si Si2 0.469755 0.130988 0.768590
Si Si3 0.983359 0.941355 0.593349
Si Si4 0.212827 0.482898 0.679432
Si Si5 0.477061 0.563107 0.148985
Si Si6 0.031797 0.857704 0.180941
Si Si7 0.174585 0.151587 0.645290
Si Si8 0.183978 0.646693 0.924521
O O1 0.616052 0.449439 0.388148
O O2 0.815526 0.448886 0.416633
O O3 0.849341 0.300438 0.560474
O O4 0.870576 0.578489 0.571342
O O5 0.488665 0.303933 0.775206
O O6 0.338284 0.101881 0.737275
O O7 0.427754 0.072991 0.664296
O O8 0.932085 0.870548 0.488209
O O9 0.031976 0.814250 0.676205
O O10 0.851136 0.027450 0.540029
O O11 0.118168 0.050449 0.672131
O O12 0.382944 0.481814 0.805408
O O13 0.133618 0.578135 0.686099
O O14 0.157065 0.319882 0.651854
O O15 0.352719 0.619622 0.016414
O O16 0.092751 0.888845 0.297180
#
# Coordination Sequence:
#
# PCOD8125038 Si02
#       8
#     4   4   4   4   4   4   4   4
#     4  10  21  38  61  85 116 152 192 240 288 339
#     4   9  18  34  59  87 113 140 189 244 291 325
#     4  11  23  34  57  87 115 148 190 238 280 341
#     4  10  21  38  62  85 113 152 193 245 285 337
#     4   9  19  35  58  85 113 150 189 240 288 337
#     4  12  24  38  57  85 121 160 190 228 290 354
#     4  10  20  36  59  88 114 138 191 248 288 323
#     4  11  23  39  58  84 123 153 190 235 292 349
#
# _framework density 19.548625999999999
#
# number of rings (size 3 to 8) (size 9 to 14) (size 15 to 20)
#    0.000    1.750    2.500    1.875    3.500    1.500 
#    0.000    0.000    0.000   13.500    0.000    0.000 
#    0.000    0.000    0.000    0.000    0.000    0.000 
#
# Total GULP energy -396657.743534 kJ/mol
# GULP energy per Si atom -12395.554485 kJ/mol
# Density = 1.950413 g / cm^3
# Si number density = 19.548626 Si / 1000 Ang^3
#
#
#
# Elastic Constant Matrix: (Units=GPa)
#
#
# Indices 1 2 3 4 5 6 
#
# 1 52.0342 29.5361 25.8649 0.0000 15.2790 0.0000
# 2 29.5361 83.8980 22.1123 0.0000 11.6402 0.0000
# 3 25.8649 22.1123 64.3118 0.0000 8.2237 0.0000
# 4 0.0000 0.0000 0.0000 25.8723 0.0000 3.5396
# 5 15.2790 11.6402 8.2237 0.0000 26.5343 0.0000
# 6 0.0000 0.0000 0.0000 3.5396 0.0000 19.7216
#
#
#
# Elastic Compliance Matrix: (Units=1/GPa)
#
#
# Indices 1 2 3 4 5 6 
#
# 1 0.030970 -0.006978 -0.008504 0.000000 -0.012136 0.000000
# 2 -0.006978 0.015224 -0.002174 0.000000 -0.001987 0.000000
# 3 -0.008504 -0.002174 0.019752 0.000000 -0.000271 0.000000
# 4 0.000000 0.000000 0.000000 0.039624 0.000000 -0.007112
# 5 -0.012136 -0.001987 -0.000271 0.000000 0.045631 0.000000
# 6 0.000000 0.000000 0.000000 -0.007112 0.000000 0.051982
#
#
# Mechanical properties :
#
#
# Convention : Reuss Voigt Hill
#
# Bulk Modulus (GPa) = 32.64409 39.47451 36.05930
# Shear Modulus (GPa) = 20.10395 22.60767 21.35581
#
# Velocity S-wave (km/s) = 3.21036 3.40440 3.30880
# Velocity P-wave (km/s) = 5.52060 5.97412 5.75183
#
# Compressibility (1/GPa) = 0.03063341
#
# Stress axis : x y z
#
# Youngs Moduli (GPa) = 32.28953 65.68394 50.62844
#
# Poissons Ratio (x) = 0.45832 0.43056
# Poissons Ratio (y) = 0.22530 0.11008
# Poissons Ratio (z) = 0.27460 0.14281
#
# Static dielectric constant tensor:
#      x y z
#    x 3.431890 0.000000 0.291480 
#    y 0.000000 3.737520 0.000000 
#    z 0.291480 0.000000 3.506270 
# 
# 
# High freq. dielectric constant tensor:
#      x y z
#    x 1.742060 0.000000 0.029080 
#    y 0.000000 1.772720 0.000000 
#    z 0.029080 0.000000 1.754770 
# 
# From -- ./inp_files/68224.got.cif
#   From: 2010.03.12/outbox.cif.g09.slc.cpg/sg14_35_cif.got.tgz:68224.got - 2010.03.31 13:35:05.
