data_PCOD8125715
_publ_section_title
;
Structure prediction by ZEFSAII (Michael W. Deem and Ramdas Pophale) SiO2 
 PCOD8125715
Probable space group: P 21/C
;
_chemical_formula_sum "Si O2"
_cell_formula_units_Z 16
_cell_length_a 13.215131
_cell_length_b 5.160896
_cell_length_c 12.932191
_cell_angle_alpha 90.000000
_cell_angle_beta 49.728688
_cell_angle_gamma 90.000000
_cell_volume 672.959179
_symmetry_space_group_name_H-M "P 21/C"
_symmetry_group_IT_number 14
_symmetry_cell_setting 'monoclinic'
loop_
_space_group_symop_operation_xyz
x,y,z
-x,1/2+y,1/2-z
-x,-y,-z
x,1/2-y,1/2+z
loop_
_atom_site_type_symbol
_atom_site_label
_atom_site_fract_x
_atom_site_fract_y
_atom_site_fract_z
Si Si1 0.958674 0.649671 0.130001
Si Si2 0.815923 0.355424 0.687107
Si Si3 0.584974 0.419088 0.690932
Si Si4 0.184944 0.623640 0.603574
O O1 0.930231 0.372197 0.086352
O O2 0.898058 0.608373 0.286684
O O3 0.108086 0.753667 0.054641
O O4 0.875362 0.864907 0.122727
O O5 0.676436 0.314225 0.723528
O O6 0.786014 0.340984 0.829251
O O7 0.515303 0.686423 0.769253
O O8 0.675507 0.481788 0.531206
#
# Coordination Sequence:
#
# PCOD8125715 Si02
#       4
#     4   4   4   4
#     4  10  20  41  68 100 118 162 207 268 336 354
#     4  10  22  42  65  97 124 167 209 263 326 361
#     4  12  29  43  61  95 132 177 216 251 307 383
#     4  10  23  42  70  94 133 155 215 267 317 388
#
# _framework density 23.775587000000002
#
# number of rings (size 3 to 8) (size 9 to 14) (size 15 to 20)
#    1.500    0.000    2.500    1.500    3.500    4.000 
#    0.000    0.000    0.000    0.000    0.000    0.000 
#    0.000    0.000    0.000    0.000    0.000    0.000 
#
# Total GULP energy -198404.138625 kJ/mol
# GULP energy per Si atom -12400.258664 kJ/mol
# Density = 2.372147 g / cm^3
# Si number density = 23.775587 Si / 1000 Ang^3
#
#
#
# Elastic Constant Matrix: (Units=GPa)
#
#
# Indices 1 2 3 4 5 6 
#
# 1 106.9001 24.0499 26.5903 0.0000 -4.5256 0.0000
# 2 24.0499 123.4137 38.9271 0.0000 -7.8423 0.0000
# 3 26.5903 38.9271 111.6808 0.0000 -23.4964 0.0000
# 4 0.0000 0.0000 0.0000 35.1728 0.0000 -2.6935
# 5 -4.5256 -7.8423 -23.4964 0.0000 29.5671 0.0000
# 6 0.0000 0.0000 0.0000 -2.6935 0.0000 40.8555
#
#
#
# Elastic Compliance Matrix: (Units=1/GPa)
#
#
# Indices 1 2 3 4 5 6 
#
# 1 0.010148 -0.001364 -0.002029 0.000000 -0.000421 0.000000
# 2 -0.001364 0.009288 -0.002928 0.000000 -0.000072 0.000000
# 3 -0.002029 -0.002928 0.012282 0.000000 0.008674 0.000000
# 4 0.000000 0.000000 0.000000 0.028575 0.000000 0.001884
# 5 -0.000421 -0.000072 0.008674 0.000000 0.040631 0.000000
# 6 0.000000 0.000000 0.000000 0.001884 0.000000 0.024601
#
#
# Mechanical properties :
#
#
# Convention : Reuss Voigt Hill
#
# Bulk Modulus (GPa) = 52.42161 57.90323 55.16242
# Shear Modulus (GPa) = 34.59586 37.94758 36.27172
#
# Velocity S-wave (km/s) = 3.81872 3.99942 3.91011
# Velocity P-wave (km/s) = 6.44514 6.76270 6.60583
#
# Compressibility (1/GPa) = 0.01907610
#
# Stress axis : x y z
#
# Youngs Moduli (GPa) = 98.53758 107.67130 81.41678
#
# Poissons Ratio (x) = 0.14690 0.16522
# Poissons Ratio (y) = 0.13444 0.23835
# Poissons Ratio (z) = 0.19996 0.31521
#
# Static dielectric constant tensor:
#      x y z
#    x 4.068560 0.000000 0.175240 
#    y 0.000000 4.008850 0.000000 
#    z 0.175240 0.000000 4.491800 
# 
# 
# High freq. dielectric constant tensor:
#      x y z
#    x 1.945850 0.000000 0.023350 
#    y 0.000000 1.940340 0.000000 
#    z 0.023350 0.000000 1.972370 
# 
# From -- ./inp_files/27440.got.cif
#   From: 2010.03.12/outbox.cif.g09.slc.cpg/sg14_14_cif.got.tgz:27440.got - 2010.03.31 13:35:05.
