data_PCOD8125322
_publ_section_title
;
Structure prediction by ZEFSAII (Michael W. Deem and Ramdas Pophale) SiO2 
 PCOD8125322
Probable space group: P 21/C
;
_chemical_formula_sum "Si O2"
_cell_formula_units_Z 12
_cell_length_a 29.296388
_cell_length_b 4.907667
_cell_length_c 15.772942
_cell_angle_alpha 90.000000
_cell_angle_beta 165.811377
_cell_angle_gamma 90.000000
_cell_volume 555.867845
_symmetry_space_group_name_H-M "P 21/C"
_symmetry_group_IT_number 14
_symmetry_cell_setting 'monoclinic'
loop_
_space_group_symop_operation_xyz
x,y,z
-x,1/2+y,1/2-z
-x,-y,-z
x,1/2-y,1/2+z
loop_
_atom_site_type_symbol
_atom_site_label
_atom_site_fract_x
_atom_site_fract_y
_atom_site_fract_z
Si Si1 0.499989 0.810177 0.306883
Si Si2 0.304554 0.388463 0.679180
Si Si3 0.186760 0.870133 0.371506
O O1 0.562395 0.589064 0.350201
O O2 0.680508 0.871495 0.691655
O O3 0.322079 0.698802 0.037448
O O4 0.149036 0.598295 0.361518
O O5 0.281054 0.085988 0.603101
O O6 0.500000 0.500000 0.000000
O O7 0.000000 0.000000 0.000000
#
# Coordination Sequence:
#
# PCOD8125322 Si02
#       3
#     4   4   4
#     4  11  21  37  61  88 116 153 197 242 286 342
#     4  10  20  38  61  84 114 159 197 228 285 363
#     4  11  22  39  62  88 116 154 197 240 287 345
#
# _framework density 21.587864
#
# number of rings (size 3 to 8) (size 9 to 14) (size 15 to 20)
#    0.000    1.333    0.000   11.000    0.000    0.000 
#    0.000    6.667    0.000    4.000    0.000    0.000 
#    0.000    0.000    0.000    0.000    0.000    0.000 
#
# Total GULP energy -148757.433691 kJ/mol
# GULP energy per Si atom -12396.452808 kJ/mol
# Density = 2.153873 g / cm^3
# Si number density = 21.587864 Si / 1000 Ang^3
#
#
#
# Elastic Constant Matrix: (Units=GPa)
#
#
# Indices 1 2 3 4 5 6 
#
# 1 77.9507 36.1293 43.7554 0.0000 -37.9798 0.0000
# 2 36.1293 115.8250 19.8177 0.0000 -24.2608 0.0000
# 3 43.7554 19.8177 97.3447 0.0000 -25.0495 0.0000
# 4 0.0000 0.0000 0.0000 54.9635 0.0000 -20.6657
# 5 -37.9798 -24.2608 -25.0495 0.0000 36.4034 0.0000
# 6 0.0000 0.0000 0.0000 -20.6657 0.0000 50.1939
#
#
#
# Elastic Compliance Matrix: (Units=1/GPa)
#
#
# Indices 1 2 3 4 5 6 
#
# 1 0.029923 -0.003046 -0.006463 0.000000 0.024742 0.000000
# 2 -0.003046 0.010357 0.000266 0.000000 0.003908 0.000000
# 3 -0.006463 0.000266 0.013895 0.000000 0.002995 0.000000
# 4 0.000000 0.000000 0.000000 0.021526 0.000000 0.008863
# 5 0.024742 0.003908 0.002995 0.000000 0.057948 0.000000
# 6 0.000000 0.000000 0.000000 0.008863 0.000000 0.023572
#
#
# Mechanical properties :
#
#
# Convention : Reuss Voigt Hill
#
# Bulk Modulus (GPa) = 28.02019 54.50280 41.26150
# Shear Modulus (GPa) = 26.65213 41.07338 33.86276
#
# Velocity S-wave (km/s) = 3.51748 4.36663 3.96485
# Velocity P-wave (km/s) = 5.43182 7.12215 6.33363
#
# Compressibility (1/GPa) = 0.03568855
#
# Stress axis : x y z
#
# Youngs Moduli (GPa) = 33.41900 96.55554 71.97080
#
# Poissons Ratio (x) = 0.29407 0.46517
# Poissons Ratio (y) = 0.10178 -0.01915
# Poissons Ratio (z) = 0.21600 -0.02569
#
# Static dielectric constant tensor:
#      x y z
#    x 3.870110 0.000000 -0.641260 
#    y 0.000000 4.862250 0.000000 
#    z -0.641260 0.000000 4.030060 
# 
# 
# High freq. dielectric constant tensor:
#      x y z
#    x 1.824370 0.000000 -0.043080 
#    y 0.000000 1.881260 0.000000 
#    z -0.043080 0.000000 1.839450 
# 
# From -- ./inp_files/22403.got.cif
#   From: 2010.03.12/outbox.cif.g09.slc.cpg/sg14_12_cif.got.tgz:22403.got - 2010.03.31 13:35:05.
