data_PCOD8125092
_publ_section_title
;
Structure prediction by ZEFSAII (Michael W. Deem and Ramdas Pophale) SiO2 
 PCOD8125092
Probable space group: P 21/C
;
_chemical_formula_sum "Si O2"
_cell_formula_units_Z 28
_cell_length_a 11.777275
_cell_length_b 9.254624
_cell_length_c 19.489803
_cell_angle_alpha 90.000000
_cell_angle_beta 38.018979
_cell_angle_gamma 90.000000
_cell_volume 1308.389621
_symmetry_space_group_name_H-M "P 21/C"
_symmetry_group_IT_number 14
_symmetry_cell_setting 'monoclinic'
loop_
_space_group_symop_operation_xyz
x,y,z
-x,1/2+y,1/2-z
-x,-y,-z
x,1/2-y,1/2+z
loop_
_atom_site_type_symbol
_atom_site_label
_atom_site_fract_x
_atom_site_fract_y
_atom_site_fract_z
Si Si1 0.496189 0.732051 0.014189
Si Si2 0.084353 0.406028 0.861755
Si Si3 0.178626 0.320414 0.554481
Si Si4 0.965918 0.910195 0.161978
Si Si5 0.742129 0.921974 0.582672
Si Si6 0.443236 0.462234 0.135997
Si Si7 0.115433 0.628159 0.734728
O O1 0.499165 0.590176 0.058982
O O2 0.305757 0.815813 0.112902
O O3 0.669453 0.829297 0.956718
O O4 0.521035 0.688237 0.922158
O O5 0.005012 0.248483 0.882305
O O6 0.249282 0.400340 0.839282
O O7 0.159101 0.484656 0.758114
O O8 0.919422 0.496828 0.970795
O O9 0.264007 0.236883 0.448820
O O10 0.122565 0.482224 0.557368
O O11 0.987971 0.247943 0.670874
O O12 0.764771 0.969446 0.238513
O O13 0.978294 0.913848 0.238667
O O14 0.566987 0.020215 0.645444
#
# Coordination Sequence:
#
# PCOD8125092 Si02
#       7
#     4   4   4   4   4   4   4
#     4  10  20  37  62  92 125 165 205 258 316 372
#     4  10  23  41  62  87 126 164 206 256 314 374
#     4  10  21  38  62  90 124 162 213 258 309 375
#     4  12  22  37  62  97 123 157 207 270 310 364
#     4   9  21  45  61  81 121 175 205 247 314 378
#     4  10  20  36  64  90 121 165 208 252 315 374
#     4  11  21  38  63  90 129 163 202 258 317 377
#
# _framework density 21.400355000000001
#
# number of rings (size 3 to 8) (size 9 to 14) (size 15 to 20)
#    0.000    1.714    2.857    1.714    2.000    1.143 
#    7.714    0.000    0.000    0.000    0.000    0.000 
#    0.000    0.000    0.000    0.000    0.000    0.000 
#
# Total GULP energy -347205.497881 kJ/mol
# GULP energy per Si atom -12400.196353 kJ/mol
# Density = 2.135165 g / cm^3
# Si number density = 21.400355 Si / 1000 Ang^3
#
#
#
# Elastic Constant Matrix: (Units=GPa)
#
#
# Indices 1 2 3 4 5 6 
#
# 1 151.3778 54.8200 26.4817 0.0000 2.2848 0.0000
# 2 54.8200 86.6676 14.7122 0.0000 -2.1044 0.0000
# 3 26.4817 14.7122 44.0859 0.0000 -15.0989 0.0000
# 4 0.0000 0.0000 0.0000 21.9955 0.0000 -7.1628
# 5 2.2848 -2.1044 -15.0989 0.0000 33.5524 0.0000
# 6 0.0000 0.0000 0.0000 -7.1628 0.0000 27.2463
#
#
#
# Elastic Compliance Matrix: (Units=1/GPa)
#
#
# Indices 1 2 3 4 5 6 
#
# 1 0.009409 -0.005176 -0.005031 0.000000 -0.003229 0.000000
# 2 -0.005176 0.015124 -0.001764 0.000000 0.000507 0.000000
# 3 -0.005031 -0.001764 0.031178 0.000000 0.014262 0.000000
# 4 0.000000 0.000000 0.000000 0.049720 0.000000 0.013071
# 5 -0.003229 0.000507 0.014262 0.000000 0.036474 0.000000
# 6 0.000000 0.000000 0.000000 0.013071 0.000000 0.040138
#
#
# Mechanical properties :
#
#
# Convention : Reuss Voigt Hill
#
# Bulk Modulus (GPa) = 31.47648 52.68434 42.08041
# Shear Modulus (GPa) = 23.08652 28.96667 26.02659
#
# Velocity S-wave (km/s) = 3.28806 3.68307 3.49115
# Velocity P-wave (km/s) = 5.39958 6.53900 5.99641
#
# Compressibility (1/GPa) = 0.03176975
#
# Stress axis : x y z
#
# Youngs Moduli (GPa) = 106.27845 66.11922 32.07353
#
# Poissons Ratio (x) = 0.34224 0.16135
# Poissons Ratio (y) = 0.55011 0.05659
# Poissons Ratio (z) = 0.53465 0.11666
#
# Static dielectric constant tensor:
#      x y z
#    x 4.225840 0.000000 -0.025680 
#    y 0.000000 3.896590 0.000000 
#    z -0.025680 0.000000 3.475080 
# 
# 
# High freq. dielectric constant tensor:
#      x y z
#    x 1.844030 0.000000 -0.015740 
#    y 0.000000 1.838810 0.000000 
#    z -0.015740 0.000000 1.810070 
# 
# From -- ./inp_files/66983.got.cif
#   From: 2010.03.12/outbox.cif.g09.slc.cpg/sg14_34_cif.got.tgz:66983.got - 2010.03.31 13:35:05.
