data_PCOD8125378
_publ_section_title
;
Structure prediction by ZEFSAII (Michael W. Deem and Ramdas Pophale) SiO2 
 PCOD8125378
Probable space group: P 21/C
;
_chemical_formula_sum "Si O2"
_cell_formula_units_Z 20
_cell_length_a 5.008651
_cell_length_b 14.146265
_cell_length_c 16.273043
_cell_angle_alpha 90.000000
_cell_angle_beta 61.614579
_cell_angle_gamma 90.000000
_cell_volume 1014.379042
_symmetry_space_group_name_H-M "P 21/C"
_symmetry_group_IT_number 14
_symmetry_cell_setting 'monoclinic'
loop_
_space_group_symop_operation_xyz
x,y,z
-x,1/2+y,1/2-z
-x,-y,-z
x,1/2-y,1/2+z
loop_
_atom_site_type_symbol
_atom_site_label
_atom_site_fract_x
_atom_site_fract_y
_atom_site_fract_z
Si Si1 0.179277 0.953106 0.547260
Si Si2 0.025141 0.095326 0.255041
Si Si3 0.291269 0.938101 0.863845
Si Si4 0.187449 0.139353 0.946700
Si Si5 0.777199 0.255704 0.899563
O O1 0.224119 0.839341 0.531039
O O2 0.008386 0.972310 0.659488
O O3 0.500000 0.000000 0.500000
O O4 0.000000 0.000000 0.500000
O O5 0.378011 0.109028 0.182413
O O6 0.836304 0.048409 0.209085
O O7 0.878316 0.198294 0.297412
O O8 0.327900 0.038072 0.904237
O O9 0.062277 0.869346 0.945247
O O10 0.448619 0.208896 0.939860
O O11 0.025916 0.178909 0.889035
#
# Coordination Sequence:
#
# PCOD8125378 Si02
#       5
#     4   4   4   4   4
#     4  10  20  38  64  86 120 166 194 242 328 352
#     4  10  22  39  63  86 126 160 200 269 294 363
#     4  11  22  40  63  90 124 168 207 245 314 367
#     4  11  22  40  63  90 124 168 205 248 311 367
#     4  10  22  39  63  86 126 160 201 268 296 359
#
# _framework density 19.716497
#
# number of rings (size 3 to 8) (size 9 to 14) (size 15 to 20)
#    1.200    0.400    0.000    6.000    0.000    3.200 
#    0.000   20.000    0.000    0.000    0.000    0.000 
#    0.000    0.000    0.000    0.000    0.000    0.000 
#
# Total GULP energy -247922.282735 kJ/mol
# GULP energy per Si atom -12396.114137 kJ/mol
# Density = 1.967162 g / cm^3
# Si number density = 19.716497 Si / 1000 Ang^3
#
#
#
# Elastic Constant Matrix: (Units=GPa)
#
#
# Indices 1 2 3 4 5 6 
#
# 1 129.5788 39.0291 41.1068 0.0000 -17.0293 0.0000
# 2 39.0291 86.5892 56.9846 0.0000 -15.4421 0.0000
# 3 41.1068 56.9846 99.9461 0.0000 -17.8470 0.0000
# 4 0.0000 0.0000 0.0000 25.3013 0.0000 -5.1450
# 5 -17.0293 -15.4421 -17.8470 0.0000 44.0394 0.0000
# 6 0.0000 0.0000 0.0000 -5.1450 0.0000 37.9873
#
#
#
# Elastic Compliance Matrix: (Units=1/GPa)
#
#
# Indices 1 2 3 4 5 6 
#
# 1 0.009388 -0.002520 -0.002084 0.000000 0.001902 0.000000
# 2 -0.002520 0.019396 -0.009682 0.000000 0.001903 0.000000
# 3 -0.002084 -0.009682 0.016852 0.000000 0.002628 0.000000
# 4 0.000000 0.000000 0.000000 0.040643 0.000000 0.005505
# 5 0.001902 0.001903 0.002628 0.000000 0.025175 0.000000
# 6 0.000000 0.000000 0.000000 0.005505 0.000000 0.027070
#
#
# Mechanical properties :
#
#
# Convention : Reuss Voigt Hill
#
# Bulk Modulus (GPa) = 58.61077 65.59500 62.10289
# Shear Modulus (GPa) = 28.93755 33.39850 31.16802
#
# Velocity S-wave (km/s) = 3.83519 4.12021 3.98025
# Velocity P-wave (km/s) = 7.02872 7.48172 7.25876
#
# Compressibility (1/GPa) = 0.01706171
#
# Stress axis : x y z
#
# Youngs Moduli (GPa) = 106.52311 51.55652 59.33846
#
# Poissons Ratio (x) = 0.12995 0.12369
# Poissons Ratio (y) = 0.26849 0.57454
# Poissons Ratio (z) = 0.22204 0.49919
#
# Static dielectric constant tensor:
#      x y z
#    x 3.564370 0.000000 -0.002430 
#    y 0.000000 3.457650 0.000000 
#    z -0.002430 0.000000 3.635720 
# 
# 
# High freq. dielectric constant tensor:
#      x y z
#    x 1.781610 0.000000 -0.009860 
#    y 0.000000 1.757960 0.000000 
#    z -0.009860 0.000000 1.766900 
# 
# From -- ./inp_files/63653.got.cif
#   From: 2010.03.12/outbox.cif.g09.slc.cpg/sg14_32_cif.got.tgz:63653.got - 2010.03.31 13:35:05.
