data_PCOD8125681
_publ_section_title
;
Structure prediction by ZEFSAII (Michael W. Deem and Ramdas Pophale) SiO2 
 PCOD8125681
Probable space group: P 21/C
;
_chemical_formula_sum "Si O2"
_cell_formula_units_Z 28
_cell_length_a 21.252025
_cell_length_b 8.047967
_cell_length_c 14.597405
_cell_angle_alpha 90.000000
_cell_angle_beta 149.922348
_cell_angle_gamma 90.000000
_cell_volume 1251.267156
_symmetry_space_group_name_H-M "P 21/C"
_symmetry_group_IT_number 14
_symmetry_cell_setting 'monoclinic'
loop_
_space_group_symop_operation_xyz
x,y,z
-x,1/2+y,1/2-z
-x,-y,-z
x,1/2-y,1/2+z
loop_
_atom_site_type_symbol
_atom_site_label
_atom_site_fract_x
_atom_site_fract_y
_atom_site_fract_z
Si Si1 0.623789 0.130751 0.858523
Si Si2 0.775239 0.037819 0.575485
Si Si3 0.193505 0.284825 0.734419
Si Si4 0.437382 0.102359 0.790532
Si Si5 0.984127 0.768836 0.158334
Si Si6 0.531734 0.770780 0.986928
Si Si7 0.132038 0.069718 0.822559
O O1 0.527066 0.093824 0.816879
O O2 0.548562 0.129467 0.666778
O O3 0.684537 0.303923 0.965149
O O4 0.725589 0.985647 0.976558
O O5 0.793801 0.963207 0.700190
O O6 0.707482 0.895436 0.427774
O O7 0.907319 0.092387 0.700031
O O8 0.126259 0.148391 0.714336
O O9 0.108590 0.316191 0.539822
O O10 0.328432 0.214886 0.876030
O O11 0.453979 0.936425 0.869574
O O12 0.462803 0.253607 0.894855
O O13 0.038407 0.585676 0.211718
O O14 0.910206 0.785358 0.160864
#
# Coordination Sequence:
#
# PCOD8125681 Si02
#       7
#     4   4   4   4   4   4   4
#     4  10  21  43  66 100 131 172 213 270 332 385
#     4  10  23  41  65  93 137 170 211 276 324 380
#     4  12  23  41  66  98 130 171 221 267 330 392
#     4  10  20  41  63  93 133 165 214 261 321 396
#     4  11  26  44  65  97 127 177 222 272 323 388
#     4  10  22  36  66  98 124 171 213 260 328 388
#     4  11  25  46  69  93 133 175 220 269 330 391
#
# _framework density 22.377317999999999
#
# number of rings (size 3 to 8) (size 9 to 14) (size 15 to 20)
#    0.000    1.429    2.857    1.714    4.000    1.143 
#    0.000    1.429    0.000    0.000    0.000    0.000 
#    0.000    0.000    0.000    0.000    0.000    0.000 
#
# Total GULP energy -347126.072713 kJ/mol
# GULP energy per Si atom -12397.359740 kJ/mol
# Density = 2.232639 g / cm^3
# Si number density = 22.377318 Si / 1000 Ang^3
#
#
#
# Elastic Constant Matrix: (Units=GPa)
#
#
# Indices 1 2 3 4 5 6 
#
# 1 60.6144 -2.8944 26.9308 0.0000 14.8206 0.0000
# 2 -2.8944 47.1683 9.7339 0.0000 10.0891 0.0000
# 3 26.9308 9.7339 118.3053 0.0000 2.1881 0.0000
# 4 0.0000 0.0000 0.0000 17.2065 0.0000 -0.7598
# 5 14.8206 10.0891 2.1881 0.0000 25.4011 0.0000
# 6 0.0000 0.0000 0.0000 -0.7598 0.0000 31.0516
#
#
#
# Elastic Compliance Matrix: (Units=1/GPa)
#
#
# Indices 1 2 3 4 5 6 
#
# 1 0.022884 0.005766 -0.005403 0.000000 -0.015177 0.000000
# 2 0.005766 0.024984 -0.003127 0.000000 -0.013018 0.000000
# 3 -0.005403 -0.003127 0.009874 0.000000 0.003544 0.000000
# 4 0.000000 0.000000 0.000000 0.058180 0.000000 0.001424
# 5 -0.015177 -0.013018 0.003544 0.000000 0.053089 0.000000
# 6 0.000000 0.000000 0.000000 0.001424 0.000000 0.032239
#
#
# Mechanical properties :
#
#
# Convention : Reuss Voigt Hill
#
# Bulk Modulus (GPa) = 19.15212 32.62538 25.88875
# Shear Modulus (GPa) = 22.30291 27.55303 24.92797
#
# Velocity S-wave (km/s) = 3.16044 3.51278 3.34126
# Velocity P-wave (km/s) = 4.67922 5.57353 5.14584
#
# Compressibility (1/GPa) = 0.05221355
#
# Stress axis : x y z
#
# Youngs Moduli (GPa) = 43.69783 40.02500 101.27192
#
# Poissons Ratio (x) = -0.23077 0.54718
# Poissons Ratio (y) = -0.25194 0.31671
# Poissons Ratio (z) = 0.23610 0.12517
#
# Static dielectric constant tensor:
#      x y z
#    x 4.045890 0.000000 -0.120100 
#    y 0.000000 3.917390 0.000000 
#    z -0.120100 0.000000 4.434140 
# 
# 
# High freq. dielectric constant tensor:
#      x y z
#    x 1.882980 0.000000 0.002700 
#    y 0.000000 1.877010 0.000000 
#    z 0.002700 0.000000 1.897530 
# 
# From -- ./inp_files/43473.got.cif
#   From: 2010.03.12/outbox.cif.g09.slc.cpg/sg14_22_cif.got.tgz:43473.got - 2010.03.31 13:35:05.
