data_PCOD8125877
_publ_section_title
;
Structure prediction by ZEFSAII (Michael W. Deem and Ramdas Pophale) SiO2 
 PCOD8125877
Probable space group: P 21/C
;
_chemical_formula_sum "Si O2"
_cell_formula_units_Z 32
_cell_length_a 23.761082
_cell_length_b 8.657719
_cell_length_c 9.772247
_cell_angle_alpha 90.000000
_cell_angle_beta 58.099655
_cell_angle_gamma 90.000000
_cell_volume 1706.694206
_symmetry_space_group_name_H-M "P 21/C"
_symmetry_group_IT_number 14
_symmetry_cell_setting 'monoclinic'
loop_
_space_group_symop_operation_xyz
x,y,z
-x,1/2+y,1/2-z
-x,-y,-z
x,1/2-y,1/2+z
loop_
_atom_site_type_symbol
_atom_site_label
_atom_site_fract_x
_atom_site_fract_y
_atom_site_fract_z
Si Si1 0.934523 0.360565 0.718330
Si Si2 0.814824 0.930261 0.403815
Si Si3 0.942231 0.424619 0.399538
Si Si4 0.677735 0.870285 0.260668
Si Si5 0.822877 0.642773 0.586428
Si Si6 0.471798 0.068265 0.173088
Si Si7 0.545146 0.564711 0.824651
Si Si8 0.669106 0.915613 0.581090
O O1 0.864016 0.426529 0.858721
O O2 0.935673 0.337585 0.553181
O O3 0.945950 0.196020 0.771949
O O4 0.990911 0.478025 0.693153
O O5 0.826304 0.811468 0.513535
O O6 0.830383 0.839854 0.241321
O O7 0.740018 0.004426 0.497255
O O8 0.880071 0.535924 0.451943
O O9 0.751725 0.938869 0.145365
O O10 0.621459 0.978003 0.264475
O O11 0.661303 0.840311 0.441192
O O12 0.674964 0.706393 0.193524
O O13 0.463998 0.252057 0.178682
O O14 0.399394 0.990591 0.301228
O O15 0.527227 0.024268 0.210981
O O16 0.500000 0.000000 0.000000
O O17 0.500000 0.500000 0.000000
#
# Coordination Sequence:
#
# PCOD8125877 Si02
#       8
#     4   4   4   4   4   4   4   4
#     4  10  21  36  55  81 111 145 178 222 266 317
#     4   9  18  34  56  80 107 137 181 223 265 316
#     4  10  21  36  55  80 113 143 180 220 268 317
#     4   9  18  32  55  77 106 142 181 223 269 322
#     4   9  18  34  55  81 106 139 181 223 263 318
#     4  11  23  36  57  82 110 144 187 231 280 336
#     4  11  21  38  57  80 110 144 183 232 280 333
#     4   9  18  33  54  78 105 141 181 225 267 325
#
# _framework density 18.749697999999999
#
# number of rings (size 3 to 8) (size 9 to 14) (size 15 to 20)
#    0.000    2.250    1.250    1.500    5.250    1.500 
#    0.000    2.500    0.000    0.000    0.000    0.000 
#    0.000    0.000    0.000    0.000    0.000    0.000 
#
# Total GULP energy -396555.658506 kJ/mol
# GULP energy per Si atom -12392.364328 kJ/mol
# Density = 1.870702 g / cm^3
# Si number density = 18.749698 Si / 1000 Ang^3
#
#
#
# Elastic Constant Matrix: (Units=GPa)
#
#
# Indices 1 2 3 4 5 6 
#
# 1 118.0769 21.2595 38.0131 0.0000 -15.8480 0.0000
# 2 21.2595 38.9512 11.3998 0.0000 -0.6158 0.0000
# 3 38.0131 11.3998 82.2397 0.0000 -5.8369 0.0000
# 4 0.0000 0.0000 0.0000 29.4760 0.0000 4.1924
# 5 -15.8480 -0.6158 -5.8369 0.0000 37.8800 0.0000
# 6 0.0000 0.0000 0.0000 4.1924 0.0000 29.1357
#
#
#
# Elastic Compliance Matrix: (Units=1/GPa)
#
#
# Indices 1 2 3 4 5 6 
#
# 1 0.011237 -0.004829 -0.004243 0.000000 0.003969 0.000000
# 2 -0.004829 0.028834 -0.001896 0.000000 -0.001844 0.000000
# 3 -0.004243 -0.001896 0.014413 0.000000 0.000415 0.000000
# 4 0.000000 0.000000 0.000000 0.034635 0.000000 -0.004984
# 5 0.003969 -0.001844 0.000415 0.000000 0.028094 0.000000
# 6 0.000000 0.000000 0.000000 -0.004984 0.000000 0.035039
#
#
# Mechanical properties :
#
#
# Convention : Reuss Voigt Hill
#
# Bulk Modulus (GPa) = 30.72251 42.29027 36.50639
# Shear Modulus (GPa) = 27.02163 30.53804 28.77984
#
# Velocity S-wave (km/s) = 3.80040 4.04012 3.92209
# Velocity P-wave (km/s) = 5.97316 6.66090 6.32638
#
# Compressibility (1/GPa) = 0.03254942
#
# Stress axis : x y z
#
# Youngs Moduli (GPa) = 88.99066 34.68092 69.38154
#
# Poissons Ratio (x) = 0.16746 0.29439
# Poissons Ratio (y) = 0.42970 0.13154
# Poissons Ratio (z) = 0.37759 0.06575
#
# Static dielectric constant tensor:
#      x y z
#    x 5.218740 0.000000 0.280440 
#    y 0.000000 3.019130 0.000000 
#    z 0.280440 0.000000 3.957290 
# 
# 
# High freq. dielectric constant tensor:
#      x y z
#    x 1.758020 0.000000 -0.006570 
#    y 0.000000 1.675750 0.000000 
#    z -0.006570 0.000000 1.743220 
# 
# From -- ./inp_files/18602.got.cif
#   From: 2010.03.12/outbox.cif.g09.slc.cpg/sg14_10_cif.got.tgz:18602.got - 2010.03.31 13:35:05.
