data_PCOD8125404
_publ_section_title
;
Structure prediction by ZEFSAII (Michael W. Deem and Ramdas Pophale) SiO2 
 PCOD8125404
Probable space group: P 21/C
;
_chemical_formula_sum "Si O2"
_cell_formula_units_Z 24
_cell_length_a 8.782822
_cell_length_b 13.290338
_cell_length_c 16.972687
_cell_angle_alpha 90.000000
_cell_angle_beta 34.905518
_cell_angle_gamma 90.000000
_cell_volume 1133.672023
_symmetry_space_group_name_H-M "P 21/C"
_symmetry_group_IT_number 14
_symmetry_cell_setting 'monoclinic'
loop_
_space_group_symop_operation_xyz
x,y,z
-x,1/2+y,1/2-z
-x,-y,-z
x,1/2-y,1/2+z
loop_
_atom_site_type_symbol
_atom_site_label
_atom_site_fract_x
_atom_site_fract_y
_atom_site_fract_z
Si Si1 0.150115 0.900005 0.641204
Si Si2 0.490271 0.015115 0.374785
Si Si3 0.345172 0.514446 0.645039
Si Si4 0.876999 0.281466 0.252575
Si Si5 0.743377 0.569236 0.613972
Si Si6 0.692709 0.730606 0.060266
O O1 0.271956 0.946598 0.670183
O O2 0.150877 0.779795 0.653818
O O3 0.309901 0.935082 0.497459
O O4 0.837860 0.918972 0.760655
O O5 0.310430 0.110261 0.418973
O O6 0.605067 0.949262 0.255745
O O7 0.500000 0.500000 0.500000
O O8 0.121013 0.601185 0.728010
O O9 0.548010 0.533484 0.628524
O O10 0.613249 0.262610 0.313704
O O11 0.142199 0.252812 0.090828
O O12 0.812910 0.689557 0.573549
O O13 0.000000 0.500000 0.500000
#
# Coordination Sequence:
#
# PCOD8125404 Si02
#       6
#     4   4   4   4   4   4
#     4  10  20  39  65  95 125 166 219 267 321 396
#     4  10  21  40  66  91 129 171 215 270 330 389
#     4  11  22  40  64  94 131 169 216 274 326 397
#     4  10  20  38  66  92 127 174 214 261 340 389
#     4  11  23  41  64  94 132 174 223 267 330 395
#     4  10  20  40  65  91 130 177 210 264 347 388
#
# _framework density 21.170144000000001
#
# number of rings (size 3 to 8) (size 9 to 14) (size 15 to 20)
#    0.000    1.667    1.667    5.000    0.000    0.667 
#    3.000    1.667    0.000    0.000    0.000    0.000 
#    0.000    0.000    0.000    0.000    0.000    0.000 
#
# Total GULP energy -297354.144419 kJ/mol
# GULP energy per Si atom -12389.756017 kJ/mol
# Density = 2.112196 g / cm^3
# Si number density = 21.170144 Si / 1000 Ang^3
#
#
#
# Elastic Constant Matrix: (Units=GPa)
#
#
# Indices 1 2 3 4 5 6 
#
# 1 68.3005 30.8812 39.5499 0.0000 5.1461 0.0000
# 2 30.8812 118.7824 44.3358 0.0000 12.3021 0.0000
# 3 39.5499 44.3358 147.1489 0.0000 16.6268 0.0000
# 4 0.0000 0.0000 0.0000 39.0864 0.0000 4.9778
# 5 5.1461 12.3021 16.6268 0.0000 36.0690 0.0000
# 6 0.0000 0.0000 0.0000 4.9778 0.0000 33.6878
#
#
#
# Elastic Compliance Matrix: (Units=1/GPa)
#
#
# Indices 1 2 3 4 5 6 
#
# 1 0.018434 -0.003340 -0.003988 0.000000 0.000347 0.000000
# 2 -0.003340 0.010233 -0.001946 0.000000 -0.002116 0.000000
# 3 -0.003988 -0.001946 0.008772 0.000000 -0.002811 0.000000
# 4 0.000000 0.000000 0.000000 0.026075 0.000000 -0.003853
# 5 0.000347 -0.002116 -0.002811 0.000000 0.029693 0.000000
# 6 0.000000 0.000000 0.000000 -0.003853 0.000000 0.030254
#
#
# Mechanical properties :
#
#
# Convention : Reuss Voigt Hill
#
# Bulk Modulus (GPa) = 52.93599 62.64063 57.78831
# Shear Modulus (GPa) = 33.71440 36.39963 35.05702
#
# Velocity S-wave (km/s) = 3.99500 4.15105 4.07377
# Velocity P-wave (km/s) = 6.80730 7.25453 7.03447
#
# Compressibility (1/GPa) = 0.01889074
#
# Stress axis : x y z
#
# Youngs Moduli (GPa) = 54.24686 97.72528 114.00469
#
# Poissons Ratio (x) = 0.32642 0.45460
# Poissons Ratio (y) = 0.18119 0.22188
# Poissons Ratio (z) = 0.21631 0.19020
#
# Static dielectric constant tensor:
#      x y z
#    x 3.156040 0.000000 0.091110 
#    y 0.000000 4.432320 0.000000 
#    z 0.091110 0.000000 3.420650 
# 
# 
# High freq. dielectric constant tensor:
#      x y z
#    x 1.798510 0.000000 -0.017920 
#    y 0.000000 1.841120 0.000000 
#    z -0.017920 0.000000 1.842040 
# 
# From -- ./inp_files/41066.got.cif
#   From: 2010.03.12/outbox.cif.g09.slc.cpg/sg14_21_cif.got.tgz:41066.got - 2010.03.31 13:35:05.
