data_PCOD8125965
_publ_section_title
;
Structure prediction by ZEFSAII (Michael W. Deem and Ramdas Pophale) SiO2 
 PCOD8125965
Probable space group: P 21/C
;
_chemical_formula_sum "Si O2"
_cell_formula_units_Z 32
_cell_length_a 13.068356
_cell_length_b 8.284901
_cell_length_c 32.773515
_cell_angle_alpha 90.000000
_cell_angle_beta 154.405656
_cell_angle_gamma 90.000000
_cell_volume 1532.892691
_symmetry_space_group_name_H-M "P 21/C"
_symmetry_group_IT_number 14
_symmetry_cell_setting 'monoclinic'
loop_
_space_group_symop_operation_xyz
x,y,z
-x,1/2+y,1/2-z
-x,-y,-z
x,1/2-y,1/2+z
loop_
_atom_site_type_symbol
_atom_site_label
_atom_site_fract_x
_atom_site_fract_y
_atom_site_fract_z
Si Si1 0.350306 0.384080 0.125914
Si Si2 0.469286 0.333665 0.600209
Si Si3 0.029510 0.574580 0.949372
Si Si4 0.292976 0.162708 0.386329
Si Si5 0.864195 0.021835 0.807136
Si Si6 0.880672 0.373989 0.226243
Si Si7 0.719930 0.337225 0.501333
Si Si8 0.122044 0.336065 0.917027
O O1 0.415962 0.209789 0.128817
O O2 0.582639 0.499279 0.214299
O O3 0.228571 0.369052 0.126599
O O4 0.152906 0.455773 0.025167
O O5 0.741264 0.289234 0.689147
O O6 0.421886 0.516623 0.570460
O O7 0.332828 0.209642 0.522620
O O8 0.198921 0.729315 0.007272
O O9 0.001992 0.495645 0.893926
O O10 0.559318 0.228773 0.474367
O O11 0.237787 0.144750 0.414204
O O12 0.134486 0.298132 0.305885
O O13 0.248826 0.981295 0.354311
O O14 0.911054 0.008347 0.775866
O O15 0.924902 0.198065 0.846425
O O16 0.037490 0.889926 0.889064
#
# Coordination Sequence:
#
# PCOD8125965 Si02
#       8
#     4   4   4   4   4   4   4   4
#     4   9  19  40  61  79 111 149 184 239 295 342
#     4   9  19  37  56  77 111 144 184 234 284 342
#     4  10  21  37  60  84 108 146 192 234 292 352
#     4  11  22  35  56  83 117 157 197 239 284 336
#     4   9  20  37  55  79 114 147 185 235 287 341
#     4  10  21  37  57  81 113 156 195 232 281 338
#     4  11  22  35  56  88 116 147 191 237 288 350
#     4   9  20  36  53  78 110 149 188 230 283 342
#
# _framework density 20.875564000000001
#
# number of rings (size 3 to 8) (size 9 to 14) (size 15 to 20)
#    0.000    2.250    0.000    3.000    0.000   10.000 
#    0.000    3.750    0.000    0.000    0.000    0.000 
#    0.000    0.000    0.000    0.000    0.000    0.000 
#
# Total GULP energy -396457.792904 kJ/mol
# GULP energy per Si atom -12389.306028 kJ/mol
# Density = 2.082805 g / cm^3
# Si number density = 20.875564 Si / 1000 Ang^3
#
#
#
# Elastic Constant Matrix: (Units=GPa)
#
#
# Indices 1 2 3 4 5 6 
#
# 1 124.4812 46.2098 29.4833 0.0000 16.3248 0.0000
# 2 46.2098 69.2603 4.6535 0.0000 -0.9291 0.0000
# 3 29.4833 4.6535 59.5932 -0.0001 11.6268 0.0001
# 4 0.0000 0.0000 -0.0001 26.3337 0.0000 2.3612
# 5 16.3248 -0.9291 11.6268 0.0000 29.4584 0.0000
# 6 0.0000 0.0000 0.0001 2.3612 0.0000 19.2127
#
#
#
# Elastic Compliance Matrix: (Units=1/GPa)
#
#
# Indices 1 2 3 4 5 6 
#
# 1 0.013015 -0.008445 -0.004681 0.000000 -0.005631 0.000000
# 2 -0.008445 0.020020 0.001710 0.000000 0.004636 0.000000
# 3 -0.004681 0.001710 0.019985 0.000000 -0.005240 0.000000
# 4 0.000000 0.000000 0.000000 0.038397 0.000000 -0.004719
# 5 -0.005631 0.004636 -0.005240 0.000000 0.039281 0.000000
# 6 0.000000 0.000000 0.000000 -0.004719 0.000000 0.052629
#
#
# Mechanical properties :
#
#
# Convention : Reuss Voigt Hill
#
# Bulk Modulus (GPa) = 33.12478 46.00309 39.56393
# Shear Modulus (GPa) = 23.12432 26.53349 24.82890
#
# Velocity S-wave (km/s) = 3.33186 3.56902 3.45247
# Velocity P-wave (km/s) = 5.54111 6.25048 5.90645
#
# Compressibility (1/GPa) = 0.03018888
#
# Stress axis : x y z
#
# Youngs Moduli (GPa) = 76.83164 49.95039 50.03710
#
# Poissons Ratio (x) = 0.42182 0.23423
# Poissons Ratio (y) = 0.64883 -0.08557
# Poissons Ratio (z) = 0.35966 -0.08542
#
# Static dielectric constant tensor:
#      x y z
#    x 3.927650 0.000000 0.068240 
#    y 0.000000 3.622640 0.000000 
#    z 0.068240 0.000000 3.874210 
# 
# 
# High freq. dielectric constant tensor:
#      x y z
#    x 1.811290 0.000000 0.010110 
#    y 0.000000 1.802740 0.000000 
#    z 0.010110 0.000000 1.820580 
# 
# From -- ./inp_files/80038.got.cif
#   From: 2010.03.12/outbox.cif.g09.slc.cpg/sg14_41_cif.got.tgz:80038.got - 2010.03.31 13:35:05.
