data_PCOD8125339
_publ_section_title
;
Structure prediction by ZEFSAII (Michael W. Deem and Ramdas Pophale) SiO2 
 PCOD8125339
Probable space group: P 21/C
;
_chemical_formula_sum "Si O2"
_cell_formula_units_Z 32
_cell_length_a 22.328919
_cell_length_b 8.929538
_cell_length_c 13.579291
_cell_angle_alpha 90.000000
_cell_angle_beta 33.634308
_cell_angle_gamma 90.000000
_cell_volume 1499.676061
_symmetry_space_group_name_H-M "P 21/C"
_symmetry_group_IT_number 14
_symmetry_cell_setting 'monoclinic'
loop_
_space_group_symop_operation_xyz
x,y,z
-x,1/2+y,1/2-z
-x,-y,-z
x,1/2-y,1/2+z
loop_
_atom_site_type_symbol
_atom_site_label
_atom_site_fract_x
_atom_site_fract_y
_atom_site_fract_z
Si Si1 0.066327 0.698159 0.240156
Si Si2 0.408161 0.931709 0.376820
Si Si3 0.330816 0.742315 0.152359
Si Si4 0.644592 0.969774 0.994484
Si Si5 0.882693 0.400725 0.616874
Si Si6 0.073325 0.122354 0.701486
Si Si7 0.290340 0.686568 0.426016
Si Si8 0.242807 0.172005 0.627469
O O1 0.053444 0.648182 0.371651
O O2 0.098216 0.548637 0.133562
O O3 0.955245 0.772794 0.352808
O O4 0.160525 0.820962 0.095571
O O5 0.416755 0.857823 0.473743
O O6 0.521123 0.915078 0.166817
O O7 0.316022 0.841377 0.444902
O O8 0.361306 0.099990 0.444379
O O9 0.209544 0.718175 0.279791
O O10 0.346801 0.690667 0.242378
O O11 0.348415 0.919273 0.108608
O O12 0.666146 0.047790 0.070469
O O13 0.729373 0.833604 0.863067
O O14 0.827174 0.565587 0.704029
O O15 0.967292 0.394548 0.414028
O O16 0.175234 0.194896 0.618855
#
# Coordination Sequence:
#
# PCOD8125339 Si02
#       8
#     4   4   4   4   4   4   4   4
#     4  11  21  39  61  88 121 165 197 248 309 360
#     4  10  21  43  64  84 127 163 197 260 311 347
#     4  10  21  39  64  88 121 163 199 249 314 367
#     4  11  23  40  65  90 117 162 213 249 299 368
#     4  10  20  42  61  84 128 168 195 249 318 357
#     4  11  23  38  63  90 124 163 207 248 305 372
#     4  11  21  41  63  86 128 160 196 254 312 360
#     4  10  20  38  61  92 119 157 206 253 293 362
#
# _framework density 21.337941000000001
#
# number of rings (size 3 to 8) (size 9 to 14) (size 15 to 20)
#    0.000    1.500    6.250    3.000    1.750    1.000 
#    4.500    3.750    0.000    0.000    0.000    0.000 
#    0.000    0.000    0.000    0.000    0.000    0.000 
#
# Total GULP energy -396674.501105 kJ/mol
# GULP energy per Si atom -12396.078160 kJ/mol
# Density = 2.128937 g / cm^3
# Si number density = 21.337941 Si / 1000 Ang^3
#
#
#
# Elastic Constant Matrix: (Units=GPa)
#
#
# Indices 1 2 3 4 5 6 
#
# 1 58.1630 26.6403 -3.8216 0.0000 3.4064 0.0000
# 2 26.6403 73.8932 31.6356 0.0000 7.3040 0.0000
# 3 -3.8216 31.6356 15.7291 0.0000 -26.0103 0.0000
# 4 0.0000 0.0000 0.0000 21.8941 0.0000 -8.3177
# 5 3.4064 7.3040 -26.0103 0.0000 21.7799 0.0000
# 6 0.0000 0.0000 0.0000 -8.3177 0.0000 25.8674
#
#
#
# Elastic Compliance Matrix: (Units=1/GPa)
#
#
# Indices 1 2 3 4 5 6 
#
# 1 0.018592 -0.002736 -0.006903 0.000000 -0.010234 0.000000
# 2 -0.002736 0.006031 0.015830 0.000000 0.017310 0.000000
# 3 -0.006903 0.015830 -0.023662 0.000000 -0.032487 0.000000
# 4 0.000000 0.000000 0.000000 0.052030 0.000000 0.016730
# 5 -0.010234 0.017310 -0.032487 0.000000 0.002912 0.000000
# 6 0.000000 0.000000 0.000000 0.016730 0.000000 0.044038
#
#
# Mechanical properties :
#
#
# Convention : Reuss Voigt Hill
#
# Bulk Modulus (GPa) = 74.94180 28.52154 51.73167
# Shear Modulus (GPa) = 54.34405 20.13036 37.23721
#
# Velocity S-wave (km/s) = 5.05208 3.07483 4.18199
# Velocity P-wave (km/s) = 8.32040 5.09918 6.90039
#
# Compressibility (1/GPa) = 0.01334369
#
# Stress axis : x y z
#
# Youngs Moduli (GPa) = 53.78640 165.80839 -42.26130
#
# Poissons Ratio (x) = 0.45366 -0.29172
# Poissons Ratio (y) = 0.14716 0.66901
# Poissons Ratio (z) = 0.37128 -2.62480
#
# Static dielectric constant tensor:
#      x y z
#    x 3.877250 0.000000 -0.019730 
#    y 0.000000 3.877520 0.000000 
#    z -0.019730 0.000000 3.743010 
# 
# 
# High freq. dielectric constant tensor:
#      x y z
#    x 1.830440 0.000000 -0.013000 
#    y 0.000000 1.832500 0.000000 
#    z -0.013000 0.000000 1.825650 
# 
# From -- ./inp_files/51333.got.cif
#   From: 2010.03.12/outbox.cif.g09.slc.cpg/sg14_26_cif.got.tgz:51333.got - 2010.03.31 13:35:05.
