data_PCOD8125112
_publ_section_title
;
Structure prediction by ZEFSAII (Michael W. Deem and Ramdas Pophale) SiO2 
 PCOD8125112
Probable space group: P 21/C
;
_chemical_formula_sum "Si O2"
_cell_formula_units_Z 24
_cell_length_a 14.509871
_cell_length_b 11.028139
_cell_length_c 20.780763
_cell_angle_alpha 90.000000
_cell_angle_beta 156.604410
_cell_angle_gamma 90.000000
_cell_volume 1320.390158
_symmetry_space_group_name_H-M "P 21/C"
_symmetry_group_IT_number 14
_symmetry_cell_setting 'monoclinic'
loop_
_space_group_symop_operation_xyz
x,y,z
-x,1/2+y,1/2-z
-x,-y,-z
x,1/2-y,1/2+z
loop_
_atom_site_type_symbol
_atom_site_label
_atom_site_fract_x
_atom_site_fract_y
_atom_site_fract_z
Si Si1 0.749824 0.700695 0.493737
Si Si2 0.852601 0.679849 0.929477
Si Si3 0.467676 0.412734 0.064860
Si Si4 0.484113 0.655627 0.134749
Si Si5 0.786222 0.116577 0.656929
Si Si6 0.691694 0.409470 0.842108
O O1 0.871131 0.739194 0.505017
O O2 0.646588 0.817782 0.461323
O O3 0.545498 0.604984 0.349957
O O4 0.939852 0.637783 0.661017
O O5 0.690098 0.747227 0.773207
O O6 0.746908 0.550648 0.880579
O O7 0.107206 0.667082 0.063337
O O8 0.586114 0.521023 0.183216
O O9 0.655836 0.347680 0.139716
O O10 0.264303 0.474053 0.890382
O O11 0.334181 0.647446 0.103784
O O12 0.314300 0.696931 0.967173
#
# Coordination Sequence:
#
# PCOD8125112 Si02
#       6
#     4   4   4   4   4   4
#     4  11  20  36  58  82 110 149 178 229 279 323
#     4  10  20  37  55  79 116 140 184 227 273 327
#     4   9  19  39  54  80 113 136 188 226 267 329
#     4   9  19  38  56  79 107 148 178 227 273 319
#     4   9  20  36  57  80 109 146 178 228 274 318
#     4  10  21  36  55  82 111 146 180 229 274 327
#
# _framework density 18.176445000000001
#
# number of rings (size 3 to 8) (size 9 to 14) (size 15 to 20)
#    1.000    1.333    1.667    1.000    0.000    2.667 
#    6.000    2.500    0.000    7.000    0.000    0.000 
#    0.000    0.000    0.000    0.000    0.000    0.000 
#
# Total GULP energy -297477.872946 kJ/mol
# GULP energy per Si atom -12394.911373 kJ/mol
# Density = 1.813508 g / cm^3
# Si number density = 18.176445 Si / 1000 Ang^3
#
#
#
# Elastic Constant Matrix: (Units=GPa)
#
#
# Indices 1 2 3 4 5 6 
#
# 1 78.8660 5.7516 38.1132 0.0000 -0.8384 0.0000
# 2 5.7516 35.2253 23.2372 0.0000 5.0961 0.0000
# 3 38.1132 23.2372 108.6326 0.0000 -8.0206 0.0000
# 4 0.0000 0.0000 0.0000 27.0452 0.0000 -5.1070
# 5 -0.8384 5.0961 -8.0206 0.0000 20.8356 0.0000
# 6 0.0000 0.0000 0.0000 -5.1070 0.0000 18.8199
#
#
#
# Elastic Compliance Matrix: (Units=1/GPa)
#
#
# Indices 1 2 3 4 5 6 
#
# 1 0.015393 0.001688 -0.005914 0.000000 -0.002070 0.000000
# 2 0.001688 0.035947 -0.009187 0.000000 -0.012261 0.000000
# 3 -0.005914 -0.009187 0.013786 0.000000 0.007316 0.000000
# 4 0.000000 0.000000 0.000000 0.038972 0.000000 0.010575
# 5 -0.002070 -0.012261 0.007316 0.000000 0.053726 0.000000
# 6 0.000000 0.000000 0.000000 0.010575 0.000000 0.056005
#
#
# Mechanical properties :
#
#
# Convention : Reuss Voigt Hill
#
# Bulk Modulus (GPa) = 26.11044 39.65864 32.88454
# Shear Modulus (GPa) = 19.72995 23.71494 21.72244
#
# Velocity S-wave (km/s) = 3.29822 3.61599 3.46075
# Velocity P-wave (km/s) = 5.37592 6.26897 5.83954
#
# Compressibility (1/GPa) = 0.03829886
#
# Stress axis : x y z
#
# Youngs Moduli (GPa) = 64.96526 27.81871 72.53966
#
# Poissons Ratio (x) = -0.04695 0.42902
# Poissons Ratio (y) = -0.10964 0.66639
# Poissons Ratio (z) = 0.38423 0.25556
#
# Static dielectric constant tensor:
#      x y z
#    x 3.430570 0.000000 -0.049780 
#    y 0.000000 3.146520 0.000000 
#    z -0.049780 0.000000 3.200430 
# 
# 
# High freq. dielectric constant tensor:
#      x y z
#    x 1.717120 0.000000 0.000260 
#    y 0.000000 1.687510 0.000000 
#    z 0.000260 0.000000 1.692280 
# 
# From -- ./inp_files/24173.got.cif
#   From: 2010.03.12/outbox.cif.g09.slc.cpg/sg14_13_cif.got.tgz:24173.got - 2010.03.31 13:35:05.
