data_PCOD8125923
_publ_section_title
;
Structure prediction by ZEFSAII (Michael W. Deem and Ramdas Pophale) SiO2 
 PCOD8125923
Probable space group: P 21/C
;
_chemical_formula_sum "Si O2"
_cell_formula_units_Z 28
_cell_length_a 9.344578
_cell_length_b 18.107041
_cell_length_c 15.364061
_cell_angle_alpha 90.000000
_cell_angle_beta 149.508661
_cell_angle_gamma 90.000000
_cell_volume 1319.078392
_symmetry_space_group_name_H-M "P 21/C"
_symmetry_group_IT_number 14
_symmetry_cell_setting 'monoclinic'
loop_
_space_group_symop_operation_xyz
x,y,z
-x,1/2+y,1/2-z
-x,-y,-z
x,1/2-y,1/2+z
loop_
_atom_site_type_symbol
_atom_site_label
_atom_site_fract_x
_atom_site_fract_y
_atom_site_fract_z
Si Si1 0.652453 0.570377 0.187811
Si Si2 0.099919 0.205277 0.897667
Si Si3 0.468682 0.279704 0.302491
Si Si4 0.376793 0.910569 0.369940
Si Si5 0.023248 0.209009 0.182388
Si Si6 0.435907 0.859569 0.748854
Si Si7 0.162800 0.141601 0.511403
O O1 0.755329 0.485435 0.239597
O O2 0.894573 0.622809 0.275376
O O3 0.563735 0.588637 0.239985
O O4 0.392380 0.580599 0.983094
O O5 0.132878 0.243595 0.821277
O O6 0.811191 0.159613 0.752256
O O7 0.355126 0.149491 0.057951
O O8 0.086371 0.272251 0.957567
O O9 0.175342 0.245676 0.180403
O O10 0.622061 0.221721 0.319251
O O11 0.387840 0.356169 0.209974
O O12 0.684723 0.291834 0.495549
O O13 0.689963 0.898314 0.493001
O O14 0.138441 0.896304 0.624083
#
# Coordination Sequence:
#
# PCOD8125923 Si02
#       7
#     4   4   4   4   4   4   4
#     4  10  24  44  63  90 134 176 208 257 324 402
#     4  11  22  37  66  98 123 163 220 272 308 377
#     4  10  21  36  60  93 128 161 213 272 310 375
#     4  11  24  42  67  91 130 173 215 254 330 385
#     4  11  21  38  65  94 125 167 214 262 321 373
#     4  10  22  39  61  94 131 159 215 264 322 369
#     4  11  22  38  62  97 122 165 212 276 311 370
#
# _framework density 21.226941
#
# number of rings (size 3 to 8) (size 9 to 14) (size 15 to 20)
#    0.000    1.429    2.857    3.429    6.000    1.143 
#    0.000    0.000    0.000    2.571    0.000    0.000 
#    0.000    0.000    0.000    0.000    0.000    0.000 
#
# Total GULP energy -346957.570737 kJ/mol
# GULP energy per Si atom -12391.341812 kJ/mol
# Density = 2.117863 g / cm^3
# Si number density = 21.226941 Si / 1000 Ang^3
#
#
#
# Elastic Constant Matrix: (Units=GPa)
#
#
# Indices 1 2 3 4 5 6 
#
# 1 87.2075 21.5903 35.8212 0.0000 -2.3098 0.0000
# 2 21.5903 82.5510 14.2273 0.0000 -0.4715 0.0000
# 3 35.8212 14.2273 98.2750 0.0000 -7.4077 0.0000
# 4 0.0000 0.0000 0.0000 19.9009 0.0000 -0.8201
# 5 -2.3098 -0.4715 -7.4077 0.0000 32.6313 0.0000
# 6 0.0000 0.0000 0.0000 -0.8201 0.0000 22.7089
#
#
#
# Elastic Compliance Matrix: (Units=1/GPa)
#
#
# Indices 1 2 3 4 5 6 
#
# 1 0.014123 -0.002877 -0.004740 0.000000 -0.000118 0.000000
# 2 -0.002877 0.013012 -0.000851 0.000000 -0.000209 0.000000
# 3 -0.004740 -0.000851 0.012209 0.000000 0.002424 0.000000
# 4 0.000000 0.000000 0.000000 0.050324 0.000000 0.001817
# 5 -0.000118 -0.000209 0.002424 0.000000 0.031184 0.000000
# 6 0.000000 0.000000 0.000000 0.001817 0.000000 0.044101
#
#
# Mechanical properties :
#
#
# Convention : Reuss Voigt Hill
#
# Bulk Modulus (GPa) = 44.62792 45.70120 45.16456
# Shear Modulus (GPa) = 26.40482 28.14120 27.27301
#
# Velocity S-wave (km/s) = 3.53076 3.64501 3.58834
# Velocity P-wave (km/s) = 6.13935 6.26828 6.20415
#
# Compressibility (1/GPa) = 0.02240750
#
# Stress axis : x y z
#
# Youngs Moduli (GPa) = 70.80517 76.85386 81.90556
#
# Poissons Ratio (x) = 0.22115 0.38825
# Poissons Ratio (y) = 0.20374 0.06967
# Poissons Ratio (z) = 0.33563 0.06537
#
# Static dielectric constant tensor:
#      x y z
#    x 3.661770 0.000000 -0.164060 
#    y 0.000000 3.608420 0.000000 
#    z -0.164060 0.000000 3.897990 
# 
# 
# High freq. dielectric constant tensor:
#      x y z
#    x 1.830450 0.000000 -0.011550 
#    y 0.000000 1.799590 0.000000 
#    z -0.011550 0.000000 1.834810 
# 
# From -- ./inp_files/42023.got.cif
#   From: 2010.03.12/outbox.cif.g09.slc.cpg/sg14_22_cif.got.tgz:42023.got - 2010.03.31 13:35:05.
