data_PCOD8125426
_publ_section_title
;
Structure prediction by ZEFSAII (Michael W. Deem and Ramdas Pophale) SiO2 
 PCOD8125426
Probable space group: P 21/C
;
_chemical_formula_sum "Si O2"
_cell_formula_units_Z 32
_cell_length_a 12.441783
_cell_length_b 14.039763
_cell_length_c 9.428178
_cell_angle_alpha 90.000000
_cell_angle_beta 115.499220
_cell_angle_gamma 90.000000
_cell_volume 1486.487429
_symmetry_space_group_name_H-M "P 21/C"
_symmetry_group_IT_number 14
_symmetry_cell_setting 'monoclinic'
loop_
_space_group_symop_operation_xyz
x,y,z
-x,1/2+y,1/2-z
-x,-y,-z
x,1/2-y,1/2+z
loop_
_atom_site_type_symbol
_atom_site_label
_atom_site_fract_x
_atom_site_fract_y
_atom_site_fract_z
Si Si1 0.957611 0.748116 0.061978
Si Si2 0.078038 0.045181 0.926078
Si Si3 0.909675 0.059091 0.354134
Si Si4 0.651431 0.982190 0.886699
Si Si5 0.510709 0.352348 0.216320
Si Si6 0.448389 0.326143 0.856205
Si Si7 0.688870 0.948008 0.215667
Si Si8 0.196102 0.254117 0.281809
O O1 0.982875 0.851967 0.146449
O O2 0.841300 0.711948 0.085289
O O3 0.066401 0.673101 0.124828
O O4 0.917718 0.767922 0.879665
O O5 0.071455 0.971519 0.795347
O O6 0.213859 0.052697 0.061820
O O7 0.000000 0.000000 0.000000
O O8 0.772627 0.034671 0.320862
O O9 0.000000 0.000000 0.500000
O O10 0.555441 0.921156 0.740780
O O11 0.631287 0.090554 0.822085
O O12 0.615229 0.977497 0.032999
O O13 0.518259 0.252396 0.303394
O O14 0.396349 0.412297 0.207634
O O15 0.506537 0.338889 0.044024
O O16 0.312857 0.297425 0.797847
O O17 0.781415 0.867883 0.208969
#
# Coordination Sequence:
#
# PCOD8125426 Si02
#       8
#     4   4   4   4   4   4   4   4
#     4  12  20  36  60  88 123 162 211 257 319 369
#     4  11  24  42  62  92 130 172 213 268 319 387
#     4  11  22  35  59  93 129 160 214 266 319 377
#     4  11  22  43  64  94 130 169 221 262 333 384
#     4  11  24  39  68  95 131 169 213 276 324 387
#     4  11  22  39  64 101 125 162 221 263 323 385
#     4  10  20  39  58  92 130 165 212 268 325 378
#     4  11  18  34  60  89 116 157 207 266 300 367
#
# _framework density 21.527259000000001
#
# number of rings (size 3 to 8) (size 9 to 14) (size 15 to 20)
#    0.000    1.000    5.000    4.500    0.000    0.000 
#    0.000    3.750    0.000    0.000    0.000    0.000 
#    0.000    0.000    0.000    0.000    0.000    0.000 
#
# Total GULP energy -396598.070160 kJ/mol
# GULP energy per Si atom -12393.689693 kJ/mol
# Density = 2.147826 g / cm^3
# Si number density = 21.527259 Si / 1000 Ang^3
#
#
#
# Elastic Constant Matrix: (Units=GPa)
#
#
# Indices 1 2 3 4 5 6 
#
# 1 40.4394 18.7733 2.7754 0.0000 1.7536 0.0000
# 2 18.7733 98.1879 18.0862 0.0000 9.7570 0.0000
# 3 2.7754 18.0862 104.8743 0.0000 -3.8590 0.0000
# 4 0.0000 0.0000 0.0000 39.8665 0.0000 8.7902
# 5 1.7536 9.7570 -3.8590 0.0000 12.3664 0.0000
# 6 0.0000 0.0000 0.0000 8.7902 0.0000 28.7185
#
#
#
# Elastic Compliance Matrix: (Units=1/GPa)
#
#
# Indices 1 2 3 4 5 6 
#
# 1 0.027142 -0.005263 0.000203 0.000000 0.000367 0.000000
# 2 -0.005263 0.012624 -0.002404 0.000000 -0.009964 0.000000
# 3 0.000203 -0.002404 0.010130 0.000000 0.005029 0.000000
# 4 0.000000 0.000000 0.000000 0.026899 0.000000 -0.008233
# 5 0.000367 -0.009964 0.005029 0.000000 0.090243 0.000000
# 6 0.000000 0.000000 0.000000 -0.008233 0.000000 0.037341
#
#
# Mechanical properties :
#
#
# Convention : Reuss Voigt Hill
#
# Bulk Modulus (GPa) = 28.59943 35.86350 32.23146
# Shear Modulus (GPa) = 21.64846 29.78140 25.71493
#
# Velocity S-wave (km/s) = 3.17461 3.72348 3.45994
# Velocity P-wave (km/s) = 5.17219 5.93140 5.56476
#
# Compressibility (1/GPa) = 0.03496574
#
# Stress axis : x y z
#
# Youngs Moduli (GPa) = 36.84333 79.21465 98.72079
#
# Poissons Ratio (x) = 0.41693 -0.02003
# Poissons Ratio (y) = 0.19392 0.23737
# Poissons Ratio (z) = -0.00748 0.19047
#
# Static dielectric constant tensor:
#      x y z
#    x 3.874460 0.000000 -0.007250 
#    y 0.000000 4.166990 0.000000 
#    z -0.007250 0.000000 4.209300 
# 
# 
# High freq. dielectric constant tensor:
#      x y z
#    x 1.818490 0.000000 -0.017360 
#    y 0.000000 1.846510 0.000000 
#    z -0.017360 0.000000 1.851940 
# 
# From -- ./inp_files/16255.got.cif
#   From: 2010.03.12/outbox.cif.g09.slc.cpg/sg14_9_cif.got.tgz:16255.got - 2010.03.31 13:35:05.
