data_PCOD8125823
_publ_section_title
;
Structure prediction by ZEFSAII (Michael W. Deem and Ramdas Pophale) SiO2 
 PCOD8125823
Probable space group: P 21/C
;
_chemical_formula_sum "Si O2"
_cell_formula_units_Z 32
_cell_length_a 11.817556
_cell_length_b 26.153094
_cell_length_c 5.272700
_cell_angle_alpha 90.000000
_cell_angle_beta 112.611732
_cell_angle_gamma 90.000000
_cell_volume 1504.344770
_symmetry_space_group_name_H-M "P 21/C"
_symmetry_group_IT_number 14
_symmetry_cell_setting 'monoclinic'
loop_
_space_group_symop_operation_xyz
x,y,z
-x,1/2+y,1/2-z
-x,-y,-z
x,1/2-y,1/2+z
loop_
_atom_site_type_symbol
_atom_site_label
_atom_site_fract_x
_atom_site_fract_y
_atom_site_fract_z
Si Si1 0.928849 0.936431 0.116702
Si Si2 0.717204 0.781857 0.370972
Si Si3 0.604671 0.450517 0.938785
Si Si4 0.560911 0.556310 0.765712
Si Si5 0.674904 0.384992 0.616801
Si Si6 0.433984 0.780966 0.126445
Si Si7 0.184619 0.108640 0.495455
Si Si8 0.829985 0.043529 0.938269
O O1 0.909625 0.905679 0.361011
O O2 0.073577 0.935711 0.185273
O O3 0.859453 0.911417 0.815627
O O4 0.887200 0.994913 0.133371
O O5 0.745893 0.741938 0.620584
O O6 0.574617 0.798983 0.245655
O O7 0.803743 0.830072 0.497689
O O8 0.578766 0.496045 0.714318
O O9 0.678052 0.397584 0.919978
O O10 0.478353 0.436894 0.972308
O O11 0.703292 0.476655 0.211670
O O12 0.452426 0.582158 0.513971
O O13 0.685112 0.585808 0.815536
O O14 0.657405 0.327747 0.509035
O O15 0.794988 0.409336 0.593898
O O16 0.404536 0.759917 0.380854
#
# Coordination Sequence:
#
# PCOD8125823 Si02
#       8
#     4   4   4   4   4   4   4   4
#     4  11  26  41  64  91 129 168 219 253 301 367
#     4  10  21  39  62  90 124 157 202 257 319 377
#     4  10  21  36  59  88 132 162 207 247 311 378
#     4  10  21  34  55  97 126 163 196 247 313 386
#     4  11  22  37  65  86 129 170 203 259 317 380
#     4  10  23  39  60  92 124 158 203 256 312 379
#     4  12  23  40  65  92 125 166 203 262 309 372
#     4  10  24  41  60  92 124 174 213 255 300 372
#
# _framework density 21.271719999999998
#
# number of rings (size 3 to 8) (size 9 to 14) (size 15 to 20)
#    0.000    1.500    2.500    1.875    7.000    2.000 
#    0.000    0.000    0.000    4.500    0.000    0.000 
#    0.000    0.000    0.000    0.000    0.000    0.000 
#
# Total GULP energy -396462.348287 kJ/mol
# GULP energy per Si atom -12389.448384 kJ/mol
# Density = 2.122330 g / cm^3
# Si number density = 21.271720 Si / 1000 Ang^3
#
#
#
# Elastic Constant Matrix: (Units=GPa)
#
#
# Indices 1 2 3 4 5 6 
#
# 1 87.3742 29.0228 7.9712 0.0000 -8.0930 0.0000
# 2 29.0228 102.4876 9.4737 0.0000 -8.8783 0.0000
# 3 7.9712 9.4737 51.1196 0.0000 -12.0240 0.0000
# 4 0.0000 0.0000 0.0000 28.1514 0.0000 -2.3090
# 5 -8.0930 -8.8783 -12.0240 0.0000 21.3045 0.0000
# 6 0.0000 0.0000 0.0000 -2.3090 0.0000 23.4613
#
#
#
# Elastic Compliance Matrix: (Units=1/GPa)
#
#
# Indices 1 2 3 4 5 6 
#
# 1 0.012899 -0.003320 -0.000656 0.000000 0.003146 0.000000
# 2 -0.003320 0.011023 -0.000855 0.000000 0.002850 0.000000
# 3 -0.000656 -0.000855 0.022693 0.000000 0.012202 0.000000
# 4 0.000000 0.000000 0.000000 0.035811 0.000000 0.003524
# 5 0.003146 0.002850 0.012202 0.000000 0.056208 0.000000
# 6 0.000000 0.000000 0.000000 0.003524 0.000000 0.042970
#
#
# Mechanical properties :
#
#
# Convention : Reuss Voigt Hill
#
# Bulk Modulus (GPa) = 27.06071 37.10187 32.08129
# Shear Modulus (GPa) = 24.55994 27.55102 26.05548
#
# Velocity S-wave (km/s) = 3.40160 3.60279 3.50364
# Velocity P-wave (km/s) = 5.30819 5.89801 5.61086
#
# Compressibility (1/GPa) = 0.03695394
#
# Stress axis : x y z
#
# Youngs Moduli (GPa) = 77.52565 90.71724 44.06688
#
# Poissons Ratio (x) = 0.30114 0.02891
# Poissons Ratio (y) = 0.25735 0.03767
# Poissons Ratio (z) = 0.05087 0.07755
#
# Static dielectric constant tensor:
#      x y z
#    x 3.798340 0.000000 -0.158500 
#    y 0.000000 3.709040 0.000000 
#    z -0.158500 0.000000 3.920490 
# 
# 
# High freq. dielectric constant tensor:
#      x y z
#    x 1.824990 0.000000 -0.012850 
#    y 0.000000 1.820000 0.000000 
#    z -0.012850 0.000000 1.840830 
# 
# From -- ./inp_files/3164.got.cif
#   From: 2010.03.12/outbox.cif.g09.slc.cpg/sg14_2_cif.got.tgz:3164.got - 2010.03.31 13:35:05.
