data_PCOD8125726
_publ_section_title
;
Structure prediction by ZEFSAII (Michael W. Deem and Ramdas Pophale) SiO2 
 PCOD8125726
Probable space group: P 21/C
;
_chemical_formula_sum "Si O2"
_cell_formula_units_Z 32
_cell_length_a 6.149415
_cell_length_b 14.288860
_cell_length_c 16.067552
_cell_angle_alpha 90.000000
_cell_angle_beta 87.092042
_cell_angle_gamma 90.000000
_cell_volume 1410.007769
_symmetry_space_group_name_H-M "P 21/C"
_symmetry_group_IT_number 14
_symmetry_cell_setting 'monoclinic'
loop_
_space_group_symop_operation_xyz
x,y,z
-x,1/2+y,1/2-z
-x,-y,-z
x,1/2-y,1/2+z
loop_
_atom_site_type_symbol
_atom_site_label
_atom_site_fract_x
_atom_site_fract_y
_atom_site_fract_z
Si Si1 0.295550 0.031824 0.557716
Si Si2 0.786578 0.730850 0.686761
Si Si3 0.145604 0.906244 0.190079
Si Si4 0.009147 0.359603 0.937038
Si Si5 0.534079 0.353229 0.183614
Si Si6 0.735423 0.278246 0.547160
Si Si7 0.874343 0.029529 0.083604
Si Si8 0.468274 0.114022 0.935465
O O1 0.166154 0.109122 0.508188
O O2 0.363127 0.077727 0.643679
O O3 0.500000 0.000000 0.500000
O O4 0.148346 0.943992 0.585620
O O5 0.848922 0.833169 0.648709
O O6 0.592255 0.725821 0.758658
O O7 0.715756 0.671563 0.608356
O O8 0.004039 0.683836 0.719308
O O9 0.309831 0.921555 0.264538
O O10 0.291059 0.885240 0.107191
O O11 0.983599 0.991636 0.167515
O O12 0.869919 0.269858 0.969530
O O13 0.679189 0.302903 0.112459
O O14 0.875947 0.358047 0.591452
O O15 0.512418 0.329771 0.520476
O O16 0.628914 0.991678 0.065653
O O17 0.000000 0.000000 0.000000
#
# Coordination Sequence:
#
# PCOD8125726 Si02
#       8
#     4   4   4   4   4   4   4   4
#     4  11  25  48  75 103 137 194 246 303 351 429
#     4  10  22  43  70  99 137 184 224 294 359 415
#     4  10  22  44  65  96 146 186 218 293 359 412
#     4  11  24  45  79 100 135 185 253 292 352 431
#     4  11  26  43  70 100 150 180 238 300 357 418
#     4  12  22  42  75 104 132 185 243 291 343 434
#     4  11  22  40  71 104 139 182 233 284 352 422
#     4  10  20  41  70  98 136 177 228 284 349 421
#
# _framework density 22.694911000000001
#
# number of rings (size 3 to 8) (size 9 to 14) (size 15 to 20)
#    0.000    1.250    3.750    1.875    1.750    0.000 
#    0.000   10.000    0.000    0.000    0.000    0.000 
#    0.000    0.000    0.000    0.000    0.000    0.000 
#
# Total GULP energy -396608.034798 kJ/mol
# GULP energy per Si atom -12394.001087 kJ/mol
# Density = 2.264326 g / cm^3
# Si number density = 22.694911 Si / 1000 Ang^3
#
#
#
# Elastic Constant Matrix: (Units=GPa)
#
#
# Indices 1 2 3 4 5 6 
#
# 1 102.7175 35.4367 34.8228 0.0000 18.6536 0.0000
# 2 35.4367 109.3073 36.7116 0.0000 19.9871 0.0000
# 3 34.8228 36.7116 89.4662 0.0000 17.4128 0.0000
# 4 0.0000 0.0000 0.0000 26.4981 0.0000 -6.7845
# 5 18.6536 19.9871 17.4128 0.0000 46.1839 0.0000
# 6 0.0000 0.0000 0.0000 -6.7845 0.0000 33.6729
#
#
#
# Elastic Compliance Matrix: (Units=1/GPa)
#
#
# Indices 1 2 3 4 5 6 
#
# 1 0.012129 -0.002359 -0.003235 0.000000 -0.002658 0.000000
# 2 -0.002359 0.011522 -0.003264 0.000000 -0.002803 0.000000
# 3 -0.003235 -0.003264 0.014296 0.000000 -0.002671 0.000000
# 4 0.000000 0.000000 0.000000 0.039791 0.000000 0.008017
# 5 -0.002658 -0.002803 -0.002671 0.000000 0.024946 0.000000
# 6 0.000000 0.000000 0.000000 0.008017 0.000000 0.031313
#
#
# Mechanical properties :
#
#
# Convention : Reuss Voigt Hill
#
# Bulk Modulus (GPa) = 49.43400 57.27033 53.35216
# Shear Modulus (GPa) = 31.55404 34.23898 32.89651
#
# Velocity S-wave (km/s) = 3.73279 3.88837 3.81137
# Velocity P-wave (km/s) = 6.35670 6.74158 6.55196
#
# Compressibility (1/GPa) = 0.02022899
#
# Stress axis : x y z
#
# Youngs Moduli (GPa) = 82.44712 86.78876 69.95002
#
# Poissons Ratio (x) = 0.20478 0.22632
# Poissons Ratio (y) = 0.19453 0.22833
# Poissons Ratio (z) = 0.26675 0.28329
#
# Static dielectric constant tensor:
#      x y z
#    x 4.390050 0.000000 0.136360 
#    y 0.000000 4.846480 0.000000 
#    z 0.136360 0.000000 4.306930 
# 
# 
# High freq. dielectric constant tensor:
#      x y z
#    x 1.912380 0.000000 0.010100 
#    y 0.000000 1.884010 0.000000 
#    z 0.010100 0.000000 1.880640 
# 
# From -- ./inp_files/53307.got.cif
#   From: 2010.03.12/outbox.cif.g09.slc.cpg/sg14_27_cif.got.tgz:53307.got - 2010.03.31 13:35:05.
