data_PCOD8125773
_publ_section_title
;
Structure prediction by ZEFSAII (Michael W. Deem and Ramdas Pophale) SiO2 
 PCOD8125773
Probable space group: P 21/C
;
_chemical_formula_sum "Si O2"
_cell_formula_units_Z 32
_cell_length_a 18.411266
_cell_length_b 11.172637
_cell_length_c 23.513881
_cell_angle_alpha 90.000000
_cell_angle_beta 162.627694
_cell_angle_gamma 90.000000
_cell_volume 1444.187822
_symmetry_space_group_name_H-M "P 21/C"
_symmetry_group_IT_number 14
_symmetry_cell_setting 'monoclinic'
loop_
_space_group_symop_operation_xyz
x,y,z
-x,1/2+y,1/2-z
-x,-y,-z
x,1/2-y,1/2+z
loop_
_atom_site_type_symbol
_atom_site_label
_atom_site_fract_x
_atom_site_fract_y
_atom_site_fract_z
Si Si1 0.655740 0.263296 0.042369
Si Si2 0.125183 0.945880 0.038935
Si Si3 0.963342 0.484538 0.300181
Si Si4 0.380472 0.143357 0.047809
Si Si5 0.824326 0.327972 0.946507
Si Si6 0.327829 0.114183 0.875068
Si Si7 0.397787 0.902256 0.607995
Si Si8 0.120245 0.378600 0.863244
O O1 0.771093 0.379348 0.155718
O O2 0.852582 0.157459 0.184344
O O3 0.444809 0.222539 0.926847
O O4 0.555286 0.302112 0.905236
O O5 0.388378 0.002459 0.228101
O O6 0.121254 0.803061 0.036686
O O7 0.966536 0.985335 0.867770
O O8 0.000000 0.000000 0.000000
O O9 0.218417 0.451036 0.460960
O O10 0.872657 0.603643 0.199823
O O11 0.664207 0.112426 0.275083
O O12 0.312006 0.144277 0.930048
O O13 0.317367 0.276365 0.025030
O O14 0.642334 0.326402 0.864710
O O15 0.065227 0.401125 0.146685
O O16 0.500000 0.000000 0.000000
O O17 0.165777 0.988904 0.423421
#
# Coordination Sequence:
#
# PCOD8125773 Si02
#       8
#     4   4   4   4   4   4   4   4
#     4  10  22  39  65  95 129 171 223 283 339 409
#     4  12  25  41  65 100 136 174 227 292 350 405
#     4  10  21  40  66  92 127 175 225 273 345 408
#     4  11  23  42  69  97 132 179 230 279 342 422
#     4  12  25  45  69  99 137 183 233 284 343 428
#     4  12  26  45  66  98 141 179 224 288 347 412
#     4  11  22  42  67  96 134 174 227 283 345 416
#     4  10  20  42  68  96 126 176 229 280 339 418
#
# _framework density 22.157782000000001
#
# number of rings (size 3 to 8) (size 9 to 14) (size 15 to 20)
#    0.000    1.000    2.500    6.000    1.750    0.500 
#    0.000    3.125    0.000    0.000    0.000    0.000 
#    0.000    0.000    0.000    0.000    0.000    0.000 
#
# Total GULP energy -396563.892504 kJ/mol
# GULP energy per Si atom -12392.621641 kJ/mol
# Density = 2.210735 g / cm^3
# Si number density = 22.157782 Si / 1000 Ang^3
#
#
#
# Elastic Constant Matrix: (Units=GPa)
#
#
# Indices 1 2 3 4 5 6 
#
# 1 -623.2070 -321.8355 -244.6713 0.0000 -28.7533 0.0000
# 2 -321.8355 -102.3503 -106.9136 0.0000 -5.4890 0.0000
# 3 -244.6713 -106.9136 22.3699 0.0000 -23.2603 0.0000
# 4 0.0000 0.0000 0.0000 20.8877 0.0000 0.6272
# 5 -28.7533 -5.4890 -23.2603 0.0000 33.2695 0.0000
# 6 0.0000 0.0000 0.0000 0.6272 0.0000 27.6327
#
#
#
# Elastic Compliance Matrix: (Units=1/GPa)
#
#
# Indices 1 2 3 4 5 6 
#
# 1 0.003065 -0.007442 -0.002098 0.000000 -0.000046 0.000000
# 2 -0.007442 0.017600 -0.003492 0.000000 -0.005970 0.000000
# 3 -0.002098 -0.003492 0.009443 0.000000 0.004213 0.000000
# 4 0.000000 0.000000 0.000000 0.047908 0.000000 -0.001087
# 5 -0.000046 -0.005970 0.004213 0.000000 0.031978 0.000000
# 6 0.000000 0.000000 0.000000 -0.001087 0.000000 0.036214
#
#
# Mechanical properties :
#
#
# Convention : Reuss Voigt Hill
#
# Bulk Modulus (GPa) = 247.41912 -227.78093 9.81910
# Shear Modulus (GPa) = 28.79861 14.37351 21.58606
#
# Velocity S-wave (km/s) = 3.60906 2.54970 3.12460
# Velocity P-wave (km/s) = 11.36978 9.71364 4.17834
#
# Compressibility (1/GPa) = 0.00404172
#
# Stress axis : x y z
#
# Youngs Moduli (GPa) = 326.30762 56.81919 105.89810
#
# Poissons Ratio (x) = 0.42286 0.22219
# Poissons Ratio (y) = 2.42847 0.36983
# Poissons Ratio (z) = 0.68465 0.19843
#
# Static dielectric constant tensor:
#      x y z
#    x 4.111240 0.000000 -0.109350 
#    y 0.000000 4.171600 0.000000 
#    z -0.109350 0.000000 4.304280 
# 
# 
# High freq. dielectric constant tensor:
#      x y z
#    x 1.869660 0.000000 -0.008810 
#    y 0.000000 1.874340 0.000000 
#    z -0.008810 0.000000 1.878810 
# 
# From -- ./inp_files/74410.got.cif
#   From: 2010.03.12/outbox.cif.g09.slc.cpg/sg14_38_cif.got.tgz:74410.got - 2010.03.31 13:35:05.
