data_PCOD8125917
_publ_section_title
;
Structure prediction by ZEFSAII (Michael W. Deem and Ramdas Pophale) SiO2 
 PCOD8125917
Probable space group: P 21/C
;
_chemical_formula_sum "Si O2"
_cell_formula_units_Z 32
_cell_length_a 14.254221
_cell_length_b 15.234719
_cell_length_c 11.912048
_cell_angle_alpha 90.000000
_cell_angle_beta 141.297063
_cell_angle_gamma 90.000000
_cell_volume 1617.486842
_symmetry_space_group_name_H-M "P 21/C"
_symmetry_group_IT_number 14
_symmetry_cell_setting 'monoclinic'
loop_
_space_group_symop_operation_xyz
x,y,z
-x,1/2+y,1/2-z
-x,-y,-z
x,1/2-y,1/2+z
loop_
_atom_site_type_symbol
_atom_site_label
_atom_site_fract_x
_atom_site_fract_y
_atom_site_fract_z
Si Si1 0.667473 0.500000 0.523587
Si Si2 0.687671 0.500000 0.792626
Si Si3 0.158925 0.398970 0.693781
Si Si4 0.694351 0.340467 0.951442
Si Si5 0.305649 0.159533 0.548559
Si Si6 0.345982 0.852647 0.158344
Si Si7 0.841076 0.398970 0.306219
Si Si8 0.654018 0.647354 0.341655
O O1 0.747775 0.500000 0.720301
O O2 0.490613 0.499999 0.375175
O O3 0.716458 0.413079 0.501162
O O4 0.716456 0.586923 0.501162
O O5 0.747361 0.412990 0.910766
O O6 0.747362 0.587009 0.910769
O O7 0.199937 0.342786 0.841319
O O8 0.147645 0.500000 0.719961
O O9 0.286461 0.388673 0.719821
O O10 0.000000 0.364018 0.500000
O O11 0.711781 0.245818 0.911824
O O12 0.524962 0.358341 0.832431
O O13 0.800065 0.342787 0.158682
O O14 0.475039 0.141658 0.667570
O O15 0.288220 0.254181 0.588177
O O16 0.286461 0.888673 0.219823
#
# Coordination Sequence:
#
# PCOD8125917 Si02
#       8
#     4   4   4   4   4   4   4   4
#     4   9  18  33  53  82 116 143 176 233 290 335
#     4   9  18  33  53  82 116 143 176 233 290 335
#     4  11  23  39  59  82 117 158 196 236 282 342
#     4  10  21  36  60  88 113 146 191 240 289 341
#     4  10  21  36  60  88 113 146 191 240 289 341
#     4  10  21  36  60  88 113 146 191 240 289 341
#     4  11  23  39  59  82 117 158 196 236 282 342
#     4  10  21  36  60  88 113 146 191 240 289 341
#
# _framework density 19.783777000000001
#
# number of rings (size 3 to 8) (size 9 to 14) (size 15 to 20)
#    0.000    2.000    2.500    0.750    3.500    2.000 
#    0.000    0.000    0.000    1.500    0.000    0.000 
#    0.000    0.000    0.000    0.000    0.000    0.000 
#
# Total GULP energy -396902.330804 kJ/mol
# GULP energy per Si atom -12403.197838 kJ/mol
# Density = 1.973875 g / cm^3
# Si number density = 19.783777 Si / 1000 Ang^3
#
#
#
# Elastic Constant Matrix: (Units=GPa)
#
#
# Indices 1 2 3 4 5 6 
#
# 1 38.2015 15.9757 25.2648 0.0000 -22.9706 0.0000
# 2 15.9757 122.4466 42.1746 0.0000 -14.1462 0.0000
# 3 25.2648 42.1746 117.0658 0.0000 -28.6757 0.0000
# 4 0.0000 0.0000 0.0000 12.8649 0.0000 -4.2287
# 5 -22.9706 -14.1462 -28.6757 0.0000 33.4511 0.0000
# 6 0.0000 0.0000 0.0000 -4.2287 0.0000 21.5833
#
#
#
# Elastic Compliance Matrix: (Units=1/GPa)
#
#
# Indices 1 2 3 4 5 6 
#
# 1 0.045649 -0.001904 -0.002132 0.000000 0.028714 0.000000
# 2 -0.001904 0.009451 -0.002956 0.000000 0.000155 0.000000
# 3 -0.002132 -0.002956 0.011902 0.000000 0.007488 0.000000
# 4 0.000000 0.000000 0.000000 0.083081 0.000000 0.016278
# 5 0.028714 0.000155 0.007488 0.000000 0.056097 0.000000
# 6 0.000000 0.000000 0.000000 0.016278 0.000000 0.049521
#
#
# Mechanical properties :
#
#
# Convention : Reuss Voigt Hill
#
# Bulk Modulus (GPa) = 18.86181 49.39380 34.12780
# Shear Modulus (GPa) = 17.39984 26.53311 21.96648
#
# Velocity S-wave (km/s) = 2.96885 3.66615 3.33577
# Velocity P-wave (km/s) = 4.61593 6.55301 5.66784
#
# Compressibility (1/GPa) = 0.05301718
#
# Stress axis : x y z
#
# Youngs Moduli (GPa) = 21.90620 105.80504 84.02224
#
# Poissons Ratio (x) = 0.20147 0.17916
# Poissons Ratio (y) = 0.04171 0.24837
# Poissons Ratio (z) = 0.04671 0.31276
#
# Static dielectric constant tensor:
#      x y z
#    x 3.486040 0.000000 -0.232390 
#    y 0.000000 3.670900 0.000000 
#    z -0.232390 0.000000 3.512020 
# 
# 
# High freq. dielectric constant tensor:
#      x y z
#    x 1.755310 0.000000 -0.023400 
#    y 0.000000 1.777720 0.000000 
#    z -0.023400 0.000000 1.759400 
# 
# From -- ./inp_files/25266.got.cif
#   From: 2010.03.12/outbox.cif.g09.slc.cpg/sg14_13_cif.got.tgz:25266.got - 2010.03.31 13:35:05.
