data_PCOD8125374
_publ_section_title
;
Structure prediction by ZEFSAII (Michael W. Deem and Ramdas Pophale) SiO2 
 PCOD8125374
Probable space group: P 21/C
;
_chemical_formula_sum "Si O2"
_cell_formula_units_Z 32
_cell_length_a 15.095409
_cell_length_b 17.601807
_cell_length_c 10.612873
_cell_angle_alpha 90.000000
_cell_angle_beta 30.894420
_cell_angle_gamma 90.000000
_cell_volume 1447.903985
_symmetry_space_group_name_H-M "P 21/C"
_symmetry_group_IT_number 14
_symmetry_cell_setting 'monoclinic'
loop_
_space_group_symop_operation_xyz
x,y,z
-x,1/2+y,1/2-z
-x,-y,-z
x,1/2-y,1/2+z
loop_
_atom_site_type_symbol
_atom_site_label
_atom_site_fract_x
_atom_site_fract_y
_atom_site_fract_z
Si Si1 0.414684 0.967817 0.916026
Si Si2 0.296298 0.761748 0.329415
Si Si3 0.004119 0.675511 0.331509
Si Si4 0.112716 0.622981 0.462150
Si Si5 0.826802 0.823008 0.490348
Si Si6 0.240123 0.014516 0.377336
Si Si7 0.535633 0.202876 0.139951
Si Si8 0.138807 0.025950 0.064211
O O1 0.422219 0.881174 0.860951
O O2 0.304834 0.016438 0.950393
O O3 0.306872 0.969219 0.176209
O O4 0.612468 0.998284 0.693397
O O5 0.399771 0.763785 0.335901
O O6 0.391509 0.791375 0.090554
O O7 0.129333 0.815552 0.557003
O O8 0.252962 0.673395 0.362466
O O9 0.114359 0.646701 0.314974
O O10 0.926729 0.759916 0.452072
O O11 0.854743 0.613157 0.489882
O O12 0.156075 0.533623 0.427160
O O13 0.929388 0.641426 0.748121
O O14 0.769519 0.895044 0.645538
O O15 0.666304 0.780763 0.623454
O O16 0.049644 0.984921 0.642907
#
# Coordination Sequence:
#
# PCOD8125374 Si02
#       8
#     4   4   4   4   4   4   4   4
#     4  10  20  38  63  92 124 161 218 264 321 378
#     4  11  22  39  65  89 127 164 210 258 321 385
#     4  11  23  40  60  95 121 170 217 255 313 396
#     4  10  21  41  61  85 127 168 208 260 317 384
#     4   9  23  39  63  89 127 164 209 268 321 370
#     4   9  20  38  61  92 124 162 208 271 315 373
#     4  11  22  41  64  95 126 166 206 268 326 377
#     4  11  21  38  62  87 124 173 206 264 320 377
#
# _framework density 22.100914
#
# number of rings (size 3 to 8) (size 9 to 14) (size 15 to 20)
#    0.000    1.750    2.500    1.500    1.750    2.000 
#    6.750    0.000    0.000    3.750    0.000    0.000 
#    0.000    0.000    0.000    0.000    0.000    0.000 
#
# Total GULP energy -396534.359024 kJ/mol
# GULP energy per Si atom -12391.698719 kJ/mol
# Density = 2.205061 g / cm^3
# Si number density = 22.100914 Si / 1000 Ang^3
#
#
#
# Elastic Constant Matrix: (Units=GPa)
#
#
# Indices 1 2 3 4 5 6 
#
# 1 107.5672 19.4408 10.7117 0.0000 -8.2631 0.0000
# 2 19.4408 70.6789 -5.1170 0.0000 -4.5063 0.0000
# 3 10.7117 -5.1170 42.6781 0.0000 -12.8044 0.0000
# 4 0.0000 0.0000 0.0000 13.8109 0.0000 0.2778
# 5 -8.2631 -4.5063 -12.8044 0.0000 29.7608 0.0000
# 6 0.0000 0.0000 0.0000 0.2778 0.0000 35.3121
#
#
#
# Elastic Compliance Matrix: (Units=1/GPa)
#
#
# Indices 1 2 3 4 5 6 
#
# 1 0.010170 -0.002896 -0.002508 0.000000 0.001306 0.000000
# 2 -0.002896 0.015390 0.003479 0.000000 0.003023 0.000000
# 3 -0.002508 0.003479 0.028047 0.000000 0.011898 0.000000
# 4 0.000000 0.000000 0.000000 0.072418 0.000000 -0.000570
# 5 0.001306 0.003023 0.011898 0.000000 0.039541 0.000000
# 6 0.000000 0.000000 0.000000 -0.000570 0.000000 0.028323
#
#
# Mechanical properties :
#
#
# Convention : Reuss Voigt Hill
#
# Bulk Modulus (GPa) = 20.09734 30.11058 25.10396
# Shear Modulus (GPa) = 23.32920 28.83601 26.08261
#
# Velocity S-wave (km/s) = 3.25249 3.61604 3.43907
# Velocity P-wave (km/s) = 4.81852 5.57567 5.21086
#
# Compressibility (1/GPa) = 0.04975784
#
# Stress axis : x y z
#
# Youngs Moduli (GPa) = 98.32927 64.97912 35.65404
#
# Poissons Ratio (x) = 0.18815 0.08941
# Poissons Ratio (y) = 0.28472 -0.12404
# Poissons Ratio (z) = 0.24659 -0.22606
#
# Static dielectric constant tensor:
#      x y z
#    x 3.900160 0.000000 -0.169970 
#    y 0.000000 4.127410 0.000000 
#    z -0.169970 0.000000 3.877610 
# 
# 
# High freq. dielectric constant tensor:
#      x y z
#    x 1.857100 0.000000 -0.014700 
#    y 0.000000 1.875480 0.000000 
#    z -0.014700 0.000000 1.857190 
# 
# From -- ./inp_files/33031.got.cif
#   From: 2010.03.12/outbox.cif.g09.slc.cpg/sg14_17_cif.got.tgz:33031.got - 2010.03.31 13:35:05.
