data_PCOD8125048
_publ_section_title
;
Structure prediction by ZEFSAII (Michael W. Deem and Ramdas Pophale) SiO2 
 PCOD8125048
Probable space group: P 21/C
;
_chemical_formula_sum "Si O2"
_cell_formula_units_Z 32
_cell_length_a 8.876126
_cell_length_b 11.463963
_cell_length_c 18.201602
_cell_angle_alpha 90.000000
_cell_angle_beta 116.059208
_cell_angle_gamma 90.000000
_cell_volume 1663.829648
_symmetry_space_group_name_H-M "P 21/C"
_symmetry_group_IT_number 14
_symmetry_cell_setting 'monoclinic'
loop_
_space_group_symop_operation_xyz
x,y,z
-x,1/2+y,1/2-z
-x,-y,-z
x,1/2-y,1/2+z
loop_
_atom_site_type_symbol
_atom_site_label
_atom_site_fract_x
_atom_site_fract_y
_atom_site_fract_z
Si Si1 0.078319 0.821937 0.554490
Si Si2 0.053937 0.254736 0.824419
Si Si3 0.819945 0.916824 0.393914
Si Si4 0.693213 0.186879 0.205519
Si Si5 0.285040 0.412665 0.290008
Si Si6 0.353275 0.093570 0.388083
Si Si7 0.573698 0.241880 0.341620
Si Si8 0.510647 0.856373 0.430211
O O1 0.251880 0.754164 0.574906
O O2 0.978338 0.749500 0.594992
O O3 0.968693 0.835207 0.457677
O O4 0.123889 0.948873 0.597234
O O5 0.159187 0.140506 0.823728
O O6 0.161419 0.371877 0.830420
O O7 0.881248 0.262151 0.742149
O O8 0.786016 0.875177 0.304471
O O9 0.656527 0.901704 0.408437
O O10 0.609657 0.225026 0.263715
O O11 0.578792 0.239230 0.116369
O O12 0.697805 0.049305 0.195109
O O13 0.471708 0.359442 0.337057
O O14 0.466459 0.129835 0.343222
O O15 0.414770 0.165579 0.473170
O O16 0.366520 0.955752 0.403780
#
# Coordination Sequence:
#
# PCOD8125048 Si02
#       8
#     4   4   4   4   4   4   4   4
#     4  10  20  36  60  87 117 148 193 257 304 345
#     4  10  22  37  54  86 125 153 193 255 293 356
#     4  11  19  35  63  89 117 147 198 251 304 350
#     4  11  23  38  60  90 122 161 203 238 310 356
#     4  11  22  38  59  87 120 160 199 240 302 371
#     4  10  21  37  60  91 122 148 204 249 298 342
#     4  10  20  38  58  84 121 159 194 246 296 364
#     4  11  21  35  63  94 118 153 197 258 293 349
#
# _framework density 19.232738999999999
#
# number of rings (size 3 to 8) (size 9 to 14) (size 15 to 20)
#    0.000    1.500    6.250    0.000    1.750    1.000 
#    0.000    2.500    0.000    0.750    0.000    0.000 
#    0.000    0.000    0.000    0.000    0.000    0.000 
#
# Total GULP energy -396797.296526 kJ/mol
# GULP energy per Si atom -12399.915516 kJ/mol
# Density = 1.918896 g / cm^3
# Si number density = 19.232739 Si / 1000 Ang^3
#
#
#
# Elastic Constant Matrix: (Units=GPa)
#
#
# Indices 1 2 3 4 5 6 
#
# 1 116.4019 40.3270 34.4031 0.0000 4.5138 0.0000
# 2 40.3270 95.9819 32.0039 0.0000 5.9524 0.0000
# 3 34.4031 32.0039 87.2648 0.0000 11.5951 0.0000
# 4 0.0000 0.0000 0.0000 30.0653 0.0000 3.9813
# 5 4.5138 5.9524 11.5951 0.0000 24.1017 0.0000
# 6 0.0000 0.0000 0.0000 3.9813 0.0000 17.9617
#
#
#
# Elastic Compliance Matrix: (Units=1/GPa)
#
#
# Indices 1 2 3 4 5 6 
#
# 1 0.010671 -0.003516 -0.002956 0.000000 0.000292 0.000000
# 2 -0.003516 0.013047 -0.003267 0.000000 -0.000992 0.000000
# 3 -0.002956 -0.003267 0.014574 0.000000 -0.005651 0.000000
# 4 0.000000 0.000000 0.000000 0.034267 0.000000 -0.007595
# 5 0.000292 -0.000992 -0.005651 0.000000 0.044400 0.000000
# 6 0.000000 0.000000 0.000000 -0.007595 0.000000 0.057358
#
#
# Mechanical properties :
#
#
# Convention : Reuss Voigt Hill
#
# Bulk Modulus (GPa) = 53.15342 57.01296 55.08319
# Shear Modulus (GPa) = 24.99178 27.28672 26.13925
#
# Velocity S-wave (km/s) = 3.60868 3.77073 3.69060
# Velocity P-wave (km/s) = 6.71271 6.97610 6.84567
#
# Compressibility (1/GPa) = 0.01881347
#
# Stress axis : x y z
#
# Youngs Moduli (GPa) = 93.70763 76.64784 68.61590
#
# Poissons Ratio (x) = 0.26949 0.20286
# Poissons Ratio (y) = 0.32947 0.22416
# Poissons Ratio (z) = 0.27704 0.25040
#
# Static dielectric constant tensor:
#      x y z
#    x 3.784290 0.000000 0.130190 
#    y 0.000000 3.240100 0.000000 
#    z 0.130190 0.000000 3.551870 
# 
# 
# High freq. dielectric constant tensor:
#      x y z
#    x 1.768750 0.000000 0.004960 
#    y 0.000000 1.718690 0.000000 
#    z 0.004960 0.000000 1.739420 
# 
# From -- ./inp_files/55474.got.cif
#   From: 2010.03.12/outbox.cif.g09.slc.cpg/sg14_28_cif.got.tgz:55474.got - 2010.03.31 13:35:05.
