data_PCOD8125306
_publ_section_title
;
Structure prediction by ZEFSAII (Michael W. Deem and Ramdas Pophale) SiO2 
 PCOD8125306
Probable space group: P 21/C
;
_chemical_formula_sum "Si O2"
_cell_formula_units_Z 20
_cell_length_a 11.750511
_cell_length_b 15.022887
_cell_length_c 9.610358
_cell_angle_alpha 90.000000
_cell_angle_beta 35.119854
_cell_angle_gamma 90.000000
_cell_volume 975.968002
_symmetry_space_group_name_H-M "P 21/C"
_symmetry_group_IT_number 14
_symmetry_cell_setting 'monoclinic'
loop_
_space_group_symop_operation_xyz
x,y,z
-x,1/2+y,1/2-z
-x,-y,-z
x,1/2-y,1/2+z
loop_
_atom_site_type_symbol
_atom_site_label
_atom_site_fract_x
_atom_site_fract_y
_atom_site_fract_z
Si Si1 0.277658 0.082936 0.472300
Si Si2 0.987429 0.347640 0.485144
Si Si3 0.328385 0.806103 0.921600
Si Si4 0.987490 0.152384 0.539907
Si Si5 0.206374 0.609455 0.043612
O O1 0.456779 0.151311 0.293223
O O2 0.149500 0.097106 0.461744
O O3 0.344419 0.979055 0.405525
O O4 0.149360 0.097070 0.739283
O O5 0.783950 0.338403 0.603211
O O6 0.078026 0.250018 0.421956
O O7 0.939485 0.395333 0.678064
O O8 0.215960 0.838414 0.171150
O O9 0.342303 0.697947 0.907684
O O10 0.939527 0.104695 0.442902
#
# Coordination Sequence:
#
# PCOD8125306 Si02
#       5
#     4   4   4   4   4
#     4  11  21  37  63  86 110 154 195 227 287 347
#     4   9  20  39  58  81 116 150 186 236 286 336
#     4   9  21  39  55  82 120 150 185 233 281 337
#     4   9  20  39  58  81 116 150 186 236 286 336
#     4  10  20  38  60  86 120 148 186 244 282 326
#
# _framework density 20.492474999999999
#
# number of rings (size 3 to 8) (size 9 to 14) (size 15 to 20)
#    0.000    2.400    0.000    2.400    0.000    6.400 
#    0.000   18.000    0.000    0.000    0.000    0.000 
#    0.000    0.000    0.000    0.000    0.000    0.000 
#
# Total GULP energy -247979.980520 kJ/mol
# GULP energy per Si atom -12398.999026 kJ/mol
# Density = 2.044583 g / cm^3
# Si number density = 20.492475 Si / 1000 Ang^3
#
#
#
# Elastic Constant Matrix: (Units=GPa)
#
#
# Indices 1 2 3 4 5 6 
#
# 1 94.7283 56.6533 80.8279 0.0000 17.6157 0.0000
# 2 56.6533 150.2384 60.2302 0.0000 -12.3095 0.0000
# 3 80.8279 60.2302 87.3193 0.0000 6.6975 0.0000
# 4 0.0000 0.0000 0.0000 15.7665 0.0000 -2.5893
# 5 17.6157 -12.3095 6.6975 0.0000 41.1302 0.0000
# 6 0.0000 0.0000 0.0000 -2.5893 0.0000 14.9991
#
#
#
# Elastic Compliance Matrix: (Units=1/GPa)
#
#
# Indices 1 2 3 4 5 6 
#
# 1 0.061030 -0.003398 -0.052725 0.000000 -0.018570 0.000000
# 2 -0.003398 0.010028 -0.004166 0.000000 0.005135 0.000000
# 3 -0.052725 -0.004166 0.062272 0.000000 0.011195 0.000000
# 4 0.000000 0.000000 0.000000 0.065276 0.000000 0.011269
# 5 -0.018570 0.005135 0.011195 0.000000 0.031980 0.000000
# 6 0.000000 0.000000 0.000000 0.011269 0.000000 0.068616
#
#
# Mechanical properties :
#
#
# Convention : Reuss Voigt Hill
#
# Bulk Modulus (GPa) = 78.41014 80.85653 79.63334
# Shear Modulus (GPa) = 11.79161 23.35080 17.57121
#
# Velocity S-wave (km/s) = 2.40138 3.37928 2.93140
# Velocity P-wave (km/s) = 6.78489 7.40057 7.09941
#
# Compressibility (1/GPa) = 0.01275345
#
# Stress axis : x y z
#
# Youngs Moduli (GPa) = 16.38538 99.71970 16.05859
#
# Poissons Ratio (x) = 0.33885 0.84669
# Poissons Ratio (y) = 0.05568 0.06689
# Poissons Ratio (z) = 0.86392 0.41538
#
# Static dielectric constant tensor:
#      x y z
#    x 3.665860 0.000000 0.439260 
#    y 0.000000 3.782840 0.000000 
#    z 0.439260 0.000000 3.535160 
# 
# 
# High freq. dielectric constant tensor:
#      x y z
#    x 1.794980 0.000000 0.033770 
#    y 0.000000 1.813050 0.000000 
#    z 0.033770 0.000000 1.784930 
# 
# From -- ./inp_files/13648.got.cif
#   From: 2010.03.12/outbox.cif.g09.slc.cpg/sg14_7_cif.got.tgz:13648.got - 2010.03.31 13:35:05.
