data_PCOD8125021
_publ_section_title
;
Structure prediction by ZEFSAII (Michael W. Deem and Ramdas Pophale) SiO2 
 PCOD8125021
Probable space group: P 21/C
;
_chemical_formula_sum "Si O2"
_cell_formula_units_Z 24
_cell_length_a 11.992764
_cell_length_b 10.913056
_cell_length_c 9.888059
_cell_angle_alpha 90.000000
_cell_angle_beta 59.683401
_cell_angle_gamma 90.000000
_cell_volume 1117.153833
_symmetry_space_group_name_H-M "P 21/C"
_symmetry_group_IT_number 14
_symmetry_cell_setting 'monoclinic'
loop_
_space_group_symop_operation_xyz
x,y,z
-x,1/2+y,1/2-z
-x,-y,-z
x,1/2-y,1/2+z
loop_
_atom_site_type_symbol
_atom_site_label
_atom_site_fract_x
_atom_site_fract_y
_atom_site_fract_z
Si Si1 0.610542 0.366897 0.275931
Si Si2 0.330324 0.204199 0.997827
Si Si3 0.605289 0.865661 0.763878
Si Si4 0.040317 0.862821 0.124041
Si Si5 0.324106 0.801459 0.981471
Si Si6 0.047662 0.139723 0.124758
O O1 0.454818 0.367232 0.361980
O O2 0.657777 0.503324 0.279658
O O3 0.662645 0.280850 0.365466
O O4 0.675467 0.329405 0.094584
O O5 0.328016 0.333432 0.919475
O O6 0.348946 0.228658 0.146666
O O7 0.201508 0.129685 0.045796
O O8 0.449774 0.872322 0.846220
O O9 0.002234 0.752295 0.250184
O O10 0.992803 0.001892 0.195442
O O11 0.194934 0.872908 0.022539
O O12 0.986623 0.828151 0.009110
#
# Coordination Sequence:
#
# PCOD8125021 Si02
#       6
#     4   4   4   4   4   4
#     4  10  20  36  59  83 111 144 180 232 285 332
#     4  10  20  37  58  83 112 145 186 229 281 335
#     4  10  20  36  59  83 111 144 180 232 285 332
#     4  11  24  40  59  84 116 154 193 234 280 335
#     4  10  20  37  58  83 112 145 186 229 281 335
#     4  11  24  40  59  84 116 154 193 234 280 335
#
# _framework density 21.483165
#
# number of rings (size 3 to 8) (size 9 to 14) (size 15 to 20)
#    0.000    1.667    0.000    6.000    0.000    2.000 
#    0.000   16.667    0.000    0.000    0.000    0.000 
#    0.000    0.000    0.000    0.000    0.000    0.000 
#
# Total GULP energy -297318.565725 kJ/mol
# GULP energy per Si atom -12388.273572 kJ/mol
# Density = 2.143427 g / cm^3
# Si number density = 21.483165 Si / 1000 Ang^3
#
#
#
# Elastic Constant Matrix: (Units=GPa)
#
#
# Indices 1 2 3 4 5 6 
#
# 1 93.4175 0.3833 4.4954 0.0000 5.7035 0.0000
# 2 0.3833 100.8949 48.0714 0.0000 1.6692 0.0000
# 3 4.4954 48.0714 67.2118 0.0000 12.0059 0.0000
# 4 0.0000 0.0000 0.0000 22.4201 0.0000 4.3973
# 5 5.7035 1.6692 12.0059 0.0000 23.8508 0.0000
# 6 0.0000 0.0000 0.0000 4.3973 0.0000 14.7698
#
#
#
# Elastic Compliance Matrix: (Units=1/GPa)
#
#
# Indices 1 2 3 4 5 6 
#
# 1 0.010871 0.000215 -0.000455 0.000000 -0.002386 0.000000
# 2 0.000215 0.015554 -0.012016 0.000000 0.004909 0.000000
# 3 -0.000455 -0.012016 0.025639 0.000000 -0.011956 0.000000
# 4 0.000000 0.000000 0.000000 0.047369 0.000000 -0.014103
# 5 -0.002386 0.004909 -0.011956 0.000000 0.048173 0.000000
# 6 0.000000 0.000000 0.000000 -0.014103 0.000000 0.071905
#
#
# Mechanical properties :
#
#
# Convention : Reuss Voigt Hill
#
# Bulk Modulus (GPa) = 36.29415 40.82493 38.55954
# Shear Modulus (GPa) = 19.74676 26.11308 22.92992
#
# Velocity S-wave (km/s) = 3.03508 3.49020 3.27057
# Velocity P-wave (km/s) = 5.40492 5.94024 5.67889
#
# Compressibility (1/GPa) = 0.02755265
#
# Stress axis : x y z
#
# Youngs Moduli (GPa) = 91.98538 64.29103 39.00382
#
# Poissons Ratio (x) = -0.01381 0.01773
# Poissons Ratio (y) = -0.01975 0.46867
# Poissons Ratio (z) = 0.04181 0.77252
#
# Static dielectric constant tensor:
#      x y z
#    x 3.989300 0.000000 0.121410 
#    y 0.000000 3.866640 0.000000 
#    z 0.121410 0.000000 3.800360 
# 
# 
# High freq. dielectric constant tensor:
#      x y z
#    x 1.855550 0.000000 0.015340 
#    y 0.000000 1.828140 0.000000 
#    z 0.015340 0.000000 1.829850 
# 
# From -- ./inp_files/12343.got.cif
#   From: 2010.03.12/outbox.cif.g09.slc.cpg/sg14_7_cif.got.tgz:12343.got - 2010.03.31 13:35:05.
