data_PCOD8125220
_publ_section_title
;
Structure prediction by ZEFSAII (Michael W. Deem and Ramdas Pophale) SiO2 
 PCOD8125220
Probable space group: P 21/C
;
_chemical_formula_sum "Si O2"
_cell_formula_units_Z 28
_cell_length_a 9.311253
_cell_length_b 5.008160
_cell_length_c 31.280905
_cell_angle_alpha 90.000000
_cell_angle_beta 111.505693
_cell_angle_gamma 90.000000
_cell_volume 1357.145882
_symmetry_space_group_name_H-M "P 21/C"
_symmetry_group_IT_number 14
_symmetry_cell_setting 'monoclinic'
loop_
_space_group_symop_operation_xyz
x,y,z
-x,1/2+y,1/2-z
-x,-y,-z
x,1/2-y,1/2+z
loop_
_atom_site_type_symbol
_atom_site_label
_atom_site_fract_x
_atom_site_fract_y
_atom_site_fract_z
Si Si1 0.623682 0.001556 0.951174
Si Si2 0.805978 0.128897 0.608072
Si Si3 0.690517 0.639052 0.549579
Si Si4 0.528773 0.130411 0.636256
Si Si5 0.856145 0.775387 0.858853
Si Si6 0.250140 0.707018 0.105691
Si Si7 0.549965 0.723814 0.781347
O O1 0.566706 0.797977 0.908880
O O2 0.484006 0.192652 0.952745
O O3 0.756739 0.186585 0.943993
O O4 0.697085 0.841354 0.998912
O O5 0.733506 0.340769 0.567818
O O6 0.703174 0.084667 0.639366
O O7 0.972916 0.233320 0.641338
O O8 0.810138 0.849876 0.582693
O O9 0.532109 0.285376 0.681953
O O10 0.434509 0.852320 0.634166
O O11 0.839736 0.572083 0.897431
O O12 0.734876 0.698159 0.808592
O O13 0.822330 0.077355 0.869726
O O14 0.486990 0.447706 0.756722
#
# Coordination Sequence:
#
# PCOD8125220 Si02
#       7
#     4   4   4   4   4   4   4
#     4  10  20  37  62  94 118 165 209 262 277 350
#     4  11  23  42  58  92 124 171 192 249 310 366
#     4  10  23  34  62  91 128 155 218 246 290 345
#     4  10  22  39  69  86 122 159 212 243 308 363
#     4  11  24  40  63  86 130 156 194 253 323 356
#     4  11  19  38  62  85 114 169 201 245 291 361
#     4  11  23  40  65  93 112 149 206 255 297 367
#
# _framework density 20.631533000000001
#
# number of rings (size 3 to 8) (size 9 to 14) (size 15 to 20)
#    0.000    1.429    4.286    2.571    2.000    1.714 
#    0.000    5.714    0.000    0.000    0.000    0.000 
#    0.000    0.000    0.000    0.000    0.000    0.000 
#
# Total GULP energy -347059.558120 kJ/mol
# GULP energy per Si atom -12394.984219 kJ/mol
# Density = 2.058457 g / cm^3
# Si number density = 20.631533 Si / 1000 Ang^3
#
#
#
# Elastic Constant Matrix: (Units=GPa)
#
#
# Indices 1 2 3 4 5 6 
#
# 1 153.5675 69.1359 72.7180 0.0000 5.4362 0.0000
# 2 69.1359 169.1669 81.8975 0.0000 1.8062 0.0000
# 3 72.7180 81.8975 150.6878 0.0000 -1.9477 0.0000
# 4 0.0000 0.0000 0.0000 29.9105 0.0000 0.8895
# 5 5.4362 1.8062 -1.9477 0.0000 21.3127 0.0000
# 6 0.0000 0.0000 0.0000 0.8895 0.0000 30.8105
#
#
#
# Elastic Compliance Matrix: (Units=1/GPa)
#
#
# Indices 1 2 3 4 5 6 
#
# 1 0.009098 -0.002105 -0.003278 0.000000 -0.002442 0.000000
# 2 -0.002105 0.008534 -0.003629 0.000000 -0.000518 0.000000
# 3 -0.003278 -0.003629 0.010217 0.000000 0.002077 0.000000
# 4 0.000000 0.000000 0.000000 0.033462 0.000000 -0.000966
# 5 -0.002442 -0.000518 0.002077 0.000000 0.047777 0.000000
# 6 0.000000 0.000000 0.000000 -0.000966 0.000000 0.032484
#
#
# Mechanical properties :
#
#
# Convention : Reuss Voigt Hill
#
# Bulk Modulus (GPa) = 101.77884 102.32499 102.05191
# Shear Modulus (GPa) = 30.69895 33.05146 31.87520
#
# Velocity S-wave (km/s) = 3.86160 4.00683 3.93488
# Velocity P-wave (km/s) = 8.32594 8.43269 8.37949
#
# Compressibility (1/GPa) = 0.00982523
#
# Stress axis : x y z
#
# Youngs Moduli (GPa) = 109.91173 117.17682 97.87410
#
# Poissons Ratio (x) = 0.24669 0.32082
# Poissons Ratio (y) = 0.23140 0.35518
# Poissons Ratio (z) = 0.36028 0.42523
#
# Static dielectric constant tensor:
#      x y z
#    x 3.933980 0.000000 -0.222220 
#    y 0.000000 3.293870 0.000000 
#    z -0.222220 0.000000 3.581580 
# 
# 
# High freq. dielectric constant tensor:
#      x y z
#    x 1.795290 0.000000 -0.016200 
#    y 0.000000 1.819340 0.000000 
#    z -0.016200 0.000000 1.778270 
# 
# From -- ./inp_files/79139.got.cif
#   From: 2010.03.12/outbox.cif.g09.slc.cpg/sg14_40_cif.got.tgz:79139.got - 2010.03.31 13:35:05.
