data_PCOD8125972
_publ_section_title
;
Structure prediction by ZEFSAII (Michael W. Deem and Ramdas Pophale) SiO2 
 PCOD8125972
Probable space group: P 21/C
;
_chemical_formula_sum "Si O2"
_cell_formula_units_Z 32
_cell_length_a 15.928008
_cell_length_b 10.722392
_cell_length_c 28.474804
_cell_angle_alpha 90.000000
_cell_angle_beta 162.328965
_cell_angle_gamma 90.000000
_cell_volume 1476.203247
_symmetry_space_group_name_H-M "P 21/C"
_symmetry_group_IT_number 14
_symmetry_cell_setting 'monoclinic'
loop_
_space_group_symop_operation_xyz
x,y,z
-x,1/2+y,1/2-z
-x,-y,-z
x,1/2-y,1/2+z
loop_
_atom_site_type_symbol
_atom_site_label
_atom_site_fract_x
_atom_site_fract_y
_atom_site_fract_z
Si Si1 0.566219 0.957500 0.292005
Si Si2 0.180332 0.698078 0.539988
Si Si3 0.580903 0.883976 0.704792
Si Si4 0.572251 0.441534 0.116693
Si Si5 0.897082 0.918098 0.159174
Si Si6 0.008613 0.364011 0.783431
Si Si7 0.647179 0.168529 0.180775
Si Si8 0.891445 0.156349 0.411332
O O1 0.368144 0.926546 0.141719
O O2 0.774064 0.843816 0.417644
O O3 0.387875 0.005681 0.240830
O O4 0.788043 0.058613 0.394645
O O5 0.329743 0.794744 0.585132
O O6 0.181250 0.719409 0.597818
O O7 0.873024 0.686618 0.356411
O O8 0.510222 0.940951 0.616615
O O9 0.604862 0.315748 0.163855
O O10 0.848316 0.468909 0.235161
O O11 0.314054 0.423114 0.944317
O O12 0.975215 0.782661 0.225471
O O13 0.827657 0.035927 0.156770
O O14 0.634634 0.899183 0.985256
O O15 0.887031 0.361883 0.771182
O O16 0.739627 0.127550 0.281605
#
# Coordination Sequence:
#
# PCOD8125972 Si02
#       8
#     4   4   4   4   4   4   4   4
#     4  10  21  37  57  83 121 169 206 263 318 364
#     4  11  22  40  59  88 127 168 213 261 313 388
#     4  11  23  40  61  86 128 165 218 260 322 380
#     4  10  22  40  62  92 126 164 203 264 318 389
#     4  10  22  41  67  95 128 164 213 266 329 394
#     4  10  21  43  66  94 129 167 209 268 331 388
#     4  10  21  38  67  95 121 160 220 262 306 391
#     4  10  21  37  59  87 124 164 208 265 314 363
#
# _framework density 21.677232
#
# number of rings (size 3 to 8) (size 9 to 14) (size 15 to 20)
#    0.000    1.750    1.250    2.625    1.750    2.000 
#    2.250    0.000    0.000    0.000    0.000    0.000 
#    0.000    0.000    0.000    0.000    0.000    0.000 
#
# Total GULP energy -396439.697712 kJ/mol
# GULP energy per Si atom -12388.740553 kJ/mol
# Density = 2.162789 g / cm^3
# Si number density = 21.677232 Si / 1000 Ang^3
#
#
#
# Elastic Constant Matrix: (Units=GPa)
#
#
# Indices 1 2 3 4 5 6 
#
# 1 58.2550 25.3728 20.7266 0.0000 2.2678 0.0000
# 2 25.3728 77.1714 19.1292 0.0000 -1.4296 0.0000
# 3 20.7266 19.1292 99.1344 0.0000 14.1714 0.0000
# 4 0.0000 0.0000 0.0000 30.2788 0.0000 -5.7617
# 5 2.2678 -1.4296 14.1714 0.0000 33.1884 0.0000
# 6 0.0000 0.0000 0.0000 -5.7617 0.0000 31.2681
#
#
#
# Elastic Compliance Matrix: (Units=1/GPa)
#
#
# Indices 1 2 3 4 5 6 
#
# 1 0.020966 -0.006118 -0.003153 0.000000 -0.000350 0.000000
# 2 -0.006118 0.015498 -0.001988 0.000000 0.001935 0.000000
# 3 -0.003153 -0.001988 0.011834 0.000000 -0.004923 0.000000
# 4 0.000000 0.000000 0.000000 0.034226 0.000000 0.006307
# 5 -0.000350 0.001935 -0.004923 0.000000 0.032341 0.000000
# 6 0.000000 0.000000 0.000000 0.006307 0.000000 0.033144
#
#
# Mechanical properties :
#
#
# Convention : Reuss Voigt Hill
#
# Bulk Modulus (GPa) = 38.78958 40.55754 39.67356
# Shear Modulus (GPa) = 27.91414 30.23586 29.07500
#
# Velocity S-wave (km/s) = 3.59237 3.73878 3.66631
# Velocity P-wave (km/s) = 5.92789 6.11460 6.02197
#
# Compressibility (1/GPa) = 0.02578012
#
# Stress axis : x y z
#
# Youngs Moduli (GPa) = 47.69602 64.52290 84.50299
#
# Poissons Ratio (x) = 0.39477 0.26643
# Poissons Ratio (y) = 0.29182 0.16799
# Poissons Ratio (z) = 0.15038 0.12827
#
# Static dielectric constant tensor:
#      x y z
#    x 3.721580 0.000000 0.285810 
#    y 0.000000 4.082700 0.000000 
#    z 0.285810 0.000000 3.865130 
# 
# 
# High freq. dielectric constant tensor:
#      x y z
#    x 1.836520 0.000000 0.024120 
#    y 0.000000 1.849450 0.000000 
#    z 0.024120 0.000000 1.855790 
# 
# From -- ./inp_files/77598.got.cif
#   From: 2010.03.12/outbox.cif.g09.slc.cpg/sg14_39_cif.got.tgz:77598.got - 2010.03.31 13:35:05.
