data_PCOD8125840
_publ_section_title
;
Structure prediction by ZEFSAII (Michael W. Deem and Ramdas Pophale) SiO2 
 PCOD8125840
Probable space group: P 21/C
;
_chemical_formula_sum "Si O2"
_cell_formula_units_Z 32
_cell_length_a 5.251189
_cell_length_b 18.570404
_cell_length_c 15.348045
_cell_angle_alpha 90.000000
_cell_angle_beta 92.791666
_cell_angle_gamma 90.000000
_cell_volume 1494.914494
_symmetry_space_group_name_H-M "P 21/C"
_symmetry_group_IT_number 14
_symmetry_cell_setting 'monoclinic'
loop_
_space_group_symop_operation_xyz
x,y,z
-x,1/2+y,1/2-z
-x,-y,-z
x,1/2-y,1/2+z
loop_
_atom_site_type_symbol
_atom_site_label
_atom_site_fract_x
_atom_site_fract_y
_atom_site_fract_z
Si Si1 0.897988 0.814855 0.289070
Si Si2 0.538857 0.777195 0.052422
Si Si3 0.369979 0.636122 0.245787
Si Si4 0.483284 0.492131 0.638783
Si Si5 0.142747 0.315191 0.823193
Si Si6 0.180627 0.626559 0.638644
Si Si7 0.404519 0.776800 0.367593
Si Si8 0.782546 0.922604 0.010061
O O1 0.943627 0.862365 0.201800
O O2 0.148198 0.823915 0.352731
O O3 0.883148 0.731289 0.264424
O O4 0.633741 0.828876 0.335703
O O5 0.790776 0.737086 0.093681
O O6 0.331265 0.796290 0.126583
O O7 0.602447 0.854265 0.014856
O O8 0.425582 0.731541 0.971620
O O9 0.368941 0.557966 0.290600
O O10 0.612564 0.633833 0.185239
O O11 0.387471 0.700728 0.316531
O O12 0.123398 0.641175 0.176826
O O13 0.370864 0.565524 0.679860
O O14 0.243737 0.448898 0.590327
O O15 0.692589 0.512058 0.569987
O O16 0.069310 0.599420 0.543319
#
# Coordination Sequence:
#
# PCOD8125840 Si02
#       8
#     4   4   4   4   4   4   4   4
#     4  10  21  37  53  84 113 156 196 246 291 349
#     4  11  21  36  58  89 116 161 195 250 302 357
#     4  10  21  37  54  82 116 157 197 244 285 360
#     4  10  22  36  52  86 121 167 201 235 291 359
#     4  10  21  35  57  79 114 152 200 245 298 343
#     4  11  22  35  61  81 125 163 204 243 293 362
#     4  10  22  35  58  82 118 151 197 244 301 346
#     4  10  21  35  54  84 127 159 201 235 286 370
#
# _framework density 21.405904
#
# number of rings (size 3 to 8) (size 9 to 14) (size 15 to 20)
#    0.000    1.750    2.500    2.625    5.250    1.000 
#    0.000    0.000    0.000    0.000    0.000    5.250 
#    0.000    0.000    0.000    0.000    0.000    0.000 
#
# Total GULP energy -396464.635282 kJ/mol
# GULP energy per Si atom -12389.519853 kJ/mol
# Density = 2.135718 g / cm^3
# Si number density = 21.405904 Si / 1000 Ang^3
#
#
#
# Elastic Constant Matrix: (Units=GPa)
#
#
# Indices 1 2 3 4 5 6 
#
# 1 124.3329 21.7404 38.7010 0.0000 22.8691 0.0000
# 2 21.7404 40.6230 37.9036 0.0000 5.1404 0.0000
# 3 38.7010 37.9036 82.2789 0.0000 18.0455 0.0000
# 4 0.0000 0.0000 0.0000 27.8135 0.0000 4.9690
# 5 22.8691 5.1404 18.0455 0.0000 33.1949 0.0000
# 6 0.0000 0.0000 0.0000 4.9690 0.0000 20.9446
#
#
#
# Elastic Compliance Matrix: (Units=1/GPa)
#
#
# Indices 1 2 3 4 5 6 
#
# 1 0.010231 -0.002454 -0.002520 0.000000 -0.005299 0.000000
# 2 -0.002454 0.044414 -0.020628 0.000000 0.006027 0.000000
# 3 -0.002520 -0.020628 0.024706 0.000000 -0.008501 0.000000
# 4 0.000000 0.000000 0.000000 0.037545 0.000000 -0.008907
# 5 -0.005299 0.006027 -0.008501 0.000000 0.037463 0.000000
# 6 0.000000 0.000000 0.000000 -0.008907 0.000000 0.049858
#
#
# Mechanical properties :
#
#
# Convention : Reuss Voigt Hill
#
# Bulk Modulus (GPa) = 35.52624 49.32497 42.42561
# Shear Modulus (GPa) = 18.88192 26.31661 22.59926
#
# Velocity S-wave (km/s) = 2.97322 3.51010 3.25275
# Velocity P-wave (km/s) = 5.33097 6.28653 5.82836
#
# Compressibility (1/GPa) = 0.02814821
#
# Stress axis : x y z
#
# Youngs Moduli (GPa) = 97.74306 22.51528 40.47587
#
# Poissons Ratio (x) = 0.05525 0.10199
# Poissons Ratio (y) = 0.23984 0.83494
# Poissons Ratio (z) = 0.24629 0.46445
#
# Static dielectric constant tensor:
#      x y z
#    x 4.248760 0.000000 0.150950 
#    y 0.000000 3.562290 0.000000 
#    z 0.150950 0.000000 3.588630 
# 
# 
# High freq. dielectric constant tensor:
#      x y z
#    x 1.859000 0.000000 0.021350 
#    y 0.000000 1.797970 0.000000 
#    z 0.021350 0.000000 1.800530 
# 
# From -- ./inp_files/53640.got.cif
#   From: 2010.03.12/outbox.cif.g09.slc.cpg/sg14_27_cif.got.tgz:53640.got - 2010.03.31 13:35:05.
