data_PCOD8125952
_publ_section_title
;
Structure prediction by ZEFSAII (Michael W. Deem and Ramdas Pophale) SiO2 
 PCOD8125952
Probable space group: P 21/C
;
_chemical_formula_sum "Si O2"
_cell_formula_units_Z 28
_cell_length_a 21.366965
_cell_length_b 5.262062
_cell_length_c 23.586570
_cell_angle_alpha 90.000000
_cell_angle_beta 154.325255
_cell_angle_gamma 90.000000
_cell_volume 1148.984188
_symmetry_space_group_name_H-M "P 21/C"
_symmetry_group_IT_number 14
_symmetry_cell_setting 'monoclinic'
loop_
_space_group_symop_operation_xyz
x,y,z
-x,1/2+y,1/2-z
-x,-y,-z
x,1/2-y,1/2+z
loop_
_atom_site_type_symbol
_atom_site_label
_atom_site_fract_x
_atom_site_fract_y
_atom_site_fract_z
Si Si1 0.767898 0.961830 0.574328
Si Si2 0.505825 0.114062 0.718026
Si Si3 0.988484 0.147122 0.670738
Si Si4 0.724672 0.916703 0.236735
Si Si5 0.711878 0.427910 0.287155
Si Si6 0.978502 0.886065 0.917361
Si Si7 0.806199 0.271183 0.710484
O O1 0.721184 0.121235 0.592061
O O2 0.841568 0.136517 0.586358
O O3 0.625232 0.834791 0.432575
O O4 0.882048 0.747510 0.684218
O O5 0.530652 0.372793 0.772641
O O6 0.647673 0.045427 0.797562
O O7 0.954511 0.327634 0.589858
O O8 0.044250 0.874344 0.694293
O O9 0.646927 0.654813 0.193908
O O10 0.898632 0.862782 0.378001
O O11 0.676452 0.142142 0.238970
O O12 0.698861 0.010349 0.149710
O O13 0.887524 0.475649 0.433561
O O14 0.851655 0.097252 0.802093
#
# Coordination Sequence:
#
# PCOD8125952 Si02
#       7
#     4   4   4   4   4   4   4
#     4  11  23  43  69 101 141 180 238 286 359 406
#     4  12  30  50  72 102 144 188 231 283 349 441
#     4  10  21  36  68 100 131 177 225 299 347 400
#     4  11  23  42  66 102 139 180 238 283 345 404
#     4  12  25  42  68  99 139 191 225 278 355 412
#     4  10  22  37  67 101 139 172 233 294 345 403
#     4  10  22  39  65 103 133 173 227 300 336 399
#
# _framework density 24.369351000000002
#
# number of rings (size 3 to 8) (size 9 to 14) (size 15 to 20)
#    0.000    1.143    2.857    2.571    8.000    0.000 
#    0.000    1.429    0.000    0.000    0.000    0.000 
#    0.000    0.000    0.000    0.000    0.000    0.000 
#
# Total GULP energy -347044.163205 kJ/mol
# GULP energy per Si atom -12394.434400 kJ/mol
# Density = 2.431389 g / cm^3
# Si number density = 24.369351 Si / 1000 Ang^3
#
#
#
# Elastic Constant Matrix: (Units=GPa)
#
#
# Indices 1 2 3 4 5 6 
#
# 1 103.1452 34.4130 0.8857 0.0000 -5.2700 0.0000
# 2 34.4130 126.1840 9.3187 0.0000 -11.1705 0.0000
# 3 0.8857 9.3187 60.4648 0.0000 -11.8362 0.0000
# 4 0.0000 0.0000 0.0000 20.2330 0.0000 -2.3726
# 5 -5.2700 -11.1705 -11.8362 0.0000 36.1555 0.0000
# 6 0.0000 0.0000 0.0000 -2.3726 0.0000 46.0268
#
#
#
# Elastic Compliance Matrix: (Units=1/GPa)
#
#
# Indices 1 2 3 4 5 6 
#
# 1 0.010693 -0.002877 0.000446 0.000000 0.000816 0.000000
# 2 -0.002877 0.008960 -0.000939 0.000000 0.002041 0.000000
# 3 0.000446 -0.000939 0.017772 0.000000 0.005593 0.000000
# 4 0.000000 0.000000 0.000000 0.049725 0.000000 0.002563
# 5 0.000816 0.002041 0.005593 0.000000 0.030239 0.000000
# 6 0.000000 0.000000 0.000000 0.002563 0.000000 0.021859
#
#
# Mechanical properties :
#
#
# Convention : Reuss Voigt Hill
#
# Bulk Modulus (GPa) = 32.58932 42.11430 37.35181
# Shear Modulus (GPa) = 32.00753 36.82819 34.41786
#
# Velocity S-wave (km/s) = 3.62806 3.89170 3.76219
# Velocity P-wave (km/s) = 5.56350 6.12478 5.85088
#
# Compressibility (1/GPa) = 0.03068489
#
# Stress axis : x y z
#
# Youngs Moduli (GPa) = 93.52130 111.61238 56.26970
#
# Poissons Ratio (x) = 0.32109 -0.02512
# Poissons Ratio (y) = 0.26905 0.05284
# Poissons Ratio (z) = -0.04176 0.10481
#
# Static dielectric constant tensor:
#      x y z
#    x 4.808130 0.000000 -0.197980 
#    y 0.000000 4.414370 0.000000 
#    z -0.197980 0.000000 3.788630 
# 
# 
# High freq. dielectric constant tensor:
#      x y z
#    x 2.006320 0.000000 -0.015880 
#    y 0.000000 1.973640 0.000000 
#    z -0.015880 0.000000 1.914530 
# 
# From -- ./inp_files/74508.got.cif
#   From: 2010.03.12/outbox.cif.g09.slc.cpg/sg14_38_cif.got.tgz:74508.got - 2010.03.31 13:35:05.
