data_PCOD8125795
_publ_section_title
;
Structure prediction by ZEFSAII (Michael W. Deem and Ramdas Pophale) SiO2 
 PCOD8125795
Probable space group: P 21/C
;
_chemical_formula_sum "Si O2"
_cell_formula_units_Z 28
_cell_length_a 10.600497
_cell_length_b 9.541943
_cell_length_c 23.913080
_cell_angle_alpha 90.000000
_cell_angle_beta 32.774740
_cell_angle_gamma 90.000000
_cell_volume 1309.383117
_symmetry_space_group_name_H-M "P 21/C"
_symmetry_group_IT_number 14
_symmetry_cell_setting 'monoclinic'
loop_
_space_group_symop_operation_xyz
x,y,z
-x,1/2+y,1/2-z
-x,-y,-z
x,1/2-y,1/2+z
loop_
_atom_site_type_symbol
_atom_site_label
_atom_site_fract_x
_atom_site_fract_y
_atom_site_fract_z
Si Si1 0.136868 0.877318 0.067666
Si Si2 0.160364 0.149560 0.265367
Si Si3 0.170791 0.632328 0.320975
Si Si4 0.654063 0.309015 0.623905
Si Si5 0.115851 0.106669 0.590941
Si Si6 0.403692 0.238111 0.577072
Si Si7 0.562363 0.024892 0.611330
O O1 0.925400 0.788786 0.171647
O O2 0.159193 0.842159 0.993904
O O3 0.374737 0.842314 0.012796
O O4 0.061700 0.039132 0.101441
O O5 0.410835 0.114433 0.199201
O O6 0.193805 0.178663 0.186494
O O7 0.973719 0.026889 0.341153
O O8 0.259272 0.624028 0.351359
O O9 0.376513 0.586182 0.203131
O O10 0.103640 0.791618 0.333447
O O11 0.625623 0.138685 0.635914
O O12 0.324644 0.181611 0.546771
O O13 0.211412 0.062161 0.494155
O O14 0.471736 0.107159 0.590675
#
# Coordination Sequence:
#
# PCOD8125795 Si02
#       7
#     4   4   4   4   4   4   4
#     4  10  20  44  66  91 131 180 213 264 341 388
#     4  10  21  41  69  93 130 179 217 260 342 387
#     4  12  26  40  67 103 131 168 228 280 324 393
#     4  10  23  42  69  92 133 178 218 275 329 402
#     4  12  26  40  70 102 129 175 224 276 330 397
#     4  10  23  41  71  93 134 175 219 270 330 406
#     4  10  23  46  62  98 134 172 222 269 337 396
#
# _framework density 21.384115000000001
#
# number of rings (size 3 to 8) (size 9 to 14) (size 15 to 20)
#    0.000    1.714    5.714    0.857    4.000    4.571 
#    0.000    0.000    0.000    0.000    0.000    0.000 
#    0.000    0.000    0.000    0.000    0.000    0.000 
#
# Total GULP energy -347187.538080 kJ/mol
# GULP energy per Si atom -12399.554931 kJ/mol
# Density = 2.133544 g / cm^3
# Si number density = 21.384115 Si / 1000 Ang^3
#
#
#
# Elastic Constant Matrix: (Units=GPa)
#
#
# Indices 1 2 3 4 5 6 
#
# 1 60.3480 14.9657 7.4240 0.0000 -3.4497 0.0000
# 2 14.9657 94.5686 42.4000 0.0000 -4.1444 0.0000
# 3 7.4240 42.4000 119.4767 0.0000 0.6221 0.0000
# 4 0.0000 0.0000 0.0000 39.1341 0.0000 -4.5730
# 5 -3.4497 -4.1444 0.6221 0.0000 15.9159 0.0000
# 6 0.0000 0.0000 0.0000 -4.5730 0.0000 25.3116
#
#
#
# Elastic Compliance Matrix: (Units=1/GPa)
#
#
# Indices 1 2 3 4 5 6 
#
# 1 0.017400 -0.002527 -0.000201 0.000000 0.003121 0.000000
# 2 -0.002527 0.013134 -0.004520 0.000000 0.003049 0.000000
# 3 -0.000201 -0.004520 0.009995 0.000000 -0.001611 0.000000
# 4 0.000000 0.000000 0.000000 0.026104 0.000000 0.004716
# 5 0.003121 0.003049 -0.001611 0.000000 0.064364 0.000000
# 6 0.000000 0.000000 0.000000 0.004716 0.000000 0.040360
#
#
# Mechanical properties :
#
#
# Convention : Reuss Voigt Hill
#
# Bulk Modulus (GPa) = 38.41089 44.88585 41.64837
# Shear Modulus (GPa) = 25.70294 30.04590 27.87442
#
# Velocity S-wave (km/s) = 3.47070 3.75248 3.61433
# Velocity P-wave (km/s) = 5.83629 6.30956 6.07754
#
# Compressibility (1/GPa) = 0.02603428
#
# Stress axis : x y z
#
# Youngs Moduli (GPa) = 57.47021 76.13602 100.05244
#
# Poissons Ratio (x) = 0.19238 0.02008
# Poissons Ratio (y) = 0.14522 0.45224
# Poissons Ratio (z) = 0.01154 0.34414
#
# Static dielectric constant tensor:
#      x y z
#    x 3.531750 0.000000 0.043650 
#    y 0.000000 3.877830 0.000000 
#    z 0.043650 0.000000 3.997740 
# 
# 
# High freq. dielectric constant tensor:
#      x y z
#    x 1.812250 0.000000 0.000960 
#    y 0.000000 1.838400 0.000000 
#    z 0.000960 0.000000 1.853640 
# 
# From -- ./inp_files/77099.got.cif
#   From: 2010.03.12/outbox.cif.g09.slc.cpg/sg14_39_cif.got.tgz:77099.got - 2010.03.31 13:35:05.
