data_PCOD8125382
_publ_section_title
;
Structure prediction by ZEFSAII (Michael W. Deem and Ramdas Pophale) SiO2 
 PCOD8125382
Probable space group: P 21/C
;
_chemical_formula_sum "Si O2"
_cell_formula_units_Z 24
_cell_length_a 9.377347
_cell_length_b 9.581812
_cell_length_c 14.183768
_cell_angle_alpha 90.000000
_cell_angle_beta 107.535807
_cell_angle_gamma 90.000000
_cell_volume 1215.214894
_symmetry_space_group_name_H-M "P 21/C"
_symmetry_group_IT_number 14
_symmetry_cell_setting 'monoclinic'
loop_
_space_group_symop_operation_xyz
x,y,z
-x,1/2+y,1/2-z
-x,-y,-z
x,1/2-y,1/2+z
loop_
_atom_site_type_symbol
_atom_site_label
_atom_site_fract_x
_atom_site_fract_y
_atom_site_fract_z
Si Si1 0.959344 0.340337 0.591990
Si Si2 0.209319 0.305920 0.785977
Si Si3 0.528741 0.888338 0.134462
Si Si4 0.368353 0.818913 0.915758
Si Si5 0.304968 0.607730 0.756687
Si Si6 0.001316 0.167473 0.888277
O O1 0.801932 0.281937 0.594439
O O2 0.985640 0.284131 0.492370
O O3 0.093036 0.276133 0.679373
O O4 0.952346 0.506356 0.601597
O O5 0.353975 0.213202 0.792359
O O6 0.260498 0.465939 0.801039
O O7 0.132034 0.260998 0.868731
O O8 0.394032 0.925273 0.178210
O O9 0.613759 0.029491 0.125630
O O10 0.468889 0.809155 0.029260
O O11 0.409498 0.701018 0.846380
O O12 0.154350 0.690713 0.697934
#
# Coordination Sequence:
#
# PCOD8125382 Si02
#       6
#     4   4   4   4   4   4
#     4  10  20  38  66  89 119 166 208 248 298 371
#     4  11  23  39  65  94 123 160 206 263 304 357
#     4  11  24  41  64  92 123 166 211 247 306 377
#     4  11  22  40  66  89 124 167 206 250 306 374
#     4  11  23  40  62  93 128 161 200 263 312 352
#     4  10  20  38  64  91 121 160 213 244 299 373
#
# _framework density 19.749594999999999
#
# number of rings (size 3 to 8) (size 9 to 14) (size 15 to 20)
#    0.000    1.333    5.000    1.000    0.000    2.000 
#    0.000    2.500    0.000    0.000    0.000    0.000 
#    0.000    0.000    0.000    0.000    0.000    0.000 
#
# Total GULP energy -297661.776928 kJ/mol
# GULP energy per Si atom -12402.574039 kJ/mol
# Density = 1.970464 g / cm^3
# Si number density = 19.749595 Si / 1000 Ang^3
#
#
#
# Elastic Constant Matrix: (Units=GPa)
#
#
# Indices 1 2 3 4 5 6 
#
# 1 90.1677 33.2542 35.4295 0.0000 1.4716 0.0000
# 2 33.2542 67.9510 60.3747 0.0000 9.8222 0.0000
# 3 35.4295 60.3747 110.2368 0.0000 -9.7805 0.0000
# 4 0.0000 0.0000 0.0000 31.4233 0.0000 2.4064
# 5 1.4716 9.8222 -9.7805 0.0000 32.6930 0.0000
# 6 0.0000 0.0000 0.0000 2.4064 0.0000 34.7127
#
#
#
# Elastic Compliance Matrix: (Units=1/GPa)
#
#
# Indices 1 2 3 4 5 6 
#
# 1 0.013661 -0.005756 -0.001170 0.000000 0.000764 0.000000
# 2 -0.005756 0.038598 -0.020848 0.000000 -0.017574 0.000000
# 3 -0.001170 -0.020848 0.022010 0.000000 0.012901 0.000000
# 4 0.000000 0.000000 0.000000 0.031993 0.000000 -0.002218
# 5 0.000764 -0.017574 0.012901 0.000000 0.039693 0.000000
# 6 0.000000 0.000000 0.000000 -0.002218 0.000000 0.028962
#
#
# Mechanical properties :
#
#
# Convention : Reuss Voigt Hill
#
# Bulk Modulus (GPa) = 53.42098 58.49692 55.95895
# Shear Modulus (GPa) = 21.12329 29.05227 25.08778
#
# Velocity S-wave (km/s) = 3.27395 3.83956 3.56798
# Velocity P-wave (km/s) = 6.43425 7.02424 6.73571
#
# Compressibility (1/GPa) = 0.01871924
#
# Stress axis : x y z
#
# Youngs Moduli (GPa) = 73.20304 25.90827 45.43319
#
# Poissons Ratio (x) = 0.14913 0.05316
# Poissons Ratio (y) = 0.42137 0.94721
# Poissons Ratio (z) = 0.08565 0.54015
#
# Static dielectric constant tensor:
#      x y z
#    x 3.639540 0.000000 0.000980 
#    y 0.000000 3.315330 0.000000 
#    z 0.000980 0.000000 3.671270 
# 
# 
# High freq. dielectric constant tensor:
#      x y z
#    x 1.782280 0.000000 -0.002410 
#    y 0.000000 1.748140 0.000000 
#    z -0.002410 0.000000 1.776740 
# 
# From -- ./inp_files/28766.got.cif
#   From: 2010.03.12/outbox.cif.g09.slc.cpg/sg14_15_cif.got.tgz:28766.got - 2010.03.31 13:35:05.
