data_PCOD8125101
_publ_section_title
;
Structure prediction by ZEFSAII (Michael W. Deem and Ramdas Pophale) SiO2 
 PCOD8125101
Probable space group: P 21/C
;
_chemical_formula_sum "Si O2"
_cell_formula_units_Z 28
_cell_length_a 9.467583
_cell_length_b 6.134447
_cell_length_c 27.288969
_cell_angle_alpha 90.000000
_cell_angle_beta 124.781333
_cell_angle_gamma 90.000000
_cell_volume 1301.733415
_symmetry_space_group_name_H-M "P 21/C"
_symmetry_group_IT_number 14
_symmetry_cell_setting 'monoclinic'
loop_
_space_group_symop_operation_xyz
x,y,z
-x,1/2+y,1/2-z
-x,-y,-z
x,1/2-y,1/2+z
loop_
_atom_site_type_symbol
_atom_site_label
_atom_site_fract_x
_atom_site_fract_y
_atom_site_fract_z
Si Si1 0.332340 0.846360 0.676978
Si Si2 0.299679 0.008127 0.240634
Si Si3 0.747554 0.343838 0.576255
Si Si4 0.617145 0.524880 0.386920
Si Si5 0.876906 0.752777 0.376928
Si Si6 0.483168 0.277704 0.446685
Si Si7 0.355269 0.892800 0.354358
O O1 0.494683 0.984838 0.727846
O O2 0.241549 0.716920 0.703317
O O3 0.420504 0.685482 0.654312
O O4 0.179404 0.996964 0.624336
O O5 0.200573 0.199448 0.192386
O O6 0.250957 0.006345 0.288963
O O7 0.594587 0.217602 0.516754
O O8 0.694470 0.599439 0.572232
O O9 0.770820 0.240071 0.634904
O O10 0.921786 0.299242 0.581534
O O11 0.804701 0.607017 0.407394
O O12 0.601813 0.452633 0.440397
O O13 0.487476 0.728303 0.353406
O O14 0.450642 0.071030 0.406472
#
# Coordination Sequence:
#
# PCOD8125101 Si02
#       7
#     4   4   4   4   4   4   4
#     4  11  19  36  61  90 123 159 202 260 307 378
#     4  11  20  34  61  88 118 165 203 246 313 381
#     4  10  25  42  60  93 124 165 213 260 321 371
#     4  10  20  36  65  93 115 159 211 253 314 372
#     4  11  23  38  58  95 129 156 205 264 317 372
#     4  10  21  44  69  83 121 170 214 263 310 380
#     4  11  21  40  63  89 119 166 216 253 312 387
#
# _framework density 21.509779000000002
#
# number of rings (size 3 to 8) (size 9 to 14) (size 15 to 20)
#    0.000    1.429    4.286    1.286    0.000    2.857 
#    5.143    2.857    0.000    0.000    0.000    0.000 
#    0.000    0.000    0.000    0.000    0.000    0.000 
#
# Total GULP energy -346967.010631 kJ/mol
# GULP energy per Si atom -12391.678951 kJ/mol
# Density = 2.146082 g / cm^3
# Si number density = 21.509779 Si / 1000 Ang^3
#
#
#
# Elastic Constant Matrix: (Units=GPa)
#
#
# Indices 1 2 3 4 5 6 
#
# 1 84.8614 27.1461 5.6344 0.0000 10.0246 0.0000
# 2 27.1461 88.9047 18.6305 0.0000 8.4215 0.0000
# 3 5.6344 18.6305 48.7760 0.0000 -7.6387 0.0000
# 4 0.0000 0.0000 0.0000 31.0371 0.0000 -10.6060
# 5 10.0246 8.4215 -7.6387 0.0000 32.9669 0.0000
# 6 0.0000 0.0000 0.0000 -10.6060 0.0000 30.4660
#
#
#
# Elastic Compliance Matrix: (Units=1/GPa)
#
#
# Indices 1 2 3 4 5 6 
#
# 1 0.013380 -0.003632 -0.000675 0.000000 -0.003297 0.000000
# 2 -0.003632 0.013849 -0.005449 0.000000 -0.003696 0.000000
# 3 -0.000675 -0.005449 0.023774 0.000000 0.007106 0.000000
# 4 0.000000 0.000000 0.000000 0.036570 0.000000 0.012731
# 5 -0.003297 -0.003696 0.007106 0.000000 0.033927 0.000000
# 6 0.000000 0.000000 0.000000 0.012731 0.000000 0.037255
#
#
# Mechanical properties :
#
#
# Convention : Reuss Voigt Hill
#
# Bulk Modulus (GPa) = 31.75435 36.15159 33.95297
# Shear Modulus (GPa) = 26.48821 30.30272 28.39547
#
# Velocity S-wave (km/s) = 3.51301 3.75745 3.63729
# Velocity P-wave (km/s) = 5.59015 5.97228 5.78437
#
# Compressibility (1/GPa) = 0.03149175
#
# Stress axis : x y z
#
# Youngs Moduli (GPa) = 74.73863 72.20806 42.06281
#
# Poissons Ratio (x) = 0.26224 0.02838
# Poissons Ratio (y) = 0.27143 0.22920
# Poissons Ratio (z) = 0.05043 0.39346
#
# Static dielectric constant tensor:
#      x y z
#    x 3.701890 0.000000 -0.377290 
#    y 0.000000 4.044140 0.000000 
#    z -0.377290 0.000000 3.665140 
# 
# 
# High freq. dielectric constant tensor:
#      x y z
#    x 1.825780 0.000000 -0.033820 
#    y 0.000000 1.855240 0.000000 
#    z -0.033820 0.000000 1.820330 
# 
# From -- ./inp_files/79165.got.cif
#   From: 2010.03.12/outbox.cif.g09.slc.cpg/sg14_40_cif.got.tgz:79165.got - 2010.03.31 13:35:05.
