data_PCOD8125137
_publ_section_title
;
Structure prediction by ZEFSAII (Michael W. Deem and Ramdas Pophale) SiO2 
 PCOD8125137
Probable space group: P 21/C
;
_chemical_formula_sum "Si O2"
_cell_formula_units_Z 20
_cell_length_a 7.479514
_cell_length_b 13.547256
_cell_length_c 14.432639
_cell_angle_alpha 90.000000
_cell_angle_beta 144.468025
_cell_angle_gamma 90.000000
_cell_volume 849.892677
_symmetry_space_group_name_H-M "P 21/C"
_symmetry_group_IT_number 14
_symmetry_cell_setting 'monoclinic'
loop_
_space_group_symop_operation_xyz
x,y,z
-x,1/2+y,1/2-z
-x,-y,-z
x,1/2-y,1/2+z
loop_
_atom_site_type_symbol
_atom_site_label
_atom_site_fract_x
_atom_site_fract_y
_atom_site_fract_z
Si Si1 0.274418 0.266142 0.846935
Si Si2 0.435070 0.034989 0.624644
Si Si3 0.367568 0.355920 0.698571
Si Si4 0.829070 0.112795 0.630072
Si Si5 0.968900 0.712599 0.060345
O O1 0.199610 0.330239 0.724445
O O2 0.182383 0.151401 0.787776
O O3 0.627052 0.287225 0.024635
O O4 0.058035 0.301939 0.840761
O O5 0.722871 0.066838 0.682790
O O6 0.237284 0.127904 0.576990
O O7 0.561248 0.973747 0.767367
O O8 0.206824 0.965121 0.467826
O O9 0.151202 0.321303 0.522546
O O10 0.682480 0.294483 0.823973
#
# Coordination Sequence:
#
# PCOD8125137 Si02
#       5
#     4   4   4   4   4
#     4  10  20  37  58  86 117 149 193 239 286 344
#     4   9  19  36  59  86 116 154 200 236 284 354
#     4  11  22  37  62  88 115 156 199 240 290 348
#     4   9  18  36  63  84 114 157 192 238 293 345
#     4  11  22  38  62  86 115 158 197 239 294 346
#
# _framework density 23.532382999999999
#
# number of rings (size 3 to 8) (size 9 to 14) (size 15 to 20)
#    0.000    2.000    0.000    6.600    0.000    0.000 
#    0.000    4.000    0.000   46.800    0.000    0.000 
#    0.000    0.000    0.000    0.000    0.000    0.000 
#
# Total GULP energy -247815.159175 kJ/mol
# GULP energy per Si atom -12390.757959 kJ/mol
# Density = 2.347882 g / cm^3
# Si number density = 23.532383 Si / 1000 Ang^3
#
#
#
# Elastic Constant Matrix: (Units=GPa)
#
#
# Indices 1 2 3 4 5 6 
#
# 1 73.3131 -1.8560 8.7589 0.0000 -12.5994 0.0000
# 2 -1.8560 68.6460 22.9451 0.0000 2.0740 0.0000
# 3 8.7589 22.9451 28.7587 0.0000 -1.8054 0.0000
# 4 0.0000 0.0000 0.0000 42.5980 0.0000 2.6948
# 5 -12.5994 2.0740 -1.8054 0.0000 15.1357 0.0000
# 6 0.0000 0.0000 0.0000 2.6948 0.0000 31.4304
#
#
#
# Elastic Compliance Matrix: (Units=1/GPa)
#
#
# Indices 1 2 3 4 5 6 
#
# 1 0.016598 0.002020 -0.005861 0.000000 0.012841 0.000000
# 2 0.002020 0.020441 -0.017122 0.000000 -0.003162 0.000000
# 3 -0.005861 -0.017122 0.050437 0.000000 0.003484 0.000000
# 4 0.000000 0.000000 0.000000 0.023603 0.000000 -0.002024
# 5 0.012841 -0.003162 0.003484 0.000000 0.077607 0.000000
# 6 0.000000 0.000000 0.000000 -0.002024 0.000000 0.031990
#
#
# Mechanical properties :
#
#
# Convention : Reuss Voigt Hill
#
# Bulk Modulus (GPa) = 21.95412 25.60153 23.77782
# Shear Modulus (GPa) = 17.99952 27.22416 22.61184
#
# Velocity S-wave (km/s) = 2.76865 3.40498 3.10317
# Velocity P-wave (km/s) = 4.42382 5.13434 4.79227
#
# Compressibility (1/GPa) = 0.04554953
#
# Stress axis : x y z
#
# Youngs Moduli (GPa) = 60.24730 48.92181 19.82686
#
# Poissons Ratio (x) = -0.09881 0.11620
# Poissons Ratio (y) = -0.12168 0.33948
# Poissons Ratio (z) = 0.35308 0.83765
#
# Static dielectric constant tensor:
#      x y z
#    x 4.231420 0.000000 -0.060540 
#    y 0.000000 4.449630 0.000000 
#    z -0.060540 0.000000 3.986980 
# 
# 
# High freq. dielectric constant tensor:
#      x y z
#    x 1.938030 0.000000 -0.002310 
#    y 0.000000 1.916790 0.000000 
#    z -0.002310 0.000000 1.895230 
# 
# From -- ./inp_files/8352.got.cif
#   From: 2010.03.12/outbox.cif.g09.slc.cpg/sg14_5_cif.got.tgz:8352.got - 2010.03.31 13:35:05.
