data_PCOD8125852
_publ_section_title
;
Structure prediction by ZEFSAII (Michael W. Deem and Ramdas Pophale) SiO2 
 PCOD8125852
Probable space group: P 21/C
;
_chemical_formula_sum "Si O2"
_cell_formula_units_Z 28
_cell_length_a 8.469901
_cell_length_b 8.259759
_cell_length_c 29.330886
_cell_angle_alpha 90.000000
_cell_angle_beta 140.241326
_cell_angle_gamma 90.000000
_cell_volume 1312.348125
_symmetry_space_group_name_H-M "P 21/C"
_symmetry_group_IT_number 14
_symmetry_cell_setting 'monoclinic'
loop_
_space_group_symop_operation_xyz
x,y,z
-x,1/2+y,1/2-z
-x,-y,-z
x,1/2-y,1/2+z
loop_
_atom_site_type_symbol
_atom_site_label
_atom_site_fract_x
_atom_site_fract_y
_atom_site_fract_z
Si Si1 0.184343 0.838623 0.422833
Si Si2 0.576354 0.254999 0.437203
Si Si3 0.493919 0.113742 0.065450
Si Si4 0.983234 0.790922 0.526418
Si Si5 0.231057 0.411620 0.112363
Si Si6 0.280427 0.723289 0.799999
Si Si7 0.875128 0.944825 0.673650
O O1 0.343189 0.868761 0.504272
O O2 0.300014 0.688872 0.421775
O O3 0.910892 0.797028 0.382461
O O4 0.165541 0.997799 0.387317
O O5 0.483926 0.422855 0.438191
O O6 0.797775 0.301846 0.451858
O O7 0.358883 0.162493 0.362402
O O8 0.566915 0.156669 0.133394
O O9 0.212237 0.172066 0.991815
O O10 0.817460 0.885208 0.452333
O O11 0.117673 0.906675 0.593786
O O12 0.522644 0.383320 0.185598
O O13 0.103694 0.600515 0.788637
O O14 0.118837 0.834653 0.730718
#
# Coordination Sequence:
#
# PCOD8125852 Si02
#       7
#     4   4   4   4   4   4   4
#     4  10  23  36  59  90 123 153 192 251 305 349
#     4  11  20  36  57  91 121 151 194 251 302 347
#     4  10  21  35  59  90 121 152 194 247 296 358
#     4   9  18  32  60  89 115 153 192 238 297 343
#     4   9  18  36  59  85 119 151 193 244 290 355
#     4  10  21  40  59  83 113 157 206 237 292 360
#     4  11  22  38  61  82 112 160 198 247 289 358
#
# _framework density 21.335802000000001
#
# number of rings (size 3 to 8) (size 9 to 14) (size 15 to 20)
#    0.000    2.000    1.429    2.143    8.000    0.000 
#    0.000    4.286    0.000    0.000    0.000    0.000 
#    0.000    0.000    0.000    0.000    0.000    0.000 
#
# Total GULP energy -346948.742148 kJ/mol
# GULP energy per Si atom -12391.026505 kJ/mol
# Density = 2.128724 g / cm^3
# Si number density = 21.335802 Si / 1000 Ang^3
#
#
#
# Elastic Constant Matrix: (Units=GPa)
#
#
# Indices 1 2 3 4 5 6 
#
# 1 110.6390 37.7317 41.6157 0.0000 8.9930 0.0000
# 2 37.7317 97.3156 54.3162 0.0000 9.6289 0.0000
# 3 41.6157 54.3162 80.8985 0.0000 22.9856 0.0000
# 4 0.0000 0.0000 0.0000 41.2731 0.0000 5.7294
# 5 8.9930 9.6289 22.9856 0.0000 22.9188 0.0000
# 6 0.0000 0.0000 0.0000 5.7294 0.0000 25.0706
#
#
#
# Elastic Compliance Matrix: (Units=1/GPa)
#
#
# Indices 1 2 3 4 5 6 
#
# 1 0.011438 -0.001710 -0.005125 0.000000 0.001371 0.000000
# 2 -0.001710 0.017265 -0.012366 0.000000 0.005819 0.000000
# 3 -0.005125 -0.012366 0.029722 0.000000 -0.022602 0.000000
# 4 0.000000 0.000000 0.000000 0.025023 0.000000 -0.005718
# 5 0.001371 0.005819 -0.022602 0.000000 0.063318 0.000000
# 6 0.000000 0.000000 0.000000 -0.005718 0.000000 0.041194
#
#
# Mechanical properties :
#
#
# Convention : Reuss Voigt Hill
#
# Bulk Modulus (GPa) = 49.94136 61.79782 55.86959
# Shear Modulus (GPa) = 21.45595 28.19849 24.82722
#
# Velocity S-wave (km/s) = 3.17461 3.63940 3.41492
# Velocity P-wave (km/s) = 6.07418 6.83283 6.46464
#
# Compressibility (1/GPa) = 0.02002348
#
# Stress axis : x y z
#
# Youngs Moduli (GPa) = 87.42848 57.92141 33.64489
#
# Poissons Ratio (x) = 0.09903 0.17244
# Poissons Ratio (y) = 0.14947 0.41604
# Poissons Ratio (z) = 0.44811 0.71623
#
# Static dielectric constant tensor:
#      x y z
#    x 3.934210 0.000000 0.228910 
#    y 0.000000 3.704030 0.000000 
#    z 0.228910 0.000000 3.602190 
# 
# 
# High freq. dielectric constant tensor:
#      x y z
#    x 1.840990 0.000000 0.020310 
#    y 0.000000 1.821890 0.000000 
#    z 0.020310 0.000000 1.801430 
# 
# From -- ./inp_files/79499.got.cif
#   From: 2010.03.12/outbox.cif.g09.slc.cpg/sg14_40_cif.got.tgz:79499.got - 2010.03.31 13:35:05.
