data_PCOD8125047
_publ_section_title
;
Structure prediction by ZEFSAII (Michael W. Deem and Ramdas Pophale) SiO2 
 PCOD8125047
Probable space group: P 21/C
;
_chemical_formula_sum "Si O2"
_cell_formula_units_Z 28
_cell_length_a 19.297809
_cell_length_b 9.431331
_cell_length_c 10.214912
_cell_angle_alpha 90.000000
_cell_angle_beta 137.166369
_cell_angle_gamma 90.000000
_cell_volume 1263.987241
_symmetry_space_group_name_H-M "P 21/C"
_symmetry_group_IT_number 14
_symmetry_cell_setting 'monoclinic'
loop_
_space_group_symop_operation_xyz
x,y,z
-x,1/2+y,1/2-z
-x,-y,-z
x,1/2-y,1/2+z
loop_
_atom_site_type_symbol
_atom_site_label
_atom_site_fract_x
_atom_site_fract_y
_atom_site_fract_z
Si Si1 0.068910 0.179470 0.979346
Si Si2 0.447020 0.051435 0.117444
Si Si3 0.611852 0.178611 0.152011
Si Si4 0.388170 0.521519 0.955796
Si Si5 0.748282 0.989807 0.482803
Si Si6 0.024693 0.395580 0.696608
Si Si7 0.699765 0.758923 0.218648
O O1 0.012843 0.190059 0.043051
O O2 0.186726 0.215454 0.165150
O O3 0.015749 0.290393 0.806905
O O4 0.060115 0.019275 0.909722
O O5 0.529843 0.134925 0.146137
O O6 0.495754 0.029991 0.328447
O O7 0.345406 0.148599 0.966241
O O8 0.422615 0.892965 0.032386
O O9 0.627041 0.345773 0.159942
O O10 0.722183 0.120114 0.350211
O O11 0.371977 0.377095 0.851279
O O12 0.301675 0.516414 0.946526
O O13 0.868582 0.979018 0.660792
O O14 0.698606 0.847919 0.351220
#
# Coordination Sequence:
#
# PCOD8125047 Si02
#       7
#     4   4   4   4   4   4   4
#     4  10  22  40  68  95 126 164 206 259 322 378
#     4   9  19  35  53  80 118 155 200 253 304 360
#     4   9  19  34  55  82 113 157 203 254 301 355
#     4  11  19  34  59  83 113 159 211 249 305 360
#     4   9  20  39  56  82 125 159 196 260 312 372
#     4  10  21  42  66  94 126 165 207 261 319 379
#     4  10  20  36  60  86 121 162 202 249 315 375
#
# _framework density 22.152124000000001
#
# number of rings (size 3 to 8) (size 9 to 14) (size 15 to 20)
#    0.000    2.286    1.429    1.714    0.000    2.286 
#    0.000    5.714    3.143    0.000    0.000    0.000 
#    0.000    0.000    0.000    0.000    0.000    0.000 
#
# Total GULP energy -347098.788421 kJ/mol
# GULP energy per Si atom -12396.385301 kJ/mol
# Density = 2.210170 g / cm^3
# Si number density = 22.152124 Si / 1000 Ang^3
#
#
#
# Elastic Constant Matrix: (Units=GPa)
#
#
# Indices 1 2 3 4 5 6 
#
# 1 32.1720 4.5084 10.2404 0.0000 7.3046 0.0000
# 2 4.5084 106.3657 37.7629 0.0000 5.2430 0.0000
# 3 10.2404 37.7629 87.3998 0.0000 -3.7006 0.0000
# 4 0.0000 0.0000 0.0000 43.5996 0.0000 -5.2360
# 5 7.3046 5.2430 -3.7006 0.0000 17.8684 0.0000
# 6 0.0000 0.0000 0.0000 -5.2360 0.0000 27.7643
#
#
#
# Elastic Compliance Matrix: (Units=1/GPa)
#
#
# Indices 1 2 3 4 5 6 
#
# 1 0.036370 0.001209 -0.005476 0.000000 -0.016357 0.000000
# 2 0.001209 0.011481 -0.005312 0.000000 -0.004963 0.000000
# 3 -0.005476 -0.005312 0.014668 0.000000 0.006835 0.000000
# 4 0.000000 0.000000 0.000000 0.023468 0.000000 0.004426
# 5 -0.016357 -0.004963 0.006835 0.000000 0.065523 0.000000
# 6 0.000000 0.000000 0.000000 0.004426 0.000000 0.036852
#
#
# Mechanical properties :
#
#
# Convention : Reuss Voigt Hill
#
# Bulk Modulus (GPa) = 23.06277 36.77346 29.91811
# Shear Modulus (GPa) = 22.52502 29.40819 25.96660
#
# Velocity S-wave (km/s) = 3.19224 3.64752 3.42745
# Velocity P-wave (km/s) = 4.90111 5.86307 5.40354
#
# Compressibility (1/GPa) = 0.04335993
#
# Stress axis : x y z
#
# Youngs Moduli (GPa) = 27.49481 87.10056 68.17534
#
# Poissons Ratio (x) = -0.10530 0.37335
# Poissons Ratio (y) = -0.03324 0.36217
# Poissons Ratio (z) = 0.15057 0.46271
#
# Static dielectric constant tensor:
#      x y z
#    x 3.539880 0.000000 -0.061100 
#    y 0.000000 4.160300 0.000000 
#    z -0.061100 0.000000 4.373490 
# 
# 
# High freq. dielectric constant tensor:
#      x y z
#    x 1.838040 0.000000 -0.007040 
#    y 0.000000 1.875770 0.000000 
#    z -0.007040 0.000000 1.885560 
# 
# From -- ./inp_files/35009.got.cif
#   From: 2010.03.12/outbox.cif.g09.slc.cpg/sg14_18_cif.got.tgz:35009.got - 2010.03.31 13:35:05.
