data_PCOD8125095
_publ_section_title
;
Structure prediction by ZEFSAII (Michael W. Deem and Ramdas Pophale) SiO2 
 PCOD8125095
Probable space group: P 21/C
;
_chemical_formula_sum "Si O2"
_cell_formula_units_Z 28
_cell_length_a 9.015787
_cell_length_b 8.603576
_cell_length_c 30.494548
_cell_angle_alpha 90.000000
_cell_angle_beta 33.869712
_cell_angle_gamma 90.000000
_cell_volume 1318.253000
_symmetry_space_group_name_H-M "P 21/C"
_symmetry_group_IT_number 14
_symmetry_cell_setting 'monoclinic'
loop_
_space_group_symop_operation_xyz
x,y,z
-x,1/2+y,1/2-z
-x,-y,-z
x,1/2-y,1/2+z
loop_
_atom_site_type_symbol
_atom_site_label
_atom_site_fract_x
_atom_site_fract_y
_atom_site_fract_z
Si Si1 0.254243 0.798085 0.411281
Si Si2 0.250434 0.113956 0.178840
Si Si3 0.473522 0.145856 0.475813
Si Si4 0.072934 0.697861 0.365189
Si Si5 0.687555 0.859694 0.581604
Si Si6 0.252003 0.555790 0.588195
Si Si7 0.775301 0.179744 0.763181
O O1 0.486758 0.718581 0.381685
O O2 0.250790 0.714164 0.364756
O O3 0.976528 0.779009 0.505523
O O4 0.302662 0.982143 0.392437
O O5 0.002659 0.227861 0.233533
O O6 0.290479 0.999079 0.128480
O O7 0.197950 0.004539 0.234008
O O8 0.432977 0.092497 0.435880
O O9 0.737582 0.255649 0.414622
O O10 0.219043 0.237277 0.555158
O O11 0.500000 0.000000 0.500000
O O12 0.209019 0.793403 0.292611
O O13 0.024633 0.515703 0.363393
O O14 0.512396 0.734919 0.649925
O O15 0.500000 0.500000 0.500000
#
# Coordination Sequence:
#
# PCOD8125095 Si02
#       7
#     4   4   4   4   4   4   4
#     4  10  23  43  63  91 130 173 210 264 318 383
#     4  11  23  39  67  92 126 168 214 262 318 381
#     4  10  20  36  64  92 120 166 215 263 309 373
#     4   9  22  40  59  90 132 162 207 264 319 383
#     4  10  22  42  64  92 129 168 217 261 319 382
#     4   9  19  38  59  90 120 158 213 257 300 377
#     4  11  23  40  65  94 126 168 213 266 314 384
#
# _framework density 21.240231999999999
#
# number of rings (size 3 to 8) (size 9 to 14) (size 15 to 20)
#    0.000    2.000    1.429    0.857    8.000    1.714 
#    0.000    0.000    0.000    0.000    0.000    0.000 
#    0.000    0.000    0.000    0.000    0.000    0.000 
#
# Total GULP energy -347155.379533 kJ/mol
# GULP energy per Si atom -12398.406412 kJ/mol
# Density = 2.119189 g / cm^3
# Si number density = 21.240232 Si / 1000 Ang^3
#
#
#
# Elastic Constant Matrix: (Units=GPa)
#
#
# Indices 1 2 3 4 5 6 
#
# 1 65.2304 33.0778 32.2819 0.0000 -5.2784 0.0000
# 2 33.0778 94.6379 24.6229 0.0000 -9.2879 0.0000
# 3 32.2819 24.6229 76.7936 0.0000 4.2555 0.0000
# 4 0.0000 0.0000 0.0000 35.6418 0.0000 1.4668
# 5 -5.2784 -9.2879 4.2555 0.0000 24.9366 0.0000
# 6 0.0000 0.0000 0.0000 1.4668 0.0000 27.7776
#
#
#
# Elastic Compliance Matrix: (Units=1/GPa)
#
#
# Indices 1 2 3 4 5 6 
#
# 1 0.022260 -0.005333 -0.007873 0.000000 0.004069 0.000000
# 2 -0.005333 0.013450 -0.002308 0.000000 0.004275 0.000000
# 3 -0.007873 -0.002308 0.017376 0.000000 -0.005491 0.000000
# 4 0.000000 0.000000 0.000000 0.028118 0.000000 -0.001485
# 5 0.004069 0.004275 -0.005491 0.000000 0.043492 0.000000
# 6 0.000000 0.000000 0.000000 -0.001485 0.000000 0.036079
#
#
# Mechanical properties :
#
#
# Convention : Reuss Voigt Hill
#
# Bulk Modulus (GPa) = 45.33289 46.29190 45.81240
# Shear Modulus (GPa) = 25.10599 27.44984 26.27792
#
# Velocity S-wave (km/s) = 3.44176 3.59883 3.52117
# Velocity P-wave (km/s) = 6.09783 6.25384 6.17633
#
# Compressibility (1/GPa) = 0.02205904
#
# Stress axis : x y z
#
# Youngs Moduli (GPa) = 44.92361 74.34707 57.55094
#
# Poissons Ratio (x) = 0.39646 0.45311
# Poissons Ratio (y) = 0.23956 0.13283
# Poissons Ratio (z) = 0.35369 0.17159
#
# Static dielectric constant tensor:
#      x y z
#    x 3.896090 0.000000 0.122020 
#    y 0.000000 3.230650 0.000000 
#    z 0.122020 0.000000 3.918230 
# 
# 
# High freq. dielectric constant tensor:
#      x y z
#    x 1.820610 0.000000 0.008590 
#    y 0.000000 1.834470 0.000000 
#    z 0.008590 0.000000 1.834110 
# 
# From -- ./inp_files/79455.got.cif
#   From: 2010.03.12/outbox.cif.g09.slc.cpg/sg14_40_cif.got.tgz:79455.got - 2010.03.31 13:35:05.
