data_PCOD8125377
_publ_section_title
;
Structure prediction by ZEFSAII (Michael W. Deem and Ramdas Pophale) SiO2 
 PCOD8125377
Probable space group: P 21/C
;
_chemical_formula_sum "Si O2"
_cell_formula_units_Z 32
_cell_length_a 7.438963
_cell_length_b 11.777507
_cell_length_c 17.634744
_cell_angle_alpha 90.000000
_cell_angle_beta 112.917288
_cell_angle_gamma 90.000000
_cell_volume 1423.071106
_symmetry_space_group_name_H-M "P 21/C"
_symmetry_group_IT_number 14
_symmetry_cell_setting 'monoclinic'
loop_
_space_group_symop_operation_xyz
x,y,z
-x,1/2+y,1/2-z
-x,-y,-z
x,1/2-y,1/2+z
loop_
_atom_site_type_symbol
_atom_site_label
_atom_site_fract_x
_atom_site_fract_y
_atom_site_fract_z
Si Si1 0.975404 0.309413 0.838631
Si Si2 0.968906 0.137665 0.973252
Si Si3 0.547286 0.419682 0.403909
Si Si4 0.844520 0.016456 0.115662
Si Si5 0.664364 0.845344 0.866357
Si Si6 0.292839 0.268459 0.274751
Si Si7 0.275288 0.753735 0.839450
Si Si8 0.000895 0.055097 0.697909
O O1 0.954546 0.243531 0.914001
O O2 0.166710 0.267502 0.826248
O O3 0.000052 0.444923 0.856254
O O4 0.786242 0.286108 0.756369
O O5 0.026670 0.020334 0.937131
O O6 0.753519 0.114767 0.977677
O O7 0.124995 0.172806 0.061810
O O8 0.362680 0.447750 0.428858
O O9 0.575415 0.530385 0.358231
O O10 0.496935 0.315867 0.339717
O O11 0.969461 0.975999 0.208436
O O12 0.813941 0.152028 0.117596
O O13 0.676999 0.834525 0.777613
O O14 0.511300 0.756219 0.879288
O O15 0.184397 0.365697 0.207162
O O16 0.197887 0.627917 0.847671
#
# Coordination Sequence:
#
# PCOD8125377 Si02
#       8
#     4   4   4   4   4   4   4   4
#     4  10  20  38  64  86 119 165 205 242 301 366
#     4  12  22  40  60  92 129 156 195 254 318 347
#     4  10  22  39  61  89 124 160 198 246 311 356
#     4   9  19  37  58  91 117 153 200 252 293 367
#     4  11  25  36  58  98 124 150 203 257 303 363
#     4  10  21  39  57  92 122 154 215 248 285 370
#     4   9  18  36  58  86 116 161 203 246 292 353
#     4   9  18  36  62  85 110 160 213 242 284 354
#
# _framework density 22.486575999999999
#
# number of rings (size 3 to 8) (size 9 to 14) (size 15 to 20)
#    0.000    2.000    3.750    1.875    5.250    2.000 
#    4.500    1.250    0.000    0.000    0.000    0.000 
#    0.000    0.000    0.000    0.000    0.000    0.000 
#
# Total GULP energy -396638.983536 kJ/mol
# GULP energy per Si atom -12394.968236 kJ/mol
# Density = 2.243540 g / cm^3
# Si number density = 22.486576 Si / 1000 Ang^3
#
#
#
# Elastic Constant Matrix: (Units=GPa)
#
#
# Indices 1 2 3 4 5 6 
#
# 1 117.5768 25.2083 29.9005 0.0000 20.9239 0.0000
# 2 25.2083 96.6718 13.4012 0.0000 13.8115 0.0000
# 3 29.9005 13.4012 68.3795 0.0000 19.8955 0.0000
# 4 0.0000 0.0000 0.0000 27.1022 0.0000 0.7115
# 5 20.9239 13.8115 19.8955 0.0000 43.2796 0.0000
# 6 0.0000 0.0000 0.0000 0.7115 0.0000 29.6322
#
#
#
# Elastic Compliance Matrix: (Units=1/GPa)
#
#
# Indices 1 2 3 4 5 6 
#
# 1 0.010238 -0.001805 -0.003291 0.000000 -0.002861 0.000000
# 2 -0.001805 0.011256 -0.000722 0.000000 -0.002388 0.000000
# 3 -0.003291 -0.000722 0.018095 0.000000 -0.006497 0.000000
# 4 0.000000 0.000000 0.000000 0.036921 0.000000 -0.000887
# 5 -0.002861 -0.002388 -0.006497 0.000000 0.028237 0.000000
# 6 0.000000 0.000000 0.000000 -0.000887 0.000000 0.033768
#
#
# Mechanical properties :
#
#
# Convention : Reuss Voigt Hill
#
# Bulk Modulus (GPa) = 35.77306 46.62755 41.20031
# Shear Modulus (GPa) = 31.35414 34.27734 32.81574
#
# Velocity S-wave (km/s) = 3.73815 3.90852 3.82429
# Velocity P-wave (km/s) = 5.88004 6.41479 6.15322
#
# Compressibility (1/GPa) = 0.02795400
#
# Stress axis : x y z
#
# Youngs Moduli (GPa) = 97.67535 88.84063 55.26377
#
# Poissons Ratio (x) = 0.16034 0.18186
# Poissons Ratio (y) = 0.17628 0.03991
# Poissons Ratio (z) = 0.32142 0.06416
#
# Static dielectric constant tensor:
#      x y z
#    x 4.209520 0.000000 0.286890 
#    y 0.000000 4.399010 0.000000 
#    z 0.286890 0.000000 3.972800 
# 
# 
# High freq. dielectric constant tensor:
#      x y z
#    x 1.892070 0.000000 0.013790 
#    y 0.000000 1.881610 0.000000 
#    z 0.013790 0.000000 1.870790 
# 
# From -- ./inp_files/65617.got.cif
#   From: 2010.03.12/outbox.cif.g09.slc.cpg/sg14_33_cif.got.tgz:65617.got - 2010.03.31 13:35:05.
