data_PCOD8125891
_publ_section_title
;
Structure prediction by ZEFSAII (Michael W. Deem and Ramdas Pophale) SiO2 
 PCOD8125891
Probable space group: P 21/C
;
_chemical_formula_sum "Si O2"
_cell_formula_units_Z 16
_cell_length_a 25.488546
_cell_length_b 7.494794
_cell_length_c 4.996483
_cell_angle_alpha 90.000000
_cell_angle_beta 52.935697
_cell_angle_gamma 90.000000
_cell_volume 761.640580
_symmetry_space_group_name_H-M "P 21/C"
_symmetry_group_IT_number 14
_symmetry_cell_setting 'monoclinic'
loop_
_space_group_symop_operation_xyz
x,y,z
-x,1/2+y,1/2-z
-x,-y,-z
x,1/2-y,1/2+z
loop_
_atom_site_type_symbol
_atom_site_label
_atom_site_fract_x
_atom_site_fract_y
_atom_site_fract_z
Si Si1 0.555574 0.362508 0.402030
Si Si2 0.180870 0.129485 0.899363
Si Si3 0.060802 0.870738 0.270692
Si Si4 0.297190 0.870667 0.617485
O O1 0.500000 0.500000 0.500000
O O2 0.547278 0.309422 0.736734
O O3 0.628221 0.443742 0.133185
O O4 0.172003 0.207518 0.630862
O O5 0.252325 0.042760 0.712037
O O6 0.127525 0.977432 0.115732
O O7 0.057909 0.704014 0.479740
O O8 0.000000 0.000000 0.500000
O O9 0.282928 0.713430 0.450440
#
# Coordination Sequence:
#
# PCOD8125891 Si02
#       4
#     4   4   4   4
#     4  10  21  36  57  82 113 148 189 234 285 340
#     4  12  24  39  60  89 117 149 192 237 282 336
#     4  12  24  42  64  88 119 154 190 234 282 336
#     4  10  21  39  58  81 113 153 190 231 285 340
#
# _framework density 21.007285
#
# number of rings (size 3 to 8) (size 9 to 14) (size 15 to 20)
#    0.000    1.000    0.000    7.500    0.000    2.000 
#    0.000    0.000    0.000    0.000    0.000    0.000 
#    0.000    0.000    0.000    0.000    0.000    0.000 
#
# Total GULP energy -198523.046281 kJ/mol
# GULP energy per Si atom -12407.690393 kJ/mol
# Density = 2.095947 g / cm^3
# Si number density = 21.007285 Si / 1000 Ang^3
#
#
#
# Elastic Constant Matrix: (Units=GPa)
#
#
# Indices 1 2 3 4 5 6 
#
# 1 104.2245 35.5248 33.6671 0.0000 -17.1236 0.0000
# 2 35.5248 76.7459 29.8254 0.0000 -24.4204 0.0000
# 3 33.6671 29.8254 75.4901 0.0000 -11.2126 0.0000
# 4 0.0000 0.0000 0.0000 37.6687 0.0000 -5.5839
# 5 -17.1236 -24.4204 -11.2126 0.0000 41.9460 0.0000
# 6 0.0000 0.0000 0.0000 -5.5839 0.0000 65.2190
#
#
#
# Elastic Compliance Matrix: (Units=1/GPa)
#
#
# Indices 1 2 3 4 5 6 
#
# 1 0.012378 -0.003645 -0.003796 0.000000 0.001917 0.000000
# 2 -0.003645 0.019241 -0.004721 0.000000 0.008452 0.000000
# 3 -0.003796 -0.004721 0.016835 0.000000 0.000202 0.000000
# 4 0.000000 0.000000 0.000000 0.026888 0.000000 0.002302
# 5 0.001917 0.008452 0.000202 0.000000 0.029597 0.000000
# 6 0.000000 0.000000 0.000000 0.002302 0.000000 0.015530
#
#
# Mechanical properties :
#
#
# Convention : Reuss Voigt Hill
#
# Bulk Modulus (GPa) = 41.44044 50.49946 45.96995
# Shear Modulus (GPa) = 32.71464 39.46296 36.08880
#
# Velocity S-wave (km/s) = 3.95055 4.33891 4.14927
# Velocity P-wave (km/s) = 6.37013 7.01375 6.69968
#
# Compressibility (1/GPa) = 0.02413102
#
# Stress axis : x y z
#
# Youngs Moduli (GPa) = 80.78895 51.97149 59.40044
#
# Poissons Ratio (x) = 0.18942 0.22547
# Poissons Ratio (y) = 0.29445 0.28044
# Poissons Ratio (z) = 0.30665 0.24537
#
# Static dielectric constant tensor:
#      x y z
#    x 4.043400 0.000000 0.062480 
#    y 0.000000 3.516570 0.000000 
#    z 0.062480 0.000000 4.176660 
# 
# 
# High freq. dielectric constant tensor:
#      x y z
#    x 1.845510 0.000000 0.001520 
#    y 0.000000 1.810680 0.000000 
#    z 0.001520 0.000000 1.838950 
# 
# From -- ./inp_files/4012.got.cif
#   From: 2010.03.12/outbox.cif.g09.slc.cpg/sg14_3_cif.got.tgz:4012.got - 2010.03.31 13:35:05.
