data_PCOD8125557
_publ_section_title
;
Structure prediction by ZEFSAII (Michael W. Deem and Ramdas Pophale) SiO2 
 PCOD8125557
Probable space group: P 21/C
;
_chemical_formula_sum "Si O2"
_cell_formula_units_Z 24
_cell_length_a 10.155741
_cell_length_b 9.734873
_cell_length_c 20.115631
_cell_angle_alpha 90.000000
_cell_angle_beta 141.314620
_cell_angle_gamma 90.000000
_cell_volume 1243.042013
_symmetry_space_group_name_H-M "P 21/C"
_symmetry_group_IT_number 14
_symmetry_cell_setting 'monoclinic'
loop_
_space_group_symop_operation_xyz
x,y,z
-x,1/2+y,1/2-z
-x,-y,-z
x,1/2-y,1/2+z
loop_
_atom_site_type_symbol
_atom_site_label
_atom_site_fract_x
_atom_site_fract_y
_atom_site_fract_z
Si Si1 0.830867 0.970889 0.652854
Si Si2 0.412045 0.911673 0.563794
Si Si3 0.060669 0.710857 0.709030
Si Si4 0.158909 0.350700 0.506490
Si Si5 0.266597 0.651766 0.584990
Si Si6 0.488505 0.846234 0.305238
O O1 0.633884 0.900816 0.612959
O O2 0.017120 0.859673 0.722929
O O3 0.761857 0.020520 0.552586
O O4 0.934398 0.098228 0.731445
O O5 0.331292 0.762844 0.555035
O O6 0.441256 0.005275 0.640365
O O7 0.283157 0.710816 0.760517
O O8 0.870193 0.682890 0.582590
O O9 0.226862 0.508499 0.533269
O O10 0.334399 0.263884 0.611823
O O11 0.948437 0.310064 0.462802
O O12 0.453193 0.638701 0.712589
#
# Coordination Sequence:
#
# PCOD8125557 Si02
#       6
#     4   4   4   4   4   4
#     4  10  22  40  60  85 119 157 200 240 289 353
#     4  10  21  40  61  84 119 157 195 241 292 348
#     4  10  22  39  60  84 116 157 193 245 293 341
#     4  10  21  40  58  85 123 145 194 249 286 348
#     4  10  22  37  61  88 114 157 190 237 300 350
#     4  10  20  40  60  84 119 150 192 246 293 343
#
# _framework density 19.307472000000001
#
# number of rings (size 3 to 8) (size 9 to 14) (size 15 to 20)
#    0.000    2.000    1.667    1.000    2.333    3.333 
#    3.000    1.667    0.000    0.000    0.000    0.000 
#    0.000    0.000    0.000    0.000    0.000    0.000 
#
# Total GULP energy -297638.641180 kJ/mol
# GULP energy per Si atom -12401.610049 kJ/mol
# Density = 1.926353 g / cm^3
# Si number density = 19.307472 Si / 1000 Ang^3
#
#
#
# Elastic Constant Matrix: (Units=GPa)
#
#
# Indices 1 2 3 4 5 6 
#
# 1 50.6083 39.1946 18.2609 0.0000 -20.8758 0.0000
# 2 39.1946 73.9843 28.6362 0.0000 -10.6951 0.0000
# 3 18.2609 28.6362 108.0049 0.0000 -12.6051 0.0000
# 4 0.0000 0.0000 0.0000 39.0409 0.0000 2.5413
# 5 -20.8758 -10.6951 -12.6051 0.0000 22.9636 0.0000
# 6 0.0000 0.0000 0.0000 2.5413 0.0000 37.3155
#
#
#
# Elastic Compliance Matrix: (Units=1/GPa)
#
#
# Indices 1 2 3 4 5 6 
#
# 1 0.052766 -0.023081 0.001647 0.000000 0.038124 0.000000
# 2 -0.023081 0.025751 -0.004246 0.000000 -0.011320 0.000000
# 3 0.001647 -0.004246 0.010738 0.000000 0.005414 0.000000
# 4 0.000000 0.000000 0.000000 0.025728 0.000000 -0.001752
# 5 0.038124 -0.011320 0.005414 0.000000 0.075905 0.000000
# 6 0.000000 0.000000 0.000000 -0.001752 0.000000 0.026918
#
#
# Mechanical properties :
#
#
# Convention : Reuss Voigt Hill
#
# Bulk Modulus (GPa) = 26.38767 44.97565 35.68166
# Shear Modulus (GPa) = 17.74326 29.63105 23.68715
#
# Velocity S-wave (km/s) = 3.03476 3.92177 3.50643
# Velocity P-wave (km/s) = 5.09671 6.62208 5.90883
#
# Compressibility (1/GPa) = 0.03789649
#
# Stress axis : x y z
#
# Youngs Moduli (GPa) = 18.95148 38.83350 93.12671
#
# Poissons Ratio (x) = 0.89630 -0.15342
# Poissons Ratio (y) = 0.43741 0.39545
# Poissons Ratio (z) = -0.03122 0.16490
#
# Static dielectric constant tensor:
#      x y z
#    x 3.400670 0.000000 -0.134740 
#    y 0.000000 3.447490 0.000000 
#    z -0.134740 0.000000 3.755390 
# 
# 
# High freq. dielectric constant tensor:
#      x y z
#    x 1.739280 0.000000 -0.009420 
#    y 0.000000 1.755650 0.000000 
#    z -0.009420 0.000000 1.766910 
# 
# From -- ./inp_files/28036.got.cif
#   From: 2010.03.12/outbox.cif.g09.slc.cpg/sg14_15_cif.got.tgz:28036.got - 2010.03.31 13:35:05.
