data_PCOD8125250
_publ_section_title
;
Structure prediction by ZEFSAII (Michael W. Deem and Ramdas Pophale) SiO2 
 PCOD8125250
Probable space group: P 21/C
;
_chemical_formula_sum "Si O2"
_cell_formula_units_Z 24
_cell_length_a 8.586241
_cell_length_b 8.735771
_cell_length_c 14.120973
_cell_angle_alpha 90.000000
_cell_angle_beta 88.720687
_cell_angle_gamma 90.000000
_cell_volume 1058.913951
_symmetry_space_group_name_H-M "P 21/C"
_symmetry_group_IT_number 14
_symmetry_cell_setting 'monoclinic'
loop_
_space_group_symop_operation_xyz
x,y,z
-x,1/2+y,1/2-z
-x,-y,-z
x,1/2-y,1/2+z
loop_
_atom_site_type_symbol
_atom_site_label
_atom_site_fract_x
_atom_site_fract_y
_atom_site_fract_z
Si Si1 0.686280 0.627101 0.684500
Si Si2 0.065030 0.557797 0.231295
Si Si3 0.588302 0.729420 0.004495
Si Si4 0.736198 0.087660 0.457649
Si Si5 0.517711 0.181336 0.190550
Si Si6 0.169415 0.837985 0.340146
O O1 0.860261 0.589849 0.716381
O O2 0.682031 0.657437 0.572695
O O3 0.620733 0.777348 0.736613
O O4 0.584173 0.481982 0.718490
O O5 0.162481 0.609348 0.137679
O O6 0.059390 0.697984 0.305841
O O7 0.893864 0.499349 0.201582
O O8 0.427847 0.674005 0.055893
O O9 0.701203 0.590380 0.975779
O O10 0.550536 0.829510 0.913561
O O11 0.833264 0.155309 0.545278
O O12 0.653168 0.310895 0.195147
#
# Coordination Sequence:
#
# PCOD8125250 Si02
#       6
#     4   4   4   4   4   4
#     4  11  22  37  65  92 125 157 209 254 309 368
#     4  11  23  43  61  94 121 168 207 250 310 369
#     4  10  20  37  65  93 121 158 205 260 312 361
#     4  10  21  41  64  91 123 163 206 253 313 366
#     4  10  22  39  60  94 120 163 201 261 306 364
#     4  10  24  39  64  86 128 162 205 254 301 367
#
# _framework density 22.664732000000001
#
# number of rings (size 3 to 8) (size 9 to 14) (size 15 to 20)
#    0.000    1.667    1.667    3.000    7.000    0.000 
#    0.000    0.833    0.000    0.000    0.000    0.000 
#    0.000    0.000    0.000    0.000    0.000    0.000 
#
# Total GULP energy -297614.908421 kJ/mol
# GULP energy per Si atom -12400.621184 kJ/mol
# Density = 2.261315 g / cm^3
# Si number density = 22.664732 Si / 1000 Ang^3
#
#
#
# Elastic Constant Matrix: (Units=GPa)
#
#
# Indices 1 2 3 4 5 6 
#
# 1 42.4438 9.4282 30.8019 0.0000 16.5907 0.0000
# 2 9.4282 32.1998 9.6600 0.0000 8.0520 0.0000
# 3 30.8019 9.6600 83.3920 0.0000 26.2376 0.0000
# 4 0.0000 0.0000 0.0000 48.3500 0.0000 13.8353
# 5 16.5907 8.0520 26.2376 0.0000 27.4618 0.0000
# 6 0.0000 0.0000 0.0000 13.8353 0.0000 40.0166
#
#
#
# Elastic Compliance Matrix: (Units=1/GPa)
#
#
# Indices 1 2 3 4 5 6 
#
# 1 0.035670 -0.004864 -0.008980 0.000000 -0.011544 0.000000
# 2 -0.004864 0.034251 0.000092 0.000000 -0.007192 0.000000
# 3 -0.008980 0.000092 0.019444 0.000000 -0.013180 0.000000
# 4 0.000000 0.000000 0.000000 0.022953 0.000000 -0.007936
# 5 -0.011544 -0.007192 -0.013180 0.000000 0.058089 0.000000
# 6 0.000000 0.000000 0.000000 -0.007936 0.000000 0.027733
#
#
# Mechanical properties :
#
#
# Convention : Reuss Voigt Hill
#
# Bulk Modulus (GPa) = 16.16495 28.64619 22.40557
# Shear Modulus (GPa) = 20.30330 30.37538 25.33934
#
# Velocity S-wave (km/s) = 2.99626 3.66485 3.34729
# Velocity P-wave (km/s) = 4.37239 5.52944 4.98460
#
# Compressibility (1/GPa) = 0.06186226
#
# Stress axis : x y z
#
# Youngs Moduli (GPa) = 28.03481 29.19611 51.42880
#
# Poissons Ratio (x) = 0.14200 0.46181
# Poissons Ratio (y) = 0.13635 -0.00471
# Poissons Ratio (z) = 0.25174 -0.00268
#
# Static dielectric constant tensor:
#      x y z
#    x 3.933710 0.000000 0.408920 
#    y 0.000000 3.914980 0.000000 
#    z 0.408920 0.000000 4.085350 
# 
# 
# High freq. dielectric constant tensor:
#      x y z
#    x 1.877070 0.000000 0.030170 
#    y 0.000000 1.886060 0.000000 
#    z 0.030170 0.000000 1.901330 
# 
# From -- ./inp_files/38987.got.cif
#   From: 2010.03.12/outbox.cif.g09.slc.cpg/sg14_20_cif.got.tgz:38987.got - 2010.03.31 13:35:05.
