data_PCOD8125916
_publ_section_title
;
Structure prediction by ZEFSAII (Michael W. Deem and Ramdas Pophale) SiO2 
 PCOD8125916
Probable space group: P 21/C
;
_chemical_formula_sum "Si O2"
_cell_formula_units_Z 28
_cell_length_a 9.053248
_cell_length_b 24.819302
_cell_length_c 12.681253
_cell_angle_alpha 90.000000
_cell_angle_beta 151.571275
_cell_angle_gamma 90.000000
_cell_volume 1356.508581
_symmetry_space_group_name_H-M "P 21/C"
_symmetry_group_IT_number 14
_symmetry_cell_setting 'monoclinic'
loop_
_space_group_symop_operation_xyz
x,y,z
-x,1/2+y,1/2-z
-x,-y,-z
x,1/2-y,1/2+z
loop_
_atom_site_type_symbol
_atom_site_label
_atom_site_fract_x
_atom_site_fract_y
_atom_site_fract_z
Si Si1 0.426800 0.260119 0.437570
Si Si2 0.363814 0.313360 0.705534
Si Si3 0.816522 0.569931 0.390383
Si Si4 0.028673 0.156785 0.572856
Si Si5 0.908363 0.719381 0.082948
Si Si6 0.863336 0.493841 0.240364
Si Si7 0.105123 0.537102 0.969434
O O1 0.490977 0.221753 0.380474
O O2 0.741638 0.290838 0.662114
O O3 0.174298 0.306843 0.257200
O O4 0.320851 0.218822 0.462172
O O5 0.190075 0.366749 0.635717
O O6 0.118836 0.279013 0.484949
O O7 0.666373 0.329084 0.828243
O O8 0.971287 0.544311 0.381337
O O9 0.035209 0.559072 0.629397
O O10 0.475549 0.545291 0.200241
O O11 0.190453 0.172763 0.562701
O O12 0.071151 0.094194 0.627669
O O13 0.006551 0.490005 0.211971
O O14 0.500000 0.500000 0.000000
O O15 0.000000 0.500000 0.000000
#
# Coordination Sequence:
#
# PCOD8125916 Si02
#       7
#     4   4   4   4   4   4   4
#     4  11  22  38  60  87 119 157 195 248 298 357
#     4  10  21  36  60  87 113 154 205 243 297 362
#     4   9  20  38  61  86 113 157 206 248 296 354
#     4  10  22  38  58  88 118 156 203 241 299 366
#     4  11  22  37  59  86 123 155 195 245 301 358
#     4   9  19  37  59  82 115 152 199 248 289 349
#     4  10  22  38  60  88 120 158 198 248 305 357
#
# _framework density 20.641224999999999
#
# number of rings (size 3 to 8) (size 9 to 14) (size 15 to 20)
#    0.000    2.000    2.857    0.000    2.000    2.857 
#    0.000    7.143    0.000    0.000    0.000    0.000 
#    0.000    0.000    0.000    0.000    0.000    0.000 
#
# Total GULP energy -347030.628963 kJ/mol
# GULP energy per Si atom -12393.951034 kJ/mol
# Density = 2.059424 g / cm^3
# Si number density = 20.641225 Si / 1000 Ang^3
#
#
#
# Elastic Constant Matrix: (Units=GPa)
#
#
# Indices 1 2 3 4 5 6 
#
# 1 92.9222 31.6382 12.5135 0.0000 -28.3633 0.0000
# 2 31.6382 101.3435 13.3771 0.0000 -12.6382 0.0000
# 3 12.5135 13.3771 69.2887 0.0000 -18.9485 0.0000
# 4 0.0000 0.0000 0.0000 20.1538 0.0000 2.8459
# 5 -28.3633 -12.6382 -18.9485 0.0000 32.9594 0.0000
# 6 0.0000 0.0000 0.0000 2.8459 0.0000 27.5174
#
#
#
# Elastic Compliance Matrix: (Units=1/GPa)
#
#
# Indices 1 2 3 4 5 6 
#
# 1 0.015724 -0.003471 0.001384 0.000000 0.012996 0.000000
# 2 -0.003471 0.011198 -0.001397 0.000000 0.000504 0.000000
# 3 0.001384 -0.001397 0.017361 0.000000 0.010636 0.000000
# 4 0.000000 0.000000 0.000000 0.050354 0.000000 -0.005208
# 5 0.012996 0.000504 0.010636 0.000000 0.047833 0.000000
# 6 0.000000 0.000000 0.000000 -0.005208 0.000000 0.036879
#
#
# Mechanical properties :
#
#
# Convention : Reuss Voigt Hill
#
# Bulk Modulus (GPa) = 26.79842 42.06801 34.43321
# Shear Modulus (GPa) = 25.15663 29.86116 27.50890
#
# Velocity S-wave (km/s) = 3.49486 3.80765 3.65460
# Velocity P-wave (km/s) = 5.41263 6.30521 5.87589
#
# Compressibility (1/GPa) = 0.03731563
#
# Stress axis : x y z
#
# Youngs Moduli (GPa) = 63.59709 89.29963 57.60080
#
# Poissons Ratio (x) = 0.30995 -0.07975
# Poissons Ratio (y) = 0.22074 0.08049
# Poissons Ratio (z) = -0.08805 0.12479
#
# Static dielectric constant tensor:
#      x y z
#    x 3.837480 0.000000 -0.279990 
#    y 0.000000 3.665160 0.000000 
#    z -0.279990 0.000000 3.878250 
# 
# 
# High freq. dielectric constant tensor:
#      x y z
#    x 1.803020 0.000000 -0.018200 
#    y 0.000000 1.792670 0.000000 
#    z -0.018200 0.000000 1.809160 
# 
# From -- ./inp_files/6521.got.cif
#   From: 2010.03.12/outbox.cif.g09.slc.cpg/sg14_4_cif.got.tgz:6521.got - 2010.03.31 13:35:05.
