data_PCOD8125633
_publ_section_title
;
Structure prediction by ZEFSAII (Michael W. Deem and Ramdas Pophale) SiO2 
 PCOD8125633
Probable space group: P 21/C
;
_chemical_formula_sum "Si O2"
_cell_formula_units_Z 32
_cell_length_a 12.231559
_cell_length_b 13.989750
_cell_length_c 9.129718
_cell_angle_alpha 90.000000
_cell_angle_beta 109.868693
_cell_angle_gamma 90.000000
_cell_volume 1469.250722
_symmetry_space_group_name_H-M "P 21/C"
_symmetry_group_IT_number 14
_symmetry_cell_setting 'monoclinic'
loop_
_space_group_symop_operation_xyz
x,y,z
-x,1/2+y,1/2-z
-x,-y,-z
x,1/2-y,1/2+z
loop_
_atom_site_type_symbol
_atom_site_label
_atom_site_fract_x
_atom_site_fract_y
_atom_site_fract_z
Si Si1 0.418147 0.076748 0.531204
Si Si2 0.844869 0.952370 0.578420
Si Si3 0.013444 0.796423 0.555819
Si Si4 0.999833 0.882215 0.240236
Si Si5 0.452995 0.084368 0.879332
Si Si6 0.416505 0.775433 0.517188
Si Si7 0.219590 0.027758 0.783179
Si Si8 0.278145 0.670260 0.232235
O O1 0.283326 0.073155 0.416878
O O2 0.430610 0.049999 0.705103
O O3 0.471007 0.177929 0.506892
O O4 0.500000 0.000000 0.500000
O O5 0.935189 0.862930 0.628772
O O6 0.891238 0.045944 0.687048
O O7 0.834829 0.976904 0.403778
O O8 0.976357 0.812920 0.370069
O O9 0.007438 0.685159 0.601007
O O10 0.147640 0.821620 0.621506
O O11 0.887968 0.950112 0.159559
O O12 0.538735 0.172605 0.913279
O O13 0.318817 0.107366 0.865856
O O14 0.500000 0.000000 0.000000
O O15 0.315063 0.759751 0.350669
O O16 0.363689 0.834666 0.629313
O O17 0.284497 0.925588 0.834441
#
# Coordination Sequence:
#
# PCOD8125633 Si02
#       8
#     4   4   4   4   4   4   4   4
#     4  11  26  43  65  96 133 176 223 266 330 402
#     4  10  21  43  66  92 126 174 215 261 327 399
#     4  11  23  40  67  95 122 168 214 272 323 390
#     4  11  22  42  68  96 128 167 217 266 334 388
#     4  11  23  41  64  96 133 174 214 270 329 386
#     4  12  25  40  65  98 133 172 221 274 317 400
#     4  10  20  40  66  88 128 176 209 258 332 394
#     4  12  22  41  68  94 129 170 223 271 329 382
#
# _framework density 21.779807000000002
#
# number of rings (size 3 to 8) (size 9 to 14) (size 15 to 20)
#    0.000    1.000    5.000    3.000    3.500    0.000 
#    0.000    1.875    0.000    0.000    0.000    0.000 
#    0.000    0.000    0.000    0.000    0.000    0.000 
#
# Total GULP energy -396452.159832 kJ/mol
# GULP energy per Si atom -12389.129995 kJ/mol
# Density = 2.173024 g / cm^3
# Si number density = 21.779807 Si / 1000 Ang^3
#
#
#
# Elastic Constant Matrix: (Units=GPa)
#
#
# Indices 1 2 3 4 5 6 
#
# 1 153.6968 51.9495 30.2700 0.0000 16.7916 0.0000
# 2 51.9495 94.7831 25.3646 0.0000 7.3685 0.0000
# 3 30.2700 25.3646 57.6021 0.0000 7.6167 0.0000
# 4 0.0000 0.0000 0.0000 31.4001 0.0000 0.7324
# 5 16.7916 7.3685 7.6167 0.0000 21.9872 0.0000
# 6 0.0000 0.0000 0.0000 0.7324 0.0000 44.4657
#
#
#
# Elastic Compliance Matrix: (Units=1/GPa)
#
#
# Indices 1 2 3 4 5 6 
#
# 1 0.008757 -0.003823 -0.002309 0.000000 -0.004606 0.000000
# 2 -0.003823 0.013740 -0.004002 0.000000 -0.000298 0.000000
# 3 -0.002309 -0.004002 0.020882 0.000000 -0.004129 0.000000
# 4 0.000000 0.000000 0.000000 0.031859 0.000000 -0.000525
# 5 -0.004606 -0.000298 -0.004129 0.000000 0.050529 0.000000
# 6 0.000000 0.000000 0.000000 -0.000525 0.000000 0.022498
#
#
# Mechanical properties :
#
#
# Convention : Reuss Voigt Hill
#
# Bulk Modulus (GPa) = 43.27008 57.91670 50.59339
# Shear Modulus (GPa) = 28.37097 32.80381 30.58739
#
# Velocity S-wave (km/s) = 3.61311 3.88513 3.75159
# Velocity P-wave (km/s) = 6.10870 6.83925 6.48427
#
# Compressibility (1/GPa) = 0.02311066
#
# Stress axis : x y z
#
# Youngs Moduli (GPa) = 114.19954 72.78002 47.88829
#
# Poissons Ratio (x) = 0.27827 0.11057
# Poissons Ratio (y) = 0.43663 0.19163
# Poissons Ratio (z) = 0.26368 0.29124
#
# Static dielectric constant tensor:
#      x y z
#    x 3.567600 0.000000 0.426390 
#    y 0.000000 4.906240 0.000000 
#    z 0.426390 0.000000 3.716260 
# 
# 
# High freq. dielectric constant tensor:
#      x y z
#    x 1.872510 0.000000 0.022480 
#    y 0.000000 1.853670 0.000000 
#    z 0.022480 0.000000 1.829200 
# 
# From -- ./inp_files/13373.got.cif
#   From: 2010.03.12/outbox.cif.g09.slc.cpg/sg14_7_cif.got.tgz:13373.got - 2010.03.31 13:35:05.
