data_PCOD8125208
_publ_section_title
;
Structure prediction by ZEFSAII (Michael W. Deem and Ramdas Pophale) SiO2 
 PCOD8125208
Probable space group: P 21/C
;
_chemical_formula_sum "Si O2"
_cell_formula_units_Z 20
_cell_length_a 8.675733
_cell_length_b 9.037580
_cell_length_c 18.960898
_cell_angle_alpha 90.000000
_cell_angle_beta 29.021446
_cell_angle_gamma 90.000000
_cell_volume 721.242975
_symmetry_space_group_name_H-M "P 21/C"
_symmetry_group_IT_number 14
_symmetry_cell_setting 'monoclinic'
loop_
_space_group_symop_operation_xyz
x,y,z
-x,1/2+y,1/2-z
-x,-y,-z
x,1/2-y,1/2+z
loop_
_atom_site_type_symbol
_atom_site_label
_atom_site_fract_x
_atom_site_fract_y
_atom_site_fract_z
Si Si1 0.553385 0.800852 0.882052
Si Si2 0.836375 0.362453 0.336570
Si Si3 0.347586 0.565790 0.866633
Si Si4 0.090281 0.643046 0.308333
Si Si5 0.693620 0.922497 0.091276
O O1 0.303866 0.698322 0.939577
O O2 0.888043 0.726487 0.733725
O O3 0.535670 0.967283 0.860738
O O4 0.475383 0.808789 0.996756
O O5 0.810688 0.301725 0.266056
O O6 0.923102 0.536934 0.314038
O O7 0.590695 0.436053 0.791868
O O8 0.478567 0.642746 0.740949
O O9 0.000000 0.500000 0.000000
O O10 0.842515 0.683338 0.470646
O O11 0.000000 0.000000 0.000000
#
# Coordination Sequence:
#
# PCOD8125208 Si02
#       5
#     4   4   4   4   4
#     4  10  21  39  59  81 121 159 188 250 308 340
#     4  10  21  39  61  85 120 157 196 238 300 356
#     4  10  20  37  62  87 114 149 201 251 293 346
#     4   9  21  41  62  87 120 160 197 242 296 355
#     4   9  19  38  59  82 117 156 198 240 297 356
#
# _framework density 27.729904999999999
#
# number of rings (size 3 to 8) (size 9 to 14) (size 15 to 20)
#    0.000    2.400    0.000    2.400    0.000    6.400 
#    0.000   22.000    0.000    0.000    0.000    0.000 
#    0.000    0.000    0.000    0.000    0.000    0.000 
#
# Total GULP energy -247868.888331 kJ/mol
# GULP energy per Si atom -12393.444417 kJ/mol
# Density = 2.766679 g / cm^3
# Si number density = 27.729905 Si / 1000 Ang^3
#
#
#
# Elastic Constant Matrix: (Units=GPa)
#
#
# Indices 1 2 3 4 5 6 
#
# 1 101.4921 11.8586 58.6734 0.0000 24.1436 0.0000
# 2 11.8586 112.9328 80.2125 0.0000 16.3612 0.0000
# 3 58.6734 80.2125 175.4190 0.0000 13.0908 0.0000
# 4 0.0000 0.0000 0.0000 47.2279 0.0000 -1.2794
# 5 24.1436 16.3612 13.0908 0.0000 47.7884 0.0000
# 6 0.0000 0.0000 0.0000 -1.2794 0.0000 36.2569
#
#
#
# Elastic Compliance Matrix: (Units=1/GPa)
#
#
# Indices 1 2 3 4 5 6 
#
# 1 0.014607 0.003822 -0.006110 0.000000 -0.007015 0.000000
# 2 0.003822 0.014522 -0.007558 0.000000 -0.004832 0.000000
# 3 -0.006110 -0.007558 0.011002 0.000000 0.002661 0.000000
# 4 0.000000 0.000000 0.000000 0.021194 0.000000 0.000748
# 5 -0.007015 -0.004832 0.002661 0.000000 0.025395 0.000000
# 6 0.000000 0.000000 0.000000 0.000748 0.000000 0.027607
#
#
# Mechanical properties :
#
#
# Convention : Reuss Voigt Hill
#
# Bulk Modulus (GPa) = 48.92589 76.81478 62.87034
# Shear Modulus (GPa) = 35.50309 42.19460 38.84885
#
# Velocity S-wave (km/s) = 3.58203 3.90504 3.74702
# Velocity P-wave (km/s) = 5.89830 6.93496 6.43753
#
# Compressibility (1/GPa) = 0.02043908
#
# Stress axis : x y z
#
# Youngs Moduli (GPa) = 68.45841 68.86169 90.89431
#
# Poissons Ratio (x) = -0.26320 0.55537
# Poissons Ratio (y) = -0.26166 0.68699
# Poissons Ratio (z) = 0.41829 0.52046
#
# Static dielectric constant tensor:
#      x y z
#    x 5.791060 0.000000 -0.076870 
#    y 0.000000 4.959390 0.000000 
#    z -0.076870 0.000000 5.476210 
# 
# 
# High freq. dielectric constant tensor:
#      x y z
#    x 2.168280 0.000000 -0.019240 
#    y 0.000000 2.107820 0.000000 
#    z -0.019240 0.000000 2.126100 
# 
# From -- ./inp_files/7990.got.cif
#   From: 2010.03.12/outbox.cif.g09.slc.cpg/sg14_4_cif.got.tgz:7990.got - 2010.03.31 13:35:05.
