data_PCOD8125709
_publ_section_title
;
Structure prediction by ZEFSAII (Michael W. Deem and Ramdas Pophale) SiO2 
 PCOD8125709
Probable space group: P 21/C
;
_chemical_formula_sum "Si O2"
_cell_formula_units_Z 24
_cell_length_a 7.779623
_cell_length_b 15.241376
_cell_length_c 14.563385
_cell_angle_alpha 90.000000
_cell_angle_beta 135.852848
_cell_angle_gamma 90.000000
_cell_volume 1202.730690
_symmetry_space_group_name_H-M "P 21/C"
_symmetry_group_IT_number 14
_symmetry_cell_setting 'monoclinic'
loop_
_space_group_symop_operation_xyz
x,y,z
-x,1/2+y,1/2-z
-x,-y,-z
x,1/2-y,1/2+z
loop_
_atom_site_type_symbol
_atom_site_label
_atom_site_fract_x
_atom_site_fract_y
_atom_site_fract_z
Si Si1 0.262483 0.535062 0.720439
Si Si2 0.401763 0.875182 0.899661
Si Si3 0.724139 0.080154 0.455870
Si Si4 0.551336 0.329445 0.069133
Si Si5 0.264285 0.974210 0.016196
Si Si6 0.977881 0.908530 0.604734
O O1 0.481326 0.468585 0.827399
O O2 0.273914 0.618542 0.792502
O O3 0.274729 0.569672 0.620518
O O4 0.006917 0.482950 0.631467
O O5 0.440483 0.772524 0.907326
O O6 0.416234 0.908039 0.010302
O O7 0.136904 0.897574 0.756437
O O8 0.614943 0.928732 0.928285
O O9 0.644856 0.151268 0.501594
O O10 0.867753 0.125053 0.425518
O O11 0.913596 0.011296 0.573463
O O12 0.269188 0.353872 0.977536
#
# Coordination Sequence:
#
# PCOD8125709 Si02
#       6
#     4   4   4   4   4   4
#     4  10  20  42  65  88 119 164 207 248 306 367
#     4  11  23  40  58  92 125 161 203 250 308 368
#     4  10  20  41  67  89 116 163 208 251 304 363
#     4  11  24  38  63  95 122 157 206 263 299 356
#     4  10  22  40  64  85 127 169 198 245 313 374
#     4  10  21  41  64  87 121 161 203 253 304 362
#
# _framework density 19.954591000000001
#
# number of rings (size 3 to 8) (size 9 to 14) (size 15 to 20)
#    0.000    1.667    1.667    4.000    2.333    1.333 
#    3.000    0.000    0.000    0.000    0.000    0.000 
#    0.000    0.000    0.000    0.000    0.000    0.000 
#
# Total GULP energy -297583.995841 kJ/mol
# GULP energy per Si atom -12399.333160 kJ/mol
# Density = 1.990917 g / cm^3
# Si number density = 19.954591 Si / 1000 Ang^3
#
#
#
# Elastic Constant Matrix: (Units=GPa)
#
#
# Indices 1 2 3 4 5 6 
#
# 1 97.0852 35.7512 25.9199 0.0000 -15.5448 0.0000
# 2 35.7512 51.5213 27.1246 0.0000 -11.1352 0.0000
# 3 25.9199 27.1246 89.9708 0.0000 -5.1762 0.0000
# 4 0.0000 0.0000 0.0000 12.4641 0.0000 1.7297
# 5 -15.5448 -11.1352 -5.1762 0.0000 27.7646 0.0000
# 6 0.0000 0.0000 0.0000 1.7297 0.0000 15.1283
#
#
#
# Elastic Compliance Matrix: (Units=1/GPa)
#
#
# Indices 1 2 3 4 5 6 
#
# 1 0.014459 -0.008326 -0.001397 0.000000 0.004496 0.000000
# 2 -0.008326 0.029791 -0.006230 0.000000 0.006125 0.000000
# 3 -0.001397 -0.006230 0.013350 0.000000 -0.000792 0.000000
# 4 0.000000 0.000000 0.000000 0.081524 0.000000 -0.009321
# 5 0.004496 0.006125 -0.000792 0.000000 0.040843 0.000000
# 6 0.000000 0.000000 0.000000 -0.009321 0.000000 0.067167
#
#
# Mechanical properties :
#
#
# Convention : Reuss Voigt Hill
#
# Bulk Modulus (GPa) = 38.92075 46.24095 42.58085
# Shear Modulus (GPa) = 17.38496 21.05685 19.22090
#
# Velocity S-wave (km/s) = 2.95486 3.25197 3.10697
# Velocity P-wave (km/s) = 5.58467 6.10932 5.85288
#
# Compressibility (1/GPa) = 0.02569324
#
# Stress axis : x y z
#
# Youngs Moduli (GPa) = 69.16077 33.56719 74.90716
#
# Poissons Ratio (x) = 0.27949 0.10462
# Poissons Ratio (y) = 0.57586 0.46670
# Poissons Ratio (z) = 0.09659 0.20913
#
# Static dielectric constant tensor:
#      x y z
#    x 3.925310 0.000000 -0.039460 
#    y 0.000000 3.321840 0.000000 
#    z -0.039460 0.000000 3.746570 
# 
# 
# High freq. dielectric constant tensor:
#      x y z
#    x 1.795700 0.000000 -0.001890 
#    y 0.000000 1.744890 0.000000 
#    z -0.001890 0.000000 1.793360 
# 
# From -- ./inp_files/41325.got.cif
#   From: 2010.03.12/outbox.cif.g09.slc.cpg/sg14_21_cif.got.tgz:41325.got - 2010.03.31 13:35:05.
