data_PCOD8125243
_publ_section_title
;
Structure prediction by ZEFSAII (Michael W. Deem and Ramdas Pophale) SiO2 
 PCOD8125243
Probable space group: P 21/C
;
_chemical_formula_sum "Si O2"
_cell_formula_units_Z 32
_cell_length_a 12.370748
_cell_length_b 13.976995
_cell_length_c 16.623516
_cell_angle_alpha 90.000000
_cell_angle_beta 32.749321
_cell_angle_gamma 90.000000
_cell_volume 1554.896283
_symmetry_space_group_name_H-M "P 21/C"
_symmetry_group_IT_number 14
_symmetry_cell_setting 'monoclinic'
loop_
_space_group_symop_operation_xyz
x,y,z
-x,1/2+y,1/2-z
-x,-y,-z
x,1/2-y,1/2+z
loop_
_atom_site_type_symbol
_atom_site_label
_atom_site_fract_x
_atom_site_fract_y
_atom_site_fract_z
Si Si1 0.593677 0.748903 0.576089
Si Si2 0.307319 0.468899 0.223928
Si Si3 0.609745 0.355988 0.938753
Si Si4 0.455315 0.912431 0.776532
Si Si5 0.816891 0.004385 0.826976
Si Si6 0.058652 0.630823 0.610016
Si Si7 0.982642 0.693820 0.249911
Si Si8 0.576377 0.051001 0.830534
O O1 0.520790 0.789173 0.536665
O O2 0.581297 0.830715 0.652088
O O3 0.455523 0.657587 0.686051
O O4 0.823480 0.717184 0.420446
O O5 0.305170 0.551985 0.159588
O O6 0.354198 0.509948 0.281743
O O7 0.086280 0.423266 0.361799
O O8 0.471874 0.388826 0.099303
O O9 0.795897 0.294106 0.852639
O O10 0.600991 0.971993 0.744573
O O11 0.278658 0.860764 0.935489
O O12 0.938391 0.080132 0.804258
O O13 0.769292 0.047278 0.768277
O O14 0.954779 0.911319 0.730348
O O15 0.616612 0.973912 0.996843
O O16 0.966441 0.734944 0.684322
#
# Coordination Sequence:
#
# PCOD8125243 Si02
#       8
#     4   4   4   4   4   4   4   4
#     4  10  21  40  60  91 125 165 206 253 313 370
#     4  10  20  38  61  88 123 158 208 258 308 359
#     4  10  20  37  64  93 116 158 214 264 299 359
#     4  10  23  38  60  89 133 164 200 248 316 376
#     4   9  19  36  61  85 117 157 208 251 301 358
#     4  11  20  38  61  92 121 162 205 258 307 369
#     4  11  21  36  65  94 119 154 214 261 304 363
#     4   9  19  39  58  84 122 165 197 249 305 365
#
# _framework density 20.580151000000001
#
# number of rings (size 3 to 8) (size 9 to 14) (size 15 to 20)
#    0.000    2.000    2.500    1.125    0.000    2.000 
#    2.250    0.000    0.000    4.500    0.000    0.000 
#    0.000    0.000    0.000    0.000    0.000    0.000 
#
# Total GULP energy -396830.450386 kJ/mol
# GULP energy per Si atom -12400.951575 kJ/mol
# Density = 2.053331 g / cm^3
# Si number density = 20.580151 Si / 1000 Ang^3
#
#
#
# Elastic Constant Matrix: (Units=GPa)
#
#
# Indices 1 2 3 4 5 6 
#
# 1 93.5489 27.4326 22.1110 0.0000 4.8324 0.0000
# 2 27.4326 96.3458 29.2136 0.0000 8.0981 0.0000
# 3 22.1110 29.2136 57.4892 0.0000 0.4667 0.0000
# 4 0.0000 0.0000 0.0000 33.2683 0.0000 -2.2256
# 5 4.8324 8.0981 0.4667 0.0000 28.5890 0.0000
# 6 0.0000 0.0000 0.0000 -2.2256 0.0000 24.7338
#
#
#
# Elastic Compliance Matrix: (Units=1/GPa)
#
#
# Indices 1 2 3 4 5 6 
#
# 1 0.012273 -0.002307 -0.003537 0.000000 -0.001363 0.000000
# 2 -0.002307 0.013038 -0.005712 0.000000 -0.003210 0.000000
# 3 -0.003537 -0.005712 0.021642 0.000000 0.001862 0.000000
# 4 0.000000 0.000000 0.000000 0.030241 0.000000 0.002721
# 5 -0.001363 -0.003210 0.001862 0.000000 0.036088 0.000000
# 6 0.000000 0.000000 0.000000 0.002721 0.000000 0.040675
#
#
# Mechanical properties :
#
#
# Convention : Reuss Voigt Hill
#
# Bulk Modulus (GPa) = 41.94447 44.98870 43.46658
# Shear Modulus (GPa) = 27.02483 28.56001 27.79242
#
# Velocity S-wave (km/s) = 3.62767 3.72929 3.67883
# Velocity P-wave (km/s) = 6.16214 6.36012 6.26191
#
# Compressibility (1/GPa) = 0.02384105
#
# Stress axis : x y z
#
# Youngs Moduli (GPa) = 81.48271 76.69890 46.20615
#
# Poissons Ratio (x) = 0.17698 0.16341
# Poissons Ratio (y) = 0.18802 0.26392
# Poissons Ratio (z) = 0.28817 0.43809
#
# Static dielectric constant tensor:
#      x y z
#    x 3.701700 0.000000 -0.038400 
#    y 0.000000 3.869650 0.000000 
#    z -0.038400 0.000000 3.401280 
# 
# 
# High freq. dielectric constant tensor:
#      x y z
#    x 1.797590 0.000000 -0.007460 
#    y 0.000000 1.815590 0.000000 
#    z -0.007460 0.000000 1.778700 
# 
# From -- ./inp_files/45090.got.cif
#   From: 2010.03.12/outbox.cif.g09.slc.cpg/sg14_23_cif.got.tgz:45090.got - 2010.03.31 13:35:05.
