data_PCOD8125745
_publ_section_title
;
Structure prediction by ZEFSAII (Michael W. Deem and Ramdas Pophale) SiO2 
 PCOD8125745
Probable space group: P 21/C
;
_chemical_formula_sum "Si O2"
_cell_formula_units_Z 24
_cell_length_a 13.705626
_cell_length_b 8.527119
_cell_length_c 14.779055
_cell_angle_alpha 90.000000
_cell_angle_beta 40.423922
_cell_angle_gamma 90.000000
_cell_volume 1119.995273
_symmetry_space_group_name_H-M "P 21/C"
_symmetry_group_IT_number 14
_symmetry_cell_setting 'monoclinic'
loop_
_space_group_symop_operation_xyz
x,y,z
-x,1/2+y,1/2-z
-x,-y,-z
x,1/2-y,1/2+z
loop_
_atom_site_type_symbol
_atom_site_label
_atom_site_fract_x
_atom_site_fract_y
_atom_site_fract_z
Si Si1 0.957663 0.591658 0.118466
Si Si2 0.147384 0.631919 0.144923
Si Si3 0.357440 0.466806 0.393980
Si Si4 0.521828 0.209392 0.618609
Si Si5 0.366495 0.121310 0.082296
Si Si6 0.042106 0.909290 0.116715
O O1 0.788377 0.550728 0.268726
O O2 0.974774 0.781954 0.093148
O O3 0.079791 0.536644 0.106728
O O4 0.000000 0.500000 0.000000
O O5 0.082341 0.543843 0.278879
O O6 0.089238 0.812798 0.176033
O O7 0.326927 0.622811 0.020298
O O8 0.446040 0.620956 0.362087
O O9 0.444570 0.391098 0.250264
O O10 0.344775 0.347910 0.489775
O O11 0.192217 0.509203 0.472974
O O12 0.413925 0.224353 0.606201
O O13 0.500000 0.000000 0.000000
#
# Coordination Sequence:
#
# PCOD8125745 Si02
#       6
#     4   4   4   4   4   4
#     4  10  22  40  65  93 125 165 215 260 323 386
#     4   9  20  39  64  93 126 170 214 257 332 380
#     4  10  20  42  63  95 130 174 213 271 328 386
#     4  10  23  37  67  96 130 175 215 272 329 385
#     4  10  22  41  65  96 125 168 223 262 324 390
#     4   9  19  39  67  89 124 172 213 258 326 385
#
# _framework density 21.428663
#
# number of rings (size 3 to 8) (size 9 to 14) (size 15 to 20)
#    1.000    1.333    1.667    0.000    4.667    2.667 
#    0.000    4.167    0.000    0.000    0.000    0.000 
#    0.000    0.000    0.000    0.000    0.000    0.000 
#
# Total GULP energy -297313.782826 kJ/mol
# GULP energy per Si atom -12388.074284 kJ/mol
# Density = 2.137989 g / cm^3
# Si number density = 21.428663 Si / 1000 Ang^3
#
#
#
# Elastic Constant Matrix: (Units=GPa)
#
#
# Indices 1 2 3 4 5 6 
#
# 1 58.8419 26.4415 27.1551 0.0000 -18.7003 0.0000
# 2 26.4415 68.5533 60.0939 0.0000 -7.5915 0.0000
# 3 27.1551 60.0939 122.1399 0.0000 -30.0701 0.0000
# 4 0.0000 0.0000 0.0000 42.2806 0.0000 6.7582
# 5 -18.7003 -7.5915 -30.0701 0.0000 18.9770 0.0000
# 6 0.0000 0.0000 0.0000 6.7582 0.0000 29.5431
#
#
#
# Elastic Compliance Matrix: (Units=1/GPa)
#
#
# Indices 1 2 3 4 5 6 
#
# 1 0.035610 -0.021218 0.014874 0.000000 0.050172 0.000000
# 2 -0.021218 0.041625 -0.027563 0.000000 -0.047933 0.000000
# 3 0.014874 -0.027563 0.031703 0.000000 0.053867 0.000000
# 4 0.000000 0.000000 0.000000 0.024549 0.000000 -0.005616
# 5 0.050172 -0.047933 0.053867 0.000000 0.168317 0.000000
# 6 0.000000 0.000000 0.000000 -0.005616 0.000000 0.035134
#
#
# Mechanical properties :
#
#
# Convention : Reuss Voigt Hill
#
# Bulk Modulus (GPa) = 24.31621 52.99070 38.65345
# Shear Modulus (GPa) = 11.94856 27.21644 19.58250
#
# Velocity S-wave (km/s) = 2.36391 3.56771 3.02627
# Velocity P-wave (km/s) = 4.33854 6.46173 5.50349
#
# Compressibility (1/GPa) = 0.04112483
#
# Stress axis : x y z
#
# Youngs Moduli (GPa) = 28.08207 24.02393 31.54227
#
# Poissons Ratio (x) = 0.50974 -0.46917
# Poissons Ratio (y) = 0.59584 0.86941
# Poissons Ratio (z) = -0.41770 0.66218
#
# Static dielectric constant tensor:
#      x y z
#    x 4.080470 0.000000 -0.115110 
#    y 0.000000 3.868530 0.000000 
#    z -0.115110 0.000000 3.734140 
# 
# 
# High freq. dielectric constant tensor:
#      x y z
#    x 1.832160 0.000000 -0.021120 
#    y 0.000000 1.821440 0.000000 
#    z -0.021120 0.000000 1.839040 
# 
# From -- ./inp_files/46375.got.cif
#   From: 2010.03.12/outbox.cif.g09.slc.cpg/sg14_24_cif.got.tgz:46375.got - 2010.03.31 13:35:05.
