data_PCOD8125325
_publ_section_title
;
Structure prediction by ZEFSAII (Michael W. Deem and Ramdas Pophale) SiO2 
 PCOD8125325
Probable space group: P 21/C
;
_chemical_formula_sum "Si O2"
_cell_formula_units_Z 32
_cell_length_a 8.342296
_cell_length_b 12.441256
_cell_length_c 17.952650
_cell_angle_alpha 90.000000
_cell_angle_beta 117.831233
_cell_angle_gamma 90.000000
_cell_volume 1647.749082
_symmetry_space_group_name_H-M "P 21/C"
_symmetry_group_IT_number 14
_symmetry_cell_setting 'monoclinic'
loop_
_space_group_symop_operation_xyz
x,y,z
-x,1/2+y,1/2-z
-x,-y,-z
x,1/2-y,1/2+z
loop_
_atom_site_type_symbol
_atom_site_label
_atom_site_fract_x
_atom_site_fract_y
_atom_site_fract_z
Si Si1 0.792537 0.767518 0.134393
Si Si2 0.782540 0.753473 0.804958
Si Si3 0.480844 0.396219 0.188339
Si Si4 0.477129 0.911827 0.777421
Si Si5 0.636289 0.496201 0.596120
Si Si6 0.192777 0.759622 0.226158
Si Si7 0.491823 0.373151 0.017131
Si Si8 0.182053 0.729915 0.390539
O O1 0.783017 0.723747 0.216781
O O2 0.996657 0.762910 0.144514
O O3 0.742911 0.892308 0.120293
O O4 0.672662 0.686721 0.059287
O O5 0.701468 0.636597 0.806304
O O6 0.646571 0.832245 0.819679
O O7 0.982748 0.765083 0.884702
O O8 0.497672 0.523079 0.204775
O O9 0.660133 0.347772 0.268167
O O10 0.463173 0.361646 0.099098
O O11 0.476305 0.984120 0.851700
O O12 0.281856 0.855549 0.730796
O O13 0.500000 0.500000 0.500000
O O14 0.764954 0.394559 0.607448
O O15 0.159328 0.784464 0.305527
O O16 0.672919 0.305029 0.033453
O O17 0.500000 0.500000 0.000000
#
# Coordination Sequence:
#
# PCOD8125325 Si02
#       8
#     4   4   4   4   4   4   4   4
#     4  11  21  39  62  89 113 159 203 238 291 358
#     4  10  21  38  62  86 115 150 200 244 288 350
#     4  10  20  39  59  87 118 151 193 247 295 343
#     4  10  20  38  61  86 118 154 195 246 295 341
#     4  11  21  38  63  85 121 155 196 246 296 352
#     4   8  20  36  59  85 114 151 200 235 281 362
#     4  11  23  40  61  85 121 158 196 243 300 356
#     4   9  20  39  58  86 114 156 198 238 290 354
#
# _framework density 19.420434
#
# number of rings (size 3 to 8) (size 9 to 14) (size 15 to 20)
#    0.000    2.000    2.500    1.500    1.750    1.000 
#    6.750    6.875    0.000    0.000    0.000    0.000 
#    0.000    0.000    0.000    0.000    0.000    0.000 
#
# Total GULP energy -396539.864512 kJ/mol
# GULP energy per Si atom -12391.870766 kJ/mol
# Density = 1.937623 g / cm^3
# Si number density = 19.420434 Si / 1000 Ang^3
#
#
#
# Elastic Constant Matrix: (Units=GPa)
#
#
# Indices 1 2 3 4 5 6 
#
# 1 131.4320 47.1870 51.1736 0.0000 32.1418 0.0000
# 2 47.1870 120.0268 36.2546 0.0000 16.2210 0.0000
# 3 51.1736 36.2546 86.5474 0.0000 21.5478 0.0000
# 4 0.0000 0.0000 0.0000 29.5745 0.0000 -6.1822
# 5 32.1418 16.2210 21.5478 0.0000 33.2126 0.0000
# 6 0.0000 0.0000 0.0000 -6.1822 0.0000 18.9885
#
#
#
# Elastic Compliance Matrix: (Units=1/GPa)
#
#
# Indices 1 2 3 4 5 6 
#
# 1 0.011979 -0.002412 -0.004150 0.000000 -0.007722 0.000000
# 2 -0.002412 0.010196 -0.002607 0.000000 -0.000954 0.000000
# 3 -0.004150 -0.002607 0.016439 0.000000 -0.005376 0.000000
# 4 0.000000 0.000000 0.000000 0.036282 0.000000 0.011813
# 5 -0.007722 -0.000954 -0.005376 0.000000 0.041536 0.000000
# 6 0.000000 0.000000 0.000000 0.011813 0.000000 0.056509
#
#
# Mechanical properties :
#
#
# Convention : Reuss Voigt Hill
#
# Bulk Modulus (GPa) = 49.32211 67.47073 58.39642
# Shear Modulus (GPa) = 25.24770 29.91453 27.58111
#
# Velocity S-wave (km/s) = 3.60954 3.92900 3.77266
# Velocity P-wave (km/s) = 6.54400 7.44314 7.00800
#
# Compressibility (1/GPa) = 0.02027488
#
# Stress axis : x y z
#
# Youngs Moduli (GPa) = 83.48163 98.07473 60.83226
#
# Poissons Ratio (x) = 0.23658 0.25243
# Poissons Ratio (y) = 0.20138 0.15862
# Poissons Ratio (z) = 0.34642 0.25573
#
# Static dielectric constant tensor:
#      x y z
#    x 3.777030 0.000000 0.159120 
#    y 0.000000 3.833160 0.000000 
#    z 0.159120 0.000000 3.435310 
# 
# 
# High freq. dielectric constant tensor:
#      x y z
#    x 1.759430 0.000000 0.009620 
#    y 0.000000 1.763930 0.000000 
#    z 0.009620 0.000000 1.736220 
# 
# From -- ./inp_files/55621.got.cif
#   From: 2010.03.12/outbox.cif.g09.slc.cpg/sg14_28_cif.got.tgz:55621.got - 2010.03.31 13:35:05.
