data_PCOD8125060
_publ_section_title
;
Structure prediction by ZEFSAII (Michael W. Deem and Ramdas Pophale) SiO2 
 PCOD8125060
Probable space group: P 21/C
;
_chemical_formula_sum "Si O2"
_cell_formula_units_Z 28
_cell_length_a 8.876146
_cell_length_b 17.835273
_cell_length_c 16.883165
_cell_angle_alpha 90.000000
_cell_angle_beta 31.967806
_cell_angle_gamma 90.000000
_cell_volume 1415.067000
_symmetry_space_group_name_H-M "P 21/C"
_symmetry_group_IT_number 14
_symmetry_cell_setting 'monoclinic'
loop_
_space_group_symop_operation_xyz
x,y,z
-x,1/2+y,1/2-z
-x,-y,-z
x,1/2-y,1/2+z
loop_
_atom_site_type_symbol
_atom_site_label
_atom_site_fract_x
_atom_site_fract_y
_atom_site_fract_z
Si Si1 0.249996 0.128621 0.723891
Si Si2 0.946585 0.509402 0.327508
Si Si3 0.600015 0.166225 0.718546
Si Si4 0.400804 0.916132 0.132876
Si Si5 0.099736 0.767838 0.213772
Si Si6 0.192980 0.280219 0.993964
Si Si7 0.432505 0.877455 0.573406
O O1 0.485134 0.142365 0.684855
O O2 0.374619 0.095935 0.585740
O O3 0.025900 0.062718 0.847599
O O4 0.094523 0.207343 0.773999
O O5 0.808914 0.480429 0.306267
O O6 0.725597 0.563255 0.469830
O O7 0.230536 0.555412 0.186650
O O8 0.629673 0.091046 0.758566
O O9 0.384729 0.223021 0.858779
O O10 0.914069 0.201026 0.566005
O O11 0.322924 0.834462 0.132409
O O12 0.264204 0.694233 0.114300
O O13 0.912072 0.746984 0.374839
O O14 0.379338 0.354081 0.933434
#
# Coordination Sequence:
#
# PCOD8125060 Si02
#       7
#     4   4   4   4   4   4   4
#     4  10  24  36  55  87 129 147 197 248 302 353
#     4  10  21  39  61  88 113 166 197 245 293 363
#     4  11  22  39  58  88 125 154 193 255 300 357
#     4   9  19  38  63  85 119 150 206 240 293 359
#     4   9  19  37  60  90 107 155 200 252 283 347
#     4  10  20  36  61  88 112 156 201 244 297 349
#     4  11  20  37  63  86 115 158 207 245 289 353
#
# _framework density 19.787047000000001
#
# number of rings (size 3 to 8) (size 9 to 14) (size 15 to 20)
#    0.000    2.000    2.857    2.143    4.000    0.571 
#    0.000    2.857    0.000    0.000    0.000    0.000 
#    0.000    0.000    0.000    0.000    0.000    0.000 
#
# Total GULP energy -347037.149990 kJ/mol
# GULP energy per Si atom -12394.183928 kJ/mol
# Density = 1.974201 g / cm^3
# Si number density = 19.787047 Si / 1000 Ang^3
#
#
#
# Elastic Constant Matrix: (Units=GPa)
#
#
# Indices 1 2 3 4 5 6 
#
# 1 125.0904 23.0676 15.6533 0.0000 -16.6040 0.0000
# 2 23.0676 63.9539 20.3648 0.0000 -9.6888 0.0000
# 3 15.6533 20.3648 58.9529 0.0000 -22.8338 0.0000
# 4 0.0000 0.0000 0.0000 33.4183 0.0000 -10.3651
# 5 -16.6040 -9.6888 -22.8338 0.0000 27.3215 0.0000
# 6 0.0000 0.0000 0.0000 -10.3651 0.0000 21.2635
#
#
#
# Elastic Compliance Matrix: (Units=1/GPa)
#
#
# Indices 1 2 3 4 5 6 
#
# 1 0.009087 -0.002664 0.000415 0.000000 0.004924 0.000000
# 2 -0.002664 0.018404 -0.005544 0.000000 0.000274 0.000000
# 3 0.000415 -0.005544 0.026769 0.000000 0.020658 0.000000
# 4 0.000000 0.000000 0.000000 0.035254 0.000000 0.017185
# 5 0.004924 0.000274 0.020658 0.000000 0.056956 0.000000
# 6 0.000000 0.000000 0.000000 0.017185 0.000000 0.055406
#
#
# Mechanical properties :
#
#
# Convention : Reuss Voigt Hill
#
# Bulk Modulus (GPa) = 25.85702 40.68539 33.27121
# Shear Modulus (GPa) = 21.70578 28.99474 25.35026
#
# Velocity S-wave (km/s) = 3.31565 3.83213 3.58320
# Velocity P-wave (km/s) = 5.26821 6.33929 5.82840
#
# Compressibility (1/GPa) = 0.03867421
#
# Stress axis : x y z
#
# Youngs Moduli (GPa) = 110.04505 54.33617 37.35654
#
# Poissons Ratio (x) = 0.14473 -0.01549
# Poissons Ratio (y) = 0.29312 0.20710
# Poissons Ratio (z) = -0.04563 0.30124
#
# Static dielectric constant tensor:
#      x y z
#    x 3.720360 0.000000 -0.350740 
#    y 0.000000 3.563000 0.000000 
#    z -0.350740 0.000000 3.544340 
# 
# 
# High freq. dielectric constant tensor:
#      x y z
#    x 1.766230 0.000000 -0.034060 
#    y 0.000000 1.764720 0.000000 
#    z -0.034060 0.000000 1.762370 
# 
# From -- ./inp_files/42098.got.cif
#   From: 2010.03.12/outbox.cif.g09.slc.cpg/sg14_22_cif.got.tgz:42098.got - 2010.03.31 13:35:05.
