data_PCOD8125497
_publ_section_title
;
Structure prediction by ZEFSAII (Michael W. Deem and Ramdas Pophale) SiO2 
 PCOD8125497
Probable space group: P 21/C
;
_chemical_formula_sum "Si O2"
_cell_formula_units_Z 28
_cell_length_a 11.995587
_cell_length_b 9.071013
_cell_length_c 26.272747
_cell_angle_alpha 90.000000
_cell_angle_beta 29.903394
_cell_angle_gamma 90.000000
_cell_volume 1425.220286
_symmetry_space_group_name_H-M "P 21/C"
_symmetry_group_IT_number 14
_symmetry_cell_setting 'monoclinic'
loop_
_space_group_symop_operation_xyz
x,y,z
-x,1/2+y,1/2-z
-x,-y,-z
x,1/2-y,1/2+z
loop_
_atom_site_type_symbol
_atom_site_label
_atom_site_fract_x
_atom_site_fract_y
_atom_site_fract_z
Si Si1 0.984261 0.152433 0.218707
Si Si2 0.615514 0.086664 0.756736
Si Si3 0.781661 0.405486 0.078580
Si Si4 0.197691 0.927357 0.951785
Si Si5 0.503153 0.363196 0.866293
Si Si6 0.673967 0.890737 0.004581
Si Si7 0.176615 0.534681 0.724337
O O1 0.742870 0.092235 0.295463
O O2 0.979955 0.326691 0.225040
O O3 0.185584 0.099623 0.102531
O O4 0.043477 0.100234 0.252369
O O5 0.420988 0.965466 0.832065
O O6 0.799560 0.020434 0.723628
O O7 0.694754 0.119769 0.669404
O O8 0.535053 0.244980 0.808744
O O9 0.833327 0.248827 0.031987
O O10 0.606665 0.488807 0.111607
O O11 0.000000 0.500000 0.000000
O O12 0.200155 0.000309 0.006386
O O13 0.000000 0.000000 0.000000
O O14 0.338323 0.280834 0.971838
O O15 0.418232 0.946792 0.101289
#
# Coordination Sequence:
#
# PCOD8125497 Si02
#       7
#     4   4   4   4   4   4   4
#     4  10  20  39  64  81 120 150 193 252 279 354
#     4   9  21  40  58  80 122 158 188 243 290 347
#     4  12  23  36  59  90 123 151 194 244 285 355
#     4  10  22  36  59  86 118 156 195 227 295 356
#     4   9  22  37  59  91 110 157 202 230 309 331
#     4   9  20  40  60  82 120 157 190 241 296 350
#     4   9  21  38  59  88 109 159 198 231 304 340
#
# _framework density 19.646084999999999
#
# number of rings (size 3 to 8) (size 9 to 14) (size 15 to 20)
#    0.000    2.857    0.000    3.000   10.000    2.286 
#    2.571    2.857    0.000    0.000    0.000    0.000 
#    0.000    0.000    0.000    0.000    0.000    0.000 
#
# Total GULP energy -346995.886018 kJ/mol
# GULP energy per Si atom -12392.710215 kJ/mol
# Density = 1.960137 g / cm^3
# Si number density = 19.646085 Si / 1000 Ang^3
#
#
#
# Elastic Constant Matrix: (Units=GPa)
#
#
# Indices 1 2 3 4 5 6 
#
# 1 95.7875 51.1470 18.3452 0.0000 -10.3193 0.0000
# 2 51.1470 98.3612 14.3349 0.0000 -15.1298 0.0000
# 3 18.3452 14.3349 20.6869 0.0000 -8.2625 0.0000
# 4 0.0000 0.0000 0.0000 16.6169 0.0000 -11.1140
# 5 -10.3193 -15.1298 -8.2625 0.0000 24.6442 0.0000
# 6 0.0000 0.0000 0.0000 -11.1140 0.0000 38.9573
#
#
#
# Elastic Compliance Matrix: (Units=1/GPa)
#
#
# Indices 1 2 3 4 5 6 
#
# 1 0.015935 -0.007017 -0.009611 0.000000 -0.000858 0.000000
# 2 -0.007017 0.014955 -0.001901 0.000000 0.005606 0.000000
# 3 -0.009611 -0.001901 0.064782 0.000000 0.016528 0.000000
# 4 0.000000 0.000000 0.000000 0.074370 0.000000 0.021217
# 5 -0.000858 0.005606 0.016528 0.000000 0.049201 0.000000
# 6 0.000000 0.000000 0.000000 0.021217 0.000000 0.031722
#
#
# Mechanical properties :
#
#
# Convention : Reuss Voigt Hill
#
# Bulk Modulus (GPa) = 17.06124 42.49886 29.78005
# Shear Modulus (GPa) = 16.25688 24.77759 20.51723
#
# Velocity S-wave (km/s) = 2.87973 3.55519 3.23513
# Velocity P-wave (km/s) = 4.44525 6.20739 5.39870
#
# Compressibility (1/GPa) = 0.05861240
#
# Stress axis : x y z
#
# Youngs Moduli (GPa) = 62.75437 66.86791 15.43640
#
# Poissons Ratio (x) = 0.46924 0.14837
# Poissons Ratio (y) = 0.44037 0.02934
# Poissons Ratio (z) = 0.60316 0.12711
#
# Static dielectric constant tensor:
#      x y z
#    x 3.647970 0.000000 -0.066960 
#    y 0.000000 3.436650 0.000000 
#    z -0.066960 0.000000 3.647830 
# 
# 
# High freq. dielectric constant tensor:
#      x y z
#    x 1.770220 0.000000 -0.011370 
#    y 0.000000 1.757610 0.000000 
#    z -0.011370 0.000000 1.756770 
# 
# From -- ./inp_files/77087.got.cif
#   From: 2010.03.12/outbox.cif.g09.slc.cpg/sg14_39_cif.got.tgz:77087.got - 2010.03.31 13:35:05.
