data_PCOD8125543
_publ_section_title
;
Structure prediction by ZEFSAII (Michael W. Deem and Ramdas Pophale) SiO2 
 PCOD8125543
Probable space group: P 21/C
;
_chemical_formula_sum "Si O2"
_cell_formula_units_Z 28
_cell_length_a 15.538178
_cell_length_b 9.527564
_cell_length_c 18.166687
_cell_angle_alpha 90.000000
_cell_angle_beta 148.973109
_cell_angle_gamma 90.000000
_cell_volume 1386.232533
_symmetry_space_group_name_H-M "P 21/C"
_symmetry_group_IT_number 14
_symmetry_cell_setting 'monoclinic'
loop_
_space_group_symop_operation_xyz
x,y,z
-x,1/2+y,1/2-z
-x,-y,-z
x,1/2-y,1/2+z
loop_
_atom_site_type_symbol
_atom_site_label
_atom_site_fract_x
_atom_site_fract_y
_atom_site_fract_z
Si Si1 0.652059 0.060493 0.155122
Si Si2 0.153179 0.820856 0.238246
Si Si3 0.343488 0.072026 0.423335
Si Si4 0.828709 0.781218 0.313155
Si Si5 0.827111 0.358440 0.418995
Si Si6 0.200670 0.165337 0.051083
Si Si7 0.509751 0.743189 0.343069
O O1 0.732468 0.184462 0.165136
O O2 0.573890 0.118203 0.172711
O O3 0.795439 0.946252 0.277048
O O4 0.500000 0.000000 0.000000
O O5 0.179750 0.875297 0.174145
O O6 0.206296 0.947497 0.332192
O O7 0.961239 0.772379 0.110220
O O8 0.275081 0.197767 0.323642
O O9 0.395989 0.137872 0.539867
O O10 0.500000 0.000000 0.500000
O O11 0.761826 0.742462 0.344976
O O12 0.026618 0.749899 0.450619
O O13 0.861677 0.507576 0.480185
O O14 0.645416 0.310497 0.315163
O O15 0.363263 0.174561 0.120765
#
# Coordination Sequence:
#
# PCOD8125543 Si02
#       7
#     4   4   4   4   4   4   4
#     4  11  22  40  63  92 125 162 212 265 308 367
#     4  10  20  39  68  87 120 168 217 247 303 394
#     4  12  18  40  68  89 115 173 217 245 296 392
#     4  11  21  39  71  87 120 173 214 250 309 384
#     4  10  20  41  64  91 120 168 214 250 309 390
#     4  11  22  40  62  96 126 160 208 269 320 369
#     4  11  25  37  62  96 131 155 207 275 321 363
#
# _framework density 20.198632
#
# number of rings (size 3 to 8) (size 9 to 14) (size 15 to 20)
#    0.000    1.143    7.143    0.857    2.000    5.143 
#    2.571    0.000    3.143    0.000    0.000    0.000 
#    0.000    0.000    0.000    0.000    0.000    0.000 
#
# Total GULP energy -347143.750837 kJ/mol
# GULP energy per Si atom -12397.991101 kJ/mol
# Density = 2.015266 g / cm^3
# Si number density = 20.198632 Si / 1000 Ang^3
#
#
#
# Elastic Constant Matrix: (Units=GPa)
#
#
# Indices 1 2 3 4 5 6 
#
# 1 42.5322 29.9363 28.2798 0.0000 18.3579 0.0000
# 2 29.9363 128.5335 46.4787 0.0000 3.8588 0.0000
# 3 28.2798 46.4787 116.6678 0.0000 15.9161 0.0000
# 4 0.0000 0.0000 0.0000 43.4127 0.0000 9.4057
# 5 18.3579 3.8588 15.9161 0.0000 27.3450 0.0000
# 6 0.0000 0.0000 0.0000 9.4057 0.0000 14.3465
#
#
#
# Elastic Compliance Matrix: (Units=1/GPa)
#
#
# Indices 1 2 3 4 5 6 
#
# 1 0.042292 -0.007744 -0.003739 0.000000 -0.025123 0.000000
# 2 -0.007744 0.010528 -0.003067 0.000000 0.005498 0.000000
# 3 -0.003739 -0.003067 0.011186 0.000000 -0.003568 0.000000
# 4 0.000000 0.000000 0.000000 0.026848 0.000000 -0.017602
# 5 -0.025123 0.005498 -0.003568 0.000000 0.054737 0.000000
# 6 0.000000 0.000000 0.000000 -0.017602 0.000000 0.081243
#
#
# Mechanical properties :
#
#
# Convention : Reuss Voigt Hill
#
# Bulk Modulus (GPa) = 28.64819 55.23588 41.94204
# Shear Modulus (GPa) = 18.68672 29.22342 23.95507
#
# Velocity S-wave (km/s) = 3.04492 3.80781 3.44753
# Velocity P-wave (km/s) = 5.15520 6.83654 6.05452
#
# Compressibility (1/GPa) = 0.03490622
#
# Stress axis : x y z
#
# Youngs Moduli (GPa) = 23.64514 94.98784 89.39508
#
# Poissons Ratio (x) = 0.73557 0.33425
# Poissons Ratio (y) = 0.18310 0.27418
# Poissons Ratio (z) = 0.08841 0.29134
#
# Static dielectric constant tensor:
#      x y z
#    x 3.266970 0.000000 0.180760 
#    y 0.000000 3.445010 0.000000 
#    z 0.180760 0.000000 4.111100 
# 
# 
# High freq. dielectric constant tensor:
#      x y z
#    x 1.742790 0.000000 0.020110 
#    y 0.000000 1.797570 0.000000 
#    z 0.020110 0.000000 1.812690 
# 
# From -- ./inp_files/69088.got.cif
#   From: 2010.03.12/outbox.cif.g09.slc.cpg/sg14_35_cif.got.tgz:69088.got - 2010.03.31 13:35:05.
