data_PCOD8125939
_publ_section_title
;
Structure prediction by ZEFSAII (Michael W. Deem and Ramdas Pophale) SiO2 
 PCOD8125939
Probable space group: P 21/C
;
_chemical_formula_sum "Si O2"
_cell_formula_units_Z 32
_cell_length_a 7.102680
_cell_length_b 12.734110
_cell_length_c 18.452553
_cell_angle_alpha 90.000000
_cell_angle_beta 68.722901
_cell_angle_gamma 90.000000
_cell_volume 1555.202523
_symmetry_space_group_name_H-M "P 21/C"
_symmetry_group_IT_number 14
_symmetry_cell_setting 'monoclinic'
loop_
_space_group_symop_operation_xyz
x,y,z
-x,1/2+y,1/2-z
-x,-y,-z
x,1/2-y,1/2+z
loop_
_atom_site_type_symbol
_atom_site_label
_atom_site_fract_x
_atom_site_fract_y
_atom_site_fract_z
Si Si1 0.874610 0.717139 0.544559
Si Si2 0.520414 0.288689 0.850714
Si Si3 0.558764 0.013398 0.254795
Si Si4 0.928992 0.698690 0.379969
Si Si5 0.065292 0.467972 0.372172
Si Si6 0.683894 0.320957 0.194283
Si Si7 0.724334 0.176716 0.952876
Si Si8 0.517385 0.845888 0.872537
O O1 0.722890 0.790188 0.611106
O O2 0.824144 0.737587 0.468021
O O3 0.844991 0.592270 0.569194
O O4 0.104688 0.748909 0.531968
O O5 0.597782 0.400903 0.812086
O O6 0.578435 0.201676 0.784893
O O7 0.606693 0.254760 0.916395
O O8 0.511970 0.062611 0.182135
O O9 0.772366 0.950069 0.216199
O O10 0.368784 0.943843 0.308710
O O11 0.054962 0.593634 0.383759
O O12 0.758187 0.674865 0.344690
O O13 0.079691 0.790327 0.331351
O O14 0.840890 0.416530 0.390549
O O15 0.586585 0.260215 0.140483
O O16 0.577644 0.126478 0.035027
#
# Coordination Sequence:
#
# PCOD8125939 Si02
#       8
#     4   4   4   4   4   4   4   4
#     4  10  21  38  65  92 126 159 209 271 317 381
#     4  11  22  41  65  93 127 166 217 264 321 381
#     4  11  24  43  63  92 136 173 212 265 328 389
#     4  12  22  39  66  96 130 164 217 258 331 387
#     4  10  21  36  62  97 126 159 205 265 330 380
#     4  11  23  44  61  91 135 170 207 271 317 390
#     4  10  22  39  68  93 127 163 209 274 328 375
#     4  11  24  41  67  92 127 171 209 268 333 378
#
# _framework density 20.576098999999999
#
# number of rings (size 3 to 8) (size 9 to 14) (size 15 to 20)
#    0.750    0.500    6.250    0.375    3.500    3.500 
#    0.000    1.250    0.000    0.000    0.000    0.000 
#    0.000    0.000    0.000    0.000    0.000    0.000 
#
# Total GULP energy -396449.714118 kJ/mol
# GULP energy per Si atom -12389.053566 kJ/mol
# Density = 2.052927 g / cm^3
# Si number density = 20.576099 Si / 1000 Ang^3
#
#
#
# Elastic Constant Matrix: (Units=GPa)
#
#
# Indices 1 2 3 4 5 6 
#
# 1 82.8090 30.7183 38.4865 0.0000 -14.5392 0.0000
# 2 30.7183 84.0274 41.1135 0.0000 -6.9442 0.0000
# 3 38.4865 41.1135 92.2041 0.0000 -16.5744 0.0000
# 4 0.0000 0.0000 0.0000 32.7622 0.0000 -9.5705
# 5 -14.5392 -6.9442 -16.5744 0.0000 33.5947 0.0000
# 6 0.0000 0.0000 0.0000 -9.5705 0.0000 21.9281
#
#
#
# Elastic Compliance Matrix: (Units=1/GPa)
#
#
# Indices 1 2 3 4 5 6 
#
# 1 0.016128 -0.003356 -0.004505 0.000000 0.004064 0.000000
# 2 -0.003356 0.015922 -0.005891 0.000000 -0.001067 0.000000
# 3 -0.004505 -0.005891 0.016222 0.000000 0.004836 0.000000
# 4 0.000000 0.000000 0.000000 0.034983 0.000000 0.015268
# 5 0.004064 -0.001067 0.004836 0.000000 0.033691 0.000000
# 6 0.000000 0.000000 0.000000 0.015268 0.000000 0.052268
#
#
# Mechanical properties :
#
#
# Convention : Reuss Voigt Hill
#
# Bulk Modulus (GPa) = 48.14977 53.29744 50.72361
# Shear Modulus (GPa) = 24.55328 27.57181 26.06254
#
# Velocity S-wave (km/s) = 3.45815 3.66456 3.56285
# Velocity P-wave (km/s) = 6.27668 6.62300 6.45217
#
# Compressibility (1/GPa) = 0.02076853
#
# Stress axis : x y z
#
# Youngs Moduli (GPa) = 62.00344 62.80761 61.64543
#
# Poissons Ratio (x) = 0.21078 0.27772
# Poissons Ratio (y) = 0.20808 0.36312
# Poissons Ratio (z) = 0.27933 0.36997
#
# Static dielectric constant tensor:
#      x y z
#    x 3.734560 0.000000 -0.259730 
#    y 0.000000 3.339620 0.000000 
#    z -0.259730 0.000000 3.715950 
# 
# 
# High freq. dielectric constant tensor:
#      x y z
#    x 1.804230 0.000000 -0.019200 
#    y 0.000000 1.764650 0.000000 
#    z -0.019200 0.000000 1.806080 
# 
# From -- ./inp_files/65420.got.cif
#   From: 2010.03.12/outbox.cif.g09.slc.cpg/sg14_33_cif.got.tgz:65420.got - 2010.03.31 13:35:05.
