data_PCOD8125119
_publ_section_title
;
Structure prediction by ZEFSAII (Michael W. Deem and Ramdas Pophale) SiO2 
 PCOD8125119
Probable space group: P 21/C
;
_chemical_formula_sum "Si O2"
_cell_formula_units_Z 32
_cell_length_a 23.577463
_cell_length_b 9.512774
_cell_length_c 13.430529
_cell_angle_alpha 90.000000
_cell_angle_beta 33.469830
_cell_angle_gamma 90.000000
_cell_volume 1661.273604
_symmetry_space_group_name_H-M "P 21/C"
_symmetry_group_IT_number 14
_symmetry_cell_setting 'monoclinic'
loop_
_space_group_symop_operation_xyz
x,y,z
-x,1/2+y,1/2-z
-x,-y,-z
x,1/2-y,1/2+z
loop_
_atom_site_type_symbol
_atom_site_label
_atom_site_fract_x
_atom_site_fract_y
_atom_site_fract_z
Si Si1 0.475016 0.878500 0.417587
Si Si2 0.120166 0.626247 0.279995
Si Si3 0.124908 0.107840 0.278943
Si Si4 0.974062 0.629772 0.668781
Si Si5 0.650699 0.606058 0.504532
Si Si6 0.515987 0.701012 0.071074
Si Si7 0.019471 0.626087 0.833828
Si Si8 0.333526 0.781739 0.988791
O O1 0.576567 0.860558 0.204048
O O2 0.495365 0.783949 0.484769
O O3 0.375008 0.813999 0.515581
O O4 0.444937 0.041274 0.473988
O O5 0.118823 0.473809 0.229448
O O6 0.037734 0.712087 0.334618
O O7 0.226404 0.710141 0.116812
O O8 0.080024 0.604800 0.452036
O O9 0.061060 0.213675 0.303817
O O10 0.077393 0.075512 0.457679
O O11 0.120147 0.964124 0.220836
O O12 0.238839 0.168974 0.128599
O O13 0.996378 0.608716 0.751952
O O14 0.602623 0.685802 0.478602
O O15 0.670471 0.439584 0.460812
O O16 0.408457 0.725428 0.284344
#
# Coordination Sequence:
#
# PCOD8125119 Si02
#       8
#     4   4   4   4   4   4   4   4
#     4   9  20  38  58  82 114 147 190 231 282 337
#     4  10  21  38  56  85 113 148 195 235 286 343
#     4  10  21  36  58  83 113 151 187 238 287 339
#     4  10  22  37  57  83 114 150 190 241 284 342
#     4  10  20  37  58  81 117 149 182 235 285 333
#     4   9  20  38  58  83 112 149 188 233 281 340
#     4  10  20  39  57  79 117 147 190 238 289 339
#     4  10  20  37  57  82 115 150 183 236 283 334
#
# _framework density 19.262329999999999
#
# number of rings (size 3 to 8) (size 9 to 14) (size 15 to 20)
#    0.000    2.250    1.250    0.750    1.750    2.500 
#    4.500    0.000    0.000    0.000    0.000    0.000 
#    0.000    0.000    0.000    0.000    0.000    0.000 
#
# Total GULP energy -396605.653986 kJ/mol
# GULP energy per Si atom -12393.926687 kJ/mol
# Density = 1.921849 g / cm^3
# Si number density = 19.262330 Si / 1000 Ang^3
#
#
#
# Elastic Constant Matrix: (Units=GPa)
#
#
# Indices 1 2 3 4 5 6 
#
# 1 112.6068 41.6983 57.2286 0.0000 13.3637 0.0000
# 2 41.6983 77.0162 28.5616 0.0000 4.8473 0.0000
# 3 57.2286 28.5616 59.0971 0.0000 -3.4547 0.0000
# 4 0.0000 0.0000 0.0000 23.7916 0.0000 -5.1487
# 5 13.3637 4.8473 -3.4547 0.0000 32.5675 0.0000
# 6 0.0000 0.0000 0.0000 -5.1487 0.0000 32.3294
#
#
#
# Elastic Compliance Matrix: (Units=1/GPa)
#
#
# Indices 1 2 3 4 5 6 
#
# 1 0.021404 -0.003691 -0.019546 0.000000 -0.010307 0.000000
# 2 -0.003691 0.016792 -0.004627 0.000000 -0.001475 0.000000
# 3 -0.019546 -0.004627 0.038835 0.000000 0.012829 0.000000
# 4 0.000000 0.000000 0.000000 0.043532 0.000000 0.006933
# 5 -0.010307 -0.001475 0.012829 0.000000 0.036515 0.000000
# 6 0.000000 0.000000 0.000000 0.006933 0.000000 0.032036
#
#
# Mechanical properties :
#
#
# Convention : Reuss Voigt Hill
#
# Bulk Modulus (GPa) = 46.94244 55.96634 51.45439
# Shear Modulus (GPa) = 19.84578 25.81980 22.83279
#
# Velocity S-wave (km/s) = 3.21329 3.66516 3.44664
# Velocity P-wave (km/s) = 6.17981 6.85778 6.52760
#
# Compressibility (1/GPa) = 0.02130268
#
# Stress axis : x y z
#
# Youngs Moduli (GPa) = 46.72023 59.55341 25.74982
#
# Poissons Ratio (x) = 0.21983 0.50330
# Poissons Ratio (y) = 0.17246 0.11914
# Poissons Ratio (z) = 0.91318 0.27555
#
# Static dielectric constant tensor:
#      x y z
#    x 3.421440 0.000000 0.062790 
#    y 0.000000 3.676040 0.000000 
#    z 0.062790 0.000000 3.397640 
# 
# 
# High freq. dielectric constant tensor:
#      x y z
#    x 1.743780 0.000000 0.001690 
#    y 0.000000 1.762890 0.000000 
#    z 0.001690 0.000000 1.737180 
# 
# From -- ./inp_files/46496.got.cif
#   From: 2010.03.12/outbox.cif.g09.slc.cpg/sg14_24_cif.got.tgz:46496.got - 2010.03.31 13:35:05.
