data_PCOD8125881
_publ_section_title
;
Structure prediction by ZEFSAII (Michael W. Deem and Ramdas Pophale) SiO2 
 PCOD8125881
Probable space group: P 21/C
;
_chemical_formula_sum "Si O2"
_cell_formula_units_Z 24
_cell_length_a 22.364530
_cell_length_b 5.076534
_cell_length_c 22.435708
_cell_angle_alpha 90.000000
_cell_angle_beta 152.519192
_cell_angle_gamma 90.000000
_cell_volume 1175.419493
_symmetry_space_group_name_H-M "P 21/C"
_symmetry_group_IT_number 14
_symmetry_cell_setting 'monoclinic'
loop_
_space_group_symop_operation_xyz
x,y,z
-x,1/2+y,1/2-z
-x,-y,-z
x,1/2-y,1/2+z
loop_
_atom_site_type_symbol
_atom_site_label
_atom_site_fract_x
_atom_site_fract_y
_atom_site_fract_z
Si Si1 0.920790 0.185140 0.110834
Si Si2 0.091572 0.687170 0.264143
Si Si3 0.865773 0.650533 0.886996
Si Si4 0.457712 0.804905 0.412075
Si Si5 0.704677 0.526836 0.641414
Si Si6 0.228028 0.648104 0.634833
O O1 0.866932 0.163205 0.130128
O O2 0.984975 0.467173 0.153997
O O3 0.797997 0.137717 0.958984
O O4 0.032517 0.970980 0.198016
O O5 0.221623 0.659998 0.340082
O O6 0.809387 0.703682 0.770181
O O7 0.784626 0.450985 0.856511
O O8 0.872051 0.940017 0.922940
O O9 0.000000 0.500000 0.000000
O O10 0.591496 0.679136 0.505077
O O11 0.361835 0.612312 0.361510
O O12 0.376200 0.933930 0.284874
O O13 0.500000 0.000000 0.500000
#
# Coordination Sequence:
#
# PCOD8125881 Si02
#       6
#     4   4   4   4   4   4
#     4  10  21  39  59  87 112 148 186 234 290 336
#     4  10  22  38  62  83 115 147 186 236 287 341
#     4  11  21  32  54  85 111 142 180 235 286 337
#     4  10  21  37  55  79 113 156 186 230 279 335
#     4  10  21  36  56  82 113 150 193 226 285 339
#     4  11  21  35  56  78 115 145 184 231 278 332
#
# _framework density 20.418244000000001
#
# number of rings (size 3 to 8) (size 9 to 14) (size 15 to 20)
#    0.000    1.667    1.667    3.500    2.333    1.333 
#    0.000    0.000    3.667    0.000    0.000    0.000 
#    0.000    0.000    0.000    0.000    0.000    0.000 
#
# Total GULP energy -297327.223470 kJ/mol
# GULP energy per Si atom -12388.634311 kJ/mol
# Density = 2.037177 g / cm^3
# Si number density = 20.418244 Si / 1000 Ang^3
#
#
#
# Elastic Constant Matrix: (Units=GPa)
#
#
# Indices 1 2 3 4 5 6 
#
# 1 59.8114 -5.1776 39.6589 0.0000 -6.4741 0.0000
# 2 -5.1776 54.3805 -0.7158 0.0000 -6.5543 0.0000
# 3 39.6589 -0.7158 164.9731 0.0000 -28.0637 0.0000
# 4 0.0000 0.0000 0.0000 22.8428 0.0000 -2.4507
# 5 -6.4741 -6.5543 -28.0637 0.0000 32.8491 0.0000
# 6 0.0000 0.0000 0.0000 -2.4507 0.0000 18.5759
#
#
#
# Elastic Compliance Matrix: (Units=1/GPa)
#
#
# Indices 1 2 3 4 5 6 
#
# 1 0.020075 0.001879 -0.004775 0.000000 0.000252 0.000000
# 2 0.001879 0.019119 0.000402 0.000000 0.004528 0.000000
# 3 -0.004775 0.000402 0.008266 0.000000 0.006201 0.000000
# 4 0.000000 0.000000 0.000000 0.044406 0.000000 0.005858
# 5 0.000252 0.004528 0.006201 0.000000 0.036693 0.000000
# 6 0.000000 0.000000 0.000000 0.005858 0.000000 0.054606
#
#
# Mechanical properties :
#
#
# Convention : Reuss Voigt Hill
#
# Bulk Modulus (GPa) = 23.54539 38.52179 31.03359
# Shear Modulus (GPa) = 24.71437 31.21352 27.96394
#
# Velocity S-wave (km/s) = 3.48286 3.91411 3.70477
# Velocity P-wave (km/s) = 5.26596 6.27171 5.79071
#
# Compressibility (1/GPa) = 0.04247117
#
# Stress axis : x y z
#
# Youngs Moduli (GPa) = 49.81248 52.30430 120.97652
#
# Poissons Ratio (x) = -0.09828 0.57766
# Poissons Ratio (y) = -0.09359 -0.04858
# Poissons Ratio (z) = 0.23785 -0.02100
#
# Static dielectric constant tensor:
#      x y z
#    x 3.487040 0.000000 -0.039950 
#    y 0.000000 3.905530 0.000000 
#    z -0.039950 0.000000 4.272030 
# 
# 
# High freq. dielectric constant tensor:
#      x y z
#    x 1.758080 0.000000 -0.014050 
#    y 0.000000 1.803250 0.000000 
#    z -0.014050 0.000000 1.810450 
# 
# From -- ./inp_files/69560.got.cif
#   From: 2010.03.12/outbox.cif.g09.slc.cpg/sg14_35_cif.got.tgz:69560.got - 2010.03.31 13:35:05.
