data_PCOD8125363
_publ_section_title
;
Structure prediction by ZEFSAII (Michael W. Deem and Ramdas Pophale) SiO2 
 PCOD8125363
Probable space group: P 21/C
;
_chemical_formula_sum "Si O2"
_cell_formula_units_Z 24
_cell_length_a 15.379890
_cell_length_b 11.350929
_cell_length_c 15.090453
_cell_angle_alpha 90.000000
_cell_angle_beta 152.849376
_cell_angle_gamma 90.000000
_cell_volume 1202.173511
_symmetry_space_group_name_H-M "P 21/C"
_symmetry_group_IT_number 14
_symmetry_cell_setting 'monoclinic'
loop_
_space_group_symop_operation_xyz
x,y,z
-x,1/2+y,1/2-z
-x,-y,-z
x,1/2-y,1/2+z
loop_
_atom_site_type_symbol
_atom_site_label
_atom_site_fract_x
_atom_site_fract_y
_atom_site_fract_z
Si Si1 0.311821 0.684808 0.264684
Si Si2 0.865674 0.560351 0.449383
Si Si3 0.302488 0.215855 0.340808
Si Si4 0.050076 0.714023 0.190974
Si Si5 0.081759 0.670250 0.419539
Si Si6 0.811322 0.557957 0.866017
O O1 0.495322 0.770440 0.426745
O O2 0.227300 0.687565 0.287161
O O3 0.345591 0.547281 0.266056
O O4 0.159358 0.732881 0.057060
O O5 0.692862 0.624310 0.238868
O O6 0.809157 0.454486 0.464367
O O7 0.000000 0.500000 0.500000
O O8 0.980563 0.653857 0.611573
O O9 0.262973 0.346978 0.270779
O O10 0.146479 0.169137 0.269822
O O11 0.125538 0.704623 0.358890
O O12 0.873361 0.623354 0.013671
O O13 0.000000 0.500000 0.000000
#
# Coordination Sequence:
#
# PCOD8125363 Si02
#       6
#     4   4   4   4   4   4
#     4  11  21  38  61  88 116 153 198 239 294 344
#     4   9  18  40  60  81 116 163 193 234 301 347
#     4  10  20  38  63  82 119 154 194 243 290 347
#     4  10  21  37  64  82 120 156 197 242 292 352
#     4  11  22  38  60  87 117 158 195 239 295 351
#     4   9  17  37  61  81 113 161 185 236 297 340
#
# _framework density 19.963840000000001
#
# number of rings (size 3 to 8) (size 9 to 14) (size 15 to 20)
#    0.000    2.000    6.667    0.500    2.333    0.667 
#    6.000    0.000    0.000    0.000    0.000    0.000 
#    0.000    0.000    0.000    0.000    0.000    0.000 
#
# Total GULP energy -297349.962678 kJ/mol
# GULP energy per Si atom -12389.581778 kJ/mol
# Density = 1.991840 g / cm^3
# Si number density = 19.963840 Si / 1000 Ang^3
#
#
#
# Elastic Constant Matrix: (Units=GPa)
#
#
# Indices 1 2 3 4 5 6 
#
# 1 90.3360 29.6100 39.2892 0.0000 -27.0534 0.0000
# 2 29.6100 136.3670 25.9579 0.0000 -14.7898 0.0000
# 3 39.2892 25.9579 82.1085 0.0000 -7.0147 0.0000
# 4 0.0000 0.0000 0.0000 34.6140 0.0000 -2.6902
# 5 -27.0534 -14.7898 -7.0147 0.0000 24.7672 0.0000
# 6 0.0000 0.0000 0.0000 -2.6902 0.0000 23.4751
#
#
#
# Elastic Compliance Matrix: (Units=1/GPa)
#
#
# Indices 1 2 3 4 5 6 
#
# 1 0.020787 -0.000831 -0.007980 0.000000 0.019950 0.000000
# 2 -0.000831 0.008256 -0.001915 0.000000 0.003480 0.000000
# 3 -0.007980 -0.001915 0.016151 0.000000 -0.005285 0.000000
# 4 0.000000 0.000000 0.000000 0.029150 0.000000 0.003341
# 5 0.019950 0.003480 -0.005285 0.000000 0.062748 0.000000
# 6 0.000000 0.000000 0.000000 0.003341 0.000000 0.042981
#
#
# Mechanical properties :
#
#
# Convention : Reuss Voigt Hill
#
# Bulk Modulus (GPa) = 42.11850 55.39173 48.75511
# Shear Modulus (GPa) = 23.87335 30.83489 27.35412
#
# Velocity S-wave (km/s) = 3.46183 3.93432 3.70561
# Velocity P-wave (km/s) = 6.09280 6.96023 6.54091
#
# Compressibility (1/GPa) = 0.02374254
#
# Stress axis : x y z
#
# Youngs Moduli (GPa) = 48.10655 121.13119 61.91495
#
# Poissons Ratio (x) = 0.10066 0.49406
# Poissons Ratio (y) = 0.03998 0.11857
# Poissons Ratio (z) = 0.38388 0.23197
#
# Static dielectric constant tensor:
#      x y z
#    x 3.239810 0.000000 -0.133230 
#    y 0.000000 3.852940 0.000000 
#    z -0.133230 0.000000 3.642070 
# 
# 
# High freq. dielectric constant tensor:
#      x y z
#    x 1.731750 0.000000 -0.020650 
#    y 0.000000 1.806560 0.000000 
#    z -0.020650 0.000000 1.766810 
# 
# From -- ./inp_files/47017.got.cif
#   From: 2010.03.12/outbox.cif.g09.slc.cpg/sg14_24_cif.got.tgz:47017.got - 2010.03.31 13:35:05.
