data_PCOD8125121
_publ_section_title
;
Structure prediction by ZEFSAII (Michael W. Deem and Ramdas Pophale) SiO2 
 PCOD8125121
Probable space group: P 21/C
;
_chemical_formula_sum "Si O2"
_cell_formula_units_Z 32
_cell_length_a 14.370168
_cell_length_b 9.591911
_cell_length_c 13.048485
_cell_angle_alpha 90.000000
_cell_angle_beta 114.605241
_cell_angle_gamma 90.000000
_cell_volume 1635.255284
_symmetry_space_group_name_H-M "P 21/C"
_symmetry_group_IT_number 14
_symmetry_cell_setting 'monoclinic'
loop_
_space_group_symop_operation_xyz
x,y,z
-x,1/2+y,1/2-z
-x,-y,-z
x,1/2-y,1/2+z
loop_
_atom_site_type_symbol
_atom_site_label
_atom_site_fract_x
_atom_site_fract_y
_atom_site_fract_z
Si Si1 0.503514 0.783040 0.925657
Si Si2 0.015280 0.904716 0.871909
Si Si3 0.943790 0.395162 0.845536
Si Si4 0.664416 0.764451 0.833031
Si Si5 0.108822 0.333554 0.076650
Si Si6 0.137796 0.615779 0.619211
Si Si7 0.526202 0.909452 0.146468
Si Si8 0.372817 0.564177 0.747592
O O1 0.614663 0.772266 0.923245
O O2 0.431979 0.649019 0.865185
O O3 0.451527 0.931138 0.873447
O O4 0.520551 0.794238 0.054313
O O5 0.963933 0.769807 0.896168
O O6 0.052401 0.876357 0.774522
O O7 0.935855 0.033011 0.835640
O O8 0.112476 0.935699 0.991174
O O9 0.881498 0.535447 0.843100
O O10 0.878015 0.277547 0.869603
O O11 0.058510 0.387497 0.946701
O O12 0.786290 0.748623 0.899210
O O13 0.623874 0.625766 0.760377
O O14 0.624052 0.895420 0.745783
O O15 0.254631 0.596365 0.698227
O O16 0.421549 0.888293 0.162185
#
# Coordination Sequence:
#
# PCOD8125121 Si02
#       8
#     4   4   4   4   4   4   4   4
#     4   9  20  38  59  84 113 145 191 234 282 340
#     4  10  20  39  58  81 115 153 192 237 291 342
#     4  10  22  37  58  83 117 150 193 243 285 341
#     4  10  20  37  57  82 116 151 183 233 288 336
#     4  10  21  38  56  85 116 150 193 239 289 342
#     4  10  21  36  58  85 113 152 192 236 287 345
#     4   9  20  38  59  84 112 148 189 233 283 340
#     4  10  20  37  58  82 117 149 183 236 283 337
#
# _framework density 19.568809999999999
#
# number of rings (size 3 to 8) (size 9 to 14) (size 15 to 20)
#    0.000    2.250    1.250    0.750    1.750    2.500 
#    4.500    0.000    0.000    0.000    0.000    0.000 
#    0.000    0.000    0.000    0.000    0.000    0.000 
#
# Total GULP energy -396562.737277 kJ/mol
# GULP energy per Si atom -12392.585540 kJ/mol
# Density = 1.952427 g / cm^3
# Si number density = 19.568810 Si / 1000 Ang^3
#
#
#
# Elastic Constant Matrix: (Units=GPa)
#
#
# Indices 1 2 3 4 5 6 
#
# 1 63.4702 5.8487 26.1875 0.0000 5.1817 0.0000
# 2 5.8487 69.6839 4.9799 0.0000 2.0322 0.0000
# 3 26.1875 4.9799 61.9401 0.0000 -14.3212 0.0000
# 4 0.0000 0.0000 0.0000 28.8871 0.0000 2.5844
# 5 5.1817 2.0322 -14.3212 0.0000 25.8496 0.0000
# 6 0.0000 0.0000 0.0000 2.5844 0.0000 27.9891
#
#
#
# Elastic Compliance Matrix: (Units=1/GPa)
#
#
# Indices 1 2 3 4 5 6 
#
# 1 0.021400 -0.000670 -0.011439 0.000000 -0.010574 0.000000
# 2 -0.000670 0.014549 -0.001284 0.000000 -0.001721 0.000000
# 3 -0.011439 -0.001284 0.024816 0.000000 0.016143 0.000000
# 4 0.000000 0.000000 0.000000 0.034906 0.000000 -0.003223
# 5 -0.010574 -0.001721 0.016143 0.000000 0.049884 0.000000
# 6 0.000000 0.000000 0.000000 -0.003223 0.000000 0.036026
#
#
# Mechanical properties :
#
#
# Convention : Reuss Voigt Hill
#
# Bulk Modulus (GPa) = 29.43013 29.90296 29.66655
# Shear Modulus (GPa) = 22.75901 27.08369 24.92135
#
# Velocity S-wave (km/s) = 3.41401 3.72428 3.57252
# Velocity P-wave (km/s) = 5.53287 5.81445 5.67540
#
# Compressibility (1/GPa) = 0.03397878
#
# Stress axis : x y z
#
# Youngs Moduli (GPa) = 46.72887 68.73446 40.29594
#
# Poissons Ratio (x) = 0.04607 0.46093
# Poissons Ratio (y) = 0.03132 0.05175
# Poissons Ratio (z) = 0.53452 0.08827
#
# Static dielectric constant tensor:
#      x y z
#    x 3.401880 0.000000 -0.018470 
#    y 0.000000 3.842890 0.000000 
#    z -0.018470 0.000000 3.500760 
# 
# 
# High freq. dielectric constant tensor:
#      x y z
#    x 1.751650 0.000000 -0.002070 
#    y 0.000000 1.779780 0.000000 
#    z -0.002070 0.000000 1.746960 
# 
# From -- ./inp_files/46515.got.cif
#   From: 2010.03.12/outbox.cif.g09.slc.cpg/sg14_24_cif.got.tgz:46515.got - 2010.03.31 13:35:05.
