data_PCOD8125545
_publ_section_title
;
Structure prediction by ZEFSAII (Michael W. Deem and Ramdas Pophale) SiO2 
 PCOD8125545
Probable space group: P 21/C
;
_chemical_formula_sum "Si O2"
_cell_formula_units_Z 28
_cell_length_a 8.469463
_cell_length_b 21.404071
_cell_length_c 9.408291
_cell_angle_alpha 90.000000
_cell_angle_beta 49.947380
_cell_angle_gamma 90.000000
_cell_volume 1305.515333
_symmetry_space_group_name_H-M "P 21/C"
_symmetry_group_IT_number 14
_symmetry_cell_setting 'monoclinic'
loop_
_space_group_symop_operation_xyz
x,y,z
-x,1/2+y,1/2-z
-x,-y,-z
x,1/2-y,1/2+z
loop_
_atom_site_type_symbol
_atom_site_label
_atom_site_fract_x
_atom_site_fract_y
_atom_site_fract_z
Si Si1 0.196940 0.140068 0.804806
Si Si2 0.384263 0.055622 0.925440
Si Si3 0.357689 0.813784 0.524884
Si Si4 0.772905 0.197632 0.082442
Si Si5 0.157737 0.433521 0.046187
Si Si6 0.183741 0.572639 0.972709
Si Si7 0.527945 0.419625 0.638857
O O1 0.227340 0.094642 0.921389
O O2 0.400901 0.178863 0.648961
O O3 0.123044 0.098210 0.716719
O O4 0.019017 0.188737 0.949966
O O5 0.618243 0.062920 0.739505
O O6 0.329050 0.981867 0.950930
O O7 0.373115 0.081159 0.093094
O O8 0.267854 0.760743 0.476842
O O9 0.327550 0.795130 0.704953
O O10 0.230727 0.877187 0.567875
O O11 0.674697 0.140065 0.053324
O O12 0.998712 0.404283 0.024801
O O13 0.120674 0.507854 0.085477
O O14 0.391055 0.419493 0.860933
#
# Coordination Sequence:
#
# PCOD8125545 Si02
#       7
#     4   4   4   4   4   4   4
#     4  11  25  44  71  96 129 171 219 274 333 390
#     4   9  21  39  65 100 134 169 210 275 329 392
#     4  11  28  47  64  95 132 176 223 272 315 392
#     4  12  28  45  68  95 131 178 221 271 322 391
#     4  10  20  39  70 100 130 172 211 276 332 390
#     4   9  21  40  67  93 137 172 216 266 336 383
#     4  10  21  40  65  99 137 168 216 269 330 386
#
# _framework density 21.447469000000002
#
# number of rings (size 3 to 8) (size 9 to 14) (size 15 to 20)
#    0.000    1.714    1.429    0.857   10.000    5.714 
#    0.000    0.000    0.000    0.000    0.000    0.000 
#    0.000    0.000    0.000    0.000    0.000    0.000 
#
# Total GULP energy -347349.217137 kJ/mol
# GULP energy per Si atom -12405.329183 kJ/mol
# Density = 2.139865 g / cm^3
# Si number density = 21.447469 Si / 1000 Ang^3
#
#
#
# Elastic Constant Matrix: (Units=GPa)
#
#
# Indices 1 2 3 4 5 6 
#
# 1 85.0083 27.1427 16.1261 0.0000 -5.9337 0.0000
# 2 27.1427 70.9275 25.1472 0.0000 -4.6080 0.0000
# 3 16.1261 25.1472 56.8481 0.0000 14.4620 0.0000
# 4 0.0000 0.0000 0.0000 21.9896 0.0000 5.7007
# 5 -5.9337 -4.6080 14.4620 0.0000 32.9317 0.0000
# 6 0.0000 0.0000 0.0000 5.7007 0.0000 42.8132
#
#
#
# Elastic Compliance Matrix: (Units=1/GPa)
#
#
# Indices 1 2 3 4 5 6 
#
# 1 0.013840 -0.004036 -0.002962 0.000000 0.003230 0.000000
# 2 -0.004036 0.019142 -0.008803 0.000000 0.005817 0.000000
# 3 -0.002962 -0.008803 0.025638 0.000000 -0.013024 0.000000
# 4 0.000000 0.000000 0.000000 0.047102 0.000000 -0.006272
# 5 0.003230 0.005817 -0.013024 0.000000 0.037481 0.000000
# 6 0.000000 0.000000 0.000000 -0.006272 0.000000 0.024192
#
#
# Mechanical properties :
#
#
# Convention : Reuss Voigt Hill
#
# Bulk Modulus (GPa) = 37.01168 38.84623 37.92895
# Shear Modulus (GPa) = 24.03800 29.17142 26.60471
#
# Velocity S-wave (km/s) = 3.35144 3.69200 3.52584
# Velocity P-wave (km/s) = 5.68072 6.02711 5.85648
#
# Compressibility (1/GPa) = 0.02701850
#
# Stress axis : x y z
#
# Youngs Moduli (GPa) = 72.25623 52.24027 39.00414
#
# Poissons Ratio (x) = 0.21085 0.11553
# Poissons Ratio (y) = 0.29164 0.34334
# Poissons Ratio (z) = 0.21403 0.45985
#
# Static dielectric constant tensor:
#      x y z
#    x 3.857950 0.000000 0.032850 
#    y 0.000000 3.848560 0.000000 
#    z 0.032850 0.000000 3.786750 
# 
# 
# High freq. dielectric constant tensor:
#      x y z
#    x 1.845360 0.000000 0.003060 
#    y 0.000000 1.833330 0.000000 
#    z 0.003060 0.000000 1.846150 
# 
# From -- ./inp_files/10381.got.cif
#   From: 2010.03.12/outbox.cif.g09.slc.cpg/sg14_6_cif.got.tgz:10381.got - 2010.03.31 13:35:05.
