data_PCOD8125174
_publ_section_title
;
Structure prediction by ZEFSAII (Michael W. Deem and Ramdas Pophale) SiO2 
 PCOD8125174
Probable space group: P 21/C
;
_chemical_formula_sum "Si O2"
_cell_formula_units_Z 20
_cell_length_a 12.191196
_cell_length_b 18.119165
_cell_length_c 8.520571
_cell_angle_alpha 90.000000
_cell_angle_beta 146.168809
_cell_angle_gamma 90.000000
_cell_volume 1047.880570
_symmetry_space_group_name_H-M "P 21/C"
_symmetry_group_IT_number 14
_symmetry_cell_setting 'monoclinic'
loop_
_space_group_symop_operation_xyz
x,y,z
-x,1/2+y,1/2-z
-x,-y,-z
x,1/2-y,1/2+z
loop_
_atom_site_type_symbol
_atom_site_label
_atom_site_fract_x
_atom_site_fract_y
_atom_site_fract_z
Si Si1 0.091040 0.342876 0.519834
Si Si2 0.622330 0.585247 0.928828
Si Si3 0.179539 0.920724 0.832479
Si Si4 0.869343 0.035925 0.574864
Si Si5 0.904025 0.692609 0.134679
O O1 0.926899 0.391878 0.240538
O O2 0.149512 0.275624 0.475963
O O3 0.004046 0.310247 0.579802
O O4 0.285215 0.392169 0.791290
O O5 0.388871 0.586770 0.665741
O O6 0.696877 0.504292 0.966352
O O7 0.701043 0.644621 0.892314
O O8 0.214337 0.941156 0.693370
O O9 0.062277 0.843397 0.703992
O O10 0.058612 0.983169 0.781732
#
# Coordination Sequence:
#
# PCOD8125174 Si02
#       5
#     4   4   4   4   4
#     4  10  20  40  57  78 120 147 186 236 277 328
#     4   9  21  37  59  85 111 144 196 225 275 336
#     4  10  20  38  61  84 114 147 186 227 286 330
#     4  10  20  37  60  85 116 147 178 236 283 332
#     4   9  21  38  55  79 115 148 186 229 278 326
#
# _framework density 19.086145999999999
#
# number of rings (size 3 to 8) (size 9 to 14) (size 15 to 20)
#    1.200    1.200    0.000    2.400    0.000    0.800 
#    7.200    0.000    0.000    0.000    0.000    0.000 
#    0.000    0.000    0.000    0.000    0.000    0.000 
#
# Total GULP energy -247896.351336 kJ/mol
# GULP energy per Si atom -12394.817567 kJ/mol
# Density = 1.904271 g / cm^3
# Si number density = 19.086146 Si / 1000 Ang^3
#
#
#
# Elastic Constant Matrix: (Units=GPa)
#
#
# Indices 1 2 3 4 5 6 
#
# 1 42.9746 15.8617 17.4421 0.0000 3.0417 0.0000
# 2 15.8617 70.6776 23.7180 0.0000 -10.5915 0.0000
# 3 17.4421 23.7180 61.1120 0.0000 6.6274 0.0000
# 4 0.0000 0.0000 0.0000 29.1129 0.0000 -18.2475
# 5 3.0417 -10.5915 6.6274 0.0000 31.0237 0.0000
# 6 0.0000 0.0000 0.0000 -18.2475 0.0000 25.3860
#
#
#
# Elastic Compliance Matrix: (Units=1/GPa)
#
#
# Indices 1 2 3 4 5 6 
#
# 1 0.027546 -0.004739 -0.005686 0.000000 -0.003104 0.000000
# 2 -0.004739 0.018751 -0.006828 0.000000 0.008325 0.000000
# 3 -0.005686 -0.006828 0.021322 0.000000 -0.006328 0.000000
# 4 0.000000 0.000000 0.000000 0.062513 0.000000 0.044935
# 5 -0.003104 0.008325 -0.006328 0.000000 0.036732 0.000000
# 6 0.000000 0.000000 0.000000 0.044935 0.000000 0.071691
#
#
# Mechanical properties :
#
#
# Convention : Reuss Voigt Hill
#
# Bulk Modulus (GPa) = 30.19859 32.08974 31.14417
# Shear Modulus (GPa) = 17.59951 24.95403 21.27677
#
# Velocity S-wave (km/s) = 3.03992 3.61978 3.34245
# Velocity P-wave (km/s) = 5.30830 5.85833 5.59008
#
# Compressibility (1/GPa) = 0.03311412
#
# Stress axis : x y z
#
# Youngs Moduli (GPa) = 36.30258 53.33041 46.89902
#
# Poissons Ratio (x) = 0.25273 0.26668
# Poissons Ratio (y) = 0.17204 0.32021
# Poissons Ratio (z) = 0.20642 0.36412
#
# Static dielectric constant tensor:
#      x y z
#    x 3.217740 0.000000 -0.142700 
#    y 0.000000 3.466680 0.000000 
#    z -0.142700 0.000000 3.220290 
# 
# 
# High freq. dielectric constant tensor:
#      x y z
#    x 1.722920 0.000000 -0.013380 
#    y 0.000000 1.745710 0.000000 
#    z -0.013380 0.000000 1.727910 
# 
# From -- ./inp_files/8976.got.cif
#   From: 2010.03.12/outbox.cif.g09.slc.cpg/sg14_5_cif.got.tgz:8976.got - 2010.03.31 13:35:05.
