data_PCOD8125947
_publ_section_title
;
Structure prediction by ZEFSAII (Michael W. Deem and Ramdas Pophale) SiO2 
 PCOD8125947
Probable space group: P 21/C
;
_chemical_formula_sum "Si O2"
_cell_formula_units_Z 32
_cell_length_a 9.492855
_cell_length_b 13.581529
_cell_length_c 26.589079
_cell_angle_alpha 90.000000
_cell_angle_beta 151.119613
_cell_angle_gamma 90.000000
_cell_volume 1655.695079
_symmetry_space_group_name_H-M "P 21/C"
_symmetry_group_IT_number 14
_symmetry_cell_setting 'monoclinic'
loop_
_space_group_symop_operation_xyz
x,y,z
-x,1/2+y,1/2-z
-x,-y,-z
x,1/2-y,1/2+z
loop_
_atom_site_type_symbol
_atom_site_label
_atom_site_fract_x
_atom_site_fract_y
_atom_site_fract_z
Si Si1 0.965309 0.806689 0.998992
Si Si2 0.737136 0.139812 0.728725
Si Si3 0.803659 0.861824 0.840182
Si Si4 0.809690 0.028824 0.118466
Si Si5 0.500690 0.663440 0.733304
Si Si6 0.868332 0.586094 0.992177
Si Si7 0.239736 0.534184 0.198095
Si Si8 0.680265 0.352999 0.677270
O O1 0.982493 0.838581 0.946568
O O2 0.669819 0.846195 0.932128
O O3 0.984620 0.689042 0.006951
O O4 0.232495 0.855888 0.111826
O O5 0.617626 0.164536 0.746855
O O6 0.482577 0.082747 0.618854
O O7 0.814289 0.243493 0.726000
O O8 0.021771 0.072285 0.816692
O O9 0.654191 0.766230 0.769664
O O10 0.548936 0.939573 0.769920
O O11 0.026743 0.907575 0.871463
O O12 0.786388 0.098365 0.159386
O O13 0.500000 0.000000 0.000000
O O14 0.753312 0.584066 0.800904
O O15 0.969196 0.574624 0.081236
O O16 0.000000 0.500000 0.000000
O O17 0.202569 0.577502 0.241734
#
# Coordination Sequence:
#
# PCOD8125947 Si02
#       8
#     4   4   4   4   4   4   4   4
#     4  10  21  36  65  93 127 161 211 276 314 370
#     4  11  22  42  65  93 128 173 213 266 327 379
#     4  11  22  40  61 101 121 167 220 266 319 380
#     4  12  27  45  65  92 138 180 213 258 329 396
#     4  12  20  37  66  98 128 156 222 274 320 372
#     4  11  17  35  63  95 122 161 209 272 328 362
#     4  11  21  36  67  96 125 162 221 271 320 379
#     4  10  24  43  61  95 131 172 217 255 329 392
#
# _framework density 19.327228999999999
#
# number of rings (size 3 to 8) (size 9 to 14) (size 15 to 20)
#    0.000    1.000    7.500    0.750    1.750    3.000 
#    0.000    0.625    0.000    0.000    0.000    0.000 
#    0.000    0.000    0.000    0.000    0.000    0.000 
#
# Total GULP energy -396914.050086 kJ/mol
# GULP energy per Si atom -12403.564065 kJ/mol
# Density = 1.928324 g / cm^3
# Si number density = 19.327229 Si / 1000 Ang^3
#
#
#
# Elastic Constant Matrix: (Units=GPa)
#
#
# Indices 1 2 3 4 5 6 
#
# 1 96.8833 47.6273 46.5987 0.0000 -3.9023 0.0000
# 2 47.6273 101.2619 30.5315 0.0000 1.0526 0.0000
# 3 46.5987 30.5315 138.5191 0.0000 -11.1537 0.0000
# 4 0.0000 0.0000 0.0000 36.0906 0.0000 -0.2324
# 5 -3.9023 1.0526 -11.1537 0.0000 21.7322 0.0000
# 6 0.0000 0.0000 0.0000 -0.2324 0.0000 29.3343
#
#
#
# Elastic Compliance Matrix: (Units=1/GPa)
#
#
# Indices 1 2 3 4 5 6 
#
# 1 0.015076 -0.005999 -0.003659 0.000000 0.001120 0.000000
# 2 -0.005999 0.013032 -0.001035 0.000000 -0.002239 0.000000
# 3 -0.003659 -0.001035 0.009001 0.000000 0.004013 0.000000
# 4 0.000000 0.000000 0.000000 0.027709 0.000000 0.000220
# 5 0.001120 -0.002239 0.004013 0.000000 0.048384 0.000000
# 6 0.000000 0.000000 0.000000 0.000220 0.000000 0.034092
#
#
# Mechanical properties :
#
#
# Convention : Reuss Voigt Hill
#
# Bulk Modulus (GPa) = 63.59882 65.13104 64.36493
# Shear Modulus (GPa) = 28.74859 31.55852 30.15356
#
# Velocity S-wave (km/s) = 3.86095 4.04524 3.95417
# Velocity P-wave (km/s) = 7.27006 7.45593 7.36358
#
# Compressibility (1/GPa) = 0.01572356
#
# Stress axis : x y z
#
# Youngs Moduli (GPa) = 66.33087 76.73274 111.09418
#
# Poissons Ratio (x) = 0.46033 0.40652
# Poissons Ratio (y) = 0.39793 0.11494
# Poissons Ratio (z) = 0.24272 0.07939
#
# Static dielectric constant tensor:
#      x y z
#    x 3.227040 0.000000 -0.204830 
#    y 0.000000 3.733170 0.000000 
#    z -0.204830 0.000000 3.941920 
# 
# 
# High freq. dielectric constant tensor:
#      x y z
#    x 1.719760 0.000000 -0.018270 
#    y 0.000000 1.772600 0.000000 
#    z -0.018270 0.000000 1.767040 
# 
# From -- ./inp_files/65861.got.cif
#   From: 2010.03.12/outbox.cif.g09.slc.cpg/sg14_33_cif.got.tgz:65861.got - 2010.03.31 13:35:05.
