data_PCOD8125721
_publ_section_title
;
Structure prediction by ZEFSAII (Michael W. Deem and Ramdas Pophale) SiO2 
 PCOD8125721
Probable space group: P 21/C
;
_chemical_formula_sum "Si O2"
_cell_formula_units_Z 32
_cell_length_a 16.715859
_cell_length_b 9.680151
_cell_length_c 27.006367
_cell_angle_alpha 90.000000
_cell_angle_beta 20.800098
_cell_angle_gamma 90.000000
_cell_volume 1551.808545
_symmetry_space_group_name_H-M "P 21/C"
_symmetry_group_IT_number 14
_symmetry_cell_setting 'monoclinic'
loop_
_space_group_symop_operation_xyz
x,y,z
-x,1/2+y,1/2-z
-x,-y,-z
x,1/2-y,1/2+z
loop_
_atom_site_type_symbol
_atom_site_label
_atom_site_fract_x
_atom_site_fract_y
_atom_site_fract_z
Si Si1 0.025116 0.140634 0.369889
Si Si2 0.512745 0.324151 0.310318
Si Si3 0.924602 0.281953 0.328510
Si Si4 0.709443 0.498108 0.916887
Si Si5 0.420368 0.317747 0.252154
Si Si6 0.529100 0.099126 0.111456
Si Si7 0.628682 0.957809 0.572505
Si Si8 0.033934 0.836722 0.487100
O O1 0.279768 0.098269 0.233691
O O2 0.024668 0.247083 0.324755
O O3 0.880741 0.008079 0.437950
O O4 0.912742 0.198628 0.485721
O O5 0.517646 0.354639 0.249062
O O6 0.417808 0.451562 0.395975
O O7 0.779635 0.293323 0.161653
O O8 0.364451 0.198482 0.413989
O O9 0.850189 0.147602 0.338597
O O10 0.699208 0.371836 0.468010
O O11 0.113047 0.376541 0.193440
O O12 0.500000 0.500000 0.000000
O O13 0.579897 0.526192 0.042910
O O14 0.563681 0.212121 0.134967
O O15 0.428591 0.461025 0.216914
O O16 0.178830 0.255048 0.403684
O O17 0.000000 0.000000 0.500000
#
# Coordination Sequence:
#
# PCOD8125721 Si02
#       8
#     4   4   4   4   4   4   4   4
#     4  10  20  41  69  89 131 176 218 268 338 395
#     4  12  23  37  64 100 133 170 223 269 328 402
#     4  11  24  46  73  99 131 176 227 283 347 398
#     4  11  26  50  73 101 139 177 230 292 341 405
#     4  11  21  39  64  92 137 173 217 272 334 395
#     4  11  22  41  69  93 127 185 220 261 340 410
#     4  11  24  43  63 100 138 168 219 290 331 388
#     4  11  20  36  63  93 125 179 220 261 324 406
#
# _framework density 20.621100999999999
#
# number of rings (size 3 to 8) (size 9 to 14) (size 15 to 20)
#    0.000    1.000    6.250    2.250    3.500    0.500 
#    6.750    3.125    0.000    0.000    0.000    0.000 
#    0.000    0.000    0.000    0.000    0.000    0.000 
#
# Total GULP energy -396540.213782 kJ/mol
# GULP energy per Si atom -12391.881681 kJ/mol
# Density = 2.057417 g / cm^3
# Si number density = 20.621101 Si / 1000 Ang^3
#
#
#
# Elastic Constant Matrix: (Units=GPa)
#
#
# Indices 1 2 3 4 5 6 
#
# 1 80.0030 31.9232 32.0695 0.0000 -7.4865 0.0000
# 2 31.9232 124.7757 39.1076 0.0000 -0.5972 0.0000
# 3 32.0695 39.1076 75.1806 0.0000 -0.9249 0.0000
# 4 0.0000 0.0000 0.0000 32.7854 0.0000 11.1753
# 5 -7.4865 -0.5972 -0.9249 0.0000 18.5976 0.0000
# 6 0.0000 0.0000 0.0000 11.1753 0.0000 27.8120
#
#
#
# Elastic Compliance Matrix: (Units=1/GPa)
#
#
# Indices 1 2 3 4 5 6 
#
# 1 0.016285 -0.002370 -0.005638 0.000000 0.006199 0.000000
# 2 -0.002370 0.009920 -0.004160 0.000000 -0.000842 0.000000
# 3 -0.005638 -0.004160 0.017851 0.000000 -0.001515 0.000000
# 4 0.000000 0.000000 0.000000 0.035342 0.000000 -0.014201
# 5 0.006199 -0.000842 -0.001515 0.000000 0.056164 0.000000
# 6 0.000000 0.000000 0.000000 -0.014201 0.000000 0.041662
#
#
# Mechanical properties :
#
#
# Convention : Reuss Voigt Hill
#
# Bulk Modulus (GPa) = 50.70433 54.01774 52.36103
# Shear Modulus (GPa) = 24.02306 27.62959 25.82633
#
# Velocity S-wave (km/s) = 3.41688 3.66439 3.54280
# Velocity P-wave (km/s) = 6.34103 6.64499 6.49479
#
# Compressibility (1/GPa) = 0.01972218
#
# Stress axis : x y z
#
# Youngs Moduli (GPa) = 61.40560 100.80166 56.01790
#
# Poissons Ratio (x) = 0.23888 0.31581
# Poissons Ratio (y) = 0.14552 0.23303
# Poissons Ratio (z) = 0.34619 0.41933
#
# Static dielectric constant tensor:
#      x y z
#    x 3.701570 0.000000 -0.119020 
#    y 0.000000 3.724190 0.000000 
#    z -0.119020 0.000000 3.926630 
# 
# 
# High freq. dielectric constant tensor:
#      x y z
#    x 1.807420 0.000000 -0.000880 
#    y 0.000000 1.800310 0.000000 
#    z -0.000880 0.000000 1.813550 
# 
# From -- ./inp_files/80406.got.cif
#   From: 2010.03.12/outbox.cif.g09.slc.cpg/sg14_41_cif.got.tgz:80406.got - 2010.03.31 13:35:05.
