data_PCOD8125982
_publ_section_title
;
Structure prediction by ZEFSAII (Michael W. Deem and Ramdas Pophale) SiO2 
 PCOD8125982
Probable space group: P 21/C
;
_chemical_formula_sum "Si O2"
_cell_formula_units_Z 32
_cell_length_a 12.706748
_cell_length_b 24.330213
_cell_length_c 7.678053
_cell_angle_alpha 90.000000
_cell_angle_beta 41.029631
_cell_angle_gamma 90.000000
_cell_volume 1558.233681
_symmetry_space_group_name_H-M "P 21/C"
_symmetry_group_IT_number 14
_symmetry_cell_setting 'monoclinic'
loop_
_space_group_symop_operation_xyz
x,y,z
-x,1/2+y,1/2-z
-x,-y,-z
x,1/2-y,1/2+z
loop_
_atom_site_type_symbol
_atom_site_label
_atom_site_fract_x
_atom_site_fract_y
_atom_site_fract_z
Si Si1 0.309691 0.061201 0.737345
Si Si2 0.125102 0.249838 0.677674
Si Si3 0.311826 0.140755 0.036288
Si Si4 0.687828 0.359488 0.462453
Si Si5 0.313205 0.859280 0.432224
Si Si6 0.686936 0.640482 0.069175
Si Si7 0.690216 0.438773 0.761904
Si Si8 0.874604 0.249560 0.240385
O O1 0.251454 0.092423 0.635580
O O2 0.499959 0.057453 0.500532
O O3 0.234973 0.999979 0.830865
O O4 0.250053 0.092843 0.984982
O O5 0.222028 0.303730 0.603076
O O6 0.225958 0.196082 0.595887
O O7 0.071461 0.250567 0.541138
O O8 0.928248 0.248739 0.969923
O O9 0.274614 0.122577 0.280786
O O10 0.499261 0.151867 0.774378
O O11 0.725046 0.377509 0.217729
O O12 0.500491 0.348131 0.723172
O O13 0.748894 0.407559 0.514354
O O14 0.777377 0.304219 0.405612
O O15 0.250614 0.907074 0.638691
O O16 0.226182 0.803310 0.586603
#
# Coordination Sequence:
#
# PCOD8125982 Si02
#       8
#     4   4   4   4   4   4   4   4
#     4   9  19  36  59  87 115 147 192 241 286 337
#     4  12  22  36  56  84 118 154 189 236 287 344
#     4  10  21  37  58  85 117 152 189 238 287 342
#     4  10  21  37  58  85 117 152 189 238 287 342
#     4  10  21  37  58  86 117 151 191 234 290 344
#     4  10  21  37  58  86 117 151 191 234 290 344
#     4   9  19  36  59  87 115 147 192 241 286 337
#     4  12  22  36  56  84 118 154 189 236 287 344
#
# _framework density 20.536071
#
# number of rings (size 3 to 8) (size 9 to 14) (size 15 to 20)
#    0.000    1.750    2.500    2.250    0.000    1.000 
#    0.000    5.000    0.000    7.500    0.000    0.000 
#    0.000    0.000    0.000    0.000    0.000    0.000 
#
# Total GULP energy -396612.753110 kJ/mol
# GULP energy per Si atom -12394.148535 kJ/mol
# Density = 2.048933 g / cm^3
# Si number density = 20.536071 Si / 1000 Ang^3
#
#
#
# Elastic Constant Matrix: (Units=GPa)
#
#
# Indices 1 2 3 4 5 6 
#
# 1 105.0289 85.9113 35.7674 0.0000 25.3794 0.0000
# 2 85.9113 209.9401 77.9786 0.0000 33.3797 0.0000
# 3 35.7674 77.9786 84.3123 0.0000 23.4825 0.0000
# 4 0.0000 0.0000 0.0000 8.2016 0.0000 24.9916
# 5 25.3794 33.3797 23.4825 0.0000 25.6169 0.0000
# 6 0.0000 0.0000 0.0000 24.9916 0.0000 14.7325
#
#
#
# Elastic Compliance Matrix: (Units=1/GPa)
#
#
# Indices 1 2 3 4 5 6 
#
# 1 0.015878 -0.005274 0.000818 0.000000 -0.009609 0.000000
# 2 -0.005274 0.009403 -0.006046 0.000000 -0.001486 0.000000
# 3 0.000818 -0.006046 0.020326 0.000000 -0.011565 0.000000
# 4 0.000000 0.000000 0.000000 -0.029246 0.000000 0.049611
# 5 -0.009609 -0.001486 -0.011565 0.000000 0.061095 0.000000
# 6 0.000000 0.000000 0.000000 0.049611 0.000000 -0.016281
#
#
# Mechanical properties :
#
#
# Convention : Reuss Voigt Hill
#
# Bulk Modulus (GPa) = 40.64250 88.73287 64.68768
# Shear Modulus (GPa) = 55.32170 23.01847 39.17009
#
# Velocity S-wave (km/s) = 5.19589 3.35159 4.37209
# Velocity P-wave (km/s) = 7.47196 7.63411 7.55347
#
# Compressibility (1/GPa) = 0.02460479
#
# Stress axis : x y z
#
# Youngs Moduli (GPa) = 62.97864 106.34697 49.19705
#
# Poissons Ratio (x) = 0.56084 -0.04023
# Poissons Ratio (y) = 0.33213 0.29743
# Poissons Ratio (z) = -0.05150 0.64294
#
# Static dielectric constant tensor:
#      x y z
#    x 4.039400 0.000000 0.514770 
#    y 0.000000 3.791170 0.000000 
#    z 0.514770 0.000000 3.871130 
# 
# 
# High freq. dielectric constant tensor:
#      x y z
#    x 1.816150 0.000000 0.030000 
#    y 0.000000 1.793120 0.000000 
#    z 0.030000 0.000000 1.806010 
# 
# From -- ./inp_files/16858.got.cif
#   From: 2010.03.12/outbox.cif.g09.slc.cpg/sg14_9_cif.got.tgz:16858.got - 2010.03.31 13:35:05.
