data_PCOD8125403
_publ_section_title
;
Structure prediction by ZEFSAII (Michael W. Deem and Ramdas Pophale) SiO2 
 PCOD8125403
Probable space group: P 21/C
;
_chemical_formula_sum "Si O2"
_cell_formula_units_Z 28
_cell_length_a 8.684110
_cell_length_b 11.577916
_cell_length_c 20.181556
_cell_angle_alpha 90.000000
_cell_angle_beta 40.926733
_cell_angle_gamma 90.000000
_cell_volume 1329.271173
_symmetry_space_group_name_H-M "P 21/C"
_symmetry_group_IT_number 14
_symmetry_cell_setting 'monoclinic'
loop_
_space_group_symop_operation_xyz
x,y,z
-x,1/2+y,1/2-z
-x,-y,-z
x,1/2-y,1/2+z
loop_
_atom_site_type_symbol
_atom_site_label
_atom_site_fract_x
_atom_site_fract_y
_atom_site_fract_z
Si Si1 0.761244 0.185767 0.664591
Si Si2 0.247667 0.368674 0.277323
Si Si3 0.510306 0.114770 0.454740
Si Si4 0.120795 0.620097 0.269518
Si Si5 0.848262 0.254734 0.491860
Si Si6 0.652558 0.778850 0.882154
Si Si7 0.099891 0.003067 0.538745
O O1 0.497430 0.148017 0.731926
O O2 0.779453 0.279075 0.716280
O O3 0.887047 0.237601 0.557703
O O4 0.901069 0.071329 0.646411
O O5 0.190047 0.501238 0.281665
O O6 0.236576 0.303254 0.210549
O O7 0.057487 0.325776 0.391919
O O8 0.760734 0.138978 0.340728
O O9 0.405127 0.218769 0.530005
O O10 0.500000 0.000000 0.500000
O O11 0.327875 0.083580 0.455698
O O12 0.842240 0.624560 0.342384
O O13 0.601156 0.324010 0.561536
O O14 0.837060 0.128152 0.457852
O O15 0.000000 0.000000 0.500000
#
# Coordination Sequence:
#
# PCOD8125403 Si02
#       7
#     4   4   4   4   4   4   4
#     4  10  24  40  63 102 128 171 224 269 326 386
#     4  11  25  42  66  95 133 177 214 272 336 389
#     4  12  21  41  66  92 128 168 219 276 313 380
#     4  12  25  41  67  99 133 168 222 274 327 403
#     4  10  22  42  65  89 133 176 215 273 323 391
#     4  11  23  42  63  98 126 170 226 267 330 386
#     4  10  20  38  66  92 124 168 224 267 312 376
#
# _framework density 21.064173
#
# number of rings (size 3 to 8) (size 9 to 14) (size 15 to 20)
#    0.000    1.143    4.286    2.571    6.000    1.143 
#    0.000    0.000    0.000    0.000    0.000    0.000 
#    0.000    0.000    0.000    0.000    0.000    0.000 
#
# Total GULP energy -346881.586613 kJ/mol
# GULP energy per Si atom -12388.628093 kJ/mol
# Density = 2.101623 g / cm^3
# Si number density = 21.064173 Si / 1000 Ang^3
#
#
#
# Elastic Constant Matrix: (Units=GPa)
#
#
# Indices 1 2 3 4 5 6 
#
# 1 64.7376 17.0788 35.9942 0.0000 -15.6972 0.0000
# 2 17.0788 68.9601 44.7141 0.0000 -6.3130 0.0000
# 3 35.9942 44.7141 151.5612 0.0000 -8.3541 0.0000
# 4 0.0000 0.0000 0.0000 32.3053 0.0000 -0.1545
# 5 -15.6972 -6.3130 -8.3541 0.0000 38.3217 0.0000
# 6 0.0000 0.0000 0.0000 -0.1545 0.0000 30.6656
#
#
#
# Elastic Compliance Matrix: (Units=1/GPa)
#
#
# Indices 1 2 3 4 5 6 
#
# 1 0.019701 -0.001802 -0.003764 0.000000 0.006952 0.000000
# 2 -0.001802 0.018223 -0.004882 0.000000 0.001199 0.000000
# 3 -0.003764 -0.004882 0.008910 0.000000 -0.000404 0.000000
# 4 0.000000 0.000000 0.000000 0.030955 0.000000 0.000156
# 5 0.006952 0.001199 -0.000404 0.000000 0.029052 0.000000
# 6 0.000000 0.000000 0.000000 0.000156 0.000000 0.032611
#
#
# Mechanical properties :
#
#
# Convention : Reuss Voigt Hill
#
# Bulk Modulus (GPa) = 38.55423 53.42590 45.99006
# Shear Modulus (GPa) = 29.58686 32.75666 31.17176
#
# Velocity S-wave (km/s) = 3.75187 3.94774 3.85105
# Velocity P-wave (km/s) = 6.09194 6.79691 6.45406
#
# Compressibility (1/GPa) = 0.02593749
#
# Stress axis : x y z
#
# Youngs Moduli (GPa) = 50.75906 54.87624 112.23419
#
# Poissons Ratio (x) = 0.09890 0.42243
# Poissons Ratio (y) = 0.09148 0.54793
# Poissons Ratio (z) = 0.19105 0.26791
#
# Static dielectric constant tensor:
#      x y z
#    x 4.206160 0.000000 0.047840 
#    y 0.000000 3.269690 0.000000 
#    z 0.047840 0.000000 3.135830 
# 
# 
# High freq. dielectric constant tensor:
#      x y z
#    x 1.849640 0.000000 -0.010960 
#    y 0.000000 1.801060 0.000000 
#    z -0.010960 0.000000 1.826940 
# 
# From -- ./inp_files/65539.got.cif
#   From: 2010.03.12/outbox.cif.g09.slc.cpg/sg14_33_cif.got.tgz:65539.got - 2010.03.31 13:35:05.
