data_PCOD8125326
_publ_section_title
;
Structure prediction by ZEFSAII (Michael W. Deem and Ramdas Pophale) SiO2 
 PCOD8125326
Probable space group: P 21/C
;
_chemical_formula_sum "Si O2"
_cell_formula_units_Z 24
_cell_length_a 20.092637
_cell_length_b 9.397839
_cell_length_c 10.709129
_cell_angle_alpha 90.000000
_cell_angle_beta 30.817276
_cell_angle_gamma 90.000000
_cell_volume 1035.964808
_symmetry_space_group_name_H-M "P 21/C"
_symmetry_group_IT_number 14
_symmetry_cell_setting 'monoclinic'
loop_
_space_group_symop_operation_xyz
x,y,z
-x,1/2+y,1/2-z
-x,-y,-z
x,1/2-y,1/2+z
loop_
_atom_site_type_symbol
_atom_site_label
_atom_site_fract_x
_atom_site_fract_y
_atom_site_fract_z
Si Si1 0.189201 0.874717 0.697557
Si Si2 0.225199 0.249864 0.831361
Si Si3 0.090301 0.169436 0.795213
Si Si4 0.405565 0.505738 0.029394
Si Si5 0.395153 0.776700 0.191688
Si Si6 0.592679 0.986355 0.011883
O O1 0.288787 0.917946 0.644760
O O2 0.259991 0.769476 0.485551
O O3 0.135457 0.007120 0.702449
O O4 0.064275 0.802768 0.963987
O O5 0.133284 0.206143 0.866324
O O6 0.269916 0.407242 0.718317
O O7 0.352282 0.151185 0.646759
O O8 0.152659 0.241879 0.081540
O O9 0.439150 0.610920 0.094631
O O10 0.538116 0.489635 0.737961
O O11 0.492036 0.884185 0.103451
O O12 0.383127 0.853797 0.076841
#
# Coordination Sequence:
#
# PCOD8125326 Si02
#       6
#     4   4   4   4   4   4
#     4   9  20  41  62  82 122 172 203 239 316 374
#     4  11  23  41  63  94 124 161 209 255 309 362
#     4  10  22  41  65  88 122 169 204 252 302 373
#     4  10  22  37  62  91 124 155 208 265 300 360
#     4  10  20  38  61  86 119 164 208 244 307 375
#     4  10  21  38  62  86 123 167 203 247 314 372
#
# _framework density 23.166809000000001
#
# number of rings (size 3 to 8) (size 9 to 14) (size 15 to 20)
#    0.000    2.000    1.667    1.000    7.000    0.667 
#    6.000    0.833    0.000    0.000    0.000    0.000 
#    0.000    0.000    0.000    0.000    0.000    0.000 
#
# Total GULP energy -297464.692049 kJ/mol
# GULP energy per Si atom -12394.362169 kJ/mol
# Density = 2.311408 g / cm^3
# Si number density = 23.166809 Si / 1000 Ang^3
#
#
#
# Elastic Constant Matrix: (Units=GPa)
#
#
# Indices 1 2 3 4 5 6 
#
# 1 73.9218 -6.7093 31.1930 0.0000 19.1365 0.0000
# 2 -6.7093 96.1624 32.2268 0.0000 20.9274 0.0000
# 3 31.1930 32.2268 142.4139 0.0000 26.3881 0.0000
# 4 0.0000 0.0000 0.0000 33.4152 0.0000 9.9443
# 5 19.1365 20.9274 26.3881 0.0000 36.8683 0.0000
# 6 0.0000 0.0000 0.0000 9.9443 0.0000 26.0381
#
#
#
# Elastic Compliance Matrix: (Units=1/GPa)
#
#
# Indices 1 2 3 4 5 6 
#
# 1 0.017662 0.004318 -0.003105 0.000000 -0.009396 0.000000
# 2 0.004318 0.013269 -0.002464 0.000000 -0.008009 0.000000
# 3 -0.003105 -0.002464 0.008879 0.000000 -0.003345 0.000000
# 4 0.000000 0.000000 0.000000 0.033764 0.000000 -0.012895
# 5 -0.009396 -0.008009 -0.003345 0.000000 0.038941 0.000000
# 6 0.000000 0.000000 0.000000 -0.012895 0.000000 0.043330
#
#
# Mechanical properties :
#
#
# Convention : Reuss Voigt Hill
#
# Bulk Modulus (GPa) = 26.80389 47.32436 37.06412
# Shear Modulus (GPa) = 29.27669 36.31682 32.79676
#
# Velocity S-wave (km/s) = 3.55876 3.96362 3.76663
# Velocity P-wave (km/s) = 5.33680 6.43576 5.91187
#
# Compressibility (1/GPa) = 0.03730802
#
# Stress axis : x y z
#
# Youngs Moduli (GPa) = 56.61817 75.36264 112.62244
#
# Poissons Ratio (x) = -0.32538 0.34964
# Poissons Ratio (y) = -0.24445 0.27754
# Poissons Ratio (z) = 0.17577 0.18572
#
# Static dielectric constant tensor:
#      x y z
#    x 4.087740 0.000000 0.007750 
#    y 0.000000 4.251750 0.000000 
#    z 0.007750 0.000000 4.316110 
# 
# 
# High freq. dielectric constant tensor:
#      x y z
#    x 1.916900 0.000000 0.005010 
#    y 0.000000 1.915010 0.000000 
#    z 0.005010 0.000000 1.922370 
# 
# From -- ./inp_files/28007.got.cif
#   From: 2010.03.12/outbox.cif.g09.slc.cpg/sg14_15_cif.got.tgz:28007.got - 2010.03.31 13:35:05.
