data_PCOD8125017
_publ_section_title
;
Structure prediction by ZEFSAII (Michael W. Deem and Ramdas Pophale) SiO2 
 PCOD8125017
Probable space group: P 21/C
;
_chemical_formula_sum "Si O2"
_cell_formula_units_Z 28
_cell_length_a 10.586108
_cell_length_b 9.000112
_cell_length_c 28.801134
_cell_angle_alpha 90.000000
_cell_angle_beta 29.414670
_cell_angle_gamma 90.000000
_cell_volume 1347.682094
_symmetry_space_group_name_H-M "P 21/C"
_symmetry_group_IT_number 14
_symmetry_cell_setting 'monoclinic'
loop_
_space_group_symop_operation_xyz
x,y,z
-x,1/2+y,1/2-z
-x,-y,-z
x,1/2-y,1/2+z
loop_
_atom_site_type_symbol
_atom_site_label
_atom_site_fract_x
_atom_site_fract_y
_atom_site_fract_z
Si Si1 0.874414 0.116645 0.800796
Si Si2 0.890725 0.074444 0.691545
Si Si3 0.383937 0.569679 0.465933
Si Si4 0.812424 0.206854 0.405509
Si Si5 0.605236 0.369220 0.640235
Si Si6 0.269393 0.398136 0.247353
Si Si7 0.083486 0.869701 0.869581
O O1 0.903815 0.156143 0.737371
O O2 0.761511 0.256051 0.866933
O O3 0.152827 0.070499 0.733032
O O4 0.680223 0.979117 0.869378
O O5 0.913263 0.196353 0.644276
O O6 0.630510 0.978542 0.771207
O O7 0.142893 0.969357 0.603972
O O8 0.397731 0.721543 0.492387
O O9 0.282146 0.595820 0.446487
O O10 0.199219 0.442601 0.547469
O O11 0.071614 0.292026 0.338830
O O12 0.532467 0.193917 0.661471
O O13 0.832285 0.389199 0.604267
O O14 0.293697 0.550367 0.268699
#
# Coordination Sequence:
#
# PCOD8125017 Si02
#       7
#     4   4   4   4   4   4   4
#     4   9  19  36  60  80 113 147 195 232 289 338
#     4  10  21  35  60  85 115 146 194 244 279 336
#     4  10  20  36  59  81 116 157 184 233 291 344
#     4   8  18  34  54  81 110 147 183 225 294 333
#     4  10  20  39  56  81 113 158 195 232 278 339
#     4   8  19  34  58  77 107 149 189 233 284 329
#     4  11  21  34  58  87 115 149 196 235 282 340
#
# _framework density 20.776413999999999
#
# number of rings (size 3 to 8) (size 9 to 14) (size 15 to 20)
#    0.857    1.714    0.000    1.714    2.000    0.000 
#    0.000    4.286    0.000    0.000    0.000    0.000 
#    0.000    0.000    0.000    0.000    0.000    0.000 
#
# Total GULP energy -346880.245151 kJ/mol
# GULP energy per Si atom -12388.580184 kJ/mol
# Density = 2.072913 g / cm^3
# Si number density = 20.776414 Si / 1000 Ang^3
#
#
#
# Elastic Constant Matrix: (Units=GPa)
#
#
# Indices 1 2 3 4 5 6 
#
# 1 85.0702 18.7687 0.4922 0.0000 14.8311 0.0000
# 2 18.7687 100.3765 16.2565 0.0000 10.9138 0.0000
# 3 0.4922 16.2565 39.6747 0.0000 7.8131 0.0000
# 4 0.0000 0.0000 0.0000 15.1873 0.0000 0.6120
# 5 14.8311 10.9138 7.8131 0.0000 25.4489 0.0000
# 6 0.0000 0.0000 0.0000 0.6120 0.0000 28.7484
#
#
#
# Elastic Compliance Matrix: (Units=1/GPa)
#
#
# Indices 1 2 3 4 5 6 
#
# 1 0.013533 -0.002049 0.002184 0.000000 -0.007678 0.000000
# 2 -0.002049 0.011272 -0.004126 0.000000 -0.002373 0.000000
# 3 0.002184 -0.004126 0.028493 0.000000 -0.008251 0.000000
# 4 0.000000 0.000000 0.000000 0.065901 0.000000 -0.001403
# 5 -0.007678 -0.002373 -0.008251 0.000000 0.047320 0.000000
# 6 0.000000 0.000000 0.000000 -0.001403 0.000000 0.034814
#
#
# Mechanical properties :
#
#
# Convention : Reuss Voigt Hill
#
# Bulk Modulus (GPa) = 22.06733 32.90625 27.48679
# Shear Modulus (GPa) = 22.27947 26.51718 24.39833
#
# Velocity S-wave (km/s) = 3.27822 3.57643 3.43056
# Velocity P-wave (km/s) = 4.99734 5.73821 5.38054
#
# Compressibility (1/GPa) = 0.04531586
#
# Stress axis : x y z
#
# Youngs Moduli (GPa) = 73.89264 88.71628 35.09597
#
# Poissons Ratio (x) = 0.18181 -0.07665
# Poissons Ratio (y) = 0.15143 0.14480
# Poissons Ratio (z) = -0.16137 0.36603
#
# Static dielectric constant tensor:
#      x y z
#    x 3.596860 0.000000 0.178500 
#    y 0.000000 3.590990 0.000000 
#    z 0.178500 0.000000 3.497290 
# 
# 
# High freq. dielectric constant tensor:
#      x y z
#    x 1.804850 0.000000 0.014840 
#    y 0.000000 1.800910 0.000000 
#    z 0.014840 0.000000 1.783440 
# 
# From -- ./inp_files/79890.got.cif
#   From: 2010.03.12/outbox.cif.g09.slc.cpg/sg14_40_cif.got.tgz:79890.got - 2010.03.31 13:35:05.
