data_PCOD8125251
_publ_section_title
;
Structure prediction by ZEFSAII (Michael W. Deem and Ramdas Pophale) SiO2 
 PCOD8125251
Probable space group: P 21/C
;
_chemical_formula_sum "Si O2"
_cell_formula_units_Z 32
_cell_length_a 11.817761
_cell_length_b 12.936759
_cell_length_c 12.516341
_cell_angle_alpha 90.000000
_cell_angle_beta 51.652938
_cell_angle_gamma 90.000000
_cell_volume 1500.728166
_symmetry_space_group_name_H-M "P 21/C"
_symmetry_group_IT_number 14
_symmetry_cell_setting 'monoclinic'
loop_
_space_group_symop_operation_xyz
x,y,z
-x,1/2+y,1/2-z
-x,-y,-z
x,1/2-y,1/2+z
loop_
_atom_site_type_symbol
_atom_site_label
_atom_site_fract_x
_atom_site_fract_y
_atom_site_fract_z
Si Si1 0.778641 0.612293 0.906739
Si Si2 0.632608 0.857416 0.276754
Si Si3 0.912296 0.400249 0.793238
Si Si4 0.873266 0.274974 0.017678
Si Si5 0.397933 0.812347 0.926768
Si Si6 0.117214 0.298698 0.519855
Si Si7 0.505447 0.425060 0.813843
Si Si8 0.686510 0.248533 0.312515
O O1 0.711069 0.669040 0.842657
O O2 0.884020 0.522013 0.805314
O O3 0.870884 0.692174 0.921819
O O4 0.658214 0.560488 0.053452
O O5 0.485227 0.793776 0.352538
O O6 0.597721 0.978787 0.300110
O O7 0.729469 0.833624 0.116366
O O8 0.783045 0.334713 0.818576
O O9 0.057292 0.382924 0.639095
O O10 0.928987 0.365701 0.907502
O O11 0.766175 0.195295 0.020743
O O12 0.781892 0.316433 0.174013
O O13 0.011246 0.213109 0.980638
O O14 0.479844 0.909752 0.823750
O O15 0.387499 0.827950 0.060806
O O16 0.562857 0.316365 0.826284
#
# Coordination Sequence:
#
# PCOD8125251 Si02
#       8
#     4   4   4   4   4   4   4   4
#     4  12  23  40  70  91 125 171 213 266 319 376
#     4  12  23  40  66  97 129 158 219 270 309 385
#     4  10  21  41  61  92 122 171 216 251 313 383
#     4   9  20  39  62  88 131 167 205 257 315 378
#     4  10  20  37  65  94 131 162 208 266 320 374
#     4  11  25  43  61  95 134 170 209 266 321 373
#     4  11  20  37  65  96 121 166 206 262 322 365
#     4   9  17  36  62  93 124 161 205 259 311 370
#
# _framework density 21.322980999999999
#
# number of rings (size 3 to 8) (size 9 to 14) (size 15 to 20)
#    0.000    1.500    3.750    2.625    0.000    1.000 
#    9.000    0.000    0.000    4.500    0.000    0.000 
#    0.000    0.000    0.000    0.000    0.000    0.000 
#
# Total GULP energy -396729.360463 kJ/mol
# GULP energy per Si atom -12397.792514 kJ/mol
# Density = 2.127445 g / cm^3
# Si number density = 21.322981 Si / 1000 Ang^3
#
#
#
# Elastic Constant Matrix: (Units=GPa)
#
#
# Indices 1 2 3 4 5 6 
#
# 1 69.6853 28.5334 19.4652 0.0000 2.1555 0.0000
# 2 28.5334 43.1750 6.6262 0.0000 2.4491 0.0000
# 3 19.4652 6.6262 101.2570 0.0000 2.4241 0.0000
# 4 0.0000 0.0000 0.0000 33.5354 0.0000 -2.8839
# 5 2.1555 2.4491 2.4241 0.0000 27.4298 0.0000
# 6 0.0000 0.0000 0.0000 -2.8839 0.0000 17.5982
#
#
#
# Elastic Compliance Matrix: (Units=1/GPa)
#
#
# Indices 1 2 3 4 5 6 
#
# 1 0.020595 -0.013126 -0.003096 0.000000 -0.000173 0.000000
# 2 -0.013126 0.031867 0.000482 0.000000 -0.001857 0.000000
# 3 -0.003096 0.000482 0.010457 0.000000 -0.000724 0.000000
# 4 0.000000 0.000000 0.000000 0.030245 0.000000 0.004957
# 5 -0.000173 -0.001857 -0.000724 0.000000 0.036700 0.000000
# 6 0.000000 0.000000 0.000000 0.004957 0.000000 0.057636
#
#
# Mechanical properties :
#
#
# Convention : Reuss Voigt Hill
#
# Bulk Modulus (GPa) = 31.80643 35.92963 33.86803
# Shear Modulus (GPa) = 21.79032 26.34551 24.06791
#
# Velocity S-wave (km/s) = 3.20021 3.51885 3.36330
# Velocity P-wave (km/s) = 5.34827 5.77897 5.56779
#
# Compressibility (1/GPa) = 0.03144018
#
# Stress axis : x y z
#
# Youngs Moduli (GPa) = 48.55583 31.38008 95.63169
#
# Poissons Ratio (x) = 0.41189 0.29607
# Poissons Ratio (y) = 0.63733 -0.04612
# Poissons Ratio (z) = 0.15033 -0.01513
#
# Static dielectric constant tensor:
#      x y z
#    x 3.802630 0.000000 0.194210 
#    y 0.000000 3.346990 0.000000 
#    z 0.194210 0.000000 4.402270 
# 
# 
# High freq. dielectric constant tensor:
#      x y z
#    x 1.827910 0.000000 0.005380 
#    y 0.000000 1.789420 0.000000 
#    z 0.005380 0.000000 1.865140 
# 
# From -- ./inp_files/30030.got.cif
#   From: 2010.03.12/outbox.cif.g09.slc.cpg/sg14_16_cif.got.tgz:30030.got - 2010.03.31 13:35:05.
