data_PCOD8125989
_publ_section_title
;
Structure prediction by ZEFSAII (Michael W. Deem and Ramdas Pophale) SiO2 
 PCOD8125989
Probable space group: P 21/C
;
_chemical_formula_sum "Si O2"
_cell_formula_units_Z 32
_cell_length_a 26.191009
_cell_length_b 11.420443
_cell_length_c 25.977961
_cell_angle_alpha 90.000000
_cell_angle_beta 168.976768
_cell_angle_gamma 90.000000
_cell_volume 1485.744186
_symmetry_space_group_name_H-M "P 21/C"
_symmetry_group_IT_number 14
_symmetry_cell_setting 'monoclinic'
loop_
_space_group_symop_operation_xyz
x,y,z
-x,1/2+y,1/2-z
-x,-y,-z
x,1/2-y,1/2+z
loop_
_atom_site_type_symbol
_atom_site_label
_atom_site_fract_x
_atom_site_fract_y
_atom_site_fract_z
Si Si1 0.377389 0.099404 0.809803
Si Si2 0.151656 0.565376 0.957900
Si Si3 0.090547 0.325027 0.381798
Si Si4 0.426964 0.340858 0.471807
Si Si5 0.118683 0.765912 0.516226
Si Si6 0.930202 0.079648 0.112456
Si Si7 0.423471 0.372728 0.170599
Si Si8 0.115738 0.869215 0.751008
O O1 0.088216 0.114409 0.498276
O O2 0.443029 0.966008 0.887557
O O3 0.378250 0.175357 0.862937
O O4 0.590759 0.147743 0.980870
O O5 0.398509 0.478907 0.187428
O O6 0.238616 0.649005 0.090589
O O7 0.907729 0.480853 0.734309
O O8 0.061102 0.644292 0.820868
O O9 0.157531 0.444000 0.479053
O O10 0.357208 0.252493 0.631080
O O11 0.914077 0.247532 0.245192
O O12 0.149912 0.321946 0.227025
O O13 0.652310 0.249338 0.713991
O O14 0.067274 0.637906 0.441339
O O15 0.222714 0.096848 0.425435
O O16 0.721573 0.141039 0.944841
#
# Coordination Sequence:
#
# PCOD8125989 Si02
#       8
#     4   4   4   4   4   4   4   4
#     4  11  22  42  64  96 119 158 204 260 322 360
#     4  10  21  37  58  89 126 158 201 239 299 362
#     4  10  24  41  59  88 129 169 206 244 289 367
#     4  11  23  39  65  92 127 149 201 270 320 367
#     4  12  22  38  61  93 123 164 196 256 311 373
#     4  11  24  38  58  84 123 163 207 242 297 361
#     4  10  23  37  57  83 118 170 201 248 285 352
#     4  11  23  40  65  91 125 164 203 248 303 368
#
# _framework density 21.538029000000002
#
# number of rings (size 3 to 8) (size 9 to 14) (size 15 to 20)
#    0.000    1.250    3.750    1.500    1.750   11.000 
#    0.000    0.000    0.000    4.500    0.000    0.000 
#    0.000    0.000    0.000    0.000    0.000    0.000 
#
# Total GULP energy -396803.254022 kJ/mol
# GULP energy per Si atom -12400.101688 kJ/mol
# Density = 2.148901 g / cm^3
# Si number density = 21.538029 Si / 1000 Ang^3
#
#
#
# Elastic Constant Matrix: (Units=GPa)
#
#
# Indices 1 2 3 4 5 6 
#
# 1 80.4938 21.0458 9.3068 0.0000 -5.7733 0.0000
# 2 21.0458 93.5142 -7.2151 0.0000 -7.9079 0.0000
# 3 9.3068 -7.2151 60.1125 0.0000 -12.1252 0.0000
# 4 0.0000 0.0000 0.0000 13.4440 0.0000 -2.5938
# 5 -5.7733 -7.9079 -12.1252 0.0000 29.9100 0.0000
# 6 0.0000 0.0000 0.0000 -2.5938 0.0000 23.7738
#
#
#
# Elastic Compliance Matrix: (Units=1/GPa)
#
#
# Indices 1 2 3 4 5 6 
#
# 1 0.013578 -0.003162 -0.002311 0.000000 0.000848 0.000000
# 2 -0.003162 0.011915 0.002649 0.000000 0.003614 0.000000
# 3 -0.002311 0.002649 0.018909 0.000000 0.007920 0.000000
# 4 0.000000 0.000000 0.000000 0.075982 0.000000 0.008290
# 5 0.000848 0.003614 0.007920 0.000000 0.037763 0.000000
# 6 0.000000 0.000000 0.000000 0.008290 0.000000 0.042968
#
#
# Mechanical properties :
#
#
# Convention : Reuss Voigt Hill
#
# Bulk Modulus (GPa) = 25.80451 31.15508 28.47980
# Shear Modulus (GPa) = 22.76026 27.49110 25.12568
#
# Velocity S-wave (km/s) = 3.25429 3.57655 3.41922
# Velocity P-wave (km/s) = 5.11150 5.61713 5.37027
#
# Compressibility (1/GPa) = 0.03875291
#
# Stress axis : x y z
#
# Youngs Moduli (GPa) = 73.64769 83.92635 52.88610
#
# Poissons Ratio (x) = 0.26541 0.12221
# Poissons Ratio (y) = 0.23290 -0.14008
# Poissons Ratio (z) = 0.17018 -0.22229
#
# Static dielectric constant tensor:
#      x y z
#    x 4.095710 0.000000 -0.084520 
#    y 0.000000 3.999500 0.000000 
#    z -0.084520 0.000000 3.745170 
# 
# 
# High freq. dielectric constant tensor:
#      x y z
#    x 1.841780 0.000000 -0.000720 
#    y 0.000000 1.829800 0.000000 
#    z -0.000720 0.000000 1.848390 
# 
# From -- ./inp_files/78342.got.cif
#   From: 2010.03.12/outbox.cif.g09.slc.cpg/sg14_40_cif.got.tgz:78342.got - 2010.03.31 13:35:05.
