data_PCOD8125012
_publ_section_title
;
Structure prediction by ZEFSAII (Michael W. Deem and Ramdas Pophale) SiO2 
 PCOD8125012
Probable space group: P 21/C
;
_chemical_formula_sum "Si O2"
_cell_formula_units_Z 32
_cell_length_a 12.598122
_cell_length_b 17.197150
_cell_length_c 9.690031
_cell_angle_alpha 90.000000
_cell_angle_beta 53.049192
_cell_angle_gamma 90.000000
_cell_volume 1677.709633
_symmetry_space_group_name_H-M "P 21/C"
_symmetry_group_IT_number 14
_symmetry_cell_setting 'monoclinic'
loop_
_space_group_symop_operation_xyz
x,y,z
-x,1/2+y,1/2-z
-x,-y,-z
x,1/2-y,1/2+z
loop_
_atom_site_type_symbol
_atom_site_label
_atom_site_fract_x
_atom_site_fract_y
_atom_site_fract_z
Si Si1 0.638438 0.471018 0.729654
Si Si2 0.248797 0.691422 0.311113
Si Si3 0.957165 0.649297 0.094323
Si Si4 0.127517 0.443138 0.600186
Si Si5 0.760079 0.173372 0.493846
Si Si6 0.947451 0.674175 0.581085
Si Si7 0.347825 0.990345 0.465575
Si Si8 0.084036 0.430364 0.150161
O O1 0.654712 0.378772 0.727403
O O2 0.739183 0.510856 0.543648
O O3 0.488572 0.483352 0.793685
O O4 0.660393 0.507404 0.863938
O O5 0.236699 0.712488 0.159554
O O6 0.303599 0.766931 0.347572
O O7 0.104666 0.668717 0.480149
O O8 0.852086 0.600513 0.268976
O O9 0.902757 0.735605 0.101982
O O10 0.091497 0.650495 0.078438
O O11 0.987526 0.603385 0.929381
O O12 0.096770 0.375831 0.514789
O O13 0.004981 0.503802 0.705518
O O14 0.664181 0.099950 0.561933
O O15 0.884408 0.638953 0.768519
O O16 0.226018 0.035834 0.491105
#
# Coordination Sequence:
#
# PCOD8125012 Si02
#       8
#     4   4   4   4   4   4   4   4
#     4  10  21  38  65  85 117 157 211 238 294 360
#     4  10  20  36  58  91 116 157 199 246 297 361
#     4  11  24  36  56  94 128 154 188 259 316 347
#     4  12  20  38  62  92 113 156 208 247 297 359
#     4  10  21  36  60  86 123 153 199 244 302 361
#     4  11  21  36  59  88 119 159 200 247 299 365
#     4  10  21  40  61  89 115 162 198 251 294 353
#     4  12  22  37  63  89 120 153 201 255 298 351
#
# _framework density 19.073620999999999
#
# number of rings (size 3 to 8) (size 9 to 14) (size 15 to 20)
#    0.000    1.250    5.000    2.250    5.250    0.000 
#    0.000    3.125    0.000    0.000    0.000    0.000 
#    0.000    0.000    0.000    0.000    0.000    0.000 
#
# Total GULP energy -396827.342501 kJ/mol
# GULP energy per Si atom -12400.854453 kJ/mol
# Density = 1.903021 g / cm^3
# Si number density = 19.073621 Si / 1000 Ang^3
#
#
#
# Elastic Constant Matrix: (Units=GPa)
#
#
# Indices 1 2 3 4 5 6 
#
# 1 69.5462 51.5899 51.7266 0.0000 -8.6696 0.0000
# 2 51.5899 98.4550 51.4074 0.0000 7.9632 0.0000
# 3 51.7266 51.4074 90.7289 0.0000 6.9617 0.0000
# 4 0.0000 0.0000 0.0000 37.7668 0.0000 6.4029
# 5 -8.6696 7.9632 6.9617 0.0000 35.0490 0.0000
# 6 0.0000 0.0000 0.0000 6.4029 0.0000 23.3570
#
#
#
# Elastic Compliance Matrix: (Units=1/GPa)
#
#
# Indices 1 2 3 4 5 6 
#
# 1 0.036719 -0.012666 -0.014902 0.000000 0.014920 0.000000
# 2 -0.012666 0.018891 -0.002958 0.000000 -0.006838 0.000000
# 3 -0.014902 -0.002958 0.021757 0.000000 -0.007336 0.000000
# 4 0.000000 0.000000 0.000000 0.027769 0.000000 -0.007612
# 5 0.014920 -0.006838 -0.007336 0.000000 0.035233 0.000000
# 6 0.000000 0.000000 0.000000 -0.007612 0.000000 0.044900
#
#
# Mechanical properties :
#
#
# Convention : Reuss Voigt Hill
#
# Bulk Modulus (GPa) = 61.29691 63.13090 62.21391
# Shear Modulus (GPa) = 19.86017 26.16831 23.01424
#
# Velocity S-wave (km/s) = 3.23032 3.70802 3.47738
# Velocity P-wave (km/s) = 6.79118 7.17656 6.98652
#
# Compressibility (1/GPa) = 0.01631404
#
# Stress axis : x y z
#
# Youngs Moduli (GPa) = 27.23411 52.93392 45.96225
#
# Poissons Ratio (x) = 0.67046 0.68495
# Poissons Ratio (y) = 0.34495 0.13596
# Poissons Ratio (z) = 0.40585 0.15659
#
# Static dielectric constant tensor:
#      x y z
#    x 3.237920 0.000000 0.123230 
#    y 0.000000 3.735140 0.000000 
#    z 0.123230 0.000000 3.515010 
# 
# 
# High freq. dielectric constant tensor:
#      x y z
#    x 1.711760 0.000000 0.016230 
#    y 0.000000 1.755920 0.000000 
#    z 0.016230 0.000000 1.734720 
# 
# From -- ./inp_files/13873.got.cif
#   From: 2010.03.12/outbox.cif.g09.slc.cpg/sg14_7_cif.got.tgz:13873.got - 2010.03.31 13:35:05.
