data_PCOD8125518
_publ_section_title
;
Structure prediction by ZEFSAII (Michael W. Deem and Ramdas Pophale) SiO2 
 PCOD8125518
Probable space group: P 21/C
;
_chemical_formula_sum "Si O2"
_cell_formula_units_Z 32
_cell_length_a 8.516662
_cell_length_b 8.887813
_cell_length_c 23.330832
_cell_angle_alpha 90.000000
_cell_angle_beta 128.052713
_cell_angle_gamma 90.000000
_cell_volume 1390.638427
_symmetry_space_group_name_H-M "P 21/C"
_symmetry_group_IT_number 14
_symmetry_cell_setting 'monoclinic'
loop_
_space_group_symop_operation_xyz
x,y,z
-x,1/2+y,1/2-z
-x,-y,-z
x,1/2-y,1/2+z
loop_
_atom_site_type_symbol
_atom_site_label
_atom_site_fract_x
_atom_site_fract_y
_atom_site_fract_z
Si Si1 0.221486 0.495753 0.967860
Si Si2 0.620897 0.965342 0.613909
Si Si3 0.216109 0.915571 0.935177
Si Si4 0.642525 0.192085 0.843239
Si Si5 0.507528 0.027427 0.708410
Si Si6 0.884543 0.792586 0.394728
Si Si7 0.574356 0.859095 0.093555
Si Si8 0.909915 0.692590 0.523611
O O1 0.273610 0.553680 0.914580
O O2 0.011165 0.560446 0.940766
O O3 0.214750 0.314886 0.968120
O O4 0.383868 0.551821 0.049807
O O5 0.702982 0.794054 0.631593
O O6 0.635085 0.051580 0.678072
O O7 0.025243 0.804403 0.882201
O O8 0.278908 0.002389 0.890848
O O9 0.407778 0.831378 0.005899
O O10 0.153598 0.030519 0.970322
O O11 0.653788 0.072504 0.793304
O O12 0.553194 0.352597 0.802450
O O13 0.517712 0.108219 0.864767
O O14 0.858886 0.224582 0.916178
O O15 0.323114 0.144313 0.676311
O O16 0.845668 0.696947 0.442869
#
# Coordination Sequence:
#
# PCOD8125518 Si02
#       8
#     4   4   4   4   4   4   4   4
#     4  11  20  37  66  96 126 160 215 268 324 380
#     4  10  20  39  64  96 127 168 210 263 326 388
#     4  11  23  37  64 100 133 164 205 274 329 378
#     4  11  25  44  65  91 131 175 219 269 325 394
#     4  11  25  43  66  91 130 175 220 267 329 396
#     4  12  22  40  64 101 126 166 218 268 324 385
#     4  10  21  40  61  95 135 164 206 264 332 380
#     4  12  22  39  66  99 127 166 221 272 318 384
#
# _framework density 23.011015
#
# number of rings (size 3 to 8) (size 9 to 14) (size 15 to 20)
#    0.000    1.000    6.250    1.500    1.750    0.000 
#    2.250    1.250    0.000    0.000    0.000    0.000 
#    0.000    0.000    0.000    0.000    0.000    0.000 
#
# Total GULP energy -396600.475152 kJ/mol
# GULP energy per Si atom -12393.764849 kJ/mol
# Density = 2.295864 g / cm^3
# Si number density = 23.011015 Si / 1000 Ang^3
#
#
#
# Elastic Constant Matrix: (Units=GPa)
#
#
# Indices 1 2 3 4 5 6 
#
# 1 99.7990 27.5135 22.6788 0.0000 -22.5057 0.0000
# 2 27.5135 86.9771 10.8599 0.0000 -3.0562 0.0000
# 3 22.6788 10.8599 49.4862 0.0000 -22.2810 0.0000
# 4 0.0000 0.0000 0.0000 31.6521 0.0000 1.0178
# 5 -22.5057 -3.0562 -22.2810 0.0000 33.8055 0.0000
# 6 0.0000 0.0000 0.0000 1.0178 0.0000 49.5375
#
#
#
# Elastic Compliance Matrix: (Units=1/GPa)
#
#
# Indices 1 2 3 4 5 6 
#
# 1 0.013069 -0.003634 -0.002023 0.000000 0.007039 0.000000
# 2 -0.003634 0.012852 -0.002447 0.000000 -0.002871 0.000000
# 3 -0.002023 -0.002447 0.029813 0.000000 0.018082 0.000000
# 4 0.000000 0.000000 0.000000 0.031614 0.000000 -0.000650
# 5 0.007039 -0.002871 0.018082 0.000000 0.045925 0.000000
# 6 0.000000 0.000000 0.000000 -0.000650 0.000000 0.020200
#
#
# Mechanical properties :
#
#
# Convention : Reuss Voigt Hill
#
# Bulk Modulus (GPa) = 25.30025 39.81852 32.55938
# Shear Modulus (GPa) = 27.34390 34.67971 31.01181
#
# Velocity S-wave (km/s) = 3.45091 3.88634 3.67508
# Velocity P-wave (km/s) = 5.18624 6.12208 5.67349
#
# Compressibility (1/GPa) = 0.03952531
#
# Stress axis : x y z
#
# Youngs Moduli (GPa) = 76.51672 77.81131 33.54266
#
# Poissons Ratio (x) = 0.28279 0.06784
# Poissons Ratio (y) = 0.27808 0.08209
# Poissons Ratio (z) = 0.15476 0.19043
#
# Static dielectric constant tensor:
#      x y z
#    x 4.253200 0.000000 -0.068930 
#    y 0.000000 4.192290 0.000000 
#    z -0.068930 0.000000 3.660630 
# 
# 
# High freq. dielectric constant tensor:
#      x y z
#    x 1.915800 0.000000 -0.010020 
#    y 0.000000 1.921540 0.000000 
#    z -0.010020 0.000000 1.859200 
# 
# From -- ./inp_files/76378.got.cif
#   From: 2010.03.12/outbox.cif.g09.slc.cpg/sg14_39_cif.got.tgz:76378.got - 2010.03.31 13:35:05.
