data_PCOD8125342
_publ_section_title
;
Structure prediction by ZEFSAII (Michael W. Deem and Ramdas Pophale) SiO2 
 PCOD8125342
Probable space group: P 21/C
;
_chemical_formula_sum "Si O2"
_cell_formula_units_Z 28
_cell_length_a 18.319690
_cell_length_b 9.891774
_cell_length_c 15.068600
_cell_angle_alpha 90.000000
_cell_angle_beta 30.878693
_cell_angle_gamma 90.000000
_cell_volume 1401.427315
_symmetry_space_group_name_H-M "P 21/C"
_symmetry_group_IT_number 14
_symmetry_cell_setting 'monoclinic'
loop_
_space_group_symop_operation_xyz
x,y,z
-x,1/2+y,1/2-z
-x,-y,-z
x,1/2-y,1/2+z
loop_
_atom_site_type_symbol
_atom_site_label
_atom_site_fract_x
_atom_site_fract_y
_atom_site_fract_z
Si Si1 0.361914 0.574005 0.491664
Si Si2 0.317506 0.078125 0.358131
Si Si3 0.848948 0.452466 0.125318
Si Si4 0.784926 0.629033 0.485142
Si Si5 0.959818 0.254666 0.881094
Si Si6 0.238289 0.666746 0.057571
Si Si7 0.004410 0.029551 0.098092
O O1 0.526076 0.552444 0.345224
O O2 0.266126 0.542968 0.677011
O O3 0.319730 0.478776 0.452154
O O4 0.355022 0.733842 0.476788
O O5 0.202987 0.048760 0.400820
O O6 0.296775 0.229330 0.416751
O O7 0.302896 0.972709 0.454407
O O8 0.882047 0.303057 0.052678
O O9 0.000000 0.500000 0.000000
O O10 0.843113 0.580117 0.521407
O O11 0.920698 0.641061 0.277955
O O12 0.834156 0.241825 0.941846
O O13 0.034268 0.110449 0.812897
O O14 0.118836 0.637084 0.255819
O O15 0.000000 0.000000 0.000000
#
# Coordination Sequence:
#
# PCOD8125342 Si02
#       7
#     4   4   4   4   4   4   4
#     4  12  23  43  66  93 129 169 209 262 316 380
#     4  11  25  43  63  94 131 169 209 256 319 385
#     4  11  24  39  67  97 125 163 214 262 314 374
#     4  11  23  39  67  90 127 170 207 258 317 372
#     4  10  20  38  61  96 120 160 211 262 312 360
#     4  10  22  39  65  88 127 164 212 258 313 378
#     4  11  22  36  63  94 127 157 210 270 311 358
#
# _framework density 19.97963
#
# number of rings (size 3 to 8) (size 9 to 14) (size 15 to 20)
#    0.000    1.143    4.286    2.143    6.000    0.000 
#    0.000    0.000    0.000    2.571    0.000    0.000 
#    0.000    0.000    0.000    0.000    0.000    0.000 
#
# Total GULP energy -347086.379606 kJ/mol
# GULP energy per Si atom -12395.942129 kJ/mol
# Density = 1.993416 g / cm^3
# Si number density = 19.979630 Si / 1000 Ang^3
#
#
#
# Elastic Constant Matrix: (Units=GPa)
#
#
# Indices 1 2 3 4 5 6 
#
# 1 71.3142 30.6005 28.9974 0.0000 -4.3887 0.0000
# 2 30.6005 105.9238 17.0852 0.0000 5.3839 0.0000
# 3 28.9974 17.0852 90.7627 0.0000 -4.7629 0.0000
# 4 0.0000 0.0000 0.0000 24.6401 0.0000 -4.2029
# 5 -4.3887 5.3839 -4.7629 0.0000 33.9906 0.0000
# 6 0.0000 0.0000 0.0000 -4.2029 0.0000 16.0587
#
#
#
# Elastic Compliance Matrix: (Units=1/GPa)
#
#
# Indices 1 2 3 4 5 6 
#
# 1 0.018079 -0.004571 -0.004790 0.000000 0.002387 0.000000
# 2 -0.004571 0.011004 -0.000739 0.000000 -0.002437 0.000000
# 3 -0.004790 -0.000739 0.012755 0.000000 0.001286 0.000000
# 4 0.000000 0.000000 0.000000 0.042481 0.000000 0.011118
# 5 0.002387 -0.002437 0.001286 0.000000 0.030294 0.000000
# 6 0.000000 0.000000 0.000000 0.011118 0.000000 0.065182
#
#
# Mechanical properties :
#
#
# Convention : Reuss Voigt Hill
#
# Bulk Modulus (GPa) = 46.21717 46.81856 46.51787
# Shear Modulus (GPa) = 24.13042 27.69238 25.91140
#
# Velocity S-wave (km/s) = 3.47904 3.72698 3.60514
# Velocity P-wave (km/s) = 6.27062 6.48109 6.37672
#
# Compressibility (1/GPa) = 0.02163698
#
# Stress axis : x y z
#
# Youngs Moduli (GPa) = 55.31383 90.87239 78.40270
#
# Poissons Ratio (x) = 0.41542 0.37556
# Poissons Ratio (y) = 0.25287 0.05793
# Poissons Ratio (z) = 0.26496 0.06714
#
# Static dielectric constant tensor:
#      x y z
#    x 3.563770 0.000000 -0.065630 
#    y 0.000000 3.562290 0.000000 
#    z -0.065630 0.000000 3.376560 
# 
# 
# High freq. dielectric constant tensor:
#      x y z
#    x 1.777730 0.000000 0.002500 
#    y 0.000000 1.789130 0.000000 
#    z 0.002500 0.000000 1.769540 
# 
# From -- ./inp_files/50201.got.cif
#   From: 2010.03.12/outbox.cif.g09.slc.cpg/sg14_26_cif.got.tgz:50201.got - 2010.03.31 13:35:05.
