data_PCOD8125239
_publ_section_title
;
Structure prediction by ZEFSAII (Michael W. Deem and Ramdas Pophale) SiO2 
 PCOD8125239
Probable space group: P 21/C
;
_chemical_formula_sum "Si O2"
_cell_formula_units_Z 32
_cell_length_a 12.151066
_cell_length_b 8.958168
_cell_length_c 14.596783
_cell_angle_alpha 90.000000
_cell_angle_beta 67.894725
_cell_angle_gamma 90.000000
_cell_volume 1472.086536
_symmetry_space_group_name_H-M "P 21/C"
_symmetry_group_IT_number 14
_symmetry_cell_setting 'monoclinic'
loop_
_space_group_symop_operation_xyz
x,y,z
-x,1/2+y,1/2-z
-x,-y,-z
x,1/2-y,1/2+z
loop_
_atom_site_type_symbol
_atom_site_label
_atom_site_fract_x
_atom_site_fract_y
_atom_site_fract_z
Si Si1 0.389091 0.924304 0.141768
Si Si2 0.207847 0.983842 0.344682
Si Si3 0.135947 0.828691 0.931925
Si Si4 0.106683 0.992418 0.770689
Si Si5 0.376188 0.586808 0.435882
Si Si6 0.397425 0.932540 0.427718
Si Si7 0.367768 0.576135 0.146865
Si Si8 0.991871 0.704219 0.147952
O O1 0.287154 0.008703 0.229880
O O2 0.379622 0.749885 0.163501
O O3 0.518530 0.981527 0.135109
O O4 0.360001 0.961362 0.046161
O O5 0.159468 0.815734 0.361846
O O6 0.285933 0.004829 0.410982
O O7 0.104058 0.105960 0.376316
O O8 0.252348 0.928239 0.920601
O O9 0.059349 0.930929 0.885108
O O10 0.076923 0.777239 0.045234
O O11 0.065307 0.163019 0.774336
O O12 0.249318 0.986748 0.730014
O O13 0.063153 0.898809 0.696696
O O14 0.414805 0.757004 0.411641
O O15 0.370719 0.972573 0.540390
O O16 0.515821 0.001537 0.345996
#
# Coordination Sequence:
#
# PCOD8125239 Si02
#       8
#     4   4   4   4   4   4   4   4
#     4  10  20  37  63  97 132 176 212 267 340 395
#     4  11  23  40  69  98 132 181 220 280 338 406
#     4  11  24  46  70  97 136 182 229 286 338 396
#     4  12  26  45  70  97 132 184 223 292 332 406
#     4   9  21  38  64  95 137 171 213 279 329 403
#     4   9  21  38  64  96 136 171 216 273 336 403
#     4  10  21  42  63  96 136 173 218 271 338 401
#     4  12  28  46  69 100 136 178 240 277 339 407
#
# _framework density 21.737853000000001
#
# number of rings (size 3 to 8) (size 9 to 14) (size 15 to 20)
#    0.000    1.500    1.250    3.750    5.250    2.000 
#    0.000    0.000    0.000    0.000    0.000    0.000 
#    0.000    0.000    0.000    0.000    0.000    0.000 
#
# Total GULP energy -396691.416527 kJ/mol
# GULP energy per Si atom -12396.606766 kJ/mol
# Density = 2.168838 g / cm^3
# Si number density = 21.737853 Si / 1000 Ang^3
#
#
#
# Elastic Constant Matrix: (Units=GPa)
#
#
# Indices 1 2 3 4 5 6 
#
# 1 100.6059 37.4489 23.0485 0.0000 0.0962 0.0000
# 2 37.4489 49.9361 19.3774 0.0000 1.4147 0.0000
# 3 23.0485 19.3774 81.9452 0.0000 0.2470 0.0000
# 4 0.0000 0.0000 0.0000 25.6504 0.0000 1.7668
# 5 0.0962 1.4147 0.2470 0.0000 31.7190 0.0000
# 6 0.0000 0.0000 0.0000 1.7668 0.0000 47.4206
#
#
#
# Elastic Compliance Matrix: (Units=1/GPa)
#
#
# Indices 1 2 3 4 5 6 
#
# 1 0.013982 -0.009877 -0.001598 0.000000 0.000411 0.000000
# 2 -0.009877 0.029054 -0.004089 0.000000 -0.001234 0.000000
# 3 -0.001598 -0.004089 0.013619 0.000000 0.000081 0.000000
# 4 0.000000 0.000000 0.000000 0.039086 0.000000 -0.001456
# 5 0.000411 -0.001234 0.000081 0.000000 0.031580 0.000000
# 6 0.000000 0.000000 0.000000 -0.001456 0.000000 0.021142
#
#
# Mechanical properties :
#
#
# Convention : Reuss Voigt Hill
#
# Bulk Modulus (GPa) = 39.17300 43.58187 41.37744
# Shear Modulus (GPa) = 26.58141 31.13216 28.85678
#
# Velocity S-wave (km/s) = 3.50067 3.78850 3.64743
# Velocity P-wave (km/s) = 5.86510 6.26333 6.06748
#
# Compressibility (1/GPa) = 0.02552779
#
# Stress axis : x y z
#
# Youngs Moduli (GPa) = 71.51981 34.41832 73.42456
#
# Poissons Ratio (x) = 0.33995 0.11736
# Poissons Ratio (y) = 0.70641 0.30020
# Poissons Ratio (z) = 0.11431 0.14072
#
# Static dielectric constant tensor:
#      x y z
#    x 4.094380 0.000000 -0.008990 
#    y 0.000000 3.870740 0.000000 
#    z -0.008990 0.000000 4.002040 
# 
# 
# High freq. dielectric constant tensor:
#      x y z
#    x 1.857430 0.000000 0.004370 
#    y 0.000000 1.843390 0.000000 
#    z 0.004370 0.000000 1.866160 
# 
# From -- ./inp_files/43713.got.cif
#   From: 2010.03.12/outbox.cif.g09.slc.cpg/sg14_22_cif.got.tgz:43713.got - 2010.03.31 13:35:05.
