data_PCOD8125271
_publ_section_title
;
Structure prediction by ZEFSAII (Michael W. Deem and Ramdas Pophale) SiO2 
 PCOD8125271
Probable space group: P 21/C
;
_chemical_formula_sum "Si O2"
_cell_formula_units_Z 32
_cell_length_a 19.966327
_cell_length_b 8.847127
_cell_length_c 13.606658
_cell_angle_alpha 90.000000
_cell_angle_beta 138.648113
_cell_angle_gamma 90.000000
_cell_volume 1587.977026
_symmetry_space_group_name_H-M "P 21/C"
_symmetry_group_IT_number 14
_symmetry_cell_setting 'monoclinic'
loop_
_space_group_symop_operation_xyz
x,y,z
-x,1/2+y,1/2-z
-x,-y,-z
x,1/2-y,1/2+z
loop_
_atom_site_type_symbol
_atom_site_label
_atom_site_fract_x
_atom_site_fract_y
_atom_site_fract_z
Si Si1 0.389256 0.400002 0.120566
Si Si2 0.931415 0.659842 0.222458
Si Si3 0.961172 0.338967 0.315410
Si Si4 0.243814 0.600249 0.828269
Si Si5 0.240859 0.101791 0.619109
Si Si6 0.467043 0.100666 0.104357
Si Si7 0.355654 0.869051 0.850526
Si Si8 0.142227 0.311235 0.655220
O O1 0.339661 0.341502 0.167932
O O2 0.418008 0.254462 0.089442
O O3 0.484239 0.507086 0.251524
O O4 0.306845 0.501323 0.974305
O O5 0.984460 0.516743 0.331229
O O6 0.871958 0.743254 0.246593
O O7 0.015123 0.764300 0.264079
O O8 0.855994 0.598139 0.056793
O O9 0.843556 0.303359 0.211544
O O10 0.035572 0.282726 0.482936
O O11 0.320363 0.708983 0.855171
O O12 0.182193 0.484120 0.690323
O O13 0.227831 0.210865 0.697967
O O14 0.262321 0.933496 0.683459
O O15 0.547207 0.156218 0.111249
O O16 0.382675 0.990606 0.964762
#
# Coordination Sequence:
#
# PCOD8125271 Si02
#       8
#     4   4   4   4   4   4   4   4
#     4  11  21  40  64  84 124 157 201 251 304 365
#     4  10  20  38  58  85 123 160 199 246 296 349
#     4  10  22  38  58  89 123 161 199 248 294 352
#     4  11  21  39  61  88 122 159 201 250 297 360
#     4  10  21  38  62  87 120 160 201 244 296 357
#     4  10  23  41  60  89 122 156 196 258 308 357
#     4  10  23  39  60  90 121 154 202 254 304 361
#     4  10  21  39  61  88 124 163 201 244 299 349
#
# _framework density 20.151425
#
# number of rings (size 3 to 8) (size 9 to 14) (size 15 to 20)
#    0.000    1.750    2.500    3.000    0.000    4.500 
#    2.250    2.500    0.000    0.000    0.000    0.000 
#    0.000    0.000    0.000    0.000    0.000    0.000 
#
# Total GULP energy -396684.188936 kJ/mol
# GULP energy per Si atom -12396.380904 kJ/mol
# Density = 2.010556 g / cm^3
# Si number density = 20.151425 Si / 1000 Ang^3
#
#
#
# Elastic Constant Matrix: (Units=GPa)
#
#
# Indices 1 2 3 4 5 6 
#
# 1 83.9203 33.8868 18.4286 0.0000 -1.1183 0.0000
# 2 33.8868 52.8983 12.7537 0.0000 4.9868 0.0000
# 3 18.4286 12.7537 81.5565 0.0000 -1.0171 0.0000
# 4 0.0000 0.0000 0.0000 22.8169 0.0000 -6.1802
# 5 -1.1183 4.9868 -1.0171 0.0000 26.5147 0.0000
# 6 0.0000 0.0000 0.0000 -6.1802 0.0000 41.1062
#
#
#
# Elastic Compliance Matrix: (Units=1/GPa)
#
#
# Indices 1 2 3 4 5 6 
#
# 1 0.016598 -0.010369 -0.002097 0.000000 0.002570 0.000000
# 2 -0.010369 0.026516 -0.001872 0.000000 -0.005496 0.000000
# 3 -0.002097 -0.001872 0.013038 0.000000 0.000764 0.000000
# 4 0.000000 0.000000 0.000000 0.045688 0.000000 0.006869
# 5 0.002570 -0.005496 0.000764 0.000000 0.038886 0.000000
# 6 0.000000 0.000000 0.000000 0.006869 0.000000 0.025360
#
#
# Mechanical properties :
#
#
# Convention : Reuss Voigt Hill
#
# Bulk Modulus (GPa) = 36.39654 38.72370 37.56012
# Shear Modulus (GPa) = 24.51935 28.30797 26.41366
#
# Velocity S-wave (km/s) = 3.49199 3.75208 3.62437
# Velocity P-wave (km/s) = 5.86168 6.16676 6.01616
#
# Compressibility (1/GPa) = 0.02747514
#
# Stress axis : x y z
#
# Youngs Moduli (GPa) = 60.24859 37.71264 76.70163
#
# Poissons Ratio (x) = 0.39106 0.16083
# Poissons Ratio (y) = 0.62474 0.14359
# Poissons Ratio (z) = 0.12633 0.07060
#
# Static dielectric constant tensor:
#      x y z
#    x 3.888520 0.000000 -0.085620 
#    y 0.000000 3.525650 0.000000 
#    z -0.085620 0.000000 3.715580 
# 
# 
# High freq. dielectric constant tensor:
#      x y z
#    x 1.792200 0.000000 -0.003520 
#    y 0.000000 1.767010 0.000000 
#    z -0.003520 0.000000 1.796270 
# 
# From -- ./inp_files/50096.got.cif
#   From: 2010.03.12/outbox.cif.g09.slc.cpg/sg14_26_cif.got.tgz:50096.got - 2010.03.31 13:35:05.
