data_PCOD8125396
_publ_section_title
;
Structure prediction by ZEFSAII (Michael W. Deem and Ramdas Pophale) SiO2 
 PCOD8125396
Probable space group: P 21/C
;
_chemical_formula_sum "Si O2"
_cell_formula_units_Z 32
_cell_length_a 8.991496
_cell_length_b 20.177434
_cell_length_c 14.744116
_cell_angle_alpha 90.000000
_cell_angle_beta 146.070829
_cell_angle_gamma 90.000000
_cell_volume 1493.073782
_symmetry_space_group_name_H-M "P 21/C"
_symmetry_group_IT_number 14
_symmetry_cell_setting 'monoclinic'
loop_
_space_group_symop_operation_xyz
x,y,z
-x,1/2+y,1/2-z
-x,-y,-z
x,1/2-y,1/2+z
loop_
_atom_site_type_symbol
_atom_site_label
_atom_site_fract_x
_atom_site_fract_y
_atom_site_fract_z
Si Si1 0.211298 0.156556 0.451021
Si Si2 0.425235 0.825513 0.701271
Si Si3 0.667217 0.388033 0.302043
Si Si4 0.856180 0.482311 0.253249
Si Si5 0.321454 0.581600 0.314670
Si Si6 0.470188 0.897649 0.538751
Si Si7 0.035756 0.233425 0.978355
Si Si8 0.410907 0.547348 0.552586
O O1 0.379026 0.136303 0.624647
O O2 0.404747 0.160522 0.461491
O O3 0.987215 0.100049 0.327627
O O4 0.092278 0.229725 0.410603
O O5 0.450556 0.869517 0.805532
O O6 0.396763 0.872300 0.600312
O O7 0.161480 0.780472 0.564143
O O8 0.687990 0.779538 0.828194
O O9 0.753003 0.456021 0.297928
O O10 0.893700 0.335856 0.389079
O O11 0.650736 0.399408 0.401244
O O12 0.704355 0.549865 0.160147
O O13 0.167613 0.496279 0.412667
O O14 0.790552 0.428854 0.140869
O O15 0.463200 0.588106 0.485798
O O16 0.348557 0.503581 0.299195
#
# Coordination Sequence:
#
# PCOD8125396 Si02
#       8
#     4   4   4   4   4   4   4   4
#     4  10  22  44  62  93 133 176 217 275 325 398
#     4  11  23  45  66  95 130 182 219 278 318 399
#     4  11  22  39  68  93 134 173 221 276 329 391
#     4  10  20  38  66 100 128 166 216 271 336 406
#     4  10  23  41  64  92 137 168 214 275 334 387
#     4  10  21  41  68  95 132 169 218 267 340 396
#     4  11  23  44  64  92 131 172 232 266 325 388
#     4  11  21  40  63 103 129 169 218 276 331 399
#
# _framework density 21.432296000000001
#
# number of rings (size 3 to 8) (size 9 to 14) (size 15 to 20)
#    0.000    1.500    2.500    2.625    0.000    0.500 
#   15.750    0.000    0.000    0.000    0.000    0.000 
#    0.000    0.000    0.000    0.000    0.000    0.000 
#
# Total GULP energy -396697.881545 kJ/mol
# GULP energy per Si atom -12396.808798 kJ/mol
# Density = 2.138351 g / cm^3
# Si number density = 21.432296 Si / 1000 Ang^3
#
#
#
# Elastic Constant Matrix: (Units=GPa)
#
#
# Indices 1 2 3 4 5 6 
#
# 1 105.9557 45.3715 54.1524 0.0000 -21.0841 0.0000
# 2 45.3715 78.0322 36.1996 0.0000 -11.7605 0.0000
# 3 54.1524 36.1996 81.3526 0.0000 -9.1774 0.0000
# 4 0.0000 0.0000 0.0000 20.8300 0.0000 -7.2254
# 5 -21.0841 -11.7605 -9.1774 0.0000 32.9253 0.0000
# 6 0.0000 0.0000 0.0000 -7.2254 0.0000 21.8206
#
#
#
# Elastic Compliance Matrix: (Units=1/GPa)
#
#
# Indices 1 2 3 4 5 6 
#
# 1 0.017337 -0.005099 -0.008491 0.000000 0.006914 0.000000
# 2 -0.005099 0.018145 -0.004457 0.000000 0.001973 0.000000
# 3 -0.008491 -0.004457 0.019756 0.000000 -0.001523 0.000000
# 4 0.000000 0.000000 0.000000 0.054237 0.000000 0.017960
# 5 0.006914 0.001973 -0.001523 0.000000 0.035080 0.000000
# 6 0.000000 0.000000 0.000000 0.017960 0.000000 0.051775
#
#
# Mechanical properties :
#
#
# Convention : Reuss Voigt Hill
#
# Bulk Modulus (GPa) = 52.23959 59.64303 55.94131
# Shear Modulus (GPa) = 20.93738 23.75632 22.34685
#
# Velocity S-wave (km/s) = 3.12894 3.33293 3.23255
# Velocity P-wave (km/s) = 6.12216 6.53454 6.33171
#
# Compressibility (1/GPa) = 0.01914257
#
# Stress axis : x y z
#
# Youngs Moduli (GPa) = 57.67961 55.11060 50.61758
#
# Poissons Ratio (x) = 0.28103 0.42982
# Poissons Ratio (y) = 0.29413 0.22561
# Poissons Ratio (z) = 0.48978 0.24563
#
# Static dielectric constant tensor:
#      x y z
#    x 3.887010 0.000000 0.051250 
#    y 0.000000 3.841160 0.000000 
#    z 0.051250 0.000000 3.872600 
# 
# 
# High freq. dielectric constant tensor:
#      x y z
#    x 1.846360 0.000000 0.009230 
#    y 0.000000 1.833470 0.000000 
#    z 0.009230 0.000000 1.835450 
# 
# From -- ./inp_files/42072.got.cif
#   From: 2010.03.12/outbox.cif.g09.slc.cpg/sg14_22_cif.got.tgz:42072.got - 2010.03.31 13:35:05.
