data_PCOD8125799
_publ_section_title
;
Structure prediction by ZEFSAII (Michael W. Deem and Ramdas Pophale) SiO2 
 PCOD8125799
Probable space group: P 21/C
;
_chemical_formula_sum "Si O2"
_cell_formula_units_Z 24
_cell_length_a 16.063442
_cell_length_b 6.476022
_cell_length_c 27.283645
_cell_angle_alpha 90.000000
_cell_angle_beta 155.114617
_cell_angle_gamma 90.000000
_cell_volume 1194.344425
_symmetry_space_group_name_H-M "P 21/C"
_symmetry_group_IT_number 14
_symmetry_cell_setting 'monoclinic'
loop_
_space_group_symop_operation_xyz
x,y,z
-x,1/2+y,1/2-z
-x,-y,-z
x,1/2-y,1/2+z
loop_
_atom_site_type_symbol
_atom_site_label
_atom_site_fract_x
_atom_site_fract_y
_atom_site_fract_z
Si Si1 0.714696 0.210698 0.473798
Si Si2 0.903926 0.904909 0.651667
Si Si3 0.980782 0.521858 0.047169
Si Si4 0.706537 0.882994 0.118748
Si Si5 0.724599 0.749615 0.239515
Si Si6 0.958718 0.595080 0.596242
O O1 0.481784 0.188544 0.347009
O O2 0.766051 0.453645 0.502441
O O3 0.809521 0.097176 0.571777
O O4 0.796145 0.113558 0.467106
O O5 0.734832 0.812230 0.597270
O O6 0.985920 0.734879 0.658304
O O7 0.098506 0.975097 0.785985
O O8 0.179401 0.441286 0.180158
O O9 0.938050 0.760432 0.037395
O O10 0.000000 0.500000 0.000000
O O11 0.699277 0.807329 0.169955
O O12 0.500000 0.000000 0.000000
O O13 0.853044 0.545604 0.312579
#
# Coordination Sequence:
#
# PCOD8125799 Si02
#       6
#     4   4   4   4   4   4
#     4  10  23  42  65  95 129 172 218 273 329 400
#     4  11  24  42  60  96 132 176 230 272 331 397
#     4  10  23  46  68  98 132 168 218 276 342 400
#     4  12  25  39  65  93 135 183 228 278 340 402
#     4  11  23  42  64  98 129 174 224 268 341 397
#     4  10  20  44  68  85 138 168 210 281 325 394
#
# _framework density 20.094705999999999
#
# number of rings (size 3 to 8) (size 9 to 14) (size 15 to 20)
#    0.000    1.333    5.000    2.000    4.667    6.000 
#    6.000    0.000    0.000    0.000    0.000    0.000 
#    0.000    0.000    0.000    0.000    0.000    0.000 
#
# Total GULP energy -297612.442317 kJ/mol
# GULP energy per Si atom -12400.518430 kJ/mol
# Density = 2.004897 g / cm^3
# Si number density = 20.094706 Si / 1000 Ang^3
#
#
#
# Elastic Constant Matrix: (Units=GPa)
#
#
# Indices 1 2 3 4 5 6 
#
# 1 137.1438 39.1963 46.0313 0.0000 -11.1380 0.0000
# 2 39.1963 113.1304 25.0064 0.0000 -8.3479 0.0000
# 3 46.0313 25.0064 69.7464 0.0000 23.9210 0.0000
# 4 0.0000 0.0000 0.0000 18.9083 0.0000 5.6939
# 5 -11.1380 -8.3479 23.9210 0.0000 40.7878 0.0000
# 6 0.0000 0.0000 0.0000 5.6939 0.0000 31.3533
#
#
#
# Elastic Compliance Matrix: (Units=1/GPa)
#
#
# Indices 1 2 3 4 5 6 
#
# 1 0.011945 -0.001090 -0.010683 0.000000 0.009304 0.000000
# 2 -0.001090 0.010585 -0.004652 0.000000 0.004597 0.000000
# 3 -0.010683 -0.004652 0.030523 0.000000 -0.021770 0.000000
# 4 0.000000 0.000000 0.000000 0.055946 0.000000 -0.010160
# 5 0.009304 0.004597 -0.021770 0.000000 0.040766 0.000000
# 6 0.000000 0.000000 0.000000 -0.010160 0.000000 0.033740
#
#
# Mechanical properties :
#
#
# Convention : Reuss Voigt Hill
#
# Bulk Modulus (GPa) = 49.50258 60.05429 54.77843
# Shear Modulus (GPa) = 22.41256 32.19566 27.30411
#
# Velocity S-wave (km/s) = 3.34330 4.00709 3.69015
# Velocity P-wave (km/s) = 6.29219 7.16655 6.74356
#
# Compressibility (1/GPa) = 0.02020097
#
# Stress axis : x y z
#
# Youngs Moduli (GPa) = 83.71938 94.47691 32.76241
#
# Poissons Ratio (x) = 0.10302 0.35001
# Poissons Ratio (y) = 0.09129 0.15240
# Poissons Ratio (z) = 0.89440 0.43949
#
# Static dielectric constant tensor:
#      x y z
#    x 3.722360 0.000000 0.132860 
#    y 0.000000 2.954500 0.000000 
#    z 0.132860 0.000000 5.508790 
# 
# 
# High freq. dielectric constant tensor:
#      x y z
#    x 1.789920 0.000000 0.011920 
#    y 0.000000 1.797890 0.000000 
#    z 0.011920 0.000000 1.769350 
# 
# From -- ./inp_files/77442.got.cif
#   From: 2010.03.12/outbox.cif.g09.slc.cpg/sg14_39_cif.got.tgz:77442.got - 2010.03.31 13:35:05.
