data_PCOD8125333
_publ_section_title
;
Structure prediction by ZEFSAII (Michael W. Deem and Ramdas Pophale) SiO2 
 PCOD8125333
Probable space group: P 21/C
;
_chemical_formula_sum "Si O2"
_cell_formula_units_Z 32
_cell_length_a 9.734734
_cell_length_b 18.698602
_cell_length_c 13.874028
_cell_angle_alpha 90.000000
_cell_angle_beta 43.454641
_cell_angle_gamma 90.000000
_cell_volume 1736.942349
_symmetry_space_group_name_H-M "P 21/C"
_symmetry_group_IT_number 14
_symmetry_cell_setting 'monoclinic'
loop_
_space_group_symop_operation_xyz
x,y,z
-x,1/2+y,1/2-z
-x,-y,-z
x,1/2-y,1/2+z
loop_
_atom_site_type_symbol
_atom_site_label
_atom_site_fract_x
_atom_site_fract_y
_atom_site_fract_z
Si Si1 0.714392 0.475295 0.417189
Si Si2 0.192562 0.708054 0.168548
Si Si3 0.917614 0.294636 0.564569
Si Si4 0.018790 0.473399 0.883815
Si Si5 0.305958 0.549768 0.098644
Si Si6 0.613827 0.176419 0.055498
Si Si7 0.141979 0.314479 0.812900
Si Si8 0.986244 0.948636 0.919289
O O1 0.500000 0.500000 0.500000
O O2 0.844623 0.475046 0.252639
O O3 0.697563 0.399483 0.477715
O O4 0.796098 0.534880 0.449671
O O5 0.153640 0.735447 0.296649
O O6 0.328843 0.636090 0.090972
O O7 0.976585 0.700359 0.226333
O O8 0.323397 0.768651 0.056765
O O9 0.718210 0.307993 0.604214
O O10 0.031726 0.368444 0.531323
O O11 0.065964 0.239671 0.435111
O O12 0.108185 0.395860 0.856325
O O13 0.802199 0.470232 0.945629
O O14 0.000000 0.500000 0.000000
O O15 0.180384 0.532275 0.257670
O O16 0.500000 0.500000 0.000000
O O17 0.379009 0.189938 0.182443
O O18 0.000000 0.000000 0.000000
#
# Coordination Sequence:
#
# PCOD8125333 Si02
#       8
#     4   4   4   4   4   4   4   4
#     4  11  22  39  62  88 117 157 200 246 300 357
#     4   9  22  41  59  84 122 155 195 252 297 355
#     4  10  22  40  61  89 121 155 198 250 297 355
#     4  10  22  38  58  86 120 152 193 246 290 352
#     4   9  20  38  59  82 118 154 193 243 298 347
#     4  11  22  39  62  89 118 156 202 243 300 366
#     4  10  22  41  60  86 122 156 196 244 300 357
#     4  10  20  38  61  88 117 150 197 249 293 351
#
# _framework density 18.423178
#
# number of rings (size 3 to 8) (size 9 to 14) (size 15 to 20)
#    0.000    2.000    2.500    0.750    1.750    5.000 
#    2.250    0.000    0.000    0.000    0.000    0.000 
#    0.000    0.000    0.000    0.000    0.000    0.000 
#
# Total GULP energy -396529.957028 kJ/mol
# GULP energy per Si atom -12391.561157 kJ/mol
# Density = 1.838125 g / cm^3
# Si number density = 18.423178 Si / 1000 Ang^3
#
#
#
# Elastic Constant Matrix: (Units=GPa)
#
#
# Indices 1 2 3 4 5 6 
#
# 1 100.4618 52.8785 69.9127 0.0000 -1.8994 0.0000
# 2 52.8785 98.7673 68.9966 0.0000 -4.5459 0.0000
# 3 69.9127 68.9966 108.4537 0.0000 13.2478 0.0000
# 4 0.0000 0.0000 0.0000 35.1597 0.0000 3.5733
# 5 -1.8994 -4.5459 13.2478 0.0000 41.8453 0.0000
# 6 0.0000 0.0000 0.0000 3.5733 0.0000 31.5797
#
#
#
# Elastic Compliance Matrix: (Units=1/GPa)
#
#
# Indices 1 2 3 4 5 6 
#
# 1 0.019163 -0.001903 -0.011675 0.000000 0.004359 0.000000
# 2 -0.001903 0.019917 -0.012169 0.000000 0.005930 0.000000
# 3 -0.011675 -0.012169 0.025708 0.000000 -0.009991 0.000000
# 4 0.000000 0.000000 0.000000 0.028773 0.000000 -0.003256
# 5 0.004359 0.005930 -0.009991 0.000000 0.027903 0.000000
# 6 0.000000 0.000000 0.000000 -0.003256 0.000000 0.032034
#
#
# Mechanical properties :
#
#
# Convention : Reuss Voigt Hill
#
# Bulk Modulus (GPa) = 75.21324 76.80649 76.00987
# Shear Modulus (GPa) = 23.87519 29.44328 26.65923
#
# Velocity S-wave (km/s) = 3.60381 4.00204 3.80814
# Velocity P-wave (km/s) = 7.63090 7.94580 7.78994
#
# Compressibility (1/GPa) = 0.01329553
#
# Stress axis : x y z
#
# Youngs Moduli (GPa) = 52.18465 50.20741 38.89802
#
# Poissons Ratio (x) = 0.09555 0.45412
# Poissons Ratio (y) = 0.09932 0.47334
# Poissons Ratio (z) = 0.60924 0.61096
#
# Static dielectric constant tensor:
#      x y z
#    x 3.557920 0.000000 0.153340 
#    y 0.000000 1.859960 0.000000 
#    z 0.153340 0.000000 3.412900 
# 
# 
# High freq. dielectric constant tensor:
#      x y z
#    x 1.725470 0.000000 0.013280 
#    y 0.000000 1.723650 0.000000 
#    z 0.013280 0.000000 1.713360 
# 
# From -- ./inp_files/26774.got.cif
#   From: 2010.03.12/outbox.cif.g09.slc.cpg/sg14_14_cif.got.tgz:26774.got - 2010.03.31 13:35:05.
