data_PCOD8125309
_publ_section_title
;
Structure prediction by ZEFSAII (Michael W. Deem and Ramdas Pophale) SiO2 
 PCOD8125309
Probable space group: P 21/C
;
_chemical_formula_sum "Si O2"
_cell_formula_units_Z 32
_cell_length_a 24.704590
_cell_length_b 9.160072
_cell_length_c 15.179905
_cell_angle_alpha 90.000000
_cell_angle_beta 152.705474
_cell_angle_gamma 90.000000
_cell_volume 1575.237959
_symmetry_space_group_name_H-M "P 21/C"
_symmetry_group_IT_number 14
_symmetry_cell_setting 'monoclinic'
loop_
_space_group_symop_operation_xyz
x,y,z
-x,1/2+y,1/2-z
-x,-y,-z
x,1/2-y,1/2+z
loop_
_atom_site_type_symbol
_atom_site_label
_atom_site_fract_x
_atom_site_fract_y
_atom_site_fract_z
Si Si1 0.661977 0.899305 0.706277
Si Si2 0.929210 0.853481 0.059270
Si Si3 0.335338 0.079311 0.003065
Si Si4 0.578435 0.389494 0.227380
Si Si5 0.515317 0.426290 0.615866
Si Si6 0.662670 0.683272 0.856426
Si Si7 0.063224 0.338630 0.758551
Si Si8 0.936733 0.652745 0.905266
O O1 0.561156 0.929817 0.487428
O O2 0.633171 0.746009 0.715236
O O3 0.661814 0.027328 0.778425
O O4 0.790969 0.893986 0.849866
O O5 0.959614 0.752034 0.186018
O O6 0.966868 0.758517 0.029952
O O7 0.001652 0.003744 0.171300
O O8 0.198160 0.104003 0.793418
O O9 0.391846 0.097807 0.988241
O O10 0.383544 0.201068 0.139349
O O11 0.373765 0.926219 0.105124
O O12 0.593392 0.219535 0.227390
O O13 0.500000 0.500000 0.500000
O O14 0.592414 0.540250 0.782192
O O15 0.798838 0.640815 0.059120
O O16 0.014759 0.239604 0.609115
O O17 0.000000 0.500000 0.000000
#
# Coordination Sequence:
#
# PCOD8125309 Si02
#       8
#     4   4   4   4   4   4   4   4
#     4   9  19  38  61  86 118 169 196 251 310 373
#     4  11  22  41  68  91 131 167 219 266 329 377
#     4  10  23  41  62  84 124 169 199 248 319 370
#     4  10  20  38  60  87 125 159 207 247 307 377
#     4  12  22  35  60  92 122 153 206 253 301 366
#     4   9  20  39  59  85 125 157 202 245 311 365
#     4  10  23  41  64  95 123 171 213 264 320 387
#     4  11  24  44  66  91 129 168 216 268 323 383
#
# _framework density 20.314392000000002
#
# number of rings (size 3 to 8) (size 9 to 14) (size 15 to 20)
#    0.000    1.750    1.250    3.375    1.750    3.000 
#    2.250    0.000    0.000    0.000    0.000    0.000 
#    0.000    0.000    0.000    0.000    0.000    0.000 
#
# Total GULP energy -396697.657013 kJ/mol
# GULP energy per Si atom -12396.801782 kJ/mol
# Density = 2.026816 g / cm^3
# Si number density = 20.314392 Si / 1000 Ang^3
#
#
#
# Elastic Constant Matrix: (Units=GPa)
#
#
# Indices 1 2 3 4 5 6 
#
# 1 91.9830 40.0601 34.5063 0.0000 -17.2280 0.0000
# 2 40.0601 148.5859 44.3445 0.0000 -0.9436 0.0000
# 3 34.5063 44.3445 59.8054 0.0000 -8.1541 0.0000
# 4 0.0000 0.0000 0.0000 29.0545 0.0000 0.7872
# 5 -17.2280 -0.9436 -8.1541 0.0000 31.3425 0.0000
# 6 0.0000 0.0000 0.0000 0.7872 0.0000 31.1856
#
#
#
# Elastic Compliance Matrix: (Units=1/GPa)
#
#
# Indices 1 2 3 4 5 6 
#
# 1 0.015506 -0.002240 -0.006359 0.000000 0.006802 0.000000
# 2 -0.002240 0.009031 -0.005738 0.000000 -0.002452 0.000000
# 3 -0.006359 -0.005738 0.025032 0.000000 0.002845 0.000000
# 4 0.000000 0.000000 0.000000 0.034442 0.000000 -0.000869
# 5 0.006802 -0.002452 0.002845 0.000000 0.036310 0.000000
# 6 0.000000 0.000000 0.000000 -0.000869 0.000000 0.032088
#
#
# Mechanical properties :
#
#
# Convention : Reuss Voigt Hill
#
# Bulk Modulus (GPa) = 47.85573 59.79956 53.82765
# Shear Modulus (GPa) = 26.58888 30.41410 28.50149
#
# Velocity S-wave (km/s) = 3.62175 3.87353 3.74975
# Velocity P-wave (km/s) = 6.41079 7.03609 6.73070
#
# Compressibility (1/GPa) = 0.02089614
#
# Stress axis : x y z
#
# Youngs Moduli (GPa) = 64.48991 110.73018 39.94826
#
# Poissons Ratio (x) = 0.24801 0.25402
# Poissons Ratio (y) = 0.14444 0.22924
# Poissons Ratio (z) = 0.41007 0.63541
#
# Static dielectric constant tensor:
#      x y z
#    x 3.765480 0.000000 -0.208140 
#    y 0.000000 5.418710 0.000000 
#    z -0.208140 0.000000 3.767110 
# 
# 
# High freq. dielectric constant tensor:
#      x y z
#    x 1.792640 0.000000 -0.009680 
#    y 0.000000 1.805840 0.000000 
#    z -0.009680 0.000000 1.788500 
# 
# From -- ./inp_files/51390.got.cif
#   From: 2010.03.12/outbox.cif.g09.slc.cpg/sg14_26_cif.got.tgz:51390.got - 2010.03.31 13:35:05.
