data_PCOD8125049
_publ_section_title
;
Structure prediction by ZEFSAII (Michael W. Deem and Ramdas Pophale) SiO2 
 PCOD8125049
Probable space group: P 21/C
;
_chemical_formula_sum "Si O2"
_cell_formula_units_Z 28
_cell_length_a 20.069151
_cell_length_b 8.721139
_cell_length_c 22.080951
_cell_angle_alpha 90.000000
_cell_angle_beta 159.901147
_cell_angle_gamma 90.000000
_cell_volume 1328.081797
_symmetry_space_group_name_H-M "P 21/C"
_symmetry_group_IT_number 14
_symmetry_cell_setting 'monoclinic'
loop_
_space_group_symop_operation_xyz
x,y,z
-x,1/2+y,1/2-z
-x,-y,-z
x,1/2-y,1/2+z
loop_
_atom_site_type_symbol
_atom_site_label
_atom_site_fract_x
_atom_site_fract_y
_atom_site_fract_z
Si Si1 0.970517 0.251364 0.484956
Si Si2 0.010722 0.479421 0.918224
Si Si3 0.043889 0.853286 0.753218
Si Si4 0.192906 0.428461 0.472517
Si Si5 0.614798 0.365109 0.920475
Si Si6 0.407305 0.072219 0.704801
Si Si7 0.746444 0.975800 0.835892
O O1 0.032023 0.151379 0.595966
O O2 0.784239 0.353650 0.343310
O O3 0.150719 0.356846 0.620822
O O4 0.911664 0.140337 0.379652
O O5 0.915485 0.457006 0.771187
O O6 0.245222 0.451590 0.118104
O O7 0.848412 0.752608 0.574757
O O8 0.032130 0.963359 0.801634
O O9 0.212624 0.727020 0.902629
O O10 0.397412 0.474889 0.616367
O O11 0.174656 0.466251 0.527799
O O12 0.687991 0.502311 0.938762
O O13 0.483469 0.441090 0.861083
O O14 0.470274 0.252181 0.757354
#
# Coordination Sequence:
#
# PCOD8125049 Si02
#       7
#     4   4   4   4   4   4   4
#     4  10  22  37  66  77 114 168 203 248 276 372
#     4  11  21  39  60  88 116 153 209 240 305 358
#     4  11  22  37  58  93 128 148 191 263 321 349
#     4  10  22  37  61  90 120 155 193 256 313 351
#     4  10  21  36  61  89 121 156 196 260 301 357
#     4  10  20  36  60  87 118 153 205 242 295 368
#     4  10  20  42  60  84 114 156 216 233 295 368
#
# _framework density 21.083037999999998
#
# number of rings (size 3 to 8) (size 9 to 14) (size 15 to 20)
#    0.000    1.714    2.857    1.714    8.000    0.000 
#    0.000    1.429    0.000    0.000    0.000    0.000 
#    0.000    0.000    0.000    0.000    0.000    0.000 
#
# Total GULP energy -347120.790602 kJ/mol
# GULP energy per Si atom -12397.171093 kJ/mol
# Density = 2.103505 g / cm^3
# Si number density = 21.083038 Si / 1000 Ang^3
#
#
#
# Elastic Constant Matrix: (Units=GPa)
#
#
# Indices 1 2 3 4 5 6 
#
# 1 98.5325 64.8026 28.1177 0.0000 12.4000 0.0000
# 2 64.8026 138.2269 13.1396 0.0000 11.6570 0.0000
# 3 28.1177 13.1396 28.3667 0.0000 -1.6794 0.0000
# 4 0.0000 0.0000 0.0000 31.5738 0.0000 -1.9141
# 5 12.4000 11.6570 -1.6794 0.0000 16.8681 0.0000
# 6 0.0000 0.0000 0.0000 -1.9141 0.0000 40.5773
#
#
#
# Elastic Compliance Matrix: (Units=1/GPa)
#
#
# Indices 1 2 3 4 5 6 
#
# 1 0.022244 -0.007483 -0.019359 0.000000 -0.013108 0.000000
# 2 -0.007483 0.010652 0.002387 0.000000 -0.001623 0.000000
# 3 -0.019359 0.002387 0.054402 0.000000 0.017998 0.000000
# 4 0.000000 0.000000 0.000000 0.031763 0.000000 0.001498
# 5 -0.013108 -0.001623 0.017998 0.000000 0.071833 0.000000
# 6 0.000000 0.000000 0.000000 0.001498 0.000000 0.024715
#
#
# Mechanical properties :
#
#
# Convention : Reuss Voigt Hill
#
# Bulk Modulus (GPa) = 26.04960 53.02733 39.53847
# Shear Modulus (GPa) = 18.03001 28.40826 23.21913
#
# Velocity S-wave (km/s) = 2.92754 3.67474 3.32221
# Velocity P-wave (km/s) = 4.87953 6.57352 5.78883
#
# Compressibility (1/GPa) = 0.03838831
#
# Stress axis : x y z
#
# Youngs Moduli (GPa) = 44.95562 93.87468 18.38176
#
# Poissons Ratio (x) = 0.70243 0.35585
# Poissons Ratio (y) = 0.33639 -0.04387
# Poissons Ratio (z) = 0.87030 -0.22404
#
# Static dielectric constant tensor:
#      x y z
#    x 3.754410 0.000000 0.103770 
#    y 0.000000 4.229290 0.000000 
#    z 0.103770 0.000000 3.801280 
# 
# 
# High freq. dielectric constant tensor:
#      x y z
#    x 1.809840 0.000000 0.011580 
#    y 0.000000 1.857350 0.000000 
#    z 0.011580 0.000000 1.809780 
# 
# From -- ./inp_files/74660.got.cif
#   From: 2010.03.12/outbox.cif.g09.slc.cpg/sg14_38_cif.got.tgz:74660.got - 2010.03.31 13:35:05.
