data_PCOD8125793
_publ_section_title
;
Structure prediction by ZEFSAII (Michael W. Deem and Ramdas Pophale) SiO2 
 PCOD8125793
Probable space group: P 21/C
;
_chemical_formula_sum "Si O2"
_cell_formula_units_Z 20
_cell_length_a 6.402287
_cell_length_b 18.602486
_cell_length_c 10.210751
_cell_angle_alpha 90.000000
_cell_angle_beta 132.364771
_cell_angle_gamma 90.000000
_cell_volume 898.528235
_symmetry_space_group_name_H-M "P 21/C"
_symmetry_group_IT_number 14
_symmetry_cell_setting 'monoclinic'
loop_
_space_group_symop_operation_xyz
x,y,z
-x,1/2+y,1/2-z
-x,-y,-z
x,1/2-y,1/2+z
loop_
_atom_site_type_symbol
_atom_site_label
_atom_site_fract_x
_atom_site_fract_y
_atom_site_fract_z
Si Si1 0.207917 0.396503 0.773920
Si Si2 0.253323 0.793008 0.875933
Si Si3 0.374974 0.938131 0.037267
Si Si4 0.728420 0.175335 0.401789
Si Si5 0.201931 0.066027 0.559656
O O1 0.487279 0.387004 0.803908
O O2 0.073904 0.317117 0.744030
O O3 0.968847 0.445052 0.599069
O O4 0.290902 0.433531 0.945864
O O5 0.312663 0.776850 0.747155
O O6 0.449485 0.860657 0.002800
O O7 0.311575 0.722599 0.985336
O O8 0.508630 0.941518 0.237549
O O9 0.500000 0.000000 0.000000
O O10 0.034178 0.138294 0.528706
O O11 0.000000 0.000000 0.500000
#
# Coordination Sequence:
#
# PCOD8125793 Si02
#       5
#     4   4   4   4   4
#     4   9  23  40  63  96 129 170 226 266 332 395
#     4   9  24  39  65  93 137 166 221 275 334 386
#     4  10  20  44  64  91 133 172 213 274 329 388
#     4  11  23  43  66  99 133 176 226 273 334 407
#     4  11  22  44  68  94 137 175 219 281 331 393
#
# _framework density 22.258621999999999
#
# number of rings (size 3 to 8) (size 9 to 14) (size 15 to 20)
#    1.200    0.800    2.000    0.000    5.600    2.400 
#    3.600    2.000    0.000    0.000    0.000    0.000 
#    0.000    0.000    0.000    0.000    0.000    0.000 
#
# Total GULP energy -247860.619009 kJ/mol
# GULP energy per Si atom -12393.030950 kJ/mol
# Density = 2.220796 g / cm^3
# Si number density = 22.258622 Si / 1000 Ang^3
#
#
#
# Elastic Constant Matrix: (Units=GPa)
#
#
# Indices 1 2 3 4 5 6 
#
# 1 60.2540 -3.5580 34.0380 0.0000 -3.7175 0.0000
# 2 -3.5580 67.4354 22.2321 0.0000 -9.4286 0.0000
# 3 34.0380 22.2321 186.3117 0.0000 -4.7981 0.0000
# 4 0.0000 0.0000 0.0000 35.5666 0.0000 -5.3558
# 5 -3.7175 -9.4286 -4.7981 0.0000 33.4387 0.0000
# 6 0.0000 0.0000 0.0000 -5.3558 0.0000 23.4149
#
#
#
# Elastic Compliance Matrix: (Units=1/GPa)
#
#
# Indices 1 2 3 4 5 6 
#
# 1 0.018986 0.002547 -0.003713 0.000000 0.002296 0.000000
# 2 0.002547 0.016360 -0.002300 0.000000 0.004566 0.000000
# 3 -0.003713 -0.002300 0.006316 0.000000 -0.000155 0.000000
# 4 0.000000 0.000000 0.000000 0.029119 0.000000 0.006661
# 5 0.002296 0.004566 -0.000155 0.000000 0.031426 0.000000
# 6 0.000000 0.000000 0.000000 0.006661 0.000000 0.044231
#
#
# Mechanical properties :
#
#
# Convention : Reuss Voigt Hill
#
# Bulk Modulus (GPa) = 28.79374 46.60282 37.69828
# Shear Modulus (GPa) = 30.31249 35.90329 33.10789
#
# Velocity S-wave (km/s) = 3.69430 4.02058 3.86089
# Velocity P-wave (km/s) = 5.58223 6.52195 6.07030
#
# Compressibility (1/GPa) = 0.03472977
#
# Stress axis : x y z
#
# Youngs Moduli (GPa) = 52.66976 61.12448 158.32234
#
# Poissons Ratio (x) = -0.15569 0.58792
# Poissons Ratio (y) = -0.13415 0.36413
# Poissons Ratio (z) = 0.19559 0.14058
#
# Static dielectric constant tensor:
#      x y z
#    x 3.676590 0.000000 0.108010 
#    y 0.000000 3.757630 0.000000 
#    z 0.108010 0.000000 4.156360 
# 
# 
# High freq. dielectric constant tensor:
#      x y z
#    x 1.859350 0.000000 -0.000530 
#    y 0.000000 1.864950 0.000000 
#    z -0.000530 0.000000 1.883360 
# 
# From -- ./inp_files/6063.got.cif
#   From: 2010.03.12/outbox.cif.g09.slc.cpg/sg14_4_cif.got.tgz:6063.got - 2010.03.31 13:35:05.
