data_PCOD8125219
_publ_section_title
;
Structure prediction by ZEFSAII (Michael W. Deem and Ramdas Pophale) SiO2 
 PCOD8125219
Probable space group: P 21/C
;
_chemical_formula_sum "Si O2"
_cell_formula_units_Z 32
_cell_length_a 11.682537
_cell_length_b 8.914456
_cell_length_c 21.159634
_cell_angle_alpha 90.000000
_cell_angle_beta 136.887053
_cell_angle_gamma 90.000000
_cell_volume 1506.051285
_symmetry_space_group_name_H-M "P 21/C"
_symmetry_group_IT_number 14
_symmetry_cell_setting 'monoclinic'
loop_
_space_group_symop_operation_xyz
x,y,z
-x,1/2+y,1/2-z
-x,-y,-z
x,1/2-y,1/2+z
loop_
_atom_site_type_symbol
_atom_site_label
_atom_site_fract_x
_atom_site_fract_y
_atom_site_fract_z
Si Si1 0.136403 0.501142 0.962296
Si Si2 0.944958 0.267499 0.168679
Si Si3 0.239660 0.169239 0.981261
Si Si4 0.788372 0.975679 0.159252
Si Si5 0.225844 0.638787 0.599573
Si Si6 0.035944 0.428915 0.597605
Si Si7 0.771481 0.447849 0.860414
Si Si8 0.514238 0.999740 0.154743
O O1 0.173817 0.631223 0.925317
O O2 0.191150 0.342593 0.955036
O O3 0.937154 0.512512 0.894343
O O4 0.237946 0.520019 0.068423
O O5 0.049131 0.379408 0.254831
O O6 0.067182 0.161483 0.174849
O O7 0.835801 0.151436 0.166952
O O8 0.290305 0.100495 0.934037
O O9 0.403762 0.147688 0.092327
O O10 0.080066 0.076767 0.941741
O O11 0.646760 0.963147 0.154565
O O12 0.207907 0.485472 0.634284
O O13 0.240696 0.770387 0.655861
O O14 0.377474 0.631257 0.610313
O O15 0.059125 0.677553 0.491068
O O16 0.606662 0.504799 0.759303
#
# Coordination Sequence:
#
# PCOD8125219 Si02
#       8
#     4   4   4   4   4   4   4   4
#     4  11  22  41  67  97 124 170 222 265 325 376
#     4  11  22  40  69  94 123 166 226 273 307 387
#     4  10  22  42  66  90 127 176 217 269 312 384
#     4  11  24  43  67  94 127 174 220 268 319 384
#     4  10  20  37  62  92 133 167 202 263 325 397
#     4   9  19  38  64  95 121 169 217 254 319 385
#     4  11  23  38  64  96 136 163 212 275 319 395
#     4  11  25  39  63  94 136 168 211 263 342 383
#
# _framework density 21.247617000000002
#
# number of rings (size 3 to 8) (size 9 to 14) (size 15 to 20)
#    0.000    1.500    3.750    1.125    1.750    1.000 
#    0.000    0.625    2.750    0.000    0.000    0.000 
#    0.000    0.000    0.000    0.000    0.000    0.000 
#
# Total GULP energy -396523.457264 kJ/mol
# GULP energy per Si atom -12391.358040 kJ/mol
# Density = 2.119926 g / cm^3
# Si number density = 21.247617 Si / 1000 Ang^3
#
#
#
# Elastic Constant Matrix: (Units=GPa)
#
#
# Indices 1 2 3 4 5 6 
#
# 1 88.5181 31.0032 27.2280 0.0000 -2.3461 0.0000
# 2 31.0032 99.5449 38.7569 0.0000 -1.1034 0.0000
# 3 27.2280 38.7569 103.0855 0.0000 -9.1263 0.0000
# 4 0.0000 0.0000 0.0000 28.0669 0.0000 -13.5530
# 5 -2.3461 -1.1034 -9.1263 0.0000 24.2445 0.0000
# 6 0.0000 0.0000 0.0000 -13.5530 0.0000 27.6887
#
#
#
# Elastic Compliance Matrix: (Units=1/GPa)
#
#
# Indices 1 2 3 4 5 6 
#
# 1 0.013116 -0.003213 -0.002231 0.000000 0.000283 0.000000
# 2 -0.003213 0.012588 -0.003994 0.000000 -0.001241 0.000000
# 3 -0.002231 -0.003994 0.012162 0.000000 0.004180 0.000000
# 4 0.000000 0.000000 0.000000 0.046657 0.000000 0.022838
# 5 0.000283 -0.001241 0.004180 0.000000 0.042791 0.000000
# 6 0.000000 0.000000 0.000000 0.022838 0.000000 0.047294
#
#
# Mechanical properties :
#
#
# Convention : Reuss Voigt Hill
#
# Bulk Modulus (GPa) = 52.66167 53.90274 53.28221
# Shear Modulus (GPa) = 25.02326 28.94406 26.98366
#
# Velocity S-wave (km/s) = 3.43548 3.69484 3.56752
# Velocity P-wave (km/s) = 6.36987 6.60503 6.48851
#
# Compressibility (1/GPa) = 0.01898914
#
# Stress axis : x y z
#
# Youngs Moduli (GPa) = 76.24043 79.44303 82.22564
#
# Poissons Ratio (x) = 0.25527 0.18347
# Poissons Ratio (y) = 0.24498 0.32839
# Poissons Ratio (z) = 0.17012 0.31728
#
# Static dielectric constant tensor:
#      x y z
#    x 3.802560 0.000000 -0.257450 
#    y 0.000000 3.856950 0.000000 
#    z -0.257450 0.000000 3.859590 
# 
# 
# High freq. dielectric constant tensor:
#      x y z
#    x 1.825700 0.000000 -0.021040 
#    y 0.000000 1.832820 0.000000 
#    z -0.021040 0.000000 1.820750 
# 
# From -- ./inp_files/73127.got.cif
#   From: 2010.03.12/outbox.cif.g09.slc.cpg/sg14_37_cif.got.tgz:73127.got - 2010.03.31 13:35:05.
