data_PCOD8125760
_publ_section_title
;
Structure prediction by ZEFSAII (Michael W. Deem and Ramdas Pophale) SiO2 
 PCOD8125760
Probable space group: P 21/C
;
_chemical_formula_sum "Si O2"
_cell_formula_units_Z 20
_cell_length_a 8.647523
_cell_length_b 11.836980
_cell_length_c 11.431663
_cell_angle_alpha 90.000000
_cell_angle_beta 131.966853
_cell_angle_gamma 90.000000
_cell_volume 870.044780
_symmetry_space_group_name_H-M "P 21/C"
_symmetry_group_IT_number 14
_symmetry_cell_setting 'monoclinic'
loop_
_space_group_symop_operation_xyz
x,y,z
-x,1/2+y,1/2-z
-x,-y,-z
x,1/2-y,1/2+z
loop_
_atom_site_type_symbol
_atom_site_label
_atom_site_fract_x
_atom_site_fract_y
_atom_site_fract_z
Si Si1 0.848271 0.598505 0.148201
Si Si2 0.035433 0.916033 0.125558
Si Si3 0.680956 0.674766 0.606238
Si Si4 0.244066 0.479455 0.133681
Si Si5 0.733211 0.190009 0.237474
O O1 0.832233 0.482799 0.211102
O O2 0.775189 0.703975 0.189455
O O3 0.087973 0.619852 0.237844
O O4 0.696688 0.583688 0.957404
O O5 0.177488 0.807241 0.164348
O O6 0.814512 0.877090 0.066654
O O7 0.000000 0.000000 0.000000
O O8 0.683116 0.597109 0.721252
O O9 0.448424 0.701917 0.448210
O O10 0.344784 0.605210 0.197777
O O11 0.000000 0.500000 0.000000
#
# Coordination Sequence:
#
# PCOD8125760 Si02
#       5
#     4   4   4   4   4
#     4  10  24  42  66  94 132 171 218 272 335 392
#     4  11  25  42  66  98 136 171 217 282 331 389
#     4  11  23  43  67  98 129 171 224 269 329 400
#     4  10  20  42  66  92 127 175 217 266 336 392
#     4  10  23  42  68  97 122 179 221 267 334 392
#
# _framework density 22.98732
#
# number of rings (size 3 to 8) (size 9 to 14) (size 15 to 20)
#    0.000    1.600    4.000    0.600    8.400    2.400 
#    3.600    0.000    0.000    0.000    0.000    0.000 
#    0.000    0.000    0.000    0.000    0.000    0.000 
#
# Total GULP energy -247838.865702 kJ/mol
# GULP energy per Si atom -12391.943285 kJ/mol
# Density = 2.293500 g / cm^3
# Si number density = 22.987320 Si / 1000 Ang^3
#
#
#
# Elastic Constant Matrix: (Units=GPa)
#
#
# Indices 1 2 3 4 5 6 
#
# 1 38.0124 37.5877 37.3137 0.0000 -5.9471 0.0000
# 2 37.5877 192.0238 62.2826 0.0000 -10.9870 0.0000
# 3 37.3137 62.2826 133.8334 0.0000 0.7947 0.0000
# 4 0.0000 0.0000 0.0000 47.9959 0.0000 -5.9509
# 5 -5.9471 -10.9870 0.7947 0.0000 26.7573 0.0000
# 6 0.0000 0.0000 0.0000 -5.9509 0.0000 5.4481
#
#
#
# Elastic Compliance Matrix: (Units=1/GPa)
#
#
# Indices 1 2 3 4 5 6 
#
# 1 0.041275 -0.004592 -0.009415 0.000000 0.007568 0.000000
# 2 -0.004592 0.006831 -0.001910 0.000000 0.001841 0.000000
# 3 -0.009415 -0.001910 0.011005 0.000000 -0.003204 0.000000
# 4 0.000000 0.000000 0.000000 0.024099 0.000000 0.026323
# 5 0.007568 0.001841 -0.003204 0.000000 0.039906 0.000000
# 6 0.000000 0.000000 0.000000 0.026323 0.000000 0.212304
#
#
# Mechanical properties :
#
#
# Convention : Reuss Voigt Hill
#
# Bulk Modulus (GPa) = 36.66254 70.91530 53.78892
# Shear Modulus (GPa) = 13.28561 31.15263 22.21912
#
# Velocity S-wave (km/s) = 2.40668 3.68531 3.11236
# Velocity P-wave (km/s) = 4.86892 7.00181 6.03042
#
# Compressibility (1/GPa) = 0.02727580
#
# Stress axis : x y z
#
# Youngs Moduli (GPa) = 24.22794 146.38340 90.86954
#
# Poissons Ratio (x) = 0.67226 0.85557
# Poissons Ratio (y) = 0.11127 0.17353
# Poissons Ratio (z) = 0.22812 0.27954
#
# Static dielectric constant tensor:
#      x y z
#    x 3.916540 0.000000 -0.241420 
#    y 0.000000 4.891330 0.000000 
#    z -0.241420 0.000000 4.482140 
# 
# 
# High freq. dielectric constant tensor:
#      x y z
#    x 1.866810 0.000000 0.004990 
#    y 0.000000 1.936900 0.000000 
#    z 0.004990 0.000000 1.910370 
# 
# From -- ./inp_files/24341.got.cif
#   From: 2010.03.12/outbox.cif.g09.slc.cpg/sg14_13_cif.got.tgz:24341.got - 2010.03.31 13:35:05.
