data_PCOD8125800
_publ_section_title
;
Structure prediction by ZEFSAII (Michael W. Deem and Ramdas Pophale) SiO2 
 PCOD8125800
Probable space group: P 21/C
;
_chemical_formula_sum "Si O2"
_cell_formula_units_Z 24
_cell_length_a 7.811393
_cell_length_b 16.491381
_cell_length_c 14.075487
_cell_angle_alpha 90.000000
_cell_angle_beta 143.975586
_cell_angle_gamma 90.000000
_cell_volume 1066.405119
_symmetry_space_group_name_H-M "P 21/C"
_symmetry_group_IT_number 14
_symmetry_cell_setting 'monoclinic'
loop_
_space_group_symop_operation_xyz
x,y,z
-x,1/2+y,1/2-z
-x,-y,-z
x,1/2-y,1/2+z
loop_
_atom_site_type_symbol
_atom_site_label
_atom_site_fract_x
_atom_site_fract_y
_atom_site_fract_z
Si Si1 0.616385 0.581770 0.351284
Si Si2 0.354100 0.495781 0.078207
Si Si3 0.859916 0.339346 0.095754
Si Si4 0.914685 0.097788 0.270038
Si Si5 0.975583 0.453598 0.300792
Si Si6 0.243721 0.303921 0.762145
O O1 0.447145 0.502596 0.231267
O O2 0.895417 0.552974 0.536038
O O3 0.732628 0.638043 0.318565
O O4 0.384230 0.628458 0.314718
O O5 0.656008 0.495261 0.155004
O O6 0.168439 0.576992 0.974771
O O7 0.159472 0.418211 0.962463
O O8 0.945241 0.363660 0.242361
O O9 0.116582 0.282373 0.170041
O O10 0.555775 0.290925 0.951611
O O11 0.019970 0.163750 0.241489
O O12 0.834978 0.014028 0.179429
#
# Coordination Sequence:
#
# PCOD8125800 Si02
#       6
#     4   4   4   4   4   4
#     4  11  24  38  66 106 127 167 221 274 331 388
#     4  10  20  44  69  97 131 172 222 278 321 387
#     4  10  22  43  68  89 134 181 210 268 338 384
#     4  11  21  42  70  96 132 173 220 269 329 391
#     4  11  20  43  72  99 129 173 225 276 328 386
#     4  11  24  46  64  92 138 175 218 270 331 401
#
# _framework density 22.505517999999999
#
# number of rings (size 3 to 8) (size 9 to 14) (size 15 to 20)
#    0.000    1.333    5.000    2.500    2.333    0.000 
#    6.000    3.333    0.000    0.000    0.000    0.000 
#    0.000    0.000    0.000    0.000    0.000    0.000 
#
# Total GULP energy -297427.608673 kJ/mol
# GULP energy per Si atom -12392.817028 kJ/mol
# Density = 2.245429 g / cm^3
# Si number density = 22.505518 Si / 1000 Ang^3
#
#
#
# Elastic Constant Matrix: (Units=GPa)
#
#
# Indices 1 2 3 4 5 6 
#
# 1 80.3125 7.0088 17.5704 0.0000 -4.8913 0.0000
# 2 7.0088 54.0146 34.6455 0.0000 -2.8369 0.0000
# 3 17.5704 34.6455 141.5872 0.0000 -26.3693 0.0000
# 4 0.0000 0.0000 0.0000 26.3538 0.0000 9.1282
# 5 -4.8913 -2.8369 -26.3693 0.0000 33.5293 0.0000
# 6 0.0000 0.0000 0.0000 9.1282 0.0000 23.4185
#
#
#
# Elastic Compliance Matrix: (Units=1/GPa)
#
#
# Indices 1 2 3 4 5 6 
#
# 1 0.012845 -0.000830 -0.001236 0.000000 0.000832 0.000000
# 2 -0.000830 0.022236 -0.005870 0.000000 -0.002856 0.000000
# 3 -0.001236 -0.005870 0.009990 0.000000 0.007179 0.000000
# 4 0.000000 0.000000 0.000000 0.043868 0.000000 -0.017099
# 5 0.000832 -0.002856 0.007179 0.000000 0.035351 0.000000
# 6 0.000000 0.000000 0.000000 -0.017099 0.000000 0.049366
#
#
# Mechanical properties :
#
#
# Convention : Reuss Voigt Hill
#
# Bulk Modulus (GPa) = 34.24856 43.81818 39.03337
# Shear Modulus (GPa) = 25.09276 31.10629 28.09952
#
# Velocity S-wave (km/s) = 3.34272 3.72178 3.53733
# Velocity P-wave (km/s) = 5.49084 6.16288 5.83654
#
# Compressibility (1/GPa) = 0.02919831
#
# Stress axis : x y z
#
# Youngs Moduli (GPa) = 77.85219 44.97148 100.10397
#
# Poissons Ratio (x) = 0.03734 0.12372
# Poissons Ratio (y) = 0.06464 0.58761
# Poissons Ratio (z) = 0.09622 0.26398
#
# Static dielectric constant tensor:
#      x y z
#    x 3.952320 0.000000 -0.086220 
#    y 0.000000 3.737560 0.000000 
#    z -0.086220 0.000000 4.365460 
# 
# 
# High freq. dielectric constant tensor:
#      x y z
#    x 1.882520 0.000000 -0.001210 
#    y 0.000000 1.847950 0.000000 
#    z -0.001210 0.000000 1.904570 
# 
# From -- ./inp_files/41861.got.cif
#   From: 2010.03.12/outbox.cif.g09.slc.cpg/sg14_21_cif.got.tgz:41861.got - 2010.03.31 13:35:05.
