data_PCOD8125945
_publ_section_title
;
Structure prediction by ZEFSAII (Michael W. Deem and Ramdas Pophale) SiO2 
 PCOD8125945
Probable space group: P 21/C
;
_chemical_formula_sum "Si O2"
_cell_formula_units_Z 28
_cell_length_a 19.364669
_cell_length_b 11.920718
_cell_length_c 8.315070
_cell_angle_alpha 90.000000
_cell_angle_beta 139.122457
_cell_angle_gamma 90.000000
_cell_volume 1256.178134
_symmetry_space_group_name_H-M "P 21/C"
_symmetry_group_IT_number 14
_symmetry_cell_setting 'monoclinic'
loop_
_space_group_symop_operation_xyz
x,y,z
-x,1/2+y,1/2-z
-x,-y,-z
x,1/2-y,1/2+z
loop_
_atom_site_type_symbol
_atom_site_label
_atom_site_fract_x
_atom_site_fract_y
_atom_site_fract_z
Si Si1 0.026317 0.893357 0.235887
Si Si2 0.171260 0.460840 0.783724
Si Si3 0.541845 0.013412 0.811637
Si Si4 0.118194 0.811549 0.701661
Si Si5 0.380479 0.101520 0.757545
Si Si6 0.526546 0.179982 0.524387
Si Si7 0.251116 0.841716 0.225907
O O1 0.038463 0.885109 0.451315
O O2 0.053476 0.783518 0.180442
O O3 0.096394 0.998258 0.297781
O O4 0.902057 0.913097 0.986627
O O5 0.244601 0.560605 0.845338
O O6 0.258089 0.369488 0.999195
O O7 0.428358 0.027812 0.696970
O O8 0.565160 0.132652 0.766002
O O9 0.544300 0.914840 0.684240
O O10 0.625793 0.978497 0.095933
O O11 0.197730 0.767187 0.706438
O O12 0.186687 0.880865 0.952246
O O13 0.454284 0.209953 0.921178
O O14 0.630728 0.199926 0.602788
#
# Coordination Sequence:
#
# PCOD8125945 Si02
#       7
#     4   4   4   4   4   4   4
#     4   9  20  40  63  90 124 158 213 267 314 378
#     4  10  21  41  62  90 127 165 207 264 324 375
#     4  10  24  40  60  88 129 165 216 256 317 381
#     4   9  20  36  62  93 117 161 214 260 316 372
#     4  11  23  40  65  90 127 174 206 265 322 372
#     4  11  23  41  60  93 128 165 218 263 303 397
#     4  10  21  36  64  88 119 165 210 261 310 381
#
# _framework density 22.289833000000002
#
# number of rings (size 3 to 8) (size 9 to 14) (size 15 to 20)
#    0.000    2.000    1.429    0.857    6.000    2.857 
#    5.143    0.000    0.000    0.000    0.000    0.000 
#    0.000    0.000    0.000    0.000    0.000    0.000 
#
# Total GULP energy -346961.805758 kJ/mol
# GULP energy per Si atom -12391.493063 kJ/mol
# Density = 2.223910 g / cm^3
# Si number density = 22.289833 Si / 1000 Ang^3
#
#
#
# Elastic Constant Matrix: (Units=GPa)
#
#
# Indices 1 2 3 4 5 6 
#
# 1 62.2994 14.6641 33.1794 0.0000 -1.0079 0.0000
# 2 14.6641 61.5912 24.5538 0.0000 7.2963 0.0000
# 3 33.1794 24.5538 91.7669 0.0000 18.7637 0.0000
# 4 0.0000 0.0000 0.0000 30.0128 0.0000 -6.8951
# 5 -1.0079 7.2963 18.7637 0.0000 41.9899 0.0000
# 6 0.0000 0.0000 0.0000 -6.8951 0.0000 17.0949
#
#
#
# Elastic Compliance Matrix: (Units=1/GPa)
#
#
# Indices 1 2 3 4 5 6 
#
# 1 0.020834 -0.002373 -0.007797 0.000000 0.004396 0.000000
# 2 -0.002373 0.018490 -0.003765 0.000000 -0.001588 0.000000
# 3 -0.007797 -0.003765 0.016099 0.000000 -0.006727 0.000000
# 4 0.000000 0.000000 0.000000 0.036722 0.000000 0.014812
# 5 0.004396 -0.001588 -0.006727 0.000000 0.027203 0.000000
# 6 0.000000 0.000000 0.000000 0.014812 0.000000 0.064471
#
#
# Mechanical properties :
#
#
# Convention : Reuss Voigt Hill
#
# Bulk Modulus (GPa) = 36.29250 40.05023 38.17136
# Shear Modulus (GPa) = 22.63764 27.37022 25.00393
#
# Velocity S-wave (km/s) = 3.19031 3.50798 3.35291
# Velocity P-wave (km/s) = 5.46701 5.86641 5.67023
#
# Compressibility (1/GPa) = 0.02755390
#
# Stress axis : x y z
#
# Youngs Moduli (GPa) = 47.99960 54.08344 62.11579
#
# Poissons Ratio (x) = 0.12833 0.48430
# Poissons Ratio (y) = 0.11389 0.23385
# Poissons Ratio (z) = 0.37424 0.20361
#
# Static dielectric constant tensor:
#      x y z
#    x 3.939780 0.000000 -0.251070 
#    y 0.000000 3.737660 0.000000 
#    z -0.251070 0.000000 4.225620 
# 
# 
# High freq. dielectric constant tensor:
#      x y z
#    x 1.868430 0.000000 -0.014290 
#    y 0.000000 1.848950 0.000000 
#    z -0.014290 0.000000 1.889960 
# 
# From -- ./inp_files/18981.got.cif
#   From: 2010.03.12/outbox.cif.g09.slc.cpg/sg14_10_cif.got.tgz:18981.got - 2010.03.31 13:35:05.
