data_PCOD8125162
_publ_section_title
;
Structure prediction by ZEFSAII (Michael W. Deem and Ramdas Pophale) SiO2 
 PCOD8125162
Probable space group: P 21/C
;
_chemical_formula_sum "Si O2"
_cell_formula_units_Z 32
_cell_length_a 10.976938
_cell_length_b 8.778408
_cell_length_c 16.790567
_cell_angle_alpha 90.000000
_cell_angle_beta 114.685092
_cell_angle_gamma 90.000000
_cell_volume 1470.087324
_symmetry_space_group_name_H-M "P 21/C"
_symmetry_group_IT_number 14
_symmetry_cell_setting 'monoclinic'
loop_
_space_group_symop_operation_xyz
x,y,z
-x,1/2+y,1/2-z
-x,-y,-z
x,1/2-y,1/2+z
loop_
_atom_site_type_symbol
_atom_site_label
_atom_site_fract_x
_atom_site_fract_y
_atom_site_fract_z
Si Si1 0.959707 0.304474 0.131407
Si Si2 0.218270 0.195477 0.597302
Si Si3 0.473181 0.461006 0.127342
Si Si4 0.290788 0.516590 0.684433
Si Si5 0.264363 0.647412 0.515316
Si Si6 0.482249 0.263763 0.978568
Si Si7 0.194519 0.165025 0.930896
Si Si8 0.029634 0.518073 0.716286
O O1 0.092906 0.342931 0.118353
O O2 0.931714 0.449543 0.181024
O O3 0.972864 0.151567 0.188548
O O4 0.831909 0.287907 0.037300
O O5 0.327516 0.059072 0.629184
O O6 0.293823 0.348735 0.646739
O O7 0.167181 0.209325 0.491648
O O8 0.581659 0.458848 0.225781
O O9 0.481010 0.614496 0.079207
O O10 0.496152 0.321800 0.072547
O O11 0.294625 0.647885 0.617863
O O12 0.158061 0.543867 0.697848
O O13 0.402660 0.638242 0.502737
O O14 0.185333 0.494035 0.474870
O O15 0.334093 0.197580 0.923139
O O16 0.078335 0.151981 0.833541
#
# Coordination Sequence:
#
# PCOD8125162 Si02
#       8
#     4   4   4   4   4   4   4   4
#     4  10  21  39  61  86 122 156 205 252 299 360
#     4   9  20  39  57  82 114 156 199 241 299 358
#     4  10  22  37  56  86 115 158 193 248 305 357
#     4  10  21  36  61  82 118 157 198 248 293 360
#     4  10  20  37  59  88 116 156 198 246 293 359
#     4  10  21  37  58  85 122 150 194 248 305 352
#     4   9  19  36  61  84 112 155 196 235 296 365
#     4  10  21  37  60  88 115 159 201 246 304 354
#
# _framework density 21.767415
#
# number of rings (size 3 to 8) (size 9 to 14) (size 15 to 20)
#    0.000    2.250    0.000    1.875    5.250    3.000 
#    4.500    3.125    0.000    0.000    0.000    0.000 
#    0.000    0.000    0.000    0.000    0.000    0.000 
#
# Total GULP energy -396750.874765 kJ/mol
# GULP energy per Si atom -12398.464836 kJ/mol
# Density = 2.171787 g / cm^3
# Si number density = 21.767415 Si / 1000 Ang^3
#
#
#
# Elastic Constant Matrix: (Units=GPa)
#
#
# Indices 1 2 3 4 5 6 
#
# 1 115.1160 19.4300 31.4166 0.0000 -9.7504 0.0000
# 2 19.4300 19.7583 13.2767 0.0000 -6.0585 0.0000
# 3 31.4166 13.2767 104.8643 0.0000 0.5308 0.0000
# 4 0.0000 0.0000 0.0000 21.9758 0.0000 -4.4640
# 5 -9.7504 -6.0585 0.5308 0.0000 31.9721 0.0000
# 6 0.0000 0.0000 0.0000 -4.4640 0.0000 37.0958
#
#
#
# Elastic Compliance Matrix: (Units=1/GPa)
#
#
# Indices 1 2 3 4 5 6 
#
# 1 0.010897 -0.008738 -0.002167 0.000000 0.001704 0.000000
# 2 -0.008738 0.066165 -0.005810 0.000000 0.009970 0.000000
# 3 -0.002167 -0.005810 0.010931 0.000000 -0.001943 0.000000
# 4 0.000000 0.000000 0.000000 0.046645 0.000000 0.005613
# 5 0.001704 0.009970 -0.001943 0.000000 0.033718 0.000000
# 6 0.000000 0.000000 0.000000 0.005613 0.000000 0.027633
#
#
# Mechanical properties :
#
#
# Convention : Reuss Voigt Hill
#
# Bulk Modulus (GPa) = 18.32712 40.88723 29.60718
# Shear Modulus (GPa) = 20.19336 29.91643 25.05489
#
# Velocity S-wave (km/s) = 3.04910 3.71127 3.39636
# Velocity P-wave (km/s) = 4.56441 6.09829 5.38623
#
# Compressibility (1/GPa) = 0.05456394
#
# Stress axis : x y z
#
# Youngs Moduli (GPa) = 91.76459 15.11374 91.48468
#
# Poissons Ratio (x) = 0.13206 0.19826
# Poissons Ratio (y) = 0.80182 0.53150
# Poissons Ratio (z) = 0.19887 0.08781
#
# Static dielectric constant tensor:
#      x y z
#    x 3.888100 0.000000 0.031450 
#    y 0.000000 3.744920 0.000000 
#    z 0.031450 0.000000 4.037540 
# 
# 
# High freq. dielectric constant tensor:
#      x y z
#    x 1.861730 0.000000 0.000030 
#    y 0.000000 1.835900 0.000000 
#    z 0.000030 0.000000 1.858360 
# 
# From -- ./inp_files/43791.got.cif
#   From: 2010.03.12/outbox.cif.g09.slc.cpg/sg14_22_cif.got.tgz:43791.got - 2010.03.31 13:35:05.
