data_PCOD8125010
_publ_section_title
;
Structure prediction by ZEFSAII (Michael W. Deem and Ramdas Pophale) SiO2 
 PCOD8125010
Probable space group: P 21/C
;
_chemical_formula_sum "Si O2"
_cell_formula_units_Z 28
_cell_length_a 5.055176
_cell_length_b 18.932360
_cell_length_c 14.095049
_cell_angle_alpha 90.000000
_cell_angle_beta 110.842206
_cell_angle_gamma 90.000000
_cell_volume 1260.714063
_symmetry_space_group_name_H-M "P 21/C"
_symmetry_group_IT_number 14
_symmetry_cell_setting 'monoclinic'
loop_
_space_group_symop_operation_xyz
x,y,z
-x,1/2+y,1/2-z
-x,-y,-z
x,1/2-y,1/2+z
loop_
_atom_site_type_symbol
_atom_site_label
_atom_site_fract_x
_atom_site_fract_y
_atom_site_fract_z
Si Si1 0.730870 0.580324 0.215057
Si Si2 0.727557 0.666064 0.732083
Si Si3 0.730634 0.419638 0.214983
Si Si4 0.252882 0.247468 0.087120
Si Si5 0.253074 0.747504 0.587244
Si Si6 0.727291 0.166013 0.231966
Si Si7 0.499900 0.367752 0.999956
O O1 0.789108 0.499971 0.252136
O O2 0.458314 0.608324 0.235806
O O3 0.682231 0.584058 0.095226
O O4 0.000796 0.628060 0.278804
O O5 0.541974 0.608349 0.764282
O O6 0.825225 0.730327 0.814320
O O7 0.537336 0.699897 0.623574
O O8 0.999533 0.628143 0.721318
O O9 0.681944 0.415949 0.095144
O O10 0.537082 0.199838 0.123448
O O11 0.290187 0.319272 0.033298
O O12 0.999879 0.206126 0.999924
O O13 0.174982 0.769718 0.685805
O O14 0.290297 0.819301 0.533386
#
# Coordination Sequence:
#
# PCOD8125010 Si02
#       7
#     4   4   4   4   4   4   4
#     4  11  22  39  57  84 120 154 190 228 280 351
#     4  10  23  36  59  85 116 156 186 231 292 332
#     4  11  22  39  57  84 120 154 190 228 280 351
#     4  10  20  36  58  87 120 141 191 243 288 338
#     4  10  20  36  58  87 120 141 191 243 288 338
#     4  10  23  36  59  85 116 156 186 231 292 332
#     4  10  21  34  60  90 113 148 184 244 298 334
#
# _framework density 22.209634999999999
#
# number of rings (size 3 to 8) (size 9 to 14) (size 15 to 20)
#    0.000    1.714    2.857    1.286    4.000    3.429 
#    0.000    4.286    0.000    5.143    0.000    0.000 
#    0.000    0.000    0.000    0.000    0.000    0.000 
#
# Total GULP energy -347215.984485 kJ/mol
# GULP energy per Si atom -12400.570874 kJ/mol
# Density = 2.215908 g / cm^3
# Si number density = 22.209635 Si / 1000 Ang^3
#
#
#
# Elastic Constant Matrix: (Units=GPa)
#
#
# Indices 1 2 3 4 5 6 
#
# 1 47.4889 -0.1763 14.5000 0.0000 22.8169 0.0000
# 2 -0.1763 86.6164 22.9900 0.0000 21.7003 0.0000
# 3 14.5000 22.9900 99.0632 0.0000 42.6144 0.0000
# 4 0.0000 0.0000 0.0000 19.2103 0.0000 11.9714
# 5 22.8169 21.7003 42.6144 0.0000 41.5389 0.0000
# 6 0.0000 0.0000 0.0000 11.9714 0.0000 26.8828
#
#
#
# Elastic Compliance Matrix: (Units=1/GPa)
#
#
# Indices 1 2 3 4 5 6 
#
# 1 0.031630 0.005034 0.005025 0.000000 -0.025158 0.000000
# 2 0.005034 0.014087 0.000625 0.000000 -0.010765 0.000000
# 3 0.005025 0.000625 0.018869 0.000000 -0.022444 0.000000
# 4 0.000000 0.000000 0.000000 0.072050 0.000000 -0.032085
# 5 -0.025158 -0.010765 -0.022444 0.000000 0.066542 0.000000
# 6 0.000000 0.000000 0.000000 -0.032085 0.000000 0.051487
#
#
# Mechanical properties :
#
#
# Convention : Reuss Voigt Hill
#
# Bulk Modulus (GPa) = 11.63447 34.19955 22.91701
# Shear Modulus (GPa) = 19.08780 30.58340 24.83560
#
# Velocity S-wave (km/s) = 2.93480 3.71487 3.34763
# Velocity P-wave (km/s) = 4.09071 5.81655 5.02823
#
# Compressibility (1/GPa) = 0.08595148
#
# Stress axis : x y z
#
# Youngs Moduli (GPa) = 31.61572 70.98982 52.99752
#
# Poissons Ratio (x) = -0.35734 -0.26629
# Poissons Ratio (y) = -0.15915 -0.03312
# Poissons Ratio (z) = -0.15885 -0.04436
#
# Static dielectric constant tensor:
#      x y z
#    x 3.802810 0.000000 0.201140 
#    y 0.000000 3.686690 0.000000 
#    z 0.201140 0.000000 4.212590 
# 
# 
# High freq. dielectric constant tensor:
#      x y z
#    x 1.878310 0.000000 0.015610 
#    y 0.000000 1.842780 0.000000 
#    z 0.015610 0.000000 1.865610 
# 
# From -- ./inp_files/37526.got.cif
#   From: 2010.03.12/outbox.cif.g09.slc.cpg/sg14_19_cif.got.tgz:37526.got - 2010.03.31 13:35:05.
