data_PCOD8125647
_publ_section_title
;
Structure prediction by ZEFSAII (Michael W. Deem and Ramdas Pophale) SiO2 
 PCOD8125647
Probable space group: P 21/C
;
_chemical_formula_sum "Si O2"
_cell_formula_units_Z 28
_cell_length_a 9.515265
_cell_length_b 10.847644
_cell_length_c 13.978120
_cell_angle_alpha 90.000000
_cell_angle_beta 113.844853
_cell_angle_gamma 90.000000
_cell_volume 1319.644399
_symmetry_space_group_name_H-M "P 21/C"
_symmetry_group_IT_number 14
_symmetry_cell_setting 'monoclinic'
loop_
_space_group_symop_operation_xyz
x,y,z
-x,1/2+y,1/2-z
-x,-y,-z
x,1/2-y,1/2+z
loop_
_atom_site_type_symbol
_atom_site_label
_atom_site_fract_x
_atom_site_fract_y
_atom_site_fract_z
Si Si1 0.696031 0.656326 0.684911
Si Si2 0.461296 0.788370 0.279094
Si Si3 0.036468 0.325537 0.697381
Si Si4 0.200514 0.599807 0.212537
Si Si5 0.222359 0.969338 0.153410
Si Si6 0.697078 0.825577 0.971832
Si Si7 0.969812 0.253708 0.977753
O O1 0.549218 0.703609 0.702266
O O2 0.819298 0.765087 0.710510
O O3 0.775051 0.543415 0.762229
O O4 0.645659 0.625376 0.562221
O O5 0.366051 0.662246 0.251880
O O6 0.350740 0.908248 0.258516
O O7 0.580006 0.779491 0.400475
O O8 0.091097 0.460321 0.677061
O O9 0.893156 0.336602 0.727605
O O10 0.985007 0.236694 0.596062
O O11 0.106328 0.622752 0.087803
O O12 0.139596 0.862051 0.072669
O O13 0.306521 0.060449 0.102726
O O14 0.864851 0.766147 0.024473
#
# Coordination Sequence:
#
# PCOD8125647 Si02
#       7
#     4   4   4   4   4   4   4
#     4  12  24  41  69  96 133 178 214 271 328 389
#     4  11  25  42  64  99 137 164 218 280 330 386
#     4  11  22  41  69  94 128 172 222 271 323 389
#     4  11  25  41  69 101 128 171 228 270 323 399
#     4  10  21  40  69  92 129 168 221 276 325 385
#     4  11  21  43  68  98 128 177 223 263 333 398
#     4  10  20  40  67  98 127 168 223 274 324 384
#
# _framework density 21.217838
#
# number of rings (size 3 to 8) (size 9 to 14) (size 15 to 20)
#    0.000    1.143    4.286    4.286    2.000    5.143 
#    0.000    0.714    3.143    0.000    0.000    0.000 
#    0.000    0.000    0.000    0.000    0.000    0.000 
#
# Total GULP energy -347233.139016 kJ/mol
# GULP energy per Si atom -12401.183536 kJ/mol
# Density = 2.116954 g / cm^3
# Si number density = 21.217838 Si / 1000 Ang^3
#
#
#
# Elastic Constant Matrix: (Units=GPa)
#
#
# Indices 1 2 3 4 5 6 
#
# 1 109.1825 10.7535 28.7929 0.0000 4.2202 0.0000
# 2 10.7535 33.5329 14.5892 0.0000 9.2187 0.0000
# 3 28.7929 14.5892 93.4028 0.0000 4.9626 0.0000
# 4 0.0000 0.0000 0.0000 39.1262 0.0000 13.4643
# 5 4.2202 9.2187 4.9626 0.0000 27.2007 0.0000
# 6 0.0000 0.0000 0.0000 13.4643 0.0000 27.9411
#
#
#
# Elastic Compliance Matrix: (Units=1/GPa)
#
#
# Indices 1 2 3 4 5 6 
#
# 1 0.010100 -0.001911 -0.002793 0.000000 -0.000410 0.000000
# 2 -0.001911 0.035317 -0.004349 0.000000 -0.010880 0.000000
# 3 -0.002793 -0.004349 0.012264 0.000000 -0.000330 0.000000
# 4 0.000000 0.000000 0.000000 0.030639 0.000000 -0.014764
# 5 -0.000410 -0.010880 -0.000330 0.000000 0.040575 0.000000
# 6 0.000000 0.000000 0.000000 -0.014764 0.000000 0.042904
#
#
# Mechanical properties :
#
#
# Convention : Reuss Voigt Hill
#
# Bulk Modulus (GPa) = 25.26878 38.26546 31.76712
# Shear Modulus (GPa) = 24.61870 30.98579 27.80225
#
# Velocity S-wave (km/s) = 3.40999 3.82562 3.62377
# Velocity P-wave (km/s) = 5.23823 6.13087 5.70204
#
# Compressibility (1/GPa) = 0.03957453
#
# Stress axis : x y z
#
# Youngs Moduli (GPa) = 99.01373 28.31460 81.53792
#
# Poissons Ratio (x) = 0.05411 0.22774
# Poissons Ratio (y) = 0.18921 0.35464
# Poissons Ratio (z) = 0.27656 0.12315
#
# Static dielectric constant tensor:
#      x y z
#    x 3.914160 0.000000 0.124300 
#    y 0.000000 3.768460 0.000000 
#    z 0.124300 0.000000 4.001260 
# 
# 
# High freq. dielectric constant tensor:
#      x y z
#    x 1.840150 0.000000 0.010590 
#    y 0.000000 1.819550 0.000000 
#    z 0.010590 0.000000 1.831960 
# 
# From -- ./inp_files/40411.got.cif
#   From: 2010.03.12/outbox.cif.g09.slc.cpg/sg14_21_cif.got.tgz:40411.got - 2010.03.31 13:35:05.
