data_PCOD8125337
_publ_section_title
;
Structure prediction by ZEFSAII (Michael W. Deem and Ramdas Pophale) SiO2 
 PCOD8125337
Probable space group: P 21/C
;
_chemical_formula_sum "Si O2"
_cell_formula_units_Z 32
_cell_length_a 18.002420
_cell_length_b 14.484598
_cell_length_c 13.064416
_cell_angle_alpha 90.000000
_cell_angle_beta 26.053691
_cell_angle_gamma 90.000000
_cell_volume 1496.245031
_symmetry_space_group_name_H-M "P 21/C"
_symmetry_group_IT_number 14
_symmetry_cell_setting 'monoclinic'
loop_
_space_group_symop_operation_xyz
x,y,z
-x,1/2+y,1/2-z
-x,-y,-z
x,1/2-y,1/2+z
loop_
_atom_site_type_symbol
_atom_site_label
_atom_site_fract_x
_atom_site_fract_y
_atom_site_fract_z
Si Si1 0.949855 0.653880 0.576402
Si Si2 0.923779 0.921298 0.451402
Si Si3 0.257339 0.831743 0.538323
Si Si4 0.222896 0.225828 0.891317
Si Si5 0.496957 0.814902 0.839979
Si Si6 0.235213 0.464997 0.054974
Si Si7 0.805120 0.064620 0.730434
Si Si8 0.022562 0.811409 0.643775
O O1 0.786388 0.679530 0.708501
O O2 0.894211 0.553922 0.690437
O O3 0.115972 0.661382 0.301682
O O4 0.979026 0.716569 0.639825
O O5 0.899411 0.814130 0.463910
O O6 0.885430 0.976122 0.394760
O O7 0.117234 0.934380 0.251067
O O8 0.792551 0.960707 0.701105
O O9 0.401335 0.756563 0.384409
O O10 0.183636 0.801163 0.520023
O O11 0.332234 0.936670 0.444014
O O12 0.413726 0.254087 0.682445
O O13 0.141534 0.162951 0.082969
O O14 0.632397 0.879540 0.614055
O O15 0.371119 0.883106 0.054828
O O16 0.943630 0.111637 0.483381
#
# Coordination Sequence:
#
# PCOD8125337 Si02
#       8
#     4   4   4   4   4   4   4   4
#     4  11  21  42  69  88 124 171 216 257 305 382
#     4  10  20  38  61  90 126 155 219 254 303 380
#     4  11  24  43  66  94 125 170 218 256 319 387
#     4  10  22  39  61  91 127 165 208 251 321 376
#     4  11  24  41  61  93 135 162 206 265 325 381
#     4  11  24  43  62  97 128 167 211 268 319 373
#     4  11  21  38  62  96 122 165 209 263 308 373
#     4  11  19  39  67  88 120 170 211 255 309 369
#
# _framework density 21.386870999999999
#
# number of rings (size 3 to 8) (size 9 to 14) (size 15 to 20)
#    0.000    1.250    6.250    1.125    0.000    3.000 
#    6.750    0.625    0.000    0.000    0.000    0.000 
#    0.000    0.000    0.000    0.000    0.000    0.000 
#
# Total GULP energy -396492.359825 kJ/mol
# GULP energy per Si atom -12390.386245 kJ/mol
# Density = 2.133819 g / cm^3
# Si number density = 21.386871 Si / 1000 Ang^3
#
#
#
# Elastic Constant Matrix: (Units=GPa)
#
#
# Indices 1 2 3 4 5 6 
#
# 1 124.5261 32.8159 43.5919 0.0000 -6.8621 0.0000
# 2 32.8159 64.3191 25.3937 0.0000 -0.6992 0.0000
# 3 43.5919 25.3937 74.3212 0.0000 -4.3178 0.0000
# 4 0.0000 0.0000 0.0000 37.4582 0.0000 2.7106
# 5 -6.8621 -0.6992 -4.3178 0.0000 30.6364 0.0000
# 6 0.0000 0.0000 0.0000 2.7106 0.0000 30.1894
#
#
#
# Elastic Compliance Matrix: (Units=1/GPa)
#
#
# Indices 1 2 3 4 5 6 
#
# 1 0.010811 -0.003505 -0.005049 0.000000 0.001630 0.000000
# 2 -0.003505 0.019114 -0.004533 0.000000 -0.000988 0.000000
# 3 -0.005049 -0.004533 0.018041 0.000000 0.001308 0.000000
# 4 0.000000 0.000000 0.000000 0.026871 0.000000 -0.002413
# 5 0.001630 -0.000988 0.001308 0.000000 0.033168 0.000000
# 6 0.000000 0.000000 0.000000 -0.002413 0.000000 0.033341
#
#
# Mechanical properties :
#
#
# Convention : Reuss Voigt Hill
#
# Bulk Modulus (GPa) = 45.88402 51.86327 48.87364
# Shear Modulus (GPa) = 28.60669 30.41448 29.51058
#
# Velocity S-wave (km/s) = 3.66126 3.77518 3.71866
# Velocity P-wave (km/s) = 6.27487 6.58068 6.42959
#
# Compressibility (1/GPa) = 0.02179408
#
# Stress axis : x y z
#
# Youngs Moduli (GPa) = 92.49522 52.31641 55.42870
#
# Poissons Ratio (x) = 0.18336 0.27986
# Poissons Ratio (y) = 0.32419 0.25123
# Poissons Ratio (z) = 0.46701 0.23713
#
# Static dielectric constant tensor:
#      x y z
#    x 4.132390 0.000000 0.166550 
#    y 0.000000 4.015160 0.000000 
#    z 0.166550 0.000000 3.593710 
# 
# 
# High freq. dielectric constant tensor:
#      x y z
#    x 1.851090 0.000000 0.013290 
#    y 0.000000 1.844340 0.000000 
#    z 0.013290 0.000000 1.806530 
# 
# From -- ./inp_files/34160.got.cif
#   From: 2010.03.12/outbox.cif.g09.slc.cpg/sg14_18_cif.got.tgz:34160.got - 2010.03.31 13:35:05.
