data_PCOD8125899
_publ_section_title
;
Structure prediction by ZEFSAII (Michael W. Deem and Ramdas Pophale) SiO2 
 PCOD8125899
Probable space group: P 21/C
;
_chemical_formula_sum "Si O2"
_cell_formula_units_Z 32
_cell_length_a 14.569466
_cell_length_b 17.459045
_cell_length_c 5.475938
_cell_angle_alpha 90.000000
_cell_angle_beta 112.710355
_cell_angle_gamma 90.000000
_cell_volume 1284.914133
_symmetry_space_group_name_H-M "P 21/C"
_symmetry_group_IT_number 14
_symmetry_cell_setting 'monoclinic'
loop_
_space_group_symop_operation_xyz
x,y,z
-x,1/2+y,1/2-z
-x,-y,-z
x,1/2-y,1/2+z
loop_
_atom_site_type_symbol
_atom_site_label
_atom_site_fract_x
_atom_site_fract_y
_atom_site_fract_z
Si Si1 0.616092 0.790192 0.527129
Si Si2 0.275927 0.938220 0.325192
Si Si3 0.360018 0.050981 0.785472
Si Si4 0.155257 0.708154 0.799161
Si Si5 0.920289 0.790864 0.054334
Si Si6 0.436748 0.585357 0.627458
Si Si7 0.393055 0.768857 0.824755
Si Si8 0.245888 0.405187 0.590271
O O1 0.653919 0.752408 0.313577
O O2 0.492962 0.785102 0.392032
O O3 0.677447 0.872054 0.621056
O O4 0.192713 0.877909 0.307021
O O5 0.371059 0.894692 0.299123
O O6 0.301576 0.984014 0.594487
O O7 0.233480 0.002744 0.097684
O O8 0.443178 0.098185 0.708402
O O9 0.291323 0.110390 0.864814
O O10 0.423513 0.004664 0.057759
O O11 0.189990 0.759325 0.600725
O O12 0.037387 0.698212 0.675587
O O13 0.885521 0.748054 0.265419
O O14 0.864314 0.871970 0.001314
O O15 0.410523 0.640877 0.372207
O O16 0.333049 0.738853 0.005398
#
# Coordination Sequence:
#
# PCOD8125899 Si02
#       8
#     4   4   4   4   4   4   4   4
#     4  10  21  36  57  90 127 172 210 264 326 394
#     4  11  26  41  69  97 132 185 230 288 348 399
#     4  10  23  42  60  90 133 182 221 285 343 402
#     4  10  25  50  76  99 138 178 231 290 341 413
#     4  10  23  45  74 107 140 184 221 273 347 414
#     4  10  23  41  59  87 130 180 235 276 338 401
#     4  10  22  35  57  84 114 160 217 270 322 375
#     4  11  24  38  67 102 140 174 224 280 348 424
#
# _framework density 24.904385999999999
#
# number of rings (size 3 to 8) (size 9 to 14) (size 15 to 20)
#    0.000    1.750    0.000    2.625   12.250    1.500 
#    0.000    0.625    0.000    0.000    0.000    0.000 
#    0.000    0.000    0.000    0.000    0.000    0.000 
#
# Total GULP energy -396669.760337 kJ/mol
# GULP energy per Si atom -12395.930011 kJ/mol
# Density = 2.484770 g / cm^3
# Si number density = 24.904386 Si / 1000 Ang^3
#
#
#
# Elastic Constant Matrix: (Units=GPa)
#
#
# Indices 1 2 3 4 5 6 
#
# 1 93.8311 64.8770 58.1329 0.0000 -30.6134 0.0000
# 2 64.8770 120.4327 41.9240 0.0000 -13.4160 0.0000
# 3 58.1329 41.9240 154.8352 0.0000 -25.6144 0.0000
# 4 0.0000 0.0000 0.0000 43.8711 0.0000 -6.5089
# 5 -30.6134 -13.4160 -25.6144 0.0000 27.2417 0.0000
# 6 0.0000 0.0000 0.0000 -6.5089 0.0000 52.6825
#
#
#
# Elastic Compliance Matrix: (Units=1/GPa)
#
#
# Indices 1 2 3 4 5 6 
#
# 1 0.028230 -0.011376 -0.003786 0.000000 0.022561 0.000000
# 2 -0.011376 0.013908 -0.000564 0.000000 -0.006465 0.000000
# 3 -0.003786 -0.000564 0.008624 0.000000 0.003576 0.000000
# 4 0.000000 0.000000 0.000000 0.023220 0.000000 0.002869
# 5 0.022561 -0.006465 0.003576 0.000000 0.062241 0.000000
# 6 0.000000 0.000000 0.000000 0.002869 0.000000 0.019336
#
#
# Mechanical properties :
#
#
# Convention : Reuss Voigt Hill
#
# Bulk Modulus (GPa) = 51.78935 77.66297 64.72616
# Shear Modulus (GPa) = 25.84680 38.37006 32.10843
#
# Velocity S-wave (km/s) = 3.22505 3.92943 3.59453
# Velocity P-wave (km/s) = 5.89138 7.19995 6.57829
#
# Compressibility (1/GPa) = 0.01930899
#
# Stress axis : x y z
#
# Youngs Moduli (GPa) = 35.42378 71.90209 115.94915
#
# Poissons Ratio (x) = 0.81795 0.43902
# Poissons Ratio (y) = 0.40298 0.06541
# Poissons Ratio (z) = 0.13413 0.04056
#
# Static dielectric constant tensor:
#      x y z
#    x 4.446740 0.000000 -0.307420 
#    y 0.000000 4.693550 0.000000 
#    z -0.307420 0.000000 4.951620 
# 
# 
# High freq. dielectric constant tensor:
#      x y z
#    x 1.988120 0.000000 -0.018950 
#    y 0.000000 2.010090 0.000000 
#    z -0.018950 0.000000 2.016690 
# 
# From -- ./inp_files/3814.got.cif
#   From: 2010.03.12/outbox.cif.g09.slc.cpg/sg14_2_cif.got.tgz:3814.got - 2010.03.31 13:35:05.
