data_PCOD8125667
_publ_section_title
;
Structure prediction by ZEFSAII (Michael W. Deem and Ramdas Pophale) SiO2 
 PCOD8125667
Probable space group: P 21/C
;
_chemical_formula_sum "Si O2"
_cell_formula_units_Z 32
_cell_length_a 8.011649
_cell_length_b 7.578833
_cell_length_c 24.376845
_cell_angle_alpha 90.000000
_cell_angle_beta 68.441908
_cell_angle_gamma 90.000000
_cell_volume 1376.594218
_symmetry_space_group_name_H-M "P 21/C"
_symmetry_group_IT_number 14
_symmetry_cell_setting 'monoclinic'
loop_
_space_group_symop_operation_xyz
x,y,z
-x,1/2+y,1/2-z
-x,-y,-z
x,1/2-y,1/2+z
loop_
_atom_site_type_symbol
_atom_site_label
_atom_site_fract_x
_atom_site_fract_y
_atom_site_fract_z
Si Si1 0.742854 0.627730 0.630099
Si Si2 0.603399 0.275418 0.380333
Si Si3 0.383862 0.148042 0.066273
Si Si4 0.854538 0.748284 0.999576
Si Si5 0.998846 0.657931 0.693276
Si Si6 0.080132 0.246314 0.176120
Si Si7 0.612611 0.043631 0.560649
Si Si8 0.178253 0.768729 0.383547
O O1 0.538173 0.701415 0.653072
O O2 0.847498 0.671154 0.561203
O O3 0.730465 0.418073 0.641183
O O4 0.853907 0.723524 0.665863
O O5 0.571722 0.447426 0.422518
O O6 0.807244 0.246478 0.335108
O O7 0.549288 0.098937 0.419517
O O8 0.268244 0.131154 0.025266
O O9 0.557812 0.273841 0.036634
O O10 0.278328 0.256463 0.126830
O O11 0.054637 0.752901 0.952649
O O12 0.778935 0.546947 0.008478
O O13 0.917910 0.679775 0.763292
O O14 0.027092 0.455433 0.679122
O O15 0.934441 0.345174 0.154749
O O16 0.671098 0.090102 0.616580
#
# Coordination Sequence:
#
# PCOD8125667 Si02
#       8
#     4   4   4   4   4   4   4   4
#     4  10  21  42  65  91 128 176 211 257 326 384
#     4  10  23  42  63  94 128 168 214 254 319 385
#     4  10  21  44  62  89 136 163 209 269 316 378
#     4  10  22  39  63  95 125 173 213 257 321 381
#     4  10  22  43  64  95 125 165 219 265 320 387
#     4   9  22  40  67  90 123 170 208 269 327 373
#     4  11  22  38  63  95 126 166 207 263 317 377
#     4  10  20  41  62  91 132 164 213 265 319 382
#
# _framework density 23.245775999999999
#
# number of rings (size 3 to 8) (size 9 to 14) (size 15 to 20)
#    0.000    2.000    1.250    1.875    1.750    4.000 
#   15.750    0.000    0.000    0.000    0.000    0.000 
#    0.000    0.000    0.000    0.000    0.000    0.000 
#
# Total GULP energy -396621.963430 kJ/mol
# GULP energy per Si atom -12394.436357 kJ/mol
# Density = 2.319287 g / cm^3
# Si number density = 23.245776 Si / 1000 Ang^3
#
#
#
# Elastic Constant Matrix: (Units=GPa)
#
#
# Indices 1 2 3 4 5 6 
#
# 1 121.2740 20.8907 27.2485 0.0000 25.1367 0.0000
# 2 20.8907 66.0270 0.3381 0.0000 4.6417 0.0000
# 3 27.2485 0.3381 79.6969 0.0000 26.5237 0.0000
# 4 0.0000 0.0000 0.0000 26.7063 0.0000 -1.3336
# 5 25.1367 4.6417 26.5237 0.0000 36.0813 0.0000
# 6 0.0000 0.0000 0.0000 -1.3336 0.0000 28.7114
#
#
#
# Elastic Compliance Matrix: (Units=1/GPa)
#
#
# Indices 1 2 3 4 5 6 
#
# 1 0.010260 -0.002846 -0.001640 0.000000 -0.005576 0.000000
# 2 -0.002846 0.016110 0.001237 0.000000 -0.000999 0.000000
# 3 -0.001640 0.001237 0.016914 0.000000 -0.011450 0.000000
# 4 0.000000 0.000000 0.000000 0.037531 0.000000 0.001743
# 5 -0.005576 -0.000999 -0.011450 0.000000 0.040146 0.000000
# 6 0.000000 0.000000 0.000000 0.001743 0.000000 0.034910
#
#
# Mechanical properties :
#
#
# Convention : Reuss Voigt Hill
#
# Bulk Modulus (GPa) = 27.18417 40.43917 33.81167
# Shear Modulus (GPa) = 28.63187 32.86784 30.74985
#
# Velocity S-wave (km/s) = 3.51337 3.76430 3.64100
# Velocity P-wave (km/s) = 5.30829 6.02722 5.67915
#
# Compressibility (1/GPa) = 0.03678612
#
# Stress axis : x y z
#
# Youngs Moduli (GPa) = 97.46265 62.07447 59.12370
#
# Poissons Ratio (x) = 0.17666 0.09697
# Poissons Ratio (y) = 0.27737 -0.07315
# Poissons Ratio (z) = 0.15985 -0.07680
#
# Static dielectric constant tensor:
#      x y z
#    x 4.531130 0.000000 0.157600 
#    y 0.000000 4.077410 0.000000 
#    z 0.157600 0.000000 3.445150 
# 
# 
# High freq. dielectric constant tensor:
#      x y z
#    x 1.932440 0.000000 0.010340 
#    y 0.000000 1.920210 0.000000 
#    z 0.010340 0.000000 1.883850 
# 
# From -- ./inp_files/72059.got.cif
#   From: 2010.03.12/outbox.cif.g09.slc.cpg/sg14_37_cif.got.tgz:72059.got - 2010.03.31 13:35:05.
