data_PCOD8125729
_publ_section_title
;
Structure prediction by ZEFSAII (Michael W. Deem and Ramdas Pophale) SiO2 
 PCOD8125729
Probable space group: P 21/C
;
_chemical_formula_sum "Si O2"
_cell_formula_units_Z 24
_cell_length_a 5.235384
_cell_length_b 8.203533
_cell_length_c 22.989996
_cell_angle_alpha 90.000000
_cell_angle_beta 82.986223
_cell_angle_gamma 90.000000
_cell_volume 980.000374
_symmetry_space_group_name_H-M "P 21/C"
_symmetry_group_IT_number 14
_symmetry_cell_setting 'monoclinic'
loop_
_space_group_symop_operation_xyz
x,y,z
-x,1/2+y,1/2-z
-x,-y,-z
x,1/2-y,1/2+z
loop_
_atom_site_type_symbol
_atom_site_label
_atom_site_fract_x
_atom_site_fract_y
_atom_site_fract_z
Si Si1 0.708616 0.512289 0.703758
Si Si2 0.570028 0.712356 0.053085
Si Si3 0.317136 0.134249 0.572182
Si Si4 0.223799 0.650075 0.648806
Si Si5 0.092844 0.431760 0.867038
Si Si6 0.487974 0.669630 0.811336
O O1 0.453498 0.595820 0.683899
O O2 0.728191 0.608346 0.765014
O O3 0.664128 0.320310 0.712355
O O4 0.976484 0.531421 0.661026
O O5 0.490300 0.523552 0.057648
O O6 0.345197 0.837599 0.079556
O O7 0.799381 0.714477 0.094346
O O8 0.662009 0.753300 0.984650
O O9 0.412209 0.227144 0.627777
O O10 0.023518 0.077103 0.589904
O O11 0.124954 0.836998 0.665330
O O12 0.302891 0.511035 0.819092
#
# Coordination Sequence:
#
# PCOD8125729 Si02
#       6
#     4   4   4   4   4   4
#     4  12  28  45  71  97 143 183 237 287 352 419
#     4   9  18  40  69 106 136 184 225 290 340 424
#     4   9  20  37  69 105 141 175 237 282 347 414
#     4  11  24  45  71 101 135 184 228 286 348 416
#     4  10  20  41  74 103 138 180 234 283 350 414
#     4  11  27  44  68 104 137 188 232 296 346 420
#
# _framework density 24.489785000000001
#
# number of rings (size 3 to 8) (size 9 to 14) (size 15 to 20)
#    0.000    1.667    1.667    1.500    9.333    1.333 
#    0.000    1.667    0.000    0.000    0.000    0.000 
#    0.000    0.000    0.000    0.000    0.000    0.000 
#
# Total GULP energy -297334.413528 kJ/mol
# GULP energy per Si atom -12388.933897 kJ/mol
# Density = 2.443404 g / cm^3
# Si number density = 24.489785 Si / 1000 Ang^3
#
#
#
# Elastic Constant Matrix: (Units=GPa)
#
#
# Indices 1 2 3 4 5 6 
#
# 1 108.2418 12.8980 25.9142 0.0000 -14.1643 0.0000
# 2 12.8980 49.2771 38.3994 0.0000 2.7287 0.0000
# 3 25.9142 38.3994 105.6758 0.0000 -2.6723 0.0000
# 4 0.0000 0.0000 0.0000 26.7353 0.0000 0.9724
# 5 -14.1643 2.7287 -2.6723 0.0000 25.0162 0.0000
# 6 0.0000 0.0000 0.0000 0.9724 0.0000 22.0449
#
#
#
# Elastic Compliance Matrix: (Units=1/GPa)
#
#
# Indices 1 2 3 4 5 6 
#
# 1 0.010672 -0.001683 -0.001853 0.000000 0.006028 0.000000
# 2 -0.001683 0.029022 -0.010265 0.000000 -0.005215 0.000000
# 3 -0.001853 -0.010265 0.013686 0.000000 0.001533 0.000000
# 4 0.000000 0.000000 0.000000 0.037464 0.000000 -0.001653
# 5 0.006028 -0.005215 0.001533 0.000000 0.044120 0.000000
# 6 0.000000 0.000000 0.000000 -0.001653 0.000000 0.045435
#
#
# Mechanical properties :
#
#
# Convention : Reuss Voigt Hill
#
# Bulk Modulus (GPa) = 38.79344 46.40199 42.59771
# Shear Modulus (GPa) = 23.08496 27.15816 25.12156
#
# Velocity S-wave (km/s) = 3.07357 3.33372 3.20628
# Velocity P-wave (km/s) = 5.33581 5.81436 5.58022
#
# Compressibility (1/GPa) = 0.02577756
#
# Stress axis : x y z
#
# Youngs Moduli (GPa) = 93.70727 34.45717 73.06786
#
# Poissons Ratio (x) = 0.05800 0.13539
# Poissons Ratio (y) = 0.15772 0.75002
# Poissons Ratio (z) = 0.17363 0.35369
#
# Static dielectric constant tensor:
#      x y z
#    x 4.458980 0.000000 -0.057330 
#    y 0.000000 3.987210 0.000000 
#    z -0.057330 0.000000 4.762260 
# 
# 
# High freq. dielectric constant tensor:
#      x y z
#    x 1.974590 0.000000 -0.013660 
#    y 0.000000 1.937290 0.000000 
#    z -0.013660 0.000000 1.972290 
# 
# From -- ./inp_files/70983.got.cif
#   From: 2010.03.12/outbox.cif.g09.slc.cpg/sg14_36_cif.got.tgz:70983.got - 2010.03.31 13:35:05.
