data_PCOD8125908
_publ_section_title
;
Structure prediction by ZEFSAII (Michael W. Deem and Ramdas Pophale) SiO2 
 PCOD8125908
Probable space group: P 21/C
;
_chemical_formula_sum "Si O2"
_cell_formula_units_Z 28
_cell_length_a 11.449039
_cell_length_b 12.723070
_cell_length_c 13.460089
_cell_angle_alpha 90.000000
_cell_angle_beta 133.454191
_cell_angle_gamma 90.000000
_cell_volume 1423.312723
_symmetry_space_group_name_H-M "P 21/C"
_symmetry_group_IT_number 14
_symmetry_cell_setting 'monoclinic'
loop_
_space_group_symop_operation_xyz
x,y,z
-x,1/2+y,1/2-z
-x,-y,-z
x,1/2-y,1/2+z
loop_
_atom_site_type_symbol
_atom_site_label
_atom_site_fract_x
_atom_site_fract_y
_atom_site_fract_z
Si Si1 0.704578 0.343365 0.921565
Si Si2 0.250537 0.431654 0.987797
Si Si3 0.978466 0.180710 0.429103
Si Si4 0.835979 0.488766 0.271881
Si Si5 0.155883 0.107008 0.024793
Si Si6 0.554901 0.722312 0.384546
Si Si7 0.280254 0.732686 0.856395
O O1 0.872143 0.349056 0.961345
O O2 0.561285 0.291286 0.777324
O O3 0.660127 0.461245 0.928912
O O4 0.730019 0.269734 0.031566
O O5 0.194533 0.436081 0.840084
O O6 0.097439 0.413865 0.970073
O O7 0.374411 0.338459 0.076448
O O8 0.868836 0.198719 0.268087
O O9 0.076744 0.284941 0.515711
O O10 0.780773 0.546035 0.340704
O O11 0.730758 0.383084 0.199731
O O12 0.026898 0.462310 0.388585
O O13 0.305301 0.133852 0.038636
O O14 0.448164 0.712037 0.421888
#
# Coordination Sequence:
#
# PCOD8125908 Si02
#       7
#     4   4   4   4   4   4   4
#     4  10  21  37  58  80 118 156 181 241 290 336
#     4  10  21  36  59  84 110 153 192 237 283 342
#     4   9  19  37  55  84 114 145 196 233 284 344
#     4   9  19  35  61  84 109 151 198 238 280 336
#     4   9  19  36  56  87 110 148 193 244 279 330
#     4  10  22  36  54  87 118 142 192 235 282 348
#     4   9  20  36  55  84 113 150 190 234 285 341
#
# _framework density 19.672415999999998
#
# number of rings (size 3 to 8) (size 9 to 14) (size 15 to 20)
#    0.000    2.571    0.000    0.429    6.000    1.143 
#    0.000    1.429    0.000    3.429    0.000    0.000 
#    0.000    0.000    0.000    0.000    0.000    0.000 
#
# Total GULP energy -347164.915423 kJ/mol
# GULP energy per Si atom -12398.746979 kJ/mol
# Density = 1.962764 g / cm^3
# Si number density = 19.672416 Si / 1000 Ang^3
#
#
#
# Elastic Constant Matrix: (Units=GPa)
#
#
# Indices 1 2 3 4 5 6 
#
# 1 82.8624 18.2577 52.8516 0.0000 0.3910 0.0000
# 2 18.2577 54.1086 40.5823 0.0000 -4.5721 0.0000
# 3 52.8516 40.5823 100.3439 0.0000 -11.5600 0.0000
# 4 0.0000 0.0000 0.0000 31.0925 0.0000 0.3419
# 5 0.3910 -4.5721 -11.5600 0.0000 27.7721 0.0000
# 6 0.0000 0.0000 0.0000 0.3419 0.0000 28.0881
#
#
#
# Elastic Compliance Matrix: (Units=1/GPa)
#
#
# Indices 1 2 3 4 5 6 
#
# 1 0.018806 0.001568 -0.011071 0.000000 -0.004615 0.000000
# 2 0.001568 0.026659 -0.011664 0.000000 -0.000488 0.000000
# 3 -0.011071 -0.011664 0.021334 0.000000 0.007116 0.000000
# 4 0.000000 0.000000 0.000000 0.032166 0.000000 -0.000392
# 5 -0.004615 -0.000488 0.007116 0.000000 0.038954 0.000000
# 6 0.000000 0.000000 0.000000 -0.000392 0.000000 0.035607
#
#
# Mechanical properties :
#
#
# Convention : Reuss Voigt Hill
#
# Bulk Modulus (GPa) = 40.87478 51.18868 46.03173
# Shear Modulus (GPa) = 22.31999 25.76543 24.04271
#
# Velocity S-wave (km/s) = 3.37201 3.62294 3.49972
# Velocity P-wave (km/s) = 5.99862 6.60136 6.30719
#
# Compressibility (1/GPa) = 0.02446497
#
# Stress axis : x y z
#
# Youngs Moduli (GPa) = 53.17529 37.51056 46.87420
#
# Poissons Ratio (x) = -0.05881 0.51893
# Poissons Ratio (y) = -0.08336 0.54673
# Poissons Ratio (z) = 0.58869 0.43752
#
# Static dielectric constant tensor:
#      x y z
#    x 3.667530 0.000000 0.088100 
#    y 0.000000 3.506450 0.000000 
#    z 0.088100 0.000000 3.517510 
# 
# 
# High freq. dielectric constant tensor:
#      x y z
#    x 1.767680 0.000000 0.007270 
#    y 0.000000 1.758370 0.000000 
#    z 0.007270 0.000000 1.762900 
# 
# From -- ./inp_files/25589.got.cif
#   From: 2010.03.12/outbox.cif.g09.slc.cpg/sg14_13_cif.got.tgz:25589.got - 2010.03.31 13:35:05.
