data_PCOD8125784
_publ_section_title
;
Structure prediction by ZEFSAII (Michael W. Deem and Ramdas Pophale) SiO2 
 PCOD8125784
Probable space group: P 21/C
;
_chemical_formula_sum "Si O2"
_cell_formula_units_Z 24
_cell_length_a 9.127892
_cell_length_b 9.217645
_cell_length_c 14.341854
_cell_angle_alpha 90.000000
_cell_angle_beta 99.647695
_cell_angle_gamma 90.000000
_cell_volume 1189.623777
_symmetry_space_group_name_H-M "P 21/C"
_symmetry_group_IT_number 14
_symmetry_cell_setting 'monoclinic'
loop_
_space_group_symop_operation_xyz
x,y,z
-x,1/2+y,1/2-z
-x,-y,-z
x,1/2-y,1/2+z
loop_
_atom_site_type_symbol
_atom_site_label
_atom_site_fract_x
_atom_site_fract_y
_atom_site_fract_z
Si Si1 0.753479 0.737049 0.630393
Si Si2 0.082766 0.534795 0.289210
Si Si3 0.718213 0.304332 0.164666
Si Si4 0.065779 0.498499 0.906364
Si Si5 0.557017 0.640016 0.452674
Si Si6 0.745895 0.933506 0.796075
O O1 0.810540 0.572171 0.642241
O O2 0.627017 0.745445 0.537919
O O3 0.694745 0.800929 0.722753
O O4 0.890629 0.834162 0.611919
O O5 0.165936 0.686396 0.285579
O O6 0.056719 0.460555 0.184940
O O7 0.925088 0.559318 0.324150
O O8 0.793703 0.393246 0.087157
O O9 0.569647 0.229213 0.113251
O O10 0.684168 0.415680 0.245572
O O11 0.000000 0.500000 0.000000
O O12 0.500000 0.500000 0.500000
O O13 0.679312 0.589627 0.390763
#
# Coordination Sequence:
#
# PCOD8125784 Si02
#       6
#     4   4   4   4   4   4
#     4  10  23  42  65  95 128 169 213 265 320 381
#     4  10  20  43  67  90 127 163 216 266 317 370
#     4  10  23  43  63  92 131 167 210 265 318 382
#     4  10  22  39  66  97 120 162 217 265 321 371
#     4  12  26  41  63  99 130 171 219 251 326 394
#     4  10  24  42  66  92 131 171 210 271 321 368
#
# _framework density 20.174446
#
# number of rings (size 3 to 8) (size 9 to 14) (size 15 to 20)
#    0.000    2.000    1.667    4.000    7.000    6.000 
#    0.000    0.000    0.000    0.000    0.000    0.000 
#    0.000    0.000    0.000    0.000    0.000    0.000 
#
# Total GULP energy -297555.588054 kJ/mol
# GULP energy per Si atom -12398.149502 kJ/mol
# Density = 2.012853 g / cm^3
# Si number density = 20.174446 Si / 1000 Ang^3
#
#
#
# Elastic Constant Matrix: (Units=GPa)
#
#
# Indices 1 2 3 4 5 6 
#
# 1 83.9772 29.8699 55.4235 0.0000 3.1131 0.0000
# 2 29.8699 102.0221 26.3174 0.0000 2.7404 0.0000
# 3 55.4235 26.3174 99.6343 0.0000 -13.2281 0.0000
# 4 0.0000 0.0000 0.0000 32.6386 0.0000 6.2476
# 5 3.1131 2.7404 -13.2281 0.0000 49.0881 0.0000
# 6 0.0000 0.0000 0.0000 6.2476 0.0000 23.7281
#
#
#
# Elastic Compliance Matrix: (Units=1/GPa)
#
#
# Indices 1 2 3 4 5 6 
#
# 1 0.020494 -0.003012 -0.011154 0.000000 -0.004137 0.000000
# 2 -0.003012 0.011053 -0.001349 0.000000 -0.000790 0.000000
# 3 -0.011154 -0.001349 0.017321 0.000000 0.005450 0.000000
# 4 0.000000 0.000000 0.000000 0.032265 0.000000 -0.008495
# 5 -0.004137 -0.000790 0.005450 0.000000 0.022147 0.000000
# 6 0.000000 0.000000 0.000000 -0.008495 0.000000 0.044381
#
#
# Mechanical properties :
#
#
# Convention : Reuss Voigt Hill
#
# Bulk Modulus (GPa) = 56.05806 56.53945 56.29876
# Shear Modulus (GPa) = 27.08027 32.69247 29.88637
#
# Velocity S-wave (km/s) = 3.66772 4.02990 3.85307
# Velocity P-wave (km/s) = 6.76633 7.05263 6.91096
#
# Compressibility (1/GPa) = 0.01783865
#
# Stress axis : x y z
#
# Youngs Moduli (GPa) = 48.79457 90.47511 57.73259
#
# Poissons Ratio (x) = 0.27250 0.64395
# Poissons Ratio (y) = 0.14696 0.07788
# Poissons Ratio (z) = 0.54425 0.12204
#
# Static dielectric constant tensor:
#      x y z
#    x 3.544610 0.000000 0.177990 
#    y 0.000000 3.895270 0.000000 
#    z 0.177990 0.000000 4.290050 
# 
# 
# High freq. dielectric constant tensor:
#      x y z
#    x 1.777040 0.000000 0.009880 
#    y 0.000000 1.802710 0.000000 
#    z 0.009880 0.000000 1.785270 
# 
# From -- ./inp_files/39057.got.cif
#   From: 2010.03.12/outbox.cif.g09.slc.cpg/sg14_20_cif.got.tgz:39057.got - 2010.03.31 13:35:05.
