data_PCOD8125723
_publ_section_title
;
Structure prediction by ZEFSAII (Michael W. Deem and Ramdas Pophale) SiO2 
 PCOD8125723
Probable space group: P 21/C
;
_chemical_formula_sum "Si O2"
_cell_formula_units_Z 20
_cell_length_a 8.380999
_cell_length_b 8.277981
_cell_length_c 27.553630
_cell_angle_alpha 90.000000
_cell_angle_beta 152.246977
_cell_angle_gamma 90.000000
_cell_volume 890.162103
_symmetry_space_group_name_H-M "P 21/C"
_symmetry_group_IT_number 14
_symmetry_cell_setting 'monoclinic'
loop_
_space_group_symop_operation_xyz
x,y,z
-x,1/2+y,1/2-z
-x,-y,-z
x,1/2-y,1/2+z
loop_
_atom_site_type_symbol
_atom_site_label
_atom_site_fract_x
_atom_site_fract_y
_atom_site_fract_z
Si Si1 0.755357 0.390363 0.169510
Si Si2 0.729128 0.140478 0.427080
Si Si3 0.811222 0.130095 0.265004
Si Si4 0.892505 0.758878 0.058658
Si Si5 0.027435 0.081515 0.059190
O O1 0.637154 0.555296 0.165216
O O2 0.880293 0.261089 0.241841
O O3 0.075313 0.450665 0.222688
O O4 0.458713 0.312900 0.056757
O O5 0.780224 0.229179 0.389053
O O6 0.800374 0.255813 0.493261
O O7 0.000000 0.000000 0.500000
O O8 0.418561 0.128600 0.176152
O O9 0.047360 0.179148 0.373521
O O10 0.873084 0.956044 0.057375
O O11 0.000000 0.000000 0.000000
#
# Coordination Sequence:
#
# PCOD8125723 Si02
#       5
#     4   4   4   4   4
#     4  11  25  43  62  99 135 173 215 284 337 389
#     4   9  18  41  67  88 132 166 210 271 326 383
#     4  12  25  41  68  97 134 177 219 269 346 388
#     4  10  23  42  67  95 128 172 227 270 324 400
#     4  10  20  41  69  93 130 171 221 273 317 395
#
# _framework density 22.467815000000002
#
# number of rings (size 3 to 8) (size 9 to 14) (size 15 to 20)
#    0.000    1.600    6.000    0.600    8.400    0.000 
#    0.000    8.000    0.000    0.000    0.000    0.000 
#    0.000    0.000    0.000    0.000    0.000    0.000 
#
# Total GULP energy -247866.221963 kJ/mol
# GULP energy per Si atom -12393.311098 kJ/mol
# Density = 2.241668 g / cm^3
# Si number density = 22.467815 Si / 1000 Ang^3
#
#
#
# Elastic Constant Matrix: (Units=GPa)
#
#
# Indices 1 2 3 4 5 6 
#
# 1 51.0916 27.6887 40.1312 0.0000 -8.8949 0.0000
# 2 27.6887 123.3740 27.7487 0.0000 -6.1689 0.0000
# 3 40.1312 27.7487 87.0411 0.0000 -20.0485 0.0000
# 4 0.0000 0.0000 0.0000 27.0894 0.0000 10.3278
# 5 -8.8949 -6.1689 -20.0485 0.0000 33.9510 0.0000
# 6 0.0000 0.0000 0.0000 10.3278 0.0000 45.5954
#
#
#
# Elastic Compliance Matrix: (Units=1/GPa)
#
#
# Indices 1 2 3 4 5 6 
#
# 1 0.032628 -0.004243 -0.013773 0.000000 -0.000356 0.000000
# 2 -0.004243 0.009283 -0.001008 0.000000 -0.000020 0.000000
# 3 -0.013773 -0.001008 0.020008 0.000000 0.008024 0.000000
# 4 0.000000 0.000000 0.000000 0.040404 0.000000 -0.009152
# 5 -0.000356 -0.000020 0.008024 0.000000 0.034096 0.000000
# 6 0.000000 0.000000 0.000000 -0.009152 0.000000 0.024005
#
#
# Mechanical properties :
#
#
# Convention : Reuss Voigt Hill
#
# Bulk Modulus (GPa) = 41.88869 50.29376 46.09122
# Shear Modulus (GPa) = 24.22131 32.38970 28.30551
#
# Velocity S-wave (km/s) = 3.28692 3.80097 3.55325
# Velocity P-wave (km/s) = 5.75234 6.45728 6.11498
#
# Compressibility (1/GPa) = 0.02387279
#
# Stress axis : x y z
#
# Youngs Moduli (GPa) = 30.64809 107.71977 49.97887
#
# Poissons Ratio (x) = 0.45703 0.68836
# Poissons Ratio (y) = 0.13003 0.05038
# Poissons Ratio (z) = 0.42212 0.10858
#
# Static dielectric constant tensor:
#      x y z
#    x 4.958820 0.000000 0.672770 
#    y 0.000000 3.477740 0.000000 
#    z 0.672770 0.000000 4.207610 
# 
# 
# High freq. dielectric constant tensor:
#      x y z
#    x 1.851450 0.000000 0.007730 
#    y 0.000000 1.910440 0.000000 
#    z 0.007730 0.000000 1.874340 
# 
# From -- ./inp_files/76421.got.cif
#   From: 2010.03.12/outbox.cif.g09.slc.cpg/sg14_39_cif.got.tgz:76421.got - 2010.03.31 13:35:05.
