data_PCOD8125480
_publ_section_title
;
Structure prediction by ZEFSAII (Michael W. Deem and Ramdas Pophale) SiO2 
 PCOD8125480
Probable space group: P 21/C
;
_chemical_formula_sum "Si O2"
_cell_formula_units_Z 28
_cell_length_a 9.825267
_cell_length_b 14.060686
_cell_length_c 11.415906
_cell_angle_alpha 90.000000
_cell_angle_beta 120.667195
_cell_angle_gamma 90.000000
_cell_volume 1356.540123
_symmetry_space_group_name_H-M "P 21/C"
_symmetry_group_IT_number 14
_symmetry_cell_setting 'monoclinic'
loop_
_space_group_symop_operation_xyz
x,y,z
-x,1/2+y,1/2-z
-x,-y,-z
x,1/2-y,1/2+z
loop_
_atom_site_type_symbol
_atom_site_label
_atom_site_fract_x
_atom_site_fract_y
_atom_site_fract_z
Si Si1 0.050460 0.094314 0.958934
Si Si2 0.591006 0.619914 0.441949
Si Si3 0.612342 0.206207 0.713969
Si Si4 0.170497 0.900043 0.355950
Si Si5 0.566452 0.570686 0.698021
Si Si6 0.915766 0.282572 0.956236
Si Si7 0.863303 0.562200 0.995519
O O1 0.974289 0.098157 0.797314
O O2 0.982357 0.177993 0.010090
O O3 0.237184 0.102793 0.034402
O O4 0.000000 0.000000 0.000000
O O5 0.533472 0.726185 0.384742
O O6 0.594660 0.613588 0.582960
O O7 0.481440 0.539711 0.334128
O O8 0.667763 0.140026 0.629710
O O9 0.567984 0.134840 0.799687
O O10 0.754293 0.276639 0.811797
O O11 0.116718 0.830821 0.435013
O O12 0.202504 0.007412 0.418270
O O13 0.724856 0.578094 0.842334
O O14 0.050265 0.337773 0.938118
O O15 0.000000 0.500000 0.000000
#
# Coordination Sequence:
#
# PCOD8125480 Si02
#       7
#     4   4   4   4   4   4   4
#     4  11  24  40  61  92 122 154 205 255 299 362
#     4  11  22  39  63  87 123 164 196 253 317 360
#     4  11  23  40  62  93 126 160 206 256 306 365
#     4  10  22  40  63  90 121 160 203 251 304 356
#     4  11  24  40  60  90 123 160 207 250 307 373
#     4  10  21  40  63  87 120 162 206 249 302 369
#     4  10  20  39  63  87 117 158 206 246 295 365
#
# _framework density 20.640746
#
# number of rings (size 3 to 8) (size 9 to 14) (size 15 to 20)
#    0.000    1.429    0.000    6.857    0.000    5.143 
#    0.000    5.714    0.000    0.000    0.000    0.000 
#    0.000    0.000    0.000    0.000    0.000    0.000 
#
# Total GULP energy -347196.645991 kJ/mol
# GULP energy per Si atom -12399.880214 kJ/mol
# Density = 2.059377 g / cm^3
# Si number density = 20.640746 Si / 1000 Ang^3
#
#
#
# Elastic Constant Matrix: (Units=GPa)
#
#
# Indices 1 2 3 4 5 6 
#
# 1 125.7034 60.0529 49.1601 0.0000 4.1846 0.0000
# 2 60.0529 127.8910 44.1448 0.0000 -0.6291 0.0000
# 3 49.1601 44.1448 89.3693 0.0000 4.7721 0.0000
# 4 0.0000 0.0000 0.0000 23.5677 0.0000 0.8665
# 5 4.1846 -0.6291 4.7721 0.0000 33.1444 0.0000
# 6 0.0000 0.0000 0.0000 0.8665 0.0000 52.7130
#
#
#
# Elastic Compliance Matrix: (Units=1/GPa)
#
#
# Indices 1 2 3 4 5 6 
#
# 1 0.011574 -0.003928 -0.004378 0.000000 -0.000906 0.000000
# 2 -0.003928 0.010784 -0.003228 0.000000 0.001165 0.000000
# 3 -0.004378 -0.003228 0.015284 0.000000 -0.001709 0.000000
# 4 0.000000 0.000000 0.000000 0.042457 0.000000 -0.000698
# 5 -0.000906 0.001165 -0.001709 0.000000 0.030554 0.000000
# 6 0.000000 0.000000 0.000000 -0.000698 0.000000 0.018982
#
#
# Mechanical properties :
#
#
# Convention : Reuss Voigt Hill
#
# Bulk Modulus (GPa) = 68.62058 72.18661 70.40359
# Shear Modulus (GPa) = 31.73398 34.52540 33.12969
#
# Velocity S-wave (km/s) = 3.92528 4.09428 4.01067
# Velocity P-wave (km/s) = 7.33901 7.57625 7.45858
#
# Compressibility (1/GPa) = 0.01457289
#
# Stress axis : x y z
#
# Youngs Moduli (GPa) = 86.39981 92.73301 65.42946
#
# Poissons Ratio (x) = 0.36426 0.28645
# Poissons Ratio (y) = 0.33938 0.21122
# Poissons Ratio (z) = 0.37826 0.29936
#
# Static dielectric constant tensor:
#      x y z
#    x 3.819340 0.000000 0.079180 
#    y 0.000000 4.352350 0.000000 
#    z 0.079180 0.000000 3.830940 
# 
# 
# High freq. dielectric constant tensor:
#      x y z
#    x 1.813470 0.000000 0.007780 
#    y 0.000000 1.824030 0.000000 
#    z 0.007780 0.000000 1.803620 
# 
# From -- ./inp_files/25355.got.cif
#   From: 2010.03.12/outbox.cif.g09.slc.cpg/sg14_13_cif.got.tgz:25355.got - 2010.03.31 13:35:05.
