data_PCOD8125061
_publ_section_title
;
Structure prediction by ZEFSAII (Michael W. Deem and Ramdas Pophale) SiO2 
 PCOD8125061
Probable space group: P 21/C
;
_chemical_formula_sum "Si O2"
_cell_formula_units_Z 32
_cell_length_a 11.614012
_cell_length_b 9.380468
_cell_length_c 28.987535
_cell_angle_alpha 90.000000
_cell_angle_beta 148.532621
_cell_angle_gamma 90.000000
_cell_volume 1648.539700
_symmetry_space_group_name_H-M "P 21/C"
_symmetry_group_IT_number 14
_symmetry_cell_setting 'monoclinic'
loop_
_space_group_symop_operation_xyz
x,y,z
-x,1/2+y,1/2-z
-x,-y,-z
x,1/2-y,1/2+z
loop_
_atom_site_type_symbol
_atom_site_label
_atom_site_fract_x
_atom_site_fract_y
_atom_site_fract_z
Si Si1 0.616469 0.163523 0.707519
Si Si2 0.365509 0.865680 0.470851
Si Si3 0.092616 0.340660 0.027632
Si Si4 0.643658 0.845216 0.732231
Si Si5 0.955691 0.646848 0.890579
Si Si6 0.763942 0.154956 0.341985
Si Si7 0.275840 0.301594 0.842061
Si Si8 0.152496 0.628380 0.806228
O O1 0.353958 0.171368 0.612545
O O2 0.721428 0.278184 0.777706
O O3 0.712434 0.193857 0.689931
O O4 0.696123 0.012050 0.753866
O O5 0.542437 0.763592 0.556662
O O6 0.251151 0.798831 0.386538
O O7 0.184322 0.910440 0.447454
O O8 0.500000 0.000000 0.500000
O O9 0.016120 0.271307 0.050356
O O10 0.000000 0.500000 0.000000
O O11 0.977149 0.277582 0.941876
O O12 0.857586 0.759639 0.821491
O O13 0.438810 0.807199 0.694246
O O14 0.596616 0.803003 0.663224
O O15 0.789894 0.514054 0.842127
O O16 0.162866 0.456402 0.811951
O O17 0.100351 0.175063 0.784505
#
# Coordination Sequence:
#
# PCOD8125061 Si02
#       8
#     4   4   4   4   4   4   4   4
#     4  11  23  37  59  89 123 153 191 249 295 344
#     4  10  22  37  61  87 111 154 204 242 277 353
#     4  10  20  36  61  88 113 154 197 237 286 347
#     4  11  19  39  59  88 122 151 190 247 299 342
#     4  11  21  37  66  87 116 156 203 236 294 352
#     4  11  22  36  63  88 119 155 196 242 292 350
#     4  10  22  39  63  83 119 152 197 247 293 340
#     4  10  23  38  59  87 118 153 197 243 293 342
#
# _framework density 19.411118999999999
#
# number of rings (size 3 to 8) (size 9 to 14) (size 15 to 20)
#    0.000    1.500    5.000    0.750   12.250    0.000 
#    0.000    1.250    5.500    0.000    0.000    0.000 
#    0.000    0.000    0.000    0.000    0.000    0.000 
#
# Total GULP energy -396591.963290 kJ/mol
# GULP energy per Si atom -12393.498853 kJ/mol
# Density = 1.936694 g / cm^3
# Si number density = 19.411119 Si / 1000 Ang^3
#
#
#
# Elastic Constant Matrix: (Units=GPa)
#
#
# Indices 1 2 3 4 5 6 
#
# 1 120.0829 17.4302 36.3743 0.0000 0.5449 0.0000
# 2 17.4302 34.8435 28.4002 0.0000 -0.2577 0.0000
# 3 36.3743 28.4002 128.3219 0.0000 -10.6703 0.0000
# 4 0.0000 0.0000 0.0000 26.6925 0.0000 -2.1467
# 5 0.5449 -0.2577 -10.6703 0.0000 37.3934 0.0000
# 6 0.0000 0.0000 0.0000 -2.1467 0.0000 24.9542
#
#
#
# Elastic Compliance Matrix: (Units=1/GPa)
#
#
# Indices 1 2 3 4 5 6 
#
# 1 0.009393 -0.003030 -0.002054 0.000000 -0.000744 0.000000
# 2 -0.003030 0.036143 -0.007289 0.000000 -0.001787 0.000000
# 3 -0.002054 -0.007289 0.010229 0.000000 0.002899 0.000000
# 4 0.000000 0.000000 0.000000 0.037725 0.000000 0.003245
# 5 -0.000744 -0.001787 0.002899 0.000000 0.027568 0.000000
# 6 0.000000 0.000000 0.000000 0.003245 0.000000 0.040353
#
#
# Mechanical properties :
#
#
# Convention : Reuss Voigt Hill
#
# Bulk Modulus (GPa) = 32.23745 49.73977 40.98861
# Shear Modulus (GPa) = 25.44570 31.21092 28.32831
#
# Velocity S-wave (km/s) = 3.62454 4.01420 3.82434
# Velocity P-wave (km/s) = 5.84467 6.86768 6.37672
#
# Compressibility (1/GPa) = 0.03101983
#
# Stress axis : x y z
#
# Youngs Moduli (GPa) = 106.46341 27.66756 97.75891
#
# Poissons Ratio (x) = 0.08384 0.20077
# Poissons Ratio (y) = 0.32262 0.71255
# Poissons Ratio (z) = 0.21864 0.20166
#
# Static dielectric constant tensor:
#      x y z
#    x 3.856930 0.000000 -0.299240 
#    y 0.000000 3.156740 0.000000 
#    z -0.299240 0.000000 3.903560 
# 
# 
# High freq. dielectric constant tensor:
#      x y z
#    x 1.778770 0.000000 -0.011920 
#    y 0.000000 1.704010 0.000000 
#    z -0.011920 0.000000 1.770250 
# 
# From -- ./inp_files/77226.got.cif
#   From: 2010.03.12/outbox.cif.g09.slc.cpg/sg14_39_cif.got.tgz:77226.got - 2010.03.31 13:35:05.
