data_PCOD8125321
_publ_section_title
;
Structure prediction by ZEFSAII (Michael W. Deem and Ramdas Pophale) SiO2 
 PCOD8125321
Probable space group: P 21/C
;
_chemical_formula_sum "Si O2"
_cell_formula_units_Z 28
_cell_length_a 10.359918
_cell_length_b 8.765162
_cell_length_c 22.353406
_cell_angle_alpha 90.000000
_cell_angle_beta 143.090701
_cell_angle_gamma 90.000000
_cell_volume 1219.015271
_symmetry_space_group_name_H-M "P 21/C"
_symmetry_group_IT_number 14
_symmetry_cell_setting 'monoclinic'
loop_
_space_group_symop_operation_xyz
x,y,z
-x,1/2+y,1/2-z
-x,-y,-z
x,1/2-y,1/2+z
loop_
_atom_site_type_symbol
_atom_site_label
_atom_site_fract_x
_atom_site_fract_y
_atom_site_fract_z
Si Si1 0.497126 0.089595 0.437266
Si Si2 0.531904 0.786063 0.395814
Si Si3 0.168616 0.418067 0.144280
Si Si4 0.645542 0.408016 0.281722
Si Si5 0.662662 0.138718 0.062259
Si Si6 0.138124 0.154229 0.218531
Si Si7 0.014770 0.277727 0.965297
O O1 0.631717 0.244856 0.495105
O O2 0.262799 0.144262 0.327802
O O3 0.500000 0.000000 0.500000
O O4 0.590348 0.969000 0.423709
O O5 0.398836 0.776815 0.284809
O O6 0.378102 0.725376 0.390458
O O7 0.764355 0.703412 0.479818
O O8 0.425051 0.444056 0.234220
O O9 0.121224 0.329094 0.188906
O O10 0.053801 0.581248 0.102386
O O11 0.065618 0.322305 0.051899
O O12 0.739312 0.562056 0.287835
O O13 0.823833 0.345889 0.394169
O O14 0.906245 0.081497 0.147732
O O15 0.500000 0.000000 0.000000
#
# Coordination Sequence:
#
# PCOD8125321 Si02
#       7
#     4   4   4   4   4   4   4
#     4   9  21  40  60  82 118 161 200 238 291 365
#     4   9  20  38  58  83 113 156 200 234 294 369
#     4  10  22  38  60  88 115 156 203 243 294 360
#     4  10  21  38  60  85 116 153 198 248 297 355
#     4  11  23  37  58  90 121 149 196 255 306 357
#     4  11  23  39  62  90 120 156 200 251 303 355
#     4  10  20  38  61  82 118 159 195 243 300 354
#
# _framework density 22.969359000000001
#
# number of rings (size 3 to 8) (size 9 to 14) (size 15 to 20)
#    0.000    2.000    0.000    2.571    0.000   10.857 
#    0.000    0.000    0.000    0.000    0.000    0.000 
#    0.000    0.000    0.000    0.000    0.000    0.000 
#
# Total GULP energy -347043.352692 kJ/mol
# GULP energy per Si atom -12394.405453 kJ/mol
# Density = 2.291708 g / cm^3
# Si number density = 22.969359 Si / 1000 Ang^3
#
#
#
# Elastic Constant Matrix: (Units=GPa)
#
#
# Indices 1 2 3 4 5 6 
#
# 1 65.8641 1.0602 28.7358 0.0000 18.6744 0.0000
# 2 1.0602 49.6569 20.1034 0.0000 -2.9571 0.0000
# 3 28.7358 20.1034 136.8497 0.0000 14.5272 0.0000
# 4 0.0000 0.0000 0.0000 34.9574 0.0000 0.5974
# 5 18.6744 -2.9571 14.5272 0.0000 39.4528 0.0000
# 6 0.0000 0.0000 0.0000 0.5974 0.0000 30.9757
#
#
#
# Elastic Compliance Matrix: (Units=1/GPa)
#
#
# Indices 1 2 3 4 5 6 
#
# 1 0.018738 0.000433 -0.003185 0.000000 -0.007664 0.000000
# 2 0.000433 0.021740 -0.003575 0.000000 0.002741 0.000000
# 3 -0.003185 -0.003575 0.008710 0.000000 -0.001968 0.000000
# 4 0.000000 0.000000 0.000000 0.028616 0.000000 -0.000552
# 5 -0.007664 0.002741 -0.001968 0.000000 0.029905 0.000000
# 6 0.000000 0.000000 0.000000 -0.000552 0.000000 0.032294
#
#
# Mechanical properties :
#
#
# Convention : Reuss Voigt Hill
#
# Bulk Modulus (GPa) = 27.37211 39.12994 33.25103
# Shear Modulus (GPa) = 30.33337 34.57527 32.45432
#
# Velocity S-wave (km/s) = 3.63795 3.88400 3.76299
# Velocity P-wave (km/s) = 5.43957 6.09808 5.77822
#
# Compressibility (1/GPa) = 0.03653354
#
# Stress axis : x y z
#
# Youngs Moduli (GPa) = 53.36653 45.99882 114.80886
#
# Poissons Ratio (x) = -0.01991 0.36563
# Poissons Ratio (y) = -0.02310 0.41049
# Poissons Ratio (z) = 0.16995 0.16447
#
# Static dielectric constant tensor:
#      x y z
#    x 3.858480 0.000000 -0.088810 
#    y 0.000000 4.220330 0.000000 
#    z -0.088810 0.000000 4.516190 
# 
# 
# High freq. dielectric constant tensor:
#      x y z
#    x 1.884470 0.000000 0.004770 
#    y 0.000000 1.894170 0.000000 
#    z 0.004770 0.000000 1.927480 
# 
# From -- ./inp_files/77154.got.cif
#   From: 2010.03.12/outbox.cif.g09.slc.cpg/sg14_39_cif.got.tgz:77154.got - 2010.03.31 13:35:05.
