data_PCOD8125448
_publ_section_title
;
Structure prediction by ZEFSAII (Michael W. Deem and Ramdas Pophale) SiO2 
 PCOD8125448
Probable space group: P 21/C
;
_chemical_formula_sum "Si O2"
_cell_formula_units_Z 20
_cell_length_a 15.581432
_cell_length_b 9.300430
_cell_length_c 20.277843
_cell_angle_alpha 90.000000
_cell_angle_beta 160.432033
_cell_angle_gamma 90.000000
_cell_volume 984.191250
_symmetry_space_group_name_H-M "P 21/C"
_symmetry_group_IT_number 14
_symmetry_cell_setting 'monoclinic'
loop_
_space_group_symop_operation_xyz
x,y,z
-x,1/2+y,1/2-z
-x,-y,-z
x,1/2-y,1/2+z
loop_
_atom_site_type_symbol
_atom_site_label
_atom_site_fract_x
_atom_site_fract_y
_atom_site_fract_z
Si Si1 0.050864 0.117770 0.440775
Si Si2 0.287415 0.203153 0.332526
Si Si3 0.635217 0.554962 0.712122
Si Si4 0.088677 0.439005 0.282195
Si Si5 0.854063 0.101995 0.750329
O O1 0.299475 0.072292 0.663250
O O2 0.053612 0.289679 0.429945
O O3 0.792700 0.075546 0.293388
O O4 0.063944 0.037080 0.380374
O O5 0.278359 0.297447 0.260132
O O6 0.165790 0.288318 0.305641
O O7 0.574655 0.165705 0.560713
O O8 0.124076 0.057315 0.202399
O O9 0.336377 0.526221 0.486841
O O10 0.900417 0.406117 0.205700
#
# Coordination Sequence:
#
# PCOD8125448 Si02
#       5
#     4   4   4   4   4
#     4  10  20  39  61  84 114 158 199 238 302 347
#     4  10  21  37  60  88 121 153 197 245 302 344
#     4  10  20  39  62  81 116 162 194 239 294 364
#     4  11  20  40  62  84 119 162 197 238 295 363
#     4  11  21  36  62  91 118 156 195 254 292 343
#
# _framework density 20.321252999999999
#
# number of rings (size 3 to 8) (size 9 to 14) (size 15 to 20)
#    0.000    1.600    4.000    2.400    0.000    0.800 
#    3.600    2.000    0.000    0.000    0.000    0.000 
#    0.000    0.000    0.000    0.000    0.000    0.000 
#
# Total GULP energy -248037.709350 kJ/mol
# GULP energy per Si atom -12401.885468 kJ/mol
# Density = 2.027500 g / cm^3
# Si number density = 20.321253 Si / 1000 Ang^3
#
#
#
# Elastic Constant Matrix: (Units=GPa)
#
#
# Indices 1 2 3 4 5 6 
#
# 1 62.6518 49.2282 17.7419 0.0000 -15.0927 0.0000
# 2 49.2282 158.3606 30.8591 0.0000 -10.8757 0.0000
# 3 17.7419 30.8591 30.9061 0.0000 -20.5640 0.0000
# 4 0.0000 0.0000 0.0000 11.0472 0.0000 0.4840
# 5 -15.0927 -10.8757 -20.5640 0.0000 34.7510 0.0000
# 6 0.0000 0.0000 0.0000 0.4840 0.0000 22.1339
#
#
#
# Elastic Compliance Matrix: (Units=1/GPa)
#
#
# Indices 1 2 3 4 5 6 
#
# 1 0.023203 -0.006223 -0.002799 0.000000 0.006473 0.000000
# 2 -0.006223 0.009791 -0.009836 0.000000 -0.005459 0.000000
# 3 -0.002799 -0.009836 0.067507 0.000000 0.035653 0.000000
# 4 0.000000 0.000000 0.000000 0.090607 0.000000 -0.001981
# 5 0.006473 -0.005459 0.035653 0.000000 0.050977 0.000000
# 6 0.000000 0.000000 0.000000 -0.001981 0.000000 0.045223
#
#
# Mechanical properties :
#
#
# Convention : Reuss Voigt Hill
#
# Bulk Modulus (GPa) = 15.92761 49.73079 32.82920
# Shear Modulus (GPa) = 14.45289 23.85906 19.15597
#
# Velocity S-wave (km/s) = 2.66977 3.43022 3.07360
# Velocity P-wave (km/s) = 4.16635 6.34145 5.36528
#
# Compressibility (1/GPa) = 0.06278404
#
# Stress axis : x y z
#
# Youngs Moduli (GPa) = 43.09808 102.13516 14.81338
#
# Poissons Ratio (x) = 0.63557 0.04147
# Poissons Ratio (y) = 0.26819 0.14570
# Poissons Ratio (z) = 0.12065 1.00460
#
# Static dielectric constant tensor:
#      x y z
#    x 3.597610 0.000000 -0.014770 
#    y 0.000000 4.053190 0.000000 
#    z -0.014770 0.000000 3.389230 
# 
# 
# High freq. dielectric constant tensor:
#      x y z
#    x 1.787760 0.000000 -0.000220 
#    y 0.000000 1.811920 0.000000 
#    z -0.000220 0.000000 1.764080 
# 
# From -- ./inp_files/38627.got.cif
#   From: 2010.03.12/outbox.cif.g09.slc.cpg/sg14_20_cif.got.tgz:38627.got - 2010.03.31 13:35:05.
