data_PCOD8125874
_publ_section_title
;
Structure prediction by ZEFSAII (Michael W. Deem and Ramdas Pophale) SiO2 
 PCOD8125874
Probable space group: P 21/C
;
_chemical_formula_sum "Si O2"
_cell_formula_units_Z 32
_cell_length_a 20.232247
_cell_length_b 8.949546
_cell_length_c 25.723132
_cell_angle_alpha 90.000000
_cell_angle_beta 20.885781
_cell_angle_gamma 90.000000
_cell_volume 1660.488964
_symmetry_space_group_name_H-M "P 21/C"
_symmetry_group_IT_number 14
_symmetry_cell_setting 'monoclinic'
loop_
_space_group_symop_operation_xyz
x,y,z
-x,1/2+y,1/2-z
-x,-y,-z
x,1/2-y,1/2+z
loop_
_atom_site_type_symbol
_atom_site_label
_atom_site_fract_x
_atom_site_fract_y
_atom_site_fract_z
Si Si1 0.490446 0.142459 0.704494
Si Si2 0.853408 0.316954 0.092019
Si Si3 0.569308 0.734859 0.414878
Si Si4 0.865391 0.566478 0.743083
Si Si5 0.267312 0.623557 0.411493
Si Si6 0.311773 0.702742 0.188815
Si Si7 0.731609 0.626832 0.198564
Si Si8 0.396112 0.002830 0.480312
O O1 0.623743 0.246554 0.639467
O O2 0.335688 0.242928 0.790081
O O3 0.389048 0.026020 0.817153
O O4 0.615438 0.051905 0.570710
O O5 0.781737 0.179809 0.110285
O O6 0.829213 0.294117 0.171684
O O7 0.743274 0.470409 0.158930
O O8 0.070635 0.331001 0.922468
O O9 0.762896 0.781534 0.299902
O O10 0.412661 0.687378 0.572348
O O11 0.597799 0.613573 0.347971
O O12 0.492215 0.885166 0.446959
O O13 0.807503 0.427228 0.749925
O O14 0.808263 0.536400 0.845595
O O15 0.085563 0.587372 0.578704
O O16 0.471744 0.646608 0.110953
#
# Coordination Sequence:
#
# PCOD8125874 Si02
#       8
#     4   4   4   4   4   4   4   4
#     4  11  23  39  57  78 113 151 188 234 280 336
#     4  11  21  33  55  86 115 147 185 231 276 336
#     4   8  15  30  55  84 110 138 175 231 276 324
#     4   9  17  32  58  84 107 140 187 225 281 333
#     4  12  23  37  58  81 113 152 193 229 280 337
#     4   9  16  30  56  88 108 137 184 226 279 333
#     4  10  21  36  54  82 118 145 184 232 284 326
#     4   8  16  33  56  80 108 139 179 231 273 332
#
# _framework density 19.271432000000001
#
# number of rings (size 3 to 8) (size 9 to 14) (size 15 to 20)
#    0.000    2.250    2.500    3.000    0.000    1.500 
#    0.000    1.250    2.750    3.000    0.000    0.000 
#    0.000    0.000    0.000    0.000    0.000    0.000 
#
# Total GULP energy -396573.456798 kJ/mol
# GULP energy per Si atom -12392.920525 kJ/mol
# Density = 1.922757 g / cm^3
# Si number density = 19.271432 Si / 1000 Ang^3
#
#
#
# Elastic Constant Matrix: (Units=GPa)
#
#
# Indices 1 2 3 4 5 6 
#
# 1 39.4714 14.7365 24.5658 0.0000 2.1520 0.0000
# 2 14.7365 48.4167 38.4364 0.0000 -3.9497 0.0000
# 3 24.5658 38.4364 113.3620 0.0000 9.8156 0.0000
# 4 0.0000 0.0000 0.0000 21.4812 0.0000 -1.2853
# 5 2.1520 -3.9497 9.8156 0.0000 22.7346 0.0000
# 6 0.0000 0.0000 0.0000 -1.2853 0.0000 30.1230
#
#
#
# Elastic Compliance Matrix: (Units=1/GPa)
#
#
# Indices 1 2 3 4 5 6 
#
# 1 0.030396 -0.005916 -0.004408 0.000000 -0.002002 0.000000
# 2 -0.005916 0.031487 -0.010301 0.000000 0.010478 0.000000
# 3 -0.004408 -0.010301 0.013908 0.000000 -0.007377 0.000000
# 4 0.000000 0.000000 0.000000 0.046672 0.000000 0.001991
# 5 -0.002002 0.010478 -0.007377 0.000000 0.049181 0.000000
# 6 0.000000 0.000000 0.000000 0.001991 0.000000 0.033282
#
#
# Mechanical properties :
#
#
# Convention : Reuss Voigt Hill
#
# Bulk Modulus (GPa) = 28.95064 39.63639 34.29352
# Shear Modulus (GPa) = 19.40327 23.10184 21.25255
#
# Velocity S-wave (km/s) = 3.17652 3.46607 3.32445
# Velocity P-wave (km/s) = 5.33937 6.05229 5.70698
#
# Compressibility (1/GPa) = 0.03454155
#
# Stress axis : x y z
#
# Youngs Moduli (GPa) = 32.89932 31.75900 71.90113
#
# Poissons Ratio (x) = 0.18787 0.31692
# Poissons Ratio (y) = 0.19462 0.74068
# Poissons Ratio (z) = 0.14501 0.32716
#
# Static dielectric constant tensor:
#      x y z
#    x 3.293190 0.000000 0.329650 
#    y 0.000000 3.381240 0.000000 
#    z 0.329650 0.000000 3.672260 
# 
# 
# High freq. dielectric constant tensor:
#      x y z
#    x 1.722420 0.000000 0.026410 
#    y 0.000000 1.736250 0.000000 
#    z 0.026410 0.000000 1.756380 
# 
# From -- ./inp_files/77977.got.cif
#   From: 2010.03.12/outbox.cif.g09.slc.cpg/sg14_39_cif.got.tgz:77977.got - 2010.03.31 13:35:05.
