data_PCOD8125182
_publ_section_title
;
Structure prediction by ZEFSAII (Michael W. Deem and Ramdas Pophale) SiO2 
 PCOD8125182
Probable space group: P 21/C
;
_chemical_formula_sum "Si O2"
_cell_formula_units_Z 24
_cell_length_a 8.541793
_cell_length_b 7.609561
_cell_length_c 20.199179
_cell_angle_alpha 90.000000
_cell_angle_beta 114.658819
_cell_angle_gamma 90.000000
_cell_volume 1193.203832
_symmetry_space_group_name_H-M "P 21/C"
_symmetry_group_IT_number 14
_symmetry_cell_setting 'monoclinic'
loop_
_space_group_symop_operation_xyz
x,y,z
-x,1/2+y,1/2-z
-x,-y,-z
x,1/2-y,1/2+z
loop_
_atom_site_type_symbol
_atom_site_label
_atom_site_fract_x
_atom_site_fract_y
_atom_site_fract_z
Si Si1 0.926520 0.395983 0.287297
Si Si2 0.980914 0.764217 0.335519
Si Si3 0.763498 0.502473 0.581736
Si Si4 0.622054 0.282460 0.315591
Si Si5 0.650158 0.609861 0.835799
Si Si6 0.402992 0.429424 0.582538
O O1 0.870754 0.598759 0.288023
O O2 0.776636 0.270976 0.289053
O O3 0.946518 0.375374 0.212594
O O4 0.108120 0.361669 0.357922
O O5 0.855752 0.877962 0.359822
O O6 0.143760 0.689405 0.406500
O O7 0.592280 0.487303 0.594828
O O8 0.725663 0.574976 0.502240
O O9 0.445705 0.335266 0.248561
O O10 0.669629 0.428052 0.378548
O O11 0.603354 0.090898 0.345941
O O12 0.593124 0.734934 0.885853
#
# Coordination Sequence:
#
# PCOD8125182 Si02
#       6
#     4   4   4   4   4   4
#     4  10  20  37  60  91 126 159 206 252 310 363
#     4  10  20  37  60  91 126 159 206 252 310 363
#     4   9  23  39  67  85 130 175 190 271 311 355
#     4  12  23  38  64  93 122 165 207 259 311 370
#     4  12  23  38  64  93 122 165 207 259 311 370
#     4  11  21  45  63  91 130 161 216 247 317 371
#
# _framework density 20.113914999999999
#
# number of rings (size 3 to 8) (size 9 to 14) (size 15 to 20)
#    1.000    0.333    3.333    3.000    0.000    2.667 
#    0.000   10.000    0.000    0.000    0.000    0.000 
#    0.000    0.000    0.000    0.000    0.000    0.000 
#
# Total GULP energy -297545.954634 kJ/mol
# GULP energy per Si atom -12397.748110 kJ/mol
# Density = 2.006813 g / cm^3
# Si number density = 20.113915 Si / 1000 Ang^3
#
#
#
# Elastic Constant Matrix: (Units=GPa)
#
#
# Indices 1 2 3 4 5 6 
#
# 1 74.7004 -3.4547 15.0865 0.0000 -0.0395 0.0000
# 2 -3.4547 75.7126 -8.5211 0.0000 -2.9056 0.0000
# 3 15.0865 -8.5211 44.2655 0.0000 -1.3036 0.0000
# 4 0.0000 0.0000 0.0000 27.1511 0.0000 -0.3653
# 5 -0.0395 -2.9056 -1.3036 0.0000 30.4670 0.0000
# 6 0.0000 0.0000 0.0000 -0.3653 0.0000 29.2329
#
#
#
# Elastic Compliance Matrix: (Units=1/GPa)
#
#
# Indices 1 2 3 4 5 6 
#
# 1 0.014378 0.000099 -0.004887 0.000000 -0.000181 0.000000
# 2 0.000099 0.013561 0.002618 0.000000 0.001405 0.000000
# 3 -0.004887 0.002618 0.024799 0.000000 0.001304 0.000000
# 4 0.000000 0.000000 0.000000 0.036837 0.000000 0.000460
# 5 -0.000181 0.001405 0.001304 0.000000 0.033012 0.000000
# 6 0.000000 0.000000 0.000000 0.000460 0.000000 0.034214
#
#
# Mechanical properties :
#
#
# Convention : Reuss Voigt Hill
#
# Bulk Modulus (GPa) = 20.66150 22.32221 21.49185
# Shear Modulus (GPa) = 28.20514 30.14139 29.17326
#
# Velocity S-wave (km/s) = 3.74875 3.87529 3.81255
# Velocity P-wave (km/s) = 5.38814 5.58084 5.48534
#
# Compressibility (1/GPa) = 0.04839920
#
# Stress axis : x y z
#
# Youngs Moduli (GPa) = 69.54969 73.74115 40.32457
#
# Poissons Ratio (x) = -0.00731 0.19705
# Poissons Ratio (y) = -0.00690 -0.10557
# Poissons Ratio (z) = 0.33986 -0.19306
#
# Static dielectric constant tensor:
#      x y z
#    x 3.569330 0.000000 0.057960 
#    y 0.000000 3.501620 0.000000 
#    z 0.057960 0.000000 3.461380 
# 
# 
# High freq. dielectric constant tensor:
#      x y z
#    x 1.795690 0.000000 0.001380 
#    y 0.000000 1.773500 0.000000 
#    z 0.001380 0.000000 1.765040 
# 
# From -- ./inp_files/64410.got.cif
#   From: 2010.03.12/outbox.cif.g09.slc.cpg/sg14_33_cif.got.tgz:64410.got - 2010.03.31 13:35:05.
