data_PCOD8125953
_publ_section_title
;
Structure prediction by ZEFSAII (Michael W. Deem and Ramdas Pophale) SiO2 
 PCOD8125953
Probable space group: P 21/C
;
_chemical_formula_sum "Si O2"
_cell_formula_units_Z 28
_cell_length_a 14.835725
_cell_length_b 8.280545
_cell_length_c 19.079282
_cell_angle_alpha 90.000000
_cell_angle_beta 32.313482
_cell_angle_gamma 90.000000
_cell_volume 1252.907635
_symmetry_space_group_name_H-M "P 21/C"
_symmetry_group_IT_number 14
_symmetry_cell_setting 'monoclinic'
loop_
_space_group_symop_operation_xyz
x,y,z
-x,1/2+y,1/2-z
-x,-y,-z
x,1/2-y,1/2+z
loop_
_atom_site_type_symbol
_atom_site_label
_atom_site_fract_x
_atom_site_fract_y
_atom_site_fract_z
Si Si1 0.719967 0.993066 0.293865
Si Si2 0.985466 0.647512 0.458821
Si Si3 0.950984 0.506281 0.844562
Si Si4 0.843072 0.848984 0.669977
Si Si5 0.516257 0.465459 0.570390
Si Si6 0.372446 0.611244 0.994394
Si Si7 0.174850 0.367307 0.576216
O O1 0.818908 0.821640 0.225908
O O2 0.552416 0.969835 0.355823
O O3 0.679870 0.021397 0.400432
O O4 0.826342 0.151057 0.198960
O O5 0.932811 0.811239 0.535413
O O6 0.850326 0.590364 0.489070
O O7 0.000000 0.500000 0.500000
O O8 0.773651 0.412373 0.966323
O O9 0.897456 0.689294 0.871648
O O10 0.046340 0.467932 0.854361
O O11 0.063277 0.471879 0.702674
O O12 0.665648 0.941578 0.773145
O O13 0.500000 0.500000 0.500000
O O14 0.620310 0.301737 0.504536
O O15 0.626818 0.606864 0.535220
#
# Coordination Sequence:
#
# PCOD8125953 Si02
#       7
#     4   4   4   4   4   4   4
#     4   9  19  38  66 101 138 181 230 290 368 421
#     4  10  23  43  71  98 143 188 232 291 374 436
#     4  12  24  41  72 106 138 178 252 300 358 433
#     4  10  23  44  69 100 145 187 234 300 361 439
#     4  11  24  41  68 102 142 183 234 302 357 418
#     4  10  21  36  68 102 136 176 237 297 347 422
#     4  12  26  42  70 107 139 188 240 303 364 430
#
# _framework density 22.348015
#
# number of rings (size 3 to 8) (size 9 to 14) (size 15 to 20)
#    0.000    1.429    2.857    1.714   10.000    0.571 
#    0.000    4.286    3.143    0.000    0.000    0.000 
#    0.000    0.000    0.000    0.000    0.000    0.000 
#
# Total GULP energy -346892.079511 kJ/mol
# GULP energy per Si atom -12389.002840 kJ/mol
# Density = 2.229715 g / cm^3
# Si number density = 22.348015 Si / 1000 Ang^3
#
#
#
# Elastic Constant Matrix: (Units=GPa)
#
#
# Indices 1 2 3 4 5 6 
#
# 1 158.1902 54.4778 61.0607 0.0000 -18.1671 0.0000
# 2 54.4778 101.3326 57.6425 0.0000 -14.4924 0.0000
# 3 61.0607 57.6425 118.1733 0.0000 -21.2265 0.0000
# 4 0.0000 0.0000 0.0000 40.2583 0.0000 -2.5446
# 5 -18.1671 -14.4924 -21.2265 0.0000 41.1225 0.0000
# 6 0.0000 0.0000 0.0000 -2.5446 0.0000 38.7038
#
#
#
# Elastic Compliance Matrix: (Units=1/GPa)
#
#
# Indices 1 2 3 4 5 6 
#
# 1 0.008518 -0.002797 -0.002797 0.000000 0.001333 0.000000
# 2 -0.002797 0.014663 -0.005512 0.000000 0.001087 0.000000
# 3 -0.002797 -0.005512 0.013254 0.000000 0.003663 0.000000
# 4 0.000000 0.000000 0.000000 0.024943 0.000000 0.001640
# 5 0.001333 0.001087 0.003663 0.000000 0.027180 0.000000
# 6 0.000000 0.000000 0.000000 0.001640 0.000000 0.025945
#
#
# Mechanical properties :
#
#
# Convention : Reuss Voigt Hill
#
# Bulk Modulus (GPa) = 70.31254 80.45092 75.38173
# Shear Modulus (GPa) = 35.34646 37.65127 36.49887
#
# Velocity S-wave (km/s) = 3.98130 4.10905 4.04568
# Velocity P-wave (km/s) = 7.25707 7.65439 7.45838
#
# Compressibility (1/GPa) = 0.01422221
#
# Stress axis : x y z
#
# Youngs Moduli (GPa) = 117.40298 68.19800 75.44924
#
# Poissons Ratio (x) = 0.19078 0.21104
# Poissons Ratio (y) = 0.32843 0.41586
# Poissons Ratio (z) = 0.32839 0.37589
#
# Static dielectric constant tensor:
#      x y z
#    x 4.488130 0.000000 0.156550 
#    y 0.000000 4.164530 0.000000 
#    z 0.156550 0.000000 2.970410 
# 
# 
# High freq. dielectric constant tensor:
#      x y z
#    x 1.872810 0.000000 -0.017540 
#    y 0.000000 1.883180 0.000000 
#    z -0.017540 0.000000 1.881950 
# 
# From -- ./inp_files/68317.got.cif
#   From: 2010.03.12/outbox.cif.g09.slc.cpg/sg14_35_cif.got.tgz:68317.got - 2010.03.31 13:35:05.
