data_PCOD8125943
_publ_section_title
;
Structure prediction by ZEFSAII (Michael W. Deem and Ramdas Pophale) SiO2 
 PCOD8125943
Probable space group: P 21/C
;
_chemical_formula_sum "Si O2"
_cell_formula_units_Z 32
_cell_length_a 33.501356
_cell_length_b 8.421368
_cell_length_c 19.751931
_cell_angle_alpha 90.000000
_cell_angle_beta 14.967644
_cell_angle_gamma 90.000000
_cell_volume 1439.244192
_symmetry_space_group_name_H-M "P 21/C"
_symmetry_group_IT_number 14
_symmetry_cell_setting 'monoclinic'
loop_
_space_group_symop_operation_xyz
x,y,z
-x,1/2+y,1/2-z
-x,-y,-z
x,1/2-y,1/2+z
loop_
_atom_site_type_symbol
_atom_site_label
_atom_site_fract_x
_atom_site_fract_y
_atom_site_fract_z
Si Si1 0.934455 0.113849 0.475114
Si Si2 0.847807 0.290086 0.743938
Si Si3 0.713007 0.676979 0.565746
Si Si4 0.114822 0.247381 0.978553
Si Si5 0.801603 0.863544 0.297897
Si Si6 0.191427 0.829576 0.457852
Si Si7 0.652831 0.168607 0.183454
Si Si8 0.347632 0.338047 0.702904
O O1 0.830691 0.166036 0.709669
O O2 0.868881 0.215078 0.518392
O O3 0.923536 0.928644 0.477198
O O4 0.110477 0.151944 0.202334
O O5 0.753844 0.452527 0.884466
O O6 0.024763 0.333243 0.463703
O O7 0.788943 0.208573 0.908188
O O8 0.694534 0.751930 0.520951
O O9 0.612439 0.515896 0.737189
O O10 0.641726 0.800658 0.735217
O O11 0.961075 0.141928 0.244904
O O12 0.217235 0.176704 0.750102
O O13 0.214772 0.238394 0.883017
O O14 0.285690 0.687974 0.339857
O O15 0.309494 0.976425 0.260038
O O16 0.509766 0.286402 0.403310
#
# Coordination Sequence:
#
# PCOD8125943 Si02
#       8
#     4   4   4   4   4   4   4   4
#     4  10  21  36  63  96 119 156 217 266 306 365
#     4  10  21  37  62  91 123 160 207 262 318 372
#     4  11  21  38  63  91 126 159 208 261 312 372
#     4  11  21  40  61  94 119 162 211 264 309 367
#     4  10  21  36  63  92 119 159 216 264 307 369
#     4  11  22  39  65  90 124 167 214 261 311 375
#     4  12  23  42  61  90 130 170 198 256 328 389
#     4  11  26  40  60  93 131 160 208 257 322 388
#
# _framework density 22.233889999999999
#
# number of rings (size 3 to 8) (size 9 to 14) (size 15 to 20)
#    0.000    1.250    3.750    2.250    3.500    3.000 
#    0.000    5.000    0.000    0.000    0.000    0.000 
#    0.000    0.000    0.000    0.000    0.000    0.000 
#
# Total GULP energy -396682.566385 kJ/mol
# GULP energy per Si atom -12396.330200 kJ/mol
# Density = 2.218328 g / cm^3
# Si number density = 22.233890 Si / 1000 Ang^3
#
#
#
# Elastic Constant Matrix: (Units=GPa)
#
#
# Indices 1 2 3 4 5 6 
#
# 1 89.8150 23.6382 23.5471 0.0000 23.6002 0.0000
# 2 23.6382 67.5735 19.9145 0.0000 4.0623 0.0000
# 3 23.5471 19.9145 58.7235 0.0000 5.9629 0.0000
# 4 0.0000 0.0000 0.0000 33.7824 0.0000 8.5659
# 5 23.6002 4.0623 5.9629 0.0000 24.4917 0.0000
# 6 0.0000 0.0000 0.0000 8.5659 0.0000 31.1565
#
#
#
# Elastic Compliance Matrix: (Units=1/GPa)
#
#
# Indices 1 2 3 4 5 6 
#
# 1 0.017129 -0.003909 -0.004032 0.000000 -0.014875 0.000000
# 2 -0.003909 0.017381 -0.004529 0.000000 0.001987 0.000000
# 3 -0.004032 -0.004529 0.020210 0.000000 -0.000284 0.000000
# 4 0.000000 0.000000 0.000000 0.031819 0.000000 -0.008748
# 5 -0.014875 0.001987 -0.000284 0.000000 0.054903 0.000000
# 6 0.000000 0.000000 0.000000 -0.008748 0.000000 0.034501
#
#
# Mechanical properties :
#
#
# Convention : Reuss Voigt Hill
#
# Bulk Modulus (GPa) = 33.57916 38.92353 36.25135
# Shear Modulus (GPa) = 23.71791 27.82027 25.76909
#
# Velocity S-wave (km/s) = 3.26965 3.54115 3.40810
# Velocity P-wave (km/s) = 5.42122 5.85355 5.64153
#
# Compressibility (1/GPa) = 0.02978037
#
# Stress axis : x y z
#
# Youngs Moduli (GPa) = 58.38182 57.53272 49.47952
#
# Poissons Ratio (x) = 0.22491 0.19951
# Poissons Ratio (y) = 0.22823 0.22407
# Poissons Ratio (z) = 0.23540 0.26054
#
# Static dielectric constant tensor:
#      x y z
#    x 4.310510 0.000000 0.161620 
#    y 0.000000 4.073250 0.000000 
#    z 0.161620 0.000000 3.832040 
# 
# 
# High freq. dielectric constant tensor:
#      x y z
#    x 1.878880 0.000000 0.018260 
#    y 0.000000 1.871090 0.000000 
#    z 0.018260 0.000000 1.852740 
# 
# From -- ./inp_files/62655.got.cif
#   From: 2010.03.12/outbox.cif.g09.slc.cpg/sg14_32_cif.got.tgz:62655.got - 2010.03.31 13:35:05.
