data_PCOD8125295
_publ_section_title
;
Structure prediction by ZEFSAII (Michael W. Deem and Ramdas Pophale) SiO2 
 PCOD8125295
Probable space group: P 21/C
;
_chemical_formula_sum "Si O2"
_cell_formula_units_Z 20
_cell_length_a 11.680991
_cell_length_b 17.041774
_cell_length_c 13.523639
_cell_angle_alpha 90.000000
_cell_angle_beta 158.670697
_cell_angle_gamma 90.000000
_cell_volume 979.184239
_symmetry_space_group_name_H-M "P 21/C"
_symmetry_group_IT_number 14
_symmetry_cell_setting 'monoclinic'
loop_
_space_group_symop_operation_xyz
x,y,z
-x,1/2+y,1/2-z
-x,-y,-z
x,1/2-y,1/2+z
loop_
_atom_site_type_symbol
_atom_site_label
_atom_site_fract_x
_atom_site_fract_y
_atom_site_fract_z
Si Si1 0.721996 0.147491 0.486055
Si Si2 0.411091 0.315087 0.540575
Si Si3 0.278032 0.147493 0.513972
Si Si4 0.626964 0.500000 0.209971
Si Si5 0.588932 0.315085 0.459448
O O1 0.677472 0.158116 0.332148
O O2 0.624275 0.222238 0.472493
O O3 0.501879 0.076081 0.338764
O O4 0.091820 0.135489 0.804903
O O5 0.375759 0.222240 0.527539
O O6 0.500003 0.332996 0.500004
O O7 0.498142 0.076084 0.661254
O O8 0.322564 0.158118 0.667885
O O9 0.908205 0.135493 0.195125
O O10 0.000000 0.500000 0.500000
O O11 0.500000 0.500000 0.000000
#
# Coordination Sequence:
#
# PCOD8125295 Si02
#       5
#     4   4   4   4   4
#     4  10  22  37  58  87 114 148 198 234 280 348
#     4  10  20  38  60  83 115 153 191 237 282 335
#     4  10  22  37  58  87 114 148 198 234 280 348
#     4  12  24  40  61  86 119 152 188 244 296 336
#     4  10  20  38  60  83 115 153 191 237 282 335
#
# _framework density 20.425165
#
# number of rings (size 3 to 8) (size 9 to 14) (size 15 to 20)
#    0.000    1.600    0.000    4.800    0.000    6.400 
#    0.000    6.000    0.000    0.000    0.000    0.000 
#    0.000    0.000    0.000    0.000    0.000    0.000 
#
# Total GULP energy -247933.046010 kJ/mol
# GULP energy per Si atom -12396.652300 kJ/mol
# Density = 2.037868 g / cm^3
# Si number density = 20.425165 Si / 1000 Ang^3
#
#
#
# Elastic Constant Matrix: (Units=GPa)
#
#
# Indices 1 2 3 4 5 6 
#
# 1 104.0192 29.3002 15.1431 0.0000 -1.5298 0.0000
# 2 29.3002 89.0123 42.8093 0.0000 25.8199 0.0000
# 3 15.1431 42.8093 115.2029 0.0000 0.5503 0.0000
# 4 0.0000 0.0000 0.0000 19.2693 0.0000 -1.0254
# 5 -1.5298 25.8199 0.5503 0.0000 32.9462 0.0000
# 6 0.0000 0.0000 0.0000 -1.0254 0.0000 14.3058
#
#
#
# Elastic Compliance Matrix: (Units=1/GPa)
#
#
# Indices 1 2 3 4 5 6 
#
# 1 0.011077 -0.005190 0.000451 0.000000 0.004574 0.000000
# 2 -0.005190 0.021233 -0.007128 0.000000 -0.016762 0.000000
# 3 0.000451 -0.007128 0.011244 0.000000 0.005419 0.000000
# 4 0.000000 0.000000 0.000000 0.052095 0.000000 0.003734
# 5 0.004574 -0.016762 0.005419 0.000000 0.043611 0.000000
# 6 0.000000 0.000000 0.000000 0.003734 0.000000 0.070170
#
#
# Mechanical properties :
#
#
# Convention : Reuss Voigt Hill
#
# Bulk Modulus (GPa) = 50.45422 53.63773 52.04597
# Shear Modulus (GPa) = 20.85327 28.03636 24.44482
#
# Velocity S-wave (km/s) = 3.19871 3.70893 3.46323
# Velocity P-wave (km/s) = 6.19661 6.68275 6.44427
#
# Compressibility (1/GPa) = 0.01981995
#
# Stress axis : x y z
#
# Youngs Moduli (GPa) = 90.27597 47.09629 88.93673
#
# Poissons Ratio (x) = 0.24442 -0.04008
# Poissons Ratio (y) = 0.46851 0.63394
# Poissons Ratio (z) = -0.04068 0.33570
#
# Static dielectric constant tensor:
#      x y z
#    x 3.636700 0.000000 -0.184680 
#    y 0.000000 3.411250 0.000000 
#    z -0.184680 0.000000 3.966890 
# 
# 
# High freq. dielectric constant tensor:
#      x y z
#    x 1.806720 0.000000 -0.013230 
#    y 0.000000 1.778340 0.000000 
#    z -0.013230 0.000000 1.817760 
# 
# From -- ./inp_files/21354.got.cif
#   From: 2010.03.12/outbox.cif.g09.slc.cpg/sg14_11_cif.got.tgz:21354.got - 2010.03.31 13:35:05.
