data_PCOD8125369
_publ_section_title
;
Structure prediction by ZEFSAII (Michael W. Deem and Ramdas Pophale) SiO2 
 PCOD8125369
Probable space group: P 21/C
;
_chemical_formula_sum "Si O2"
_cell_formula_units_Z 32
_cell_length_a 13.350807
_cell_length_b 8.891035
_cell_length_c 16.577282
_cell_angle_alpha 90.000000
_cell_angle_beta 130.163528
_cell_angle_gamma 90.000000
_cell_volume 1503.779046
_symmetry_space_group_name_H-M "P 21/C"
_symmetry_group_IT_number 14
_symmetry_cell_setting 'monoclinic'
loop_
_space_group_symop_operation_xyz
x,y,z
-x,1/2+y,1/2-z
-x,-y,-z
x,1/2-y,1/2+z
loop_
_atom_site_type_symbol
_atom_site_label
_atom_site_fract_x
_atom_site_fract_y
_atom_site_fract_z
Si Si1 0.508991 0.336895 0.598732
Si Si2 0.992973 0.682907 0.822684
Si Si3 0.260779 0.699800 0.041546
Si Si4 0.264078 0.371024 0.793470
Si Si5 0.245151 0.810082 0.208878
Si Si6 0.280949 0.375216 0.992061
Si Si7 0.991639 0.329664 0.835369
Si Si8 0.503621 0.665271 0.592757
O O1 0.648610 0.256268 0.674340
O O2 0.395854 0.235766 0.581435
O O3 0.519286 0.502496 0.644270
O O4 0.463118 0.355215 0.483433
O O5 0.859837 0.762040 0.779939
O O6 0.969141 0.505294 0.807452
O O7 0.042947 0.734503 0.761566
O O8 0.108257 0.728457 0.943878
O O9 0.295165 0.772186 0.145454
O O10 0.355389 0.780384 0.026875
O O11 0.293631 0.523193 0.053402
O O12 0.234807 0.513578 0.721910
O O13 0.287025 0.417167 0.899312
O O14 0.389997 0.286395 0.820193
O O15 0.104998 0.728722 0.145598
O O16 0.141485 0.297218 0.938988
#
# Coordination Sequence:
#
# PCOD8125369 Si02
#       8
#     4   4   4   4   4   4   4   4
#     4  10  21  38  64  89 112 150 198 252 297 344
#     4  10  21  39  64  88 114 149 195 250 295 344
#     4  11  24  38  55  85 123 159 192 235 293 358
#     4  10  21  39  63  88 114 153 199 246 295 344
#     4  12  24  37  56  85 122 161 194 231 293 359
#     4   9  20  39  63  86 112 151 198 246 295 344
#     4  10  20  38  63  88 114 150 198 247 294 345
#     4  10  21  39  62  89 115 146 200 253 296 345
#
# _framework density 21.279722
#
# number of rings (size 3 to 8) (size 9 to 14) (size 15 to 20)
#    0.000    1.750    0.000    5.250    0.000   11.500 
#    0.000    2.500    0.000    0.000    0.000    0.000 
#    0.000    0.000    0.000    0.000    0.000    0.000 
#
# Total GULP energy -396825.947887 kJ/mol
# GULP energy per Si atom -12400.810871 kJ/mol
# Density = 2.123129 g / cm^3
# Si number density = 21.279722 Si / 1000 Ang^3
#
#
#
# Elastic Constant Matrix: (Units=GPa)
#
#
# Indices 1 2 3 4 5 6 
#
# 1 97.1674 56.9641 37.2015 0.0000 22.2893 0.0000
# 2 56.9641 117.8507 30.5687 0.0000 11.7267 0.0000
# 3 37.2015 30.5687 42.8377 0.0000 10.2906 0.0000
# 4 0.0000 0.0000 0.0000 23.1887 0.0000 12.4441
# 5 22.2893 11.7267 10.2906 0.0000 24.8696 0.0000
# 6 0.0000 0.0000 0.0000 12.4441 0.0000 34.2311
#
#
#
# Elastic Compliance Matrix: (Units=1/GPa)
#
#
# Indices 1 2 3 4 5 6 
#
# 1 0.020501 -0.005989 -0.010876 0.000000 -0.011050 0.000000
# 2 -0.005989 0.012256 -0.003826 0.000000 0.001172 0.000000
# 3 -0.010876 -0.003826 0.036358 0.000000 -0.003493 0.000000
# 4 0.000000 0.000000 0.000000 0.053576 0.000000 -0.019477
# 5 -0.011050 0.001172 -0.003493 0.000000 0.051006 0.000000
# 6 0.000000 0.000000 0.000000 -0.019477 0.000000 0.036294
#
#
# Mechanical properties :
#
#
# Convention : Reuss Voigt Hill
#
# Bulk Modulus (GPa) = 36.05748 56.36938 46.21343
# Shear Modulus (GPa) = 19.18518 25.33266 22.25892
#
# Velocity S-wave (km/s) = 3.00587 3.45405 3.23773
# Velocity P-wave (km/s) = 5.38780 6.51571 5.97841
#
# Compressibility (1/GPa) = 0.02773350
#
# Stress axis : x y z
#
# Youngs Moduli (GPa) = 48.77789 81.59279 27.50404
#
# Poissons Ratio (x) = 0.48865 0.29913
# Poissons Ratio (y) = 0.29212 0.10524
# Poissons Ratio (z) = 0.53049 0.31221
#
# Static dielectric constant tensor:
#      x y z
#    x 3.834160 0.000000 0.252800 
#    y 0.000000 3.998870 0.000000 
#    z 0.252800 0.000000 3.549030 
# 
# 
# High freq. dielectric constant tensor:
#      x y z
#    x 1.836860 0.000000 0.024990 
#    y 0.000000 1.846110 0.000000 
#    z 0.024990 0.000000 1.811770 
# 
# From -- ./inp_files/57302.got.cif
#   From: 2010.03.12/outbox.cif.g09.slc.cpg/sg14_29_cif.got.tgz:57302.got - 2010.03.31 13:35:05.
