data_PCOD8125842
_publ_section_title
;
Structure prediction by ZEFSAII (Michael W. Deem and Ramdas Pophale) SiO2 
 PCOD8125842
Probable space group: P 21/C
;
_chemical_formula_sum "Si O2"
_cell_formula_units_Z 32
_cell_length_a 10.999182
_cell_length_b 9.497953
_cell_length_c 15.034874
_cell_angle_alpha 90.000000
_cell_angle_beta 85.661719
_cell_angle_gamma 90.000000
_cell_volume 1566.188668
_symmetry_space_group_name_H-M "P 21/C"
_symmetry_group_IT_number 14
_symmetry_cell_setting 'monoclinic'
loop_
_space_group_symop_operation_xyz
x,y,z
-x,1/2+y,1/2-z
-x,-y,-z
x,1/2-y,1/2+z
loop_
_atom_site_type_symbol
_atom_site_label
_atom_site_fract_x
_atom_site_fract_y
_atom_site_fract_z
Si Si1 0.606037 0.569035 0.300252
Si Si2 0.618689 0.084958 0.969161
Si Si3 0.845593 0.953101 0.414520
Si Si4 0.681270 0.080201 0.156752
Si Si5 0.272704 0.880343 0.339057
Si Si6 0.787819 0.809559 0.245103
Si Si7 0.385188 0.900637 0.522161
Si Si8 0.911324 0.896387 0.606659
O O1 0.674116 0.494817 0.380442
O O2 0.463848 0.595200 0.322478
O O3 0.621139 0.463059 0.217719
O O4 0.671069 0.715638 0.275176
O O5 0.580663 0.245428 0.942585
O O6 0.709330 0.073801 0.048783
O O7 0.500000 0.000000 0.000000
O O8 0.861560 0.844439 0.331735
O O9 0.859251 0.873511 0.509113
O O10 0.710806 0.019630 0.408842
O O11 0.943806 0.079772 0.404336
O O12 0.743682 0.220511 0.195131
O O13 0.738703 0.949497 0.202361
O O14 0.316229 0.867899 0.436351
O O15 0.145807 0.964740 0.343482
O O16 0.879263 0.736907 0.169728
O O17 0.500000 0.000000 0.500000
#
# Coordination Sequence:
#
# PCOD8125842 Si02
#       8
#     4   4   4   4   4   4   4   4
#     4  10  21  35  55  87 127 165 201 251 326 376
#     4   9  21  36  53  83 127 164 191 258 309 375
#     4  10  23  41  70  89 126 168 214 262 318 373
#     4  10  21  35  56  88 128 157 210 261 311 375
#     4   9  20  37  58  83 122 160 199 264 305 368
#     4  11  24  37  66  94 118 174 218 259 318 385
#     4  10  22  36  63  93 121 161 209 248 319 386
#     4   9  22  47  62  89 126 165 215 264 310 369
#
# _framework density 20.431767000000001
#
# number of rings (size 3 to 8) (size 9 to 14) (size 15 to 20)
#    0.000    2.250    0.000    0.750   10.500    6.000 
#    2.250    0.000    0.000    3.750    0.000    0.000 
#    0.000    0.000    0.000    0.000    0.000    0.000 
#
# Total GULP energy -396644.650717 kJ/mol
# GULP energy per Si atom -12395.145335 kJ/mol
# Density = 2.038526 g / cm^3
# Si number density = 20.431767 Si / 1000 Ang^3
#
#
#
# Elastic Constant Matrix: (Units=GPa)
#
#
# Indices 1 2 3 4 5 6 
#
# 1 79.2950 32.4889 18.7032 0.0000 -8.0922 0.0000
# 2 32.4889 147.4580 50.1133 0.0000 2.8080 0.0000
# 3 18.7032 50.1133 95.3404 0.0000 -7.1337 0.0000
# 4 0.0000 0.0000 0.0000 35.8484 0.0000 1.8612
# 5 -8.0922 2.8080 -7.1337 0.0000 19.6301 0.0000
# 6 0.0000 0.0000 0.0000 1.8612 0.0000 16.3055
#
#
#
# Elastic Compliance Matrix: (Units=1/GPa)
#
#
# Indices 1 2 3 4 5 6 
#
# 1 0.014697 -0.003086 -0.000797 0.000000 0.006211 0.000000
# 2 -0.003086 0.009061 -0.004471 0.000000 -0.004193 0.000000
# 3 -0.000797 -0.004471 0.013382 0.000000 0.005174 0.000000
# 4 0.000000 0.000000 0.000000 0.028062 0.000000 -0.003203
# 5 0.006211 -0.004193 0.005174 0.000000 0.055983 0.000000
# 6 0.000000 0.000000 0.000000 -0.003203 0.000000 0.061695
#
#
# Mechanical properties :
#
#
# Convention : Reuss Voigt Hill
#
# Bulk Modulus (GPa) = 48.93897 58.30047 53.61972
# Shear Modulus (GPa) = 24.22523 29.07599 26.65061
#
# Velocity S-wave (km/s) = 3.44708 3.77646 3.61553
# Velocity P-wave (km/s) = 6.31249 6.90013 6.61284
#
# Compressibility (1/GPa) = 0.02043361
#
# Stress axis : x y z
#
# Youngs Moduli (GPa) = 68.04059 110.36617 74.72610
#
# Poissons Ratio (x) = 0.34056 0.05952
# Poissons Ratio (y) = 0.20995 0.33410
# Poissons Ratio (z) = 0.05420 0.49344
#
# Static dielectric constant tensor:
#      x y z
#    x 0.520200 0.000000 3.688930 
#    y 0.000000 4.079340 0.000000 
#    z 3.688930 0.000000 -0.786330 
# 
# 
# High freq. dielectric constant tensor:
#      x y z
#    x 1.765890 0.000000 -0.010590 
#    y 0.000000 1.804530 0.000000 
#    z -0.010590 0.000000 1.813100 
# 
# From -- ./inp_files/43416.got.cif
#   From: 2010.03.12/outbox.cif.g09.slc.cpg/sg14_22_cif.got.tgz:43416.got - 2010.03.31 13:35:05.
