data_PCOD8125394
_publ_section_title
;
Structure prediction by ZEFSAII (Michael W. Deem and Ramdas Pophale) SiO2 
 PCOD8125394
Probable space group: P 21/C
;
_chemical_formula_sum "Si O2"
_cell_formula_units_Z 20
_cell_length_a 10.941225
_cell_length_b 17.609488
_cell_length_c 8.013246
_cell_angle_alpha 90.000000
_cell_angle_beta 145.237990
_cell_angle_gamma 90.000000
_cell_volume 880.287912
_symmetry_space_group_name_H-M "P 21/C"
_symmetry_group_IT_number 14
_symmetry_cell_setting 'monoclinic'
loop_
_space_group_symop_operation_xyz
x,y,z
-x,1/2+y,1/2-z
-x,-y,-z
x,1/2-y,1/2+z
loop_
_atom_site_type_symbol
_atom_site_label
_atom_site_fract_x
_atom_site_fract_y
_atom_site_fract_z
Si Si1 0.649211 0.848058 0.120705
Si Si2 0.647685 0.992132 0.913195
Si Si3 0.532062 0.290654 0.244443
Si Si4 0.940459 0.369528 0.724288
Si Si5 0.724242 0.580855 0.164360
O O1 0.505050 0.826898 0.116194
O O2 0.898426 0.839455 0.452201
O O3 0.612250 0.935343 0.028194
O O4 0.568983 0.793410 0.880912
O O5 0.774251 0.948583 0.905745
O O6 0.412787 0.018027 0.590214
O O7 0.793459 0.062867 0.133400
O O8 0.788672 0.297744 0.502509
O O9 0.413860 0.341995 0.972937
O O10 0.058317 0.400636 0.691064
#
# Coordination Sequence:
#
# PCOD8125394 Si02
#       5
#     4   4   4   4   4
#     4  11  23  40  61  88 123 158 206 256 300 358
#     4  10  20  38  65  94 123 157 198 251 305 361
#     4  10  23  40  58  86 122 162 204 251 301 359
#     4  10  22  39  62  90 121 162 204 247 306 363
#     4   9  20  39  62  91 126 159 198 244 299 366
#
# _framework density 22.719840999999999
#
# number of rings (size 3 to 8) (size 9 to 14) (size 15 to 20)
#    0.000    2.000    0.000    2.400    0.000   12.000 
#    0.000    4.000    0.000    0.000    0.000    0.000 
#    0.000    0.000    0.000    0.000    0.000    0.000 
#
# Total GULP energy -247930.258675 kJ/mol
# GULP energy per Si atom -12396.512934 kJ/mol
# Density = 2.266813 g / cm^3
# Si number density = 22.719841 Si / 1000 Ang^3
#
#
#
# Elastic Constant Matrix: (Units=GPa)
#
#
# Indices 1 2 3 4 5 6 
#
# 1 82.2432 23.2039 40.8221 0.0000 7.2473 0.0000
# 2 23.2039 95.4566 46.6573 0.0000 9.5321 0.0000
# 3 40.8221 46.6573 98.3294 0.0000 20.7160 0.0000
# 4 0.0000 0.0000 0.0000 45.4129 0.0000 -2.3742
# 5 7.2473 9.5321 20.7160 0.0000 31.8910 0.0000
# 6 0.0000 0.0000 0.0000 -2.3742 0.0000 26.9182
#
#
#
# Elastic Compliance Matrix: (Units=1/GPa)
#
#
# Indices 1 2 3 4 5 6 
#
# 1 0.015377 -0.000801 -0.006161 0.000000 0.000747 0.000000
# 2 -0.000801 0.013682 -0.006182 0.000000 0.000109 0.000000
# 3 -0.006161 -0.006182 0.017352 0.000000 -0.008023 0.000000
# 4 0.000000 0.000000 0.000000 0.022122 0.000000 0.001951
# 5 0.000747 0.000109 -0.008023 0.000000 0.036366 0.000000
# 6 0.000000 0.000000 0.000000 0.001951 0.000000 0.037322
#
#
# Mechanical properties :
#
#
# Convention : Reuss Voigt Hill
#
# Bulk Modulus (GPa) = 49.69831 55.26619 52.48225
# Shear Modulus (GPa) = 28.53596 31.86750 30.20173
#
# Velocity S-wave (km/s) = 3.54784 3.74923 3.64993
# Velocity P-wave (km/s) = 6.22132 6.56660 6.39629
#
# Compressibility (1/GPa) = 0.02012141
#
# Stress axis : x y z
#
# Youngs Moduli (GPa) = 65.03012 73.09088 57.63127
#
# Poissons Ratio (x) = 0.05855 0.35509
# Poissons Ratio (y) = 0.05209 0.35629
# Poissons Ratio (z) = 0.40068 0.45187
#
# Static dielectric constant tensor:
#      x y z
#    x 3.890910 0.000000 0.046690 
#    y 0.000000 4.495250 0.000000 
#    z 0.046690 0.000000 4.073300 
# 
# 
# High freq. dielectric constant tensor:
#      x y z
#    x 1.886380 0.000000 0.005640 
#    y 0.000000 1.897130 0.000000 
#    z 0.005640 0.000000 1.889440 
# 
# From -- ./inp_files/5465.got.cif
#   From: 2010.03.12/outbox.cif.g09.slc.cpg/sg14_3_cif.got.tgz:5465.got - 2010.03.31 13:35:05.
