data_PCOD8125627
_publ_section_title
;
Structure prediction by ZEFSAII (Michael W. Deem and Ramdas Pophale) SiO2 
 PCOD8125627
Probable space group: P 21/C
;
_chemical_formula_sum "Si O2"
_cell_formula_units_Z 32
_cell_length_a 14.322962
_cell_length_b 14.896352
_cell_length_c 19.672883
_cell_angle_alpha 90.000000
_cell_angle_beta 19.869176
_cell_angle_gamma 90.000000
_cell_volume 1426.587004
_symmetry_space_group_name_H-M "P 21/C"
_symmetry_group_IT_number 14
_symmetry_cell_setting 'monoclinic'
loop_
_space_group_symop_operation_xyz
x,y,z
-x,1/2+y,1/2-z
-x,-y,-z
x,1/2-y,1/2+z
loop_
_atom_site_type_symbol
_atom_site_label
_atom_site_fract_x
_atom_site_fract_y
_atom_site_fract_z
Si Si1 0.228015 0.093414 0.731719
Si Si2 0.667729 0.621033 0.327126
Si Si3 0.529276 0.002017 0.808064
Si Si4 0.637557 0.132115 0.188681
Si Si5 0.112028 0.092790 0.182275
Si Si6 0.334805 0.721069 0.013369
Si Si7 0.349065 0.459150 0.007951
Si Si8 0.737411 0.324207 0.089556
O O1 0.438029 0.174338 0.596340
O O2 0.175927 0.092120 0.685630
O O3 0.370779 0.000469 0.654067
O O4 0.957310 0.103853 0.963661
O O5 0.690029 0.530183 0.266056
O O6 0.662854 0.596571 0.410994
O O7 0.389104 0.673350 0.493222
O O8 0.933074 0.684202 0.135723
O O9 0.673846 0.080184 0.666434
O O10 0.501489 0.912461 0.782160
O O11 0.240237 0.046732 0.028121
O O12 0.460859 0.105209 0.373992
O O13 0.615127 0.239321 0.212733
O O14 0.978015 0.189816 0.253312
O O15 0.851704 0.034129 0.387331
O O16 0.386158 0.690776 0.900726
#
# Coordination Sequence:
#
# PCOD8125627 Si02
#       8
#     4   4   4   4   4   4   4   4
#     4  10  20  40  65  94 134 173 226 279 341 409
#     4  11  22  43  71  90 137 184 222 276 353 406
#     4  12  24  44  68  99 137 182 226 282 345 408
#     4  12  22  41  70  95 136 178 225 286 341 405
#     4  10  23  43  66 100 138 175 229 284 337 415
#     4  10  21  43  66  95 134 180 222 280 342 396
#     4  10  22  39  65 103 130 176 228 280 349 398
#     4  11  25  43  64 101 132 177 236 282 336 415
#
# _framework density 22.431158
#
# number of rings (size 3 to 8) (size 9 to 14) (size 15 to 20)
#    0.000    1.250    3.750    3.375    0.000    1.000 
#    2.250    1.250    0.000    0.000    0.000    0.000 
#    0.000    0.000    0.000    0.000    0.000    0.000 
#
# Total GULP energy -396438.686522 kJ/mol
# GULP energy per Si atom -12388.708954 kJ/mol
# Density = 2.238010 g / cm^3
# Si number density = 22.431158 Si / 1000 Ang^3
#
#
#
# Elastic Constant Matrix: (Units=GPa)
#
#
# Indices 1 2 3 4 5 6 
#
# 1 92.9441 29.5112 23.6295 0.0000 -5.4973 0.0000
# 2 29.5112 78.0821 7.0429 0.0000 -4.6145 0.0000
# 3 23.6295 7.0429 55.1115 0.0000 2.5484 0.0000
# 4 0.0000 0.0000 0.0000 28.2444 0.0000 -5.1592
# 5 -5.4973 -4.6145 2.5484 0.0000 29.2257 0.0000
# 6 0.0000 0.0000 0.0000 -5.1592 0.0000 28.0807
#
#
#
# Elastic Compliance Matrix: (Units=1/GPa)
#
#
# Indices 1 2 3 4 5 6 
#
# 1 0.013720 -0.004560 -0.005408 0.000000 0.002332 0.000000
# 2 -0.004560 0.014614 0.000020 0.000000 0.001448 0.000000
# 3 -0.005408 0.000020 0.020591 0.000000 -0.002809 0.000000
# 4 0.000000 0.000000 0.000000 0.036635 0.000000 0.006731
# 5 0.002332 0.001448 -0.002809 0.000000 0.035129 0.000000
# 6 0.000000 0.000000 0.000000 0.006731 0.000000 0.036848
#
#
# Mechanical properties :
#
#
# Convention : Reuss Voigt Hill
#
# Bulk Modulus (GPa) = 34.44595 38.50053 36.47324
# Shear Modulus (GPa) = 26.72268 28.17378 27.44823
#
# Velocity S-wave (km/s) = 3.45529 3.54787 3.50189
# Velocity P-wave (km/s) = 5.59539 5.82960 5.71370
#
# Compressibility (1/GPa) = 0.02903099
#
# Stress axis : x y z
#
# Youngs Moduli (GPa) = 72.88805 68.42690 48.56525
#
# Poissons Ratio (x) = 0.31201 0.26262
# Poissons Ratio (y) = 0.33235 -0.00099
# Poissons Ratio (z) = 0.39415 -0.00140
#
# Static dielectric constant tensor:
#      x y z
#    x 4.016810 0.000000 -0.051350 
#    y 0.000000 4.166400 0.000000 
#    z -0.051350 0.000000 3.863980 
# 
# 
# High freq. dielectric constant tensor:
#      x y z
#    x 1.882040 0.000000 -0.003090 
#    y 0.000000 1.888830 0.000000 
#    z -0.003090 0.000000 1.868670 
# 
# From -- ./inp_files/68690.got.cif
#   From: 2010.03.12/outbox.cif.g09.slc.cpg/sg14_35_cif.got.tgz:68690.got - 2010.03.31 13:35:05.
