data_PCOD8125300
_publ_section_title
;
Structure prediction by ZEFSAII (Michael W. Deem and Ramdas Pophale) SiO2 
 PCOD8125300
Probable space group: P 21/C
;
_chemical_formula_sum "Si O2"
_cell_formula_units_Z 32
_cell_length_a 8.230518
_cell_length_b 17.589773
_cell_length_c 12.803089
_cell_angle_alpha 90.000000
_cell_angle_beta 63.942394
_cell_angle_gamma 90.000000
_cell_volume 1665.133725
_symmetry_space_group_name_H-M "P 21/C"
_symmetry_group_IT_number 14
_symmetry_cell_setting 'monoclinic'
loop_
_space_group_symop_operation_xyz
x,y,z
-x,1/2+y,1/2-z
-x,-y,-z
x,1/2-y,1/2+z
loop_
_atom_site_type_symbol
_atom_site_label
_atom_site_fract_x
_atom_site_fract_y
_atom_site_fract_z
Si Si1 0.926860 0.246349 0.377632
Si Si2 0.573140 0.253651 0.622368
Si Si3 0.071959 0.427300 0.101400
Si Si4 0.571958 0.572700 0.601401
Si Si5 0.412753 0.413980 0.630951
Si Si6 0.912753 0.586020 0.130952
Si Si7 0.750000 0.331885 0.250000
Si Si8 0.750000 0.850535 0.250000
O O1 0.750001 0.250000 0.500000
O O2 0.873510 0.274879 0.279399
O O3 0.992025 0.160726 0.352595
O O4 0.099763 0.300353 0.355001
O O5 0.507976 0.339274 0.647404
O O6 0.626490 0.225121 0.720601
O O7 0.400239 0.199647 0.644998
O O8 0.171063 0.403593 0.180124
O O9 0.058091 0.518355 0.100046
O O10 0.876395 0.386843 0.146011
O O11 0.164942 0.402444 0.965466
O O12 0.558091 0.481645 0.600046
O O13 0.664941 0.597557 0.465466
O O14 0.376394 0.613157 0.646011
O O15 0.671062 0.596407 0.680125
O O16 0.250000 0.437451 0.750000
#
# Coordination Sequence:
#
# PCOD8125300 Si02
#       8
#     4   4   4   4   4   4   4   4
#     4  11  22  38  60  91 121 157 203 249 302 358
#     4  11  22  38  60  91 121 157 203 249 302 358
#     4  10  22  40  62  87 123 161 200 251 307 356
#     4  10  22  40  62  87 123 161 200 251 307 356
#     4  11  22  39  63  91 120 163 205 247 302 370
#     4  11  22  39  63  91 120 163 205 247 302 370
#     4  10  20  38  60  84 124 158 196 252 304 354
#     4  10  24  40  62  90 124 162 200 258 306 356
#
# _framework density 19.217675
#
# number of rings (size 3 to 8) (size 9 to 14) (size 15 to 20)
#    0.000    1.500    5.000    0.000    0.000    4.000 
#    0.000    2.500    0.000    0.000    0.000    0.000 
#    0.000    0.000    0.000    0.000    0.000    0.000 
#
# Total GULP energy -396505.450078 kJ/mol
# GULP energy per Si atom -12390.795315 kJ/mol
# Density = 1.917393 g / cm^3
# Si number density = 19.217675 Si / 1000 Ang^3
#
#
#
# Elastic Constant Matrix: (Units=GPa)
#
#
# Indices 1 2 3 4 5 6 
#
# 1 80.3400 39.9275 31.2374 0.0000 8.9626 0.0000
# 2 39.9275 121.3583 24.8708 0.0000 24.0721 0.0000
# 3 31.2374 24.8708 120.3798 0.0000 0.2342 0.0000
# 4 0.0000 0.0000 0.0000 26.2076 0.0000 0.4492
# 5 8.9626 24.0721 0.2342 0.0000 29.5821 0.0000
# 6 0.0000 0.0000 0.0000 0.4492 0.0000 21.0882
#
#
#
# Elastic Compliance Matrix: (Units=1/GPa)
#
#
# Indices 1 2 3 4 5 6 
#
# 1 0.016017 -0.004347 -0.003256 0.000000 -0.001290 0.000000
# 2 -0.004347 0.011520 -0.001236 0.000000 -0.008047 0.000000
# 3 -0.003256 -0.001236 0.009404 0.000000 0.001918 0.000000
# 4 0.000000 0.000000 0.000000 0.038171 0.000000 -0.000813
# 5 -0.001290 -0.008047 0.001918 0.000000 0.040728 0.000000
# 6 0.000000 0.000000 0.000000 -0.000813 0.000000 0.047437
#
#
# Mechanical properties :
#
#
# Convention : Reuss Voigt Hill
#
# Bulk Modulus (GPa) = 51.91350 57.12774 54.52062
# Shear Modulus (GPa) = 26.68439 30.44506 28.56472
#
# Velocity S-wave (km/s) = 3.73035 3.98455 3.85954
# Velocity P-wave (km/s) = 6.75470 7.13863 6.94932
#
# Compressibility (1/GPa) = 0.01926281
#
# Stress axis : x y z
#
# Youngs Moduli (GPa) = 62.43335 86.80732 106.34218
#
# Poissons Ratio (x) = 0.37732 0.34622
# Poissons Ratio (y) = 0.27137 0.13149
# Poissons Ratio (z) = 0.20327 0.10733
#
# Static dielectric constant tensor:
#      x y z
#    x 3.650040 0.000000 -0.226650 
#    y 0.000000 3.703670 0.000000 
#    z -0.226650 0.000000 3.761000 
# 
# 
# High freq. dielectric constant tensor:
#      x y z
#    x 1.731760 0.000000 -0.003500 
#    y 0.000000 1.762630 0.000000 
#    z -0.003500 0.000000 1.758550 
# 
# From -- ./inp_files/25529.got.cif
#   From: 2010.03.12/outbox.cif.g09.slc.cpg/sg14_13_cif.got.tgz:25529.got - 2010.03.31 13:35:05.
