data_PCOD8125494
_publ_section_title
;
Structure prediction by ZEFSAII (Michael W. Deem and Ramdas Pophale) SiO2 
 PCOD8125494
Probable space group: P 21/C
;
_chemical_formula_sum "Si O2"
_cell_formula_units_Z 28
_cell_length_a 11.408403
_cell_length_b 7.519583
_cell_length_c 17.648488
_cell_angle_alpha 90.000000
_cell_angle_beta 66.148610
_cell_angle_gamma 90.000000
_cell_volume 1384.701154
_symmetry_space_group_name_H-M "P 21/C"
_symmetry_group_IT_number 14
_symmetry_cell_setting 'monoclinic'
loop_
_space_group_symop_operation_xyz
x,y,z
-x,1/2+y,1/2-z
-x,-y,-z
x,1/2-y,1/2+z
loop_
_atom_site_type_symbol
_atom_site_label
_atom_site_fract_x
_atom_site_fract_y
_atom_site_fract_z
Si Si1 0.855011 0.132814 0.744012
Si Si2 0.139777 0.263233 0.673474
Si Si3 0.352416 0.874016 0.322284
Si Si4 0.462562 0.288032 0.842614
Si Si5 0.299370 0.924499 0.636318
Si Si6 0.648318 0.633938 0.481326
Si Si7 0.406749 0.754996 0.472607
O O1 0.781722 0.164688 0.683610
O O2 0.785071 0.248710 0.825917
O O3 0.996873 0.203814 0.693244
O O4 0.854242 0.925568 0.768457
O O5 0.204847 0.317691 0.576300
O O6 0.218417 0.094355 0.684767
O O7 0.473841 0.834923 0.237031
O O8 0.363957 0.760619 0.396602
O O9 0.354859 0.084397 0.336222
O O10 0.567585 0.419655 0.852409
O O11 0.391309 0.165960 0.921920
O O12 0.337296 0.916798 0.536521
O O13 0.561871 0.751703 0.444147
O O14 0.634620 0.423944 0.472366
#
# Coordination Sequence:
#
# PCOD8125494 Si02
#       7
#     4   4   4   4   4   4   4
#     4  11  25  41  62  94 121 167 219 257 306 365
#     4  12  22  42  68  85 121 170 219 258 298 377
#     4  11  23  38  59  93 137 156 201 268 320 370
#     4  10  22  37  58  97 126 162 201 257 328 372
#     4  10  21  40  66  90 121 165 211 254 308 379
#     4  10  21  37  68  93 123 171 211 250 314 381
#     4  10  20  39  63  97 129 157 206 267 314 380
#
# _framework density 20.220969
#
# number of rings (size 3 to 8) (size 9 to 14) (size 15 to 20)
#    0.000    1.429    2.857    2.571    6.000    2.286 
#    0.000    3.571    0.000    0.000    0.000    0.000 
#    0.000    0.000    0.000    0.000    0.000    0.000 
#
# Total GULP energy -347126.617634 kJ/mol
# GULP energy per Si atom -12397.379201 kJ/mol
# Density = 2.017494 g / cm^3
# Si number density = 20.220969 Si / 1000 Ang^3
#
#
#
# Elastic Constant Matrix: (Units=GPa)
#
#
# Indices 1 2 3 4 5 6 
#
# 1 92.7584 26.9867 62.8192 0.0000 -11.3773 0.0000
# 2 26.9867 75.3880 24.4203 0.0000 3.6333 0.0000
# 3 62.8192 24.4203 118.0892 0.0000 5.8592 0.0000
# 4 0.0000 0.0000 0.0000 27.1450 0.0000 -1.6505
# 5 -11.3773 3.6333 5.8592 0.0000 28.8911 0.0000
# 6 0.0000 0.0000 0.0000 -1.6505 0.0000 31.0023
#
#
#
# Elastic Compliance Matrix: (Units=1/GPa)
#
#
# Indices 1 2 3 4 5 6 
#
# 1 0.020538 -0.004458 -0.010539 0.000000 0.010786 0.000000
# 2 -0.004458 0.015226 -0.000601 0.000000 -0.003548 0.000000
# 3 -0.010539 -0.000601 0.014547 0.000000 -0.007025 0.000000
# 4 0.000000 0.000000 0.000000 0.036959 0.000000 0.001968
# 5 0.010786 -0.003548 -0.007025 0.000000 0.040731 0.000000
# 6 0.000000 0.000000 0.000000 0.001968 0.000000 0.032360
#
#
# Mechanical properties :
#
#
# Convention : Reuss Voigt Hill
#
# Bulk Modulus (GPa) = 52.31300 57.18756 54.75028
# Shear Modulus (GPa) = 25.26163 28.87498 27.06831
#
# Velocity S-wave (km/s) = 3.53835 3.78295 3.66269
# Velocity P-wave (km/s) = 6.52840 6.88649 6.70983
#
# Compressibility (1/GPa) = 0.01911571
#
# Stress axis : x y z
#
# Youngs Moduli (GPa) = 48.69106 65.67587 68.74183
#
# Poissons Ratio (x) = 0.29278 0.72444
# Poissons Ratio (y) = 0.21706 0.04133
# Poissons Ratio (z) = 0.51313 0.03948
#
# Static dielectric constant tensor:
#      x y z
#    x 3.512240 0.000000 -0.137590 
#    y 0.000000 3.775880 0.000000 
#    z -0.137590 0.000000 3.607060 
# 
# 
# High freq. dielectric constant tensor:
#      x y z
#    x 1.762040 0.000000 -0.011060 
#    y 0.000000 1.812870 0.000000 
#    z -0.011060 0.000000 1.788610 
# 
# From -- ./inp_files/43611.got.cif
#   From: 2010.03.12/outbox.cif.g09.slc.cpg/sg14_22_cif.got.tgz:43611.got - 2010.03.31 13:35:05.
