data_PCOD8125538
_publ_section_title
;
Structure prediction by ZEFSAII (Michael W. Deem and Ramdas Pophale) SiO2 
 PCOD8125538
Probable space group: P 21/C
;
_chemical_formula_sum "Si O2"
_cell_formula_units_Z 24
_cell_length_a 25.437838
_cell_length_b 5.576884
_cell_length_c 15.146600
_cell_angle_alpha 90.000000
_cell_angle_beta 153.300637
_cell_angle_gamma 90.000000
_cell_volume 965.455246
_symmetry_space_group_name_H-M "P 21/C"
_symmetry_group_IT_number 14
_symmetry_cell_setting 'monoclinic'
loop_
_space_group_symop_operation_xyz
x,y,z
-x,1/2+y,1/2-z
-x,-y,-z
x,1/2-y,1/2+z
loop_
_atom_site_type_symbol
_atom_site_label
_atom_site_fract_x
_atom_site_fract_y
_atom_site_fract_z
Si Si1 0.567406 0.301912 0.047765
Si Si2 0.429820 0.569200 0.135385
Si Si3 0.341039 0.009443 0.678017
Si Si4 0.084553 0.803145 0.667226
Si Si5 0.850499 0.597562 0.584950
Si Si6 0.935053 0.095954 0.037320
O O1 0.670074 0.202874 0.266169
O O2 0.500000 0.500000 0.000000
O O3 0.625113 0.406516 0.045126
O O4 0.475494 0.096519 0.882537
O O5 0.490977 0.305622 0.227609
O O6 0.325176 0.572988 0.051943
O O7 0.247945 0.204048 0.565321
O O8 0.139339 0.680682 0.661135
O O9 0.014713 0.621944 0.624631
O O10 0.179200 0.917317 0.877536
O O11 0.000000 0.000000 0.500000
O O12 0.846890 0.476797 0.483011
O O13 0.980428 0.698224 0.796820
#
# Coordination Sequence:
#
# PCOD8125538 Si02
#       6
#     4   4   4   4   4   4
#     4  10  20  42  67  95 139 178 231 301 367 430
#     4  10  20  40  71  96 140 188 234 299 370 427
#     4  10  23  39  68 102 134 185 241 294 360 449
#     4   9  20  39  64  91 131 184 229 288 348 418
#     4  11  21  40  68 100 137 185 239 288 365 433
#     4  10  20  39  67  92 137 186 227 297 356 410
#
# _framework density 24.858739
#
# number of rings (size 3 to 8) (size 9 to 14) (size 15 to 20)
#    0.000    2.000    3.333    0.000    0.000    1.333 
#    0.000    6.667    7.333    0.000    0.000    0.000 
#    0.000    0.000    0.000    0.000    0.000    0.000 
#
# Total GULP energy -297362.964506 kJ/mol
# GULP energy per Si atom -12390.123521 kJ/mol
# Density = 2.480216 g / cm^3
# Si number density = 24.858739 Si / 1000 Ang^3
#
#
#
# Elastic Constant Matrix: (Units=GPa)
#
#
# Indices 1 2 3 4 5 6 
#
# 1 212.1817 63.9294 71.2539 0.0000 -53.3494 0.0000
# 2 63.9294 118.6773 25.4144 0.0000 -23.9051 0.0000
# 3 71.2539 25.4144 78.5282 0.0000 -41.4252 0.0000
# 4 0.0000 0.0000 0.0000 48.8440 0.0000 -7.1644
# 5 -53.3494 -23.9051 -41.4252 0.0000 44.2395 0.0000
# 6 0.0000 0.0000 0.0000 -7.1644 0.0000 46.7056
#
#
#
# Elastic Compliance Matrix: (Units=1/GPa)
#
#
# Indices 1 2 3 4 5 6 
#
# 1 0.007948 -0.002522 -0.004068 0.000000 0.004414 0.000000
# 2 -0.002522 0.010276 0.000568 0.000000 0.003044 0.000000
# 3 -0.004068 0.000568 0.027302 0.000000 0.020966 0.000000
# 4 0.000000 0.000000 0.000000 0.020945 0.000000 0.003213
# 5 0.004414 0.003044 0.020966 0.000000 0.049204 0.000000
# 6 0.000000 0.000000 0.000000 0.003213 0.000000 0.021904
#
#
# Mechanical properties :
#
#
# Convention : Reuss Voigt Hill
#
# Bulk Modulus (GPa) = 29.86577 81.17585 55.52081
# Shear Modulus (GPa) = 31.09804 44.54380 37.82092
#
# Velocity S-wave (km/s) = 3.54077 4.23765 3.90479
# Velocity P-wave (km/s) = 5.36250 7.52790 6.53551
#
# Compressibility (1/GPa) = 0.03348314
#
# Stress axis : x y z
#
# Youngs Moduli (GPa) = 125.81098 97.31417 36.62795
#
# Poissons Ratio (x) = 0.24538 0.14900
# Poissons Ratio (y) = 0.31724 -0.02080
# Poissons Ratio (z) = 0.51178 -0.05527
#
# Static dielectric constant tensor:
#      x y z
#    x 4.744550 0.000000 -1.309740 
#    y 0.000000 5.555770 0.000000 
#    z -1.309740 0.000000 2.514920 
# 
# 
# High freq. dielectric constant tensor:
#      x y z
#    x 2.002430 0.000000 -0.042680 
#    y 0.000000 2.004480 0.000000 
#    z -0.042680 0.000000 1.975270 
# 
# From -- ./inp_files/51737.got.cif
#   From: 2010.03.12/outbox.cif.g09.slc.cpg/sg14_26_cif.got.tgz:51737.got - 2010.03.31 13:35:05.
