data_PCOD8125004
_publ_section_title
;
Structure prediction by ZEFSAII (Michael W. Deem and Ramdas Pophale) SiO2 
 PCOD8125004
Probable space group: P 21/C
;
_chemical_formula_sum "Si O2"
_cell_formula_units_Z 28
_cell_length_a 19.330205
_cell_length_b 9.513214
_cell_length_c 22.478869
_cell_angle_alpha 90.000000
_cell_angle_beta 20.022843
_cell_angle_gamma 90.000000
_cell_volume 1415.354694
_symmetry_space_group_name_H-M "P 21/C"
_symmetry_group_IT_number 14
_symmetry_cell_setting 'monoclinic'
loop_
_space_group_symop_operation_xyz
x,y,z
-x,1/2+y,1/2-z
-x,-y,-z
x,1/2-y,1/2+z
loop_
_atom_site_type_symbol
_atom_site_label
_atom_site_fract_x
_atom_site_fract_y
_atom_site_fract_z
Si Si1 0.085859 0.154552 0.827747
Si Si2 0.334540 0.414141 0.235861
Si Si3 0.406722 0.157641 0.475822
Si Si4 0.281081 0.979743 0.907886
Si Si5 0.807001 0.861749 0.600757
Si Si6 0.644882 0.716787 0.112512
Si Si7 0.813838 0.329856 0.130214
O O1 0.179488 0.065086 0.806642
O O2 0.267006 0.218473 0.641395
O O3 0.952049 0.059905 0.889735
O O4 0.940579 0.276665 0.970597
O O5 0.547996 0.490859 0.047655
O O6 0.260052 0.498591 0.353860
O O7 0.348612 0.248819 0.241827
O O8 0.292057 0.174560 0.505237
O O9 0.619350 0.239136 0.303662
O O10 0.425768 0.848068 0.805038
O O11 0.364218 0.114054 0.875981
O O12 0.803521 0.843721 0.532126
O O13 0.037763 0.831421 0.432939
O O14 0.734350 0.014678 0.679369
#
# Coordination Sequence:
#
# PCOD8125004 Si02
#       7
#     4   4   4   4   4   4   4
#     4  11  21  37  62  90 115 155 200 246 297 350
#     4   9  19  37  61  87 111 149 201 247 285 345
#     4  11  22  37  62  88 121 153 195 248 299 350
#     4  10  20  36  62  82 117 155 193 242 292 348
#     4   9  20  36  65  83 116 160 199 239 302 345
#     4  10  20  36  58  86 115 155 192 239 292 354
#     4  10  20  40  62  85 116 159 195 248 292 350
#
# _framework density 19.783024999999999
#
# number of rings (size 3 to 8) (size 9 to 14) (size 15 to 20)
#    0.000    2.000    2.857    1.714    4.000    0.000 
#    2.571    6.429    3.143    0.000    0.000    0.000 
#    0.000    0.000    0.000    0.000    0.000    0.000 
#
# Total GULP energy -346943.725103 kJ/mol
# GULP energy per Si atom -12390.847325 kJ/mol
# Density = 1.973800 g / cm^3
# Si number density = 19.783025 Si / 1000 Ang^3
#
#
#
# Elastic Constant Matrix: (Units=GPa)
#
#
# Indices 1 2 3 4 5 6 
#
# 1 117.8164 48.2366 39.8976 0.0000 -17.6307 0.0000
# 2 48.2366 123.7841 54.7855 0.0000 -8.1678 0.0000
# 3 39.8976 54.7855 107.5583 0.0000 6.6468 0.0000
# 4 0.0000 0.0000 0.0000 15.4897 0.0000 -7.8910
# 5 -17.6307 -8.1678 6.6468 0.0000 16.2410 0.0000
# 6 0.0000 0.0000 0.0000 -7.8910 0.0000 27.6824
#
#
#
# Elastic Compliance Matrix: (Units=1/GPa)
#
#
# Indices 1 2 3 4 5 6 
#
# 1 0.013245 -0.002007 -0.004840 0.000000 0.015350 0.000000
# 2 -0.002007 0.011740 -0.005607 0.000000 0.006021 0.000000
# 3 -0.004840 -0.005607 0.014823 0.000000 -0.014140 0.000000
# 4 0.000000 0.000000 0.000000 0.075527 0.000000 0.021529
# 5 0.015350 0.006021 -0.014140 0.000000 0.087051 0.000000
# 6 0.000000 0.000000 0.000000 0.021529 0.000000 0.042261
#
#
# Mechanical properties :
#
#
# Convention : Reuss Voigt Hill
#
# Bulk Modulus (GPa) = 67.11400 70.55534 68.83467
# Shear Modulus (GPa) = 18.21357 25.63190 21.92274
#
# Velocity S-wave (km/s) = 3.03754 3.60342 3.33251
# Velocity P-wave (km/s) = 6.80448 7.28388 7.04825
#
# Compressibility (1/GPa) = 0.01490002
#
# Stress axis : x y z
#
# Youngs Moduli (GPa) = 75.49802 85.18230 67.46499
#
# Poissons Ratio (x) = 0.17093 0.32652
# Poissons Ratio (y) = 0.15149 0.37830
# Poissons Ratio (z) = 0.36539 0.47765
#
# Static dielectric constant tensor:
#      x y z
#    x 3.837470 0.000000 -0.188650 
#    y 0.000000 3.810110 0.000000 
#    z -0.188650 0.000000 3.351620 
# 
# 
# High freq. dielectric constant tensor:
#      x y z
#    x 1.784290 0.000000 -0.019420 
#    y 0.000000 1.773890 0.000000 
#    z -0.019420 0.000000 1.729280 
# 
# From -- ./inp_files/74623.got.cif
#   From: 2010.03.12/outbox.cif.g09.slc.cpg/sg14_38_cif.got.tgz:74623.got - 2010.03.31 13:35:05.
