data_PCOD8125796
_publ_section_title
;
Structure prediction by ZEFSAII (Michael W. Deem and Ramdas Pophale) SiO2 
 PCOD8125796
Probable space group: P 21/C
;
_chemical_formula_sum "Si O2"
_cell_formula_units_Z 32
_cell_length_a 11.280955
_cell_length_b 12.585807
_cell_length_c 13.795028
_cell_angle_alpha 90.000000
_cell_angle_beta 52.307023
_cell_angle_gamma 90.000000
_cell_volume 1549.850668
_symmetry_space_group_name_H-M "P 21/C"
_symmetry_group_IT_number 14
_symmetry_cell_setting 'monoclinic'
loop_
_space_group_symop_operation_xyz
x,y,z
-x,1/2+y,1/2-z
-x,-y,-z
x,1/2-y,1/2+z
loop_
_atom_site_type_symbol
_atom_site_label
_atom_site_fract_x
_atom_site_fract_y
_atom_site_fract_z
Si Si1 0.700369 0.374763 0.660849
Si Si2 0.253458 0.193382 0.675252
Si Si3 0.500000 0.250000 0.900861
Si Si4 1.000000 0.919250 0.284705
Si Si5 1.000000 0.345379 0.848709
Si Si6 0.700369 0.874763 0.138782
Si Si7 0.000000 0.241491 0.053412
Si Si8 0.746542 0.306618 0.428711
O O1 0.566684 0.342334 0.799714
O O2 0.702321 0.500000 0.648840
O O3 0.669679 0.321099 0.571587
O O4 0.856226 0.334452 0.627780
O O5 0.375876 0.196261 0.530222
O O6 0.150048 0.299098 0.723954
O O7 0.330321 0.178902 0.741266
O O8 0.147120 0.090724 0.709337
O O9 0.433316 0.157666 0.866398
O O10 0.624125 0.196260 0.906097
O O11 0.147119 0.909276 0.143544
O O12 0.000000 0.818895 0.356002
O O13 1.000000 0.028614 0.341438
O O14 0.000000 0.316272 0.960587
O O15 0.849951 0.299098 0.874003
O O16 0.856226 0.834452 0.015994
#
# Coordination Sequence:
#
# PCOD8125796 Si02
#       8
#     4   4   4   4   4   4   4   4
#     4  11  25  44  68  96 129 177 219 277 332 386
#     4  10  24  42  64  98 129 168 226 270 321 405
#     4  12  24  46  62  92 144 168 212 272 334 412
#     4  11  20  40  71  93 126 176 217 280 332 376
#     4   9  22  40  66  95 128 166 222 277 324 388
#     4  11  25  44  68  96 129 177 219 277 332 386
#     4  10  20  44  66  97 127 164 231 277 315 397
#     4  10  24  42  64  98 129 168 226 270 321 405
#
# _framework density 20.647151000000001
#
# number of rings (size 3 to 8) (size 9 to 14) (size 15 to 20)
#    0.000    1.500    2.500    2.250    3.500    1.000 
#    9.000    0.000    0.000    0.000    0.000    0.000 
#    0.000    0.000    0.000    0.000    0.000    0.000 
#
# Total GULP energy -396859.737796 kJ/mol
# GULP energy per Si atom -12401.866806 kJ/mol
# Density = 2.060016 g / cm^3
# Si number density = 20.647151 Si / 1000 Ang^3
#
#
#
# Elastic Constant Matrix: (Units=GPa)
#
#
# Indices 1 2 3 4 5 6 
#
# 1 140.5080 39.3054 47.7686 0.0000 5.5125 0.0000
# 2 39.3054 121.5668 39.4726 0.0000 0.4185 0.0000
# 3 47.7686 39.4726 141.6567 0.0000 -2.6378 0.0000
# 4 0.0000 0.0000 0.0000 16.6702 0.0000 4.5688
# 5 5.5125 0.4185 -2.6378 0.0000 27.0662 0.0000
# 6 0.0000 0.0000 0.0000 4.5688 0.0000 14.8453
#
#
#
# Elastic Compliance Matrix: (Units=1/GPa)
#
#
# Indices 1 2 3 4 5 6 
#
# 1 0.008555 -0.001991 -0.002366 0.000000 -0.001942 0.000000
# 2 -0.001991 0.009512 -0.001978 0.000000 0.000066 0.000000
# 3 -0.002366 -0.001978 0.008433 0.000000 0.001334 0.000000
# 4 0.000000 0.000000 0.000000 0.065513 0.000000 -0.020162
# 5 -0.001942 0.000066 0.001334 0.000000 0.037471 0.000000
# 6 0.000000 0.000000 0.000000 -0.020162 0.000000 0.073567
#
#
# Mechanical properties :
#
#
# Convention : Reuss Voigt Hill
#
# Bulk Modulus (GPa) = 72.30849 72.98053 72.64451
# Shear Modulus (GPa) = 22.69326 30.19533 26.44430
#
# Velocity S-wave (km/s) = 3.31886 3.82834 3.58267
# Velocity P-wave (km/s) = 7.05575 7.41383 7.23700
#
# Compressibility (1/GPa) = 0.01382963
#
# Stress axis : x y z
#
# Youngs Moduli (GPa) = 116.89653 105.13458 118.57938
#
# Poissons Ratio (x) = 0.20932 0.28057
# Poissons Ratio (y) = 0.23273 0.23453
# Poissons Ratio (z) = 0.27659 0.20794
#
# Static dielectric constant tensor:
#      x y z
#    x 3.932470 0.000000 0.071640 
#    y 0.000000 3.409430 0.000000 
#    z 0.071640 0.000000 3.961080 
# 
# 
# High freq. dielectric constant tensor:
#      x y z
#    x 1.818690 0.000000 0.012500 
#    y 0.000000 1.790850 0.000000 
#    z 0.012500 0.000000 1.823690 
# 
# From -- ./inp_files/44635.got.cif
#   From: 2010.03.12/outbox.cif.g09.slc.cpg/sg14_23_cif.got.tgz:44635.got - 2010.03.31 13:35:05.
