data_PCOD8125523
_publ_section_title
;
Structure prediction by ZEFSAII (Michael W. Deem and Ramdas Pophale) SiO2 
 PCOD8125523
Probable space group: P 21/C
;
_chemical_formula_sum "Si O2"
_cell_formula_units_Z 28
_cell_length_a 11.369548
_cell_length_b 6.922987
_cell_length_c 12.903859
_cell_angle_alpha 90.000000
_cell_angle_beta 103.270742
_cell_angle_gamma 90.000000
_cell_volume 988.556193
_symmetry_space_group_name_H-M "P 21/C"
_symmetry_group_IT_number 14
_symmetry_cell_setting 'monoclinic'
loop_
_space_group_symop_operation_xyz
x,y,z
-x,1/2+y,1/2-z
-x,-y,-z
x,1/2-y,1/2+z
loop_
_atom_site_type_symbol
_atom_site_label
_atom_site_fract_x
_atom_site_fract_y
_atom_site_fract_z
Si Si1 0.705309 0.933591 0.447916
Si Si2 0.487274 0.823330 0.893642
Si Si3 0.595018 0.316722 0.342014
Si Si4 0.838156 0.488775 0.434462
Si Si5 0.230699 0.769289 0.397790
Si Si6 0.134720 0.002094 0.712166
Si Si7 0.946300 0.725865 0.614337
O O1 0.625104 0.123108 0.407871
O O2 0.781265 0.001472 0.569399
O O3 0.779685 0.903931 0.355933
O O4 0.614332 0.762948 0.460763
O O5 0.464998 0.721549 0.779518
O O6 0.371813 0.786279 0.942057
O O7 0.499067 0.055927 0.888521
O O8 0.713332 0.457478 0.348473
O O9 0.847890 0.344754 0.534171
O O10 0.953278 0.442957 0.386619
O O11 0.850530 0.704937 0.495663
O O12 0.188285 0.698146 0.274850
O O13 0.008765 0.935834 0.633082
O O14 0.115470 0.173673 0.789379
#
# Coordination Sequence:
#
# PCOD8125523 Si02
#       7
#     4   4   4   4   4   4   4
#     4  11  23  42  62  94 136 166 216 277 310 399
#     4  12  22  38  66 100 126 179 213 255 339 384
#     4  11  21  39  65  90 137 166 218 265 316 388
#     4   9  20  38  64  88 124 171 218 263 325 387
#     4  10  20  40  66  89 132 170 208 273 322 385
#     4  11  21  41  64  92 127 170 222 265 333 374
#     4  10  20  39  65  87 121 174 214 268 332 372
#
# _framework density 28.324134999999998
#
# number of rings (size 3 to 8) (size 9 to 14) (size 15 to 20)
#    0.000    1.429    5.714    0.429    0.000    3.429 
#    2.571    0.714    0.000    0.000    0.000    0.000 
#    0.000    0.000    0.000    0.000    0.000    0.000 
#
# Total GULP energy -347020.558792 kJ/mol
# GULP energy per Si atom -12393.591385 kJ/mol
# Density = 2.825967 g / cm^3
# Si number density = 28.324135 Si / 1000 Ang^3
#
#
#
# Elastic Constant Matrix: (Units=GPa)
#
#
# Indices 1 2 3 4 5 6 
#
# 1 108.7131 4.3865 27.0273 0.0000 -11.1822 0.0000
# 2 4.3865 77.0883 21.0145 0.0000 -8.8579 0.0000
# 3 27.0273 21.0145 68.1489 0.0000 9.8783 0.0000
# 4 0.0000 0.0000 0.0000 62.5857 0.0000 7.3008
# 5 -11.1822 -8.8579 9.8783 0.0000 51.2101 0.0000
# 6 0.0000 0.0000 0.0000 7.3008 0.0000 30.9586
#
#
#
# Elastic Compliance Matrix: (Units=1/GPa)
#
#
# Indices 1 2 3 4 5 6 
#
# 1 0.010803 0.001205 -0.005173 0.000000 0.003565 0.000000
# 2 0.001205 0.014892 -0.005639 0.000000 0.003927 0.000000
# 3 -0.005173 -0.005639 0.019309 0.000000 -0.005830 0.000000
# 4 0.000000 0.000000 0.000000 0.016430 0.000000 -0.003875
# 5 0.003565 0.003927 -0.005830 0.000000 0.022110 0.000000
# 6 0.000000 0.000000 0.000000 -0.003875 0.000000 0.033215
#
#
# Mechanical properties :
#
#
# Convention : Reuss Voigt Hill
#
# Bulk Modulus (GPa) = 38.77450 39.86743 39.32096
# Shear Modulus (GPa) = 34.58567 42.38567 38.48567
#
# Velocity S-wave (km/s) = 3.49817 3.87260 3.69013
# Velocity P-wave (km/s) = 5.48047 5.83969 5.66293
#
# Compressibility (1/GPa) = 0.02579015
#
# Stress axis : x y z
#
# Youngs Moduli (GPa) = 92.57072 67.14991 51.78914
#
# Poissons Ratio (x) = -0.08092 0.26788
# Poissons Ratio (y) = -0.11155 0.29205
# Poissons Ratio (z) = 0.47883 0.37867
#
# Static dielectric constant tensor:
#      x y z
#    x 5.292250 0.000000 0.269730 
#    y 0.000000 5.428320 0.000000 
#    z 0.269730 0.000000 5.584960 
# 
# 
# High freq. dielectric constant tensor:
#      x y z
#    x 2.157950 0.000000 0.004080 
#    y 0.000000 2.151320 0.000000 
#    z 0.004080 0.000000 2.158590 
# 
# From -- ./inp_files/43186.got.cif
#   From: 2010.03.12/outbox.cif.g09.slc.cpg/sg14_22_cif.got.tgz:43186.got - 2010.03.31 13:35:05.
