data_PCOD8125432
_publ_section_title
;
Structure prediction by ZEFSAII (Michael W. Deem and Ramdas Pophale) SiO2 
 PCOD8125432
Probable space group: P 21/C
;
_chemical_formula_sum "Si O2"
_cell_formula_units_Z 20
_cell_length_a 12.935490
_cell_length_b 6.824868
_cell_length_c 10.207323
_cell_angle_alpha 90.000000
_cell_angle_beta 61.928279
_cell_angle_gamma 90.000000
_cell_volume 795.123213
_symmetry_space_group_name_H-M "P 21/C"
_symmetry_group_IT_number 14
_symmetry_cell_setting 'monoclinic'
loop_
_space_group_symop_operation_xyz
x,y,z
-x,1/2+y,1/2-z
-x,-y,-z
x,1/2-y,1/2+z
loop_
_atom_site_type_symbol
_atom_site_label
_atom_site_fract_x
_atom_site_fract_y
_atom_site_fract_z
Si Si1 0.154623 0.687972 0.594726
Si Si2 0.410771 0.743727 0.965609
Si Si3 0.196354 0.231762 0.004014
Si Si4 0.546377 0.816004 0.128652
Si Si5 0.079529 0.123626 0.321309
O O1 0.273210 0.813855 0.548395
O O2 0.180086 0.502340 0.482990
O O3 0.105334 0.600466 0.762019
O O4 0.059238 0.834189 0.591192
O O5 0.475088 0.643502 0.804345
O O6 0.417697 0.977990 0.954089
O O7 0.472286 0.686983 0.067474
O O8 0.332467 0.298593 0.915740
O O9 0.126976 0.355042 0.938706
O O10 0.144617 0.273017 0.181023
#
# Coordination Sequence:
#
# PCOD8125432 Si02
#       5
#     4   4   4   4   4
#     4   9  22  39  59  86 118 152 199 241 289 349
#     4  10  22  41  60  91 119 157 197 250 291 361
#     4   9  20  36  61  84 114 153 188 239 292 345
#     4  10  21  40  64  85 126 151 201 244 300 351
#     4  10  20  39  60  82 120 152 193 244 290 348
#
# _framework density 25.153334000000001
#
# number of rings (size 3 to 8) (size 9 to 14) (size 15 to 20)
#    1.200    1.200    0.000    1.800    2.800    3.200 
#    7.200    0.000    0.000    0.000    0.000    0.000 
#    0.000    0.000    0.000    0.000    0.000    0.000 
#
# Total GULP energy -247942.376923 kJ/mol
# GULP energy per Si atom -12397.118846 kJ/mol
# Density = 2.509608 g / cm^3
# Si number density = 25.153334 Si / 1000 Ang^3
#
#
#
# Elastic Constant Matrix: (Units=GPa)
#
#
# Indices 1 2 3 4 5 6 
#
# 1 217.0868 7.7458 90.6294 0.0000 -26.5640 0.0000
# 2 7.7458 22.8425 10.7562 0.0000 -4.7292 0.0000
# 3 90.6294 10.7562 136.5480 0.0000 -5.7227 0.0000
# 4 0.0000 0.0000 0.0000 32.8369 0.0000 -6.3697
# 5 -26.5640 -4.7292 -5.7227 0.0000 54.8350 0.0000
# 6 0.0000 0.0000 0.0000 -6.3697 0.0000 -23.5736
#
#
#
# Elastic Compliance Matrix: (Units=1/GPa)
#
#
# Indices 1 2 3 4 5 6 
#
# 1 0.006785 0.000369 -0.004413 0.000000 0.002858 0.000000
# 2 0.000369 0.046188 -0.003725 0.000000 0.003773 0.000000
# 3 -0.004413 -0.003725 0.010489 0.000000 -0.001364 0.000000
# 4 0.000000 0.000000 0.000000 0.028937 0.000000 -0.007819
# 5 0.002858 0.003773 -0.001364 0.000000 0.019804 0.000000
# 6 0.000000 0.000000 0.000000 -0.007819 0.000000 -0.040308
#
#
# Mechanical properties :
#
#
# Convention : Reuss Voigt Hill
#
# Bulk Modulus (GPa) = 20.86634 66.08224 43.47429
# Shear Modulus (GPa) = 48.35212 30.64273 39.49742
#
# Velocity S-wave (km/s) = 4.38915 3.49411 3.96696
# Velocity P-wave (km/s) = 5.83094 6.52742 6.18899
#
# Compressibility (1/GPa) = 0.04792407
#
# Stress axis : x y z
#
# Youngs Moduli (GPa) = 147.37727 21.65057 95.34229
#
# Poissons Ratio (x) = -0.00798 0.42073
# Poissons Ratio (y) = -0.05435 0.35515
# Poissons Ratio (z) = 0.65035 0.08065
#
# Static dielectric constant tensor:
#      x y z
#    x 4.570920 0.000000 -0.215570 
#    y 0.000000 3.965030 0.000000 
#    z -0.215570 0.000000 4.248320 
# 
# 
# High freq. dielectric constant tensor:
#      x y z
#    x 2.006440 0.000000 -0.015110 
#    y 0.000000 1.986420 0.000000 
#    z -0.015110 0.000000 1.996030 
# 
# From -- ./inp_files/12044.got.cif
#   From: 2010.03.12/outbox.cif.g09.slc.cpg/sg14_7_cif.got.tgz:12044.got - 2010.03.31 13:35:05.
