data_PCOD8125724
_publ_section_title
;
Structure prediction by ZEFSAII (Michael W. Deem and Ramdas Pophale) SiO2 
 PCOD8125724
Probable space group: P 21/C
;
_chemical_formula_sum "Si O2"
_cell_formula_units_Z 32
_cell_length_a 10.759510
_cell_length_b 9.393619
_cell_length_c 29.112980
_cell_angle_alpha 90.000000
_cell_angle_beta 149.047200
_cell_angle_gamma 90.000000
_cell_volume 1513.405988
_symmetry_space_group_name_H-M "P 21/C"
_symmetry_group_IT_number 14
_symmetry_cell_setting 'monoclinic'
loop_
_space_group_symop_operation_xyz
x,y,z
-x,1/2+y,1/2-z
-x,-y,-z
x,1/2-y,1/2+z
loop_
_atom_site_type_symbol
_atom_site_label
_atom_site_fract_x
_atom_site_fract_y
_atom_site_fract_z
Si Si1 0.500967 0.734170 0.982079
Si Si2 0.668891 0.166821 0.310146
Si Si3 0.120396 0.137326 0.965705
Si Si4 0.541432 0.955327 0.578577
Si Si5 0.628936 0.963059 0.704259
Si Si6 0.008102 0.094502 0.587837
Si Si7 0.913383 0.381543 0.603186
Si Si8 0.331403 0.232175 0.622208
O O1 0.366071 0.609131 0.910302
O O2 0.321767 0.862948 0.939070
O O3 0.726168 0.793658 0.026206
O O4 0.603182 0.664657 0.061152
O O5 0.539391 0.135594 0.317494
O O6 0.462574 0.191906 0.206714
O O7 0.847912 0.300062 0.375916
O O8 0.812608 0.028501 0.337914
O O9 0.128015 0.967079 0.957989
O O10 0.243971 0.160556 0.054612
O O11 0.664132 0.900804 0.664249
O O12 0.256142 0.971906 0.499267
O O13 0.895130 0.977180 0.809061
O O14 0.520496 0.119995 0.661728
O O15 0.093170 0.150186 0.564834
O O16 0.015179 0.224112 0.625948
#
# Coordination Sequence:
#
# PCOD8125724 Si02
#       8
#     4   4   4   4   4   4   4   4
#     4  10  22  42  62  92 123 173 217 272 312 384
#     4  11  22  40  69  94 136 168 211 271 325 399
#     4  12  23  43  68  96 131 174 213 270 330 386
#     4  10  20  41  70  88 124 171 227 262 318 385
#     4  11  21  42  64  98 125 171 216 271 324 390
#     4  10  21  42  63  97 128 168 213 263 324 391
#     4  11  24  41  63  91 137 165 213 275 318 380
#     4  11  22  39  68 100 131 168 215 264 334 395
#
# _framework density 21.144359000000001
#
# number of rings (size 3 to 8) (size 9 to 14) (size 15 to 20)
#    0.000    1.250    5.000    1.125    0.000    2.500 
#    9.000    0.000    0.000    0.000    0.000    0.000 
#    0.000    0.000    0.000    0.000    0.000    0.000 
#
# Total GULP energy -396711.804648 kJ/mol
# GULP energy per Si atom -12397.243895 kJ/mol
# Density = 2.109623 g / cm^3
# Si number density = 21.144359 Si / 1000 Ang^3
#
#
#
# Elastic Constant Matrix: (Units=GPa)
#
#
# Indices 1 2 3 4 5 6 
#
# 1 76.2001 21.2445 23.3651 0.0000 -23.0649 0.0000
# 2 21.2445 80.5323 27.3433 0.0000 -6.0976 0.0000
# 3 23.3651 27.3433 91.2871 0.0000 -23.7673 0.0000
# 4 0.0000 0.0000 0.0000 16.5879 0.0000 -1.0552
# 5 -23.0649 -6.0976 -23.7673 0.0000 33.0418 0.0000
# 6 0.0000 0.0000 0.0000 -1.0552 0.0000 37.4941
#
#
#
# Elastic Compliance Matrix: (Units=1/GPa)
#
#
# Indices 1 2 3 4 5 6 
#
# 1 0.017726 -0.003651 -0.000489 0.000000 0.011348 0.000000
# 2 -0.003651 0.014583 -0.004179 0.000000 -0.002863 0.000000
# 3 -0.000489 -0.004179 0.014816 0.000000 0.009545 0.000000
# 4 0.000000 0.000000 0.000000 0.060393 0.000000 0.001700
# 5 0.011348 -0.002863 0.009545 0.000000 0.044524 0.000000
# 6 0.000000 0.000000 0.000000 0.001700 0.000000 0.026719
#
#
# Mechanical properties :
#
#
# Convention : Reuss Voigt Hill
#
# Bulk Modulus (GPa) = 32.80010 43.54726 38.17368
# Shear Modulus (GPa) = 24.32368 29.16255 26.74311
#
# Velocity S-wave (km/s) = 3.39538 3.71780 3.56024
# Velocity P-wave (km/s) = 5.56036 6.25055 5.91553
#
# Compressibility (1/GPa) = 0.03048771
#
# Stress axis : x y z
#
# Youngs Moduli (GPa) = 56.41384 68.57490 67.49239
#
# Poissons Ratio (x) = 0.25036 0.03299
# Poissons Ratio (y) = 0.20596 0.28205
# Poissons Ratio (z) = 0.02758 0.28657
#
# Static dielectric constant tensor:
#      x y z
#    x 4.052120 0.000000 0.047990 
#    y 0.000000 3.953610 0.000000 
#    z 0.047990 0.000000 3.700030 
# 
# 
# High freq. dielectric constant tensor:
#      x y z
#    x 1.841160 0.000000 0.000740 
#    y 0.000000 1.826610 0.000000 
#    z 0.000740 0.000000 1.808660 
# 
# From -- ./inp_files/80026.got.cif
#   From: 2010.03.12/outbox.cif.g09.slc.cpg/sg14_41_cif.got.tgz:80026.got - 2010.03.31 13:35:05.
