data_PCOD8125574
_publ_section_title
;
Structure prediction by ZEFSAII (Michael W. Deem and Ramdas Pophale) SiO2 
 PCOD8125574
Probable space group: P 21/C
;
_chemical_formula_sum "Si O2"
_cell_formula_units_Z 32
_cell_length_a 18.127517
_cell_length_b 17.545326
_cell_length_c 10.334720
_cell_angle_alpha 90.000000
_cell_angle_beta 29.671024
_cell_angle_gamma 90.000000
_cell_volume 1627.123894
_symmetry_space_group_name_H-M "P 21/C"
_symmetry_group_IT_number 14
_symmetry_cell_setting 'monoclinic'
loop_
_space_group_symop_operation_xyz
x,y,z
-x,1/2+y,1/2-z
-x,-y,-z
x,1/2-y,1/2+z
loop_
_atom_site_type_symbol
_atom_site_label
_atom_site_fract_x
_atom_site_fract_y
_atom_site_fract_z
Si Si1 0.231968 0.931252 0.730854
Si Si2 0.567611 0.311722 0.359578
Si Si3 0.198713 0.324000 0.641265
Si Si4 0.254332 0.385746 0.825406
Si Si5 0.237887 0.955355 0.432153
Si Si6 0.058165 0.338611 0.357983
Si Si7 0.899514 0.924172 0.944793
Si Si8 0.453029 0.807621 0.399135
O O1 0.245610 0.973915 0.572975
O O2 0.391058 0.892869 0.525182
O O3 0.114868 0.860913 0.895813
O O4 0.184554 0.995043 0.906459
O O5 0.393312 0.330494 0.634909
O O6 0.605472 0.284981 0.155517
O O7 0.613879 0.246850 0.389582
O O8 0.663465 0.383645 0.256204
O O9 0.170063 0.365657 0.821025
O O10 0.087258 0.251887 0.804246
O O11 0.172850 0.381991 0.564970
O O12 0.370079 0.300212 0.368030
O O13 0.304133 0.474183 0.748459
O O14 0.141524 0.379932 0.115143
O O15 0.068729 0.940243 0.649408
O O16 0.117561 0.370015 0.404249
#
# Coordination Sequence:
#
# PCOD8125574 Si02
#       8
#     4   4   4   4   4   4   4   4
#     4  10  21  41  64  86 118 163 201 241 290 365
#     4  10  22  39  62  87 121 156 201 250 292 355
#     4  11  25  37  58  94 121 151 196 254 296 348
#     4  11  20  39  62  86 122 157 197 247 298 350
#     4  10  20  40  62  89 115 160 205 239 297 358
#     4  11  20  40  66  82 116 162 200 237 300 356
#     4  11  22  40  64  87 120 158 201 242 294 362
#     4  10  23  41  58  88 121 155 203 243 296 351
#
# _framework density 19.666602999999999
#
# number of rings (size 3 to 8) (size 9 to 14) (size 15 to 20)
#    0.000    1.500    3.750    1.875    3.500    1.000 
#    4.500    0.000    0.000    0.000    0.000    0.000 
#    0.000    0.000    0.000    0.000    0.000    0.000 
#
# Total GULP energy -396784.379613 kJ/mol
# GULP energy per Si atom -12399.511863 kJ/mol
# Density = 1.962184 g / cm^3
# Si number density = 19.666603 Si / 1000 Ang^3
#
#
#
# Elastic Constant Matrix: (Units=GPa)
#
#
# Indices 1 2 3 4 5 6 
#
# 1 82.9734 61.5387 22.4710 0.0000 22.1133 0.0000
# 2 61.5387 121.3165 17.7639 0.0000 9.9927 0.0000
# 3 22.4710 17.7639 46.9812 0.0000 9.1505 0.0000
# 4 0.0000 0.0000 0.0000 35.4808 0.0000 10.3884
# 5 22.1133 9.9927 9.1505 0.0000 17.9012 0.0000
# 6 0.0000 0.0000 0.0000 10.3884 0.0000 31.0020
#
#
#
# Elastic Compliance Matrix: (Units=1/GPa)
#
#
# Indices 1 2 3 4 5 6 
#
# 1 0.029474 -0.012072 -0.004169 0.000000 -0.027539 0.000000
# 2 -0.012072 0.013877 -0.000965 0.000000 0.007660 0.000000
# 3 -0.004169 -0.000965 0.025028 0.000000 -0.007105 0.000000
# 4 0.000000 0.000000 0.000000 0.031250 0.000000 -0.010472
# 5 -0.027539 0.007660 -0.007105 0.000000 0.089238 0.000000
# 6 0.000000 0.000000 0.000000 -0.010472 0.000000 0.035765
#
#
# Mechanical properties :
#
#
# Convention : Reuss Voigt Hill
#
# Bulk Modulus (GPa) = 29.44035 50.53539 39.98787
# Shear Modulus (GPa) = 18.49345 26.84329 22.66837
#
# Velocity S-wave (km/s) = 3.06984 3.69849 3.39873
# Velocity P-wave (km/s) = 5.25047 6.63251 5.98154
#
# Compressibility (1/GPa) = 0.03396698
#
# Stress axis : x y z
#
# Youngs Moduli (GPa) = 33.92791 72.06187 39.95570
#
# Poissons Ratio (x) = 0.86994 0.16658
# Poissons Ratio (y) = 0.40958 0.03855
# Poissons Ratio (z) = 0.14145 0.06952
#
# Static dielectric constant tensor:
#      x y z
#    x 3.535020 0.000000 0.087140 
#    y 0.000000 3.605230 0.000000 
#    z 0.087140 0.000000 3.616920 
# 
# 
# High freq. dielectric constant tensor:
#      x y z
#    x 1.754770 0.000000 0.006320 
#    y 0.000000 1.767740 0.000000 
#    z 0.006320 0.000000 1.771750 
# 
# From -- ./inp_files/35322.got.cif
#   From: 2010.03.12/outbox.cif.g09.slc.cpg/sg14_18_cif.got.tgz:35322.got - 2010.03.31 13:35:05.
