data_PCOD8125462
_publ_section_title
;
Structure prediction by ZEFSAII (Michael W. Deem and Ramdas Pophale) SiO2 
 PCOD8125462
Probable space group: P 21/C
;
_chemical_formula_sum "Si O2"
_cell_formula_units_Z 28
_cell_length_a 9.093316
_cell_length_b 11.444965
_cell_length_c 25.015283
_cell_angle_alpha 90.000000
_cell_angle_beta 27.610007
_cell_angle_gamma 90.000000
_cell_volume 1206.551368
_symmetry_space_group_name_H-M "P 21/C"
_symmetry_group_IT_number 14
_symmetry_cell_setting 'monoclinic'
loop_
_space_group_symop_operation_xyz
x,y,z
-x,1/2+y,1/2-z
-x,-y,-z
x,1/2-y,1/2+z
loop_
_atom_site_type_symbol
_atom_site_label
_atom_site_fract_x
_atom_site_fract_y
_atom_site_fract_z
Si Si1 0.095305 0.614824 0.306036
Si Si2 0.182372 0.644889 0.899342
Si Si3 0.772801 0.682454 0.125478
Si Si4 0.225686 0.058684 0.846709
Si Si5 0.547587 0.879958 0.803735
Si Si6 0.877202 0.058563 0.322039
Si Si7 0.249234 0.161389 0.565308
O O1 0.405913 0.688873 0.224797
O O2 0.990462 0.519682 0.385560
O O3 0.167397 0.549059 0.227206
O O4 0.810990 0.708986 0.391498
O O5 0.469715 0.559668 0.792186
O O6 0.329545 0.768010 0.869360
O O7 0.945910 0.651732 0.926293
O O8 0.987238 0.608387 0.015342
O O9 0.900829 0.815418 0.094639
O O10 0.798998 0.616437 0.173263
O O11 0.319234 0.992965 0.871660
O O12 0.768560 0.887608 0.784520
O O13 0.618242 0.144561 0.432025
O O14 0.858582 0.930942 0.354841
#
# Coordination Sequence:
#
# PCOD8125462 Si02
#       7
#     4   4   4   4   4   4   4
#     4  11  22  40  65  94 133 176 206 269 333 377
#     4  11  20  38  65  90 124 170 216 263 318 382
#     4  10  21  36  62  92 124 167 216 265 314 385
#     4  10  20  39  61  91 128 163 224 263 311 383
#     4  10  21  38  59  91 123 161 217 266 305 386
#     4  11  24  39  66  95 131 171 209 273 329 372
#     4  11  22  41  63  97 131 166 219 267 315 398
#
# _framework density 23.206638999999999
#
# number of rings (size 3 to 8) (size 9 to 14) (size 15 to 20)
#    0.000    1.429    7.143    0.000    0.000    8.571 
#    0.000    0.000    0.000    5.143    0.000    0.000 
#    0.000    0.000    0.000    0.000    0.000    0.000 
#
# Total GULP energy -346996.289195 kJ/mol
# GULP energy per Si atom -12392.724614 kJ/mol
# Density = 2.315382 g / cm^3
# Si number density = 23.206639 Si / 1000 Ang^3
#
#
#
# Elastic Constant Matrix: (Units=GPa)
#
#
# Indices 1 2 3 4 5 6 
#
# 1 104.1606 22.7853 10.1718 0.0000 -4.7778 0.0000
# 2 22.7853 98.0626 -5.5022 0.0000 -23.0976 0.0000
# 3 10.1718 -5.5022 41.5760 0.0000 -5.0782 0.0000
# 4 0.0000 0.0000 0.0000 15.8399 0.0000 -2.8457
# 5 -4.7778 -23.0976 -5.0782 0.0000 16.5886 0.0000
# 6 0.0000 0.0000 0.0000 -2.8457 0.0000 32.6360
#
#
#
# Elastic Compliance Matrix: (Units=1/GPa)
#
#
# Indices 1 2 3 4 5 6 
#
# 1 0.010511 -0.003201 -0.003293 0.000000 -0.002438 0.000000
# 2 -0.003201 0.017116 0.006074 0.000000 0.024770 0.000000
# 3 -0.003293 0.006074 0.027611 0.000000 0.015961 0.000000
# 4 0.000000 0.000000 0.000000 0.064136 0.000000 0.005592
# 5 -0.002438 0.024770 0.015961 0.000000 0.098955 0.000000
# 6 0.000000 0.000000 0.000000 0.005592 0.000000 0.031129
#
#
# Mechanical properties :
#
#
# Convention : Reuss Voigt Hill
#
# Bulk Modulus (GPa) = 18.38311 33.18988 25.78649
# Shear Modulus (GPa) = 18.62671 27.43586 23.03129
#
# Velocity S-wave (km/s) = 2.83617 3.44210 3.15373
# Velocity P-wave (km/s) = 4.32017 5.48911 4.93934
#
# Compressibility (1/GPa) = 0.05439777
#
# Stress axis : x y z
#
# Youngs Moduli (GPa) = 95.14241 58.42331 36.21702
#
# Poissons Ratio (x) = 0.18703 0.11926
# Poissons Ratio (y) = 0.30457 -0.21998
# Poissons Ratio (z) = 0.31330 -0.35485
#
# Static dielectric constant tensor:
#      x y z
#    x 4.251370 0.000000 0.164610 
#    y 0.000000 4.185580 0.000000 
#    z 0.164610 0.000000 4.083400 
# 
# 
# High freq. dielectric constant tensor:
#      x y z
#    x 1.912230 0.000000 0.011360 
#    y 0.000000 1.925870 0.000000 
#    z 0.011360 0.000000 1.897760 
# 
# From -- ./inp_files/76650.got.cif
#   From: 2010.03.12/outbox.cif.g09.slc.cpg/sg14_39_cif.got.tgz:76650.got - 2010.03.31 13:35:05.
