data_PCOD8125608
_publ_section_title
;
Structure prediction by ZEFSAII (Michael W. Deem and Ramdas Pophale) SiO2 
 PCOD8125608
Probable space group: P 21/C
;
_chemical_formula_sum "Si O2"
_cell_formula_units_Z 28
_cell_length_a 28.133501
_cell_length_b 11.313035
_cell_length_c 22.370424
_cell_angle_alpha 90.000000
_cell_angle_beta 169.149340
_cell_angle_gamma 90.000000
_cell_volume 1340.329469
_symmetry_space_group_name_H-M "P 21/C"
_symmetry_group_IT_number 14
_symmetry_cell_setting 'monoclinic'
loop_
_space_group_symop_operation_xyz
x,y,z
-x,1/2+y,1/2-z
-x,-y,-z
x,1/2-y,1/2+z
loop_
_atom_site_type_symbol
_atom_site_label
_atom_site_fract_x
_atom_site_fract_y
_atom_site_fract_z
Si Si1 0.579709 0.154610 0.237711
Si Si2 0.685691 0.206698 0.599651
Si Si3 0.251691 0.959774 0.778794
Si Si4 0.207900 0.804613 0.616467
Si Si5 0.834875 0.668606 0.230436
Si Si6 0.600065 0.621701 0.148886
Si Si7 0.817075 0.415589 0.150593
O O1 0.810638 0.188933 0.478649
O O2 0.677210 0.081101 0.414521
O O3 0.419312 0.268673 0.059853
O O4 0.435705 0.069371 0.013603
O O5 0.640390 0.345106 0.553929
O O6 0.468608 0.131484 0.365521
O O7 0.677844 0.182066 0.519476
O O8 0.960939 0.165961 0.964129
O O9 0.214711 0.928424 0.662582
O O10 0.000000 0.000000 0.500000
O O11 0.951095 0.739791 0.318389
O O12 0.459950 0.729406 0.942794
O O13 0.777985 0.537873 0.137057
O O14 0.897799 0.626548 0.507019
O O15 0.500000 0.500000 0.000000
#
# Coordination Sequence:
#
# PCOD8125608 Si02
#       7
#     4   4   4   4   4   4   4
#     4  12  25  40  63  95 131 167 203 263 334 362
#     4  10  22  40  70  88 122 168 214 265 302 382
#     4  10  20  44  65  91 122 168 218 249 301 387
#     4  10  22  42  68  88 123 168 220 258 301 390
#     4  10  22  43  65  91 123 163 216 255 314 384
#     4  10  20  40  64  94 118 164 222 255 307 379
#     4  12  25  39  64  97 131 162 208 272 325 367
#
# _framework density 20.890388000000002
#
# number of rings (size 3 to 8) (size 9 to 14) (size 15 to 20)
#    0.000    1.714    5.714    1.714    4.000    1.143 
#    2.571    0.000    0.000    0.000    0.000    0.000 
#    0.000    0.000    0.000    0.000    0.000    0.000 
#
# Total GULP energy -347044.298427 kJ/mol
# GULP energy per Si atom -12394.439230 kJ/mol
# Density = 2.084284 g / cm^3
# Si number density = 20.890388 Si / 1000 Ang^3
#
#
#
# Elastic Constant Matrix: (Units=GPa)
#
#
# Indices 1 2 3 4 5 6 
#
# 1 148.1470 35.7052 25.4965 0.0000 23.1923 0.0000
# 2 35.7052 77.2183 14.0610 0.0000 10.4261 0.0000
# 3 25.4965 14.0610 28.1584 0.0000 20.8398 0.0000
# 4 0.0000 0.0000 0.0000 21.1345 0.0000 10.5359
# 5 23.1923 10.4261 20.8398 0.0000 31.9167 0.0000
# 6 0.0000 0.0000 0.0000 10.5359 0.0000 26.9422
#
#
#
# Elastic Compliance Matrix: (Units=1/GPa)
#
#
# Indices 1 2 3 4 5 6 
#
# 1 0.008590 -0.002811 -0.004711 0.000000 -0.002248 0.000000
# 2 -0.002811 0.015165 -0.005560 0.000000 0.000719 0.000000
# 3 -0.004711 -0.005560 0.074846 0.000000 -0.043631 0.000000
# 4 0.000000 0.000000 0.000000 0.058774 0.000000 -0.022984
# 5 -0.002248 0.000719 -0.043631 0.000000 0.061219 0.000000
# 6 0.000000 0.000000 0.000000 -0.022984 0.000000 0.046104
#
#
# Mechanical properties :
#
#
# Convention : Reuss Voigt Hill
#
# Bulk Modulus (GPa) = 13.80469 44.89434 29.34952
# Shear Modulus (GPa) = 15.87266 27.88275 21.87771
#
# Velocity S-wave (km/s) = 2.75945 3.65734 3.23965
# Velocity P-wave (km/s) = 4.09576 6.27471 5.29845
#
# Compressibility (1/GPa) = 0.07243914
#
# Stress axis : x y z
#
# Youngs Moduli (GPa) = 116.41268 65.94004 13.36076
#
# Poissons Ratio (x) = 0.18534 0.06294
# Poissons Ratio (y) = 0.32720 0.07428
# Poissons Ratio (z) = 0.54840 0.36660
#
# Static dielectric constant tensor:
#      x y z
#    x 4.086540 0.000000 0.368630 
#    y 0.000000 3.585640 0.000000 
#    z 0.368630 0.000000 3.705290 
# 
# 
# High freq. dielectric constant tensor:
#      x y z
#    x 1.832490 0.000000 0.026410 
#    y 0.000000 1.820770 0.000000 
#    z 0.026410 0.000000 1.789700 
# 
# From -- ./inp_files/75313.got.cif
#   From: 2010.03.12/outbox.cif.g09.slc.cpg/sg14_38_cif.got.tgz:75313.got - 2010.03.31 13:35:05.
