data_PCOD8125210
_publ_section_title
;
Structure prediction by ZEFSAII (Michael W. Deem and Ramdas Pophale) SiO2 
 PCOD8125210
Probable space group: P 21/C
;
_chemical_formula_sum "Si O2"
_cell_formula_units_Z 24
_cell_length_a 13.924435
_cell_length_b 5.047073
_cell_length_c 23.263455
_cell_angle_alpha 90.000000
_cell_angle_beta 139.555341
_cell_angle_gamma 90.000000
_cell_volume 1060.581809
_symmetry_space_group_name_H-M "P 21/C"
_symmetry_group_IT_number 14
_symmetry_cell_setting 'monoclinic'
loop_
_space_group_symop_operation_xyz
x,y,z
-x,1/2+y,1/2-z
-x,-y,-z
x,1/2-y,1/2+z
loop_
_atom_site_type_symbol
_atom_site_label
_atom_site_fract_x
_atom_site_fract_y
_atom_site_fract_z
Si Si1 0.022368 0.274017 0.624537
Si Si2 0.240431 0.563251 0.564898
Si Si3 0.450721 0.518738 0.341232
Si Si4 0.701413 0.971589 0.682326
Si Si5 0.919875 0.461670 0.191302
Si Si6 0.245680 0.065271 0.644861
O O1 0.149271 0.455252 0.711156
O O2 0.099358 0.053738 0.618396
O O3 0.913284 0.466333 0.539571
O O4 0.923871 0.115374 0.626309
O O5 0.373142 0.515897 0.580376
O O6 0.250057 0.358809 0.621079
O O7 0.244421 0.857137 0.592987
O O8 0.409669 0.810505 0.343879
O O9 0.391630 0.473659 0.249759
O O10 0.381266 0.309659 0.354222
O O11 0.751755 0.038288 0.639890
O O12 0.983955 0.755987 0.227522
#
# Coordination Sequence:
#
# PCOD8125210 Si02
#       6
#     4   4   4   4   4   4
#     4  10  23  39  62  90 118 149 196 248 288 333
#     4  12  24  38  58  89 120 154 194 242 287 336
#     4  11  22  40  60  84 118 158 195 232 286 353
#     4  10  21  40  62  85 113 153 195 237 288 352
#     4  10  20  37  62  88 112 147 194 241 290 346
#     4  11  22  38  58  84 119 159 194 232 285 348
#
# _framework density 22.629092
#
# number of rings (size 3 to 8) (size 9 to 14) (size 15 to 20)
#    0.000    1.333    0.000    8.000    0.000    6.667 
#    0.000    1.667    0.000    0.000    0.000    0.000 
#    0.000    0.000    0.000    0.000    0.000    0.000 
#
# Total GULP energy -297671.135701 kJ/mol
# GULP energy per Si atom -12402.963988 kJ/mol
# Density = 2.257759 g / cm^3
# Si number density = 22.629092 Si / 1000 Ang^3
#
#
#
# Elastic Constant Matrix: (Units=GPa)
#
#
# Indices 1 2 3 4 5 6 
#
# 1 144.1416 30.3286 18.7286 0.0000 -2.2396 0.0000
# 2 30.3286 83.3642 6.3488 0.0000 6.2676 0.0000
# 3 18.7286 6.3488 21.5108 0.0000 12.8203 0.0000
# 4 0.0000 0.0000 0.0000 11.8749 0.0000 -3.8131
# 5 -2.2396 6.2676 12.8203 0.0000 28.1935 0.0000
# 6 0.0000 0.0000 0.0000 -3.8131 0.0000 34.0244
#
#
#
# Elastic Compliance Matrix: (Units=1/GPa)
#
#
# Indices 1 2 3 4 5 6 
#
# 1 0.009050 -0.002945 -0.010739 0.000000 0.006257 0.000000
# 2 -0.002945 0.013275 0.000747 0.000000 -0.003525 0.000000
# 3 -0.010739 0.000747 0.077129 0.000000 -0.036091 0.000000
# 4 0.000000 0.000000 0.000000 0.087355 0.000000 0.009790
# 5 0.006257 -0.003525 -0.036091 0.000000 0.053162 0.000000
# 6 0.000000 0.000000 0.000000 0.009790 0.000000 0.030488
#
#
# Mechanical properties :
#
#
# Convention : Reuss Voigt Hill
#
# Bulk Modulus (GPa) = 13.59099 39.98095 26.78597
# Shear Modulus (GPa) = 15.58317 27.72592 21.65455
#
# Velocity S-wave (km/s) = 2.62703 3.50413 3.09679
# Velocity P-wave (km/s) = 3.90138 5.83765 4.96482
#
# Compressibility (1/GPa) = 0.07357818
#
# Stress axis : x y z
#
# Youngs Moduli (GPa) = 110.49876 75.32900 12.96536
#
# Poissons Ratio (x) = 0.22184 0.13924
# Poissons Ratio (y) = 0.32542 -0.00968
# Poissons Ratio (z) = 1.18668 -0.05624
#
# Static dielectric constant tensor:
#      x y z
#    x 4.474650 0.000000 -0.040860 
#    y 0.000000 3.915880 0.000000 
#    z -0.040860 0.000000 3.729910 
# 
# 
# High freq. dielectric constant tensor:
#      x y z
#    x 1.915320 0.000000 -0.001600 
#    y 0.000000 1.897940 0.000000 
#    z -0.001600 0.000000 1.850650 
# 
# From -- ./inp_files/67917.got.cif
#   From: 2010.03.12/outbox.cif.g09.slc.cpg/sg14_34_cif.got.tgz:67917.got - 2010.03.31 13:35:05.
