data_PCOD8125777
_publ_section_title
;
Structure prediction by ZEFSAII (Michael W. Deem and Ramdas Pophale) SiO2 
 PCOD8125777
Probable space group: P 21/C
;
_chemical_formula_sum "Si O2"
_cell_formula_units_Z 24
_cell_length_a 9.039697
_cell_length_b 7.680016
_cell_length_c 18.202263
_cell_angle_alpha 90.000000
_cell_angle_beta 63.425731
_cell_angle_gamma 90.000000
_cell_volume 1130.189934
_symmetry_space_group_name_H-M "P 21/C"
_symmetry_group_IT_number 14
_symmetry_cell_setting 'monoclinic'
loop_
_space_group_symop_operation_xyz
x,y,z
-x,1/2+y,1/2-z
-x,-y,-z
x,1/2-y,1/2+z
loop_
_atom_site_type_symbol
_atom_site_label
_atom_site_fract_x
_atom_site_fract_y
_atom_site_fract_z
Si Si1 0.932402 0.666550 0.477642
Si Si2 0.674052 0.512520 0.421243
Si Si3 0.394365 0.197052 0.677021
Si Si4 0.256466 0.814045 0.337815
Si Si5 0.353412 0.810347 0.665092
Si Si6 0.297719 0.205735 0.349511
O O1 0.809306 0.597947 0.443220
O O2 0.851633 0.775131 0.561348
O O3 0.000000 0.500000 0.500000
O O4 0.080696 0.784417 0.414796
O O5 0.500000 0.500000 0.500000
O O6 0.674916 0.641100 0.352020
O O7 0.718825 0.315335 0.383314
O O8 0.588754 0.244921 0.645773
O O9 0.300495 0.171958 0.776506
O O10 0.359389 0.015408 0.640933
O O11 0.247310 0.712961 0.262675
O O12 0.290585 0.015710 0.315756
O O13 0.539821 0.750569 0.639725
#
# Coordination Sequence:
#
# PCOD8125777 Si02
#       6
#     4   4   4   4   4   4
#     4  12  25  42  63  98 137 176 219 277 335 387
#     4  12  24  44  67  97 136 171 228 273 322 397
#     4  10  22  42  74  95 127 176 225 270 325 402
#     4  10  21  41  68  97 130 173 220 274 337 388
#     4  10  21  42  69  99 128 174 225 269 328 399
#     4  10  20  42  70  95 131 177 223 268 330 405
#
# _framework density 21.23537
#
# number of rings (size 3 to 8) (size 9 to 14) (size 15 to 20)
#    0.000    1.333    3.333    2.500    2.333    0.667 
#   12.000    0.000    0.000    0.000    0.000    0.000 
#    0.000    0.000    0.000    0.000    0.000    0.000 
#
# Total GULP energy -297455.681149 kJ/mol
# GULP energy per Si atom -12393.986715 kJ/mol
# Density = 2.118704 g / cm^3
# Si number density = 21.235370 Si / 1000 Ang^3
#
#
#
# Elastic Constant Matrix: (Units=GPa)
#
#
# Indices 1 2 3 4 5 6 
#
# 1 88.1387 23.2163 46.3801 0.0000 -2.6487 0.0000
# 2 23.2163 83.3064 20.1723 0.0000 10.5107 0.0000
# 3 46.3801 20.1723 110.9225 0.0000 -21.1427 0.0000
# 4 0.0000 0.0000 0.0000 36.5472 0.0000 -0.0289
# 5 -2.6487 10.5107 -21.1427 0.0000 33.8037 0.0000
# 6 0.0000 0.0000 0.0000 -0.0289 0.0000 21.9648
#
#
#
# Elastic Compliance Matrix: (Units=1/GPa)
#
#
# Indices 1 2 3 4 5 6 
#
# 1 0.015257 -0.002475 -0.006307 0.000000 -0.001979 0.000000
# 2 -0.002475 0.014154 -0.002742 0.000000 -0.006310 0.000000
# 3 -0.006307 -0.002742 0.013873 0.000000 0.009035 0.000000
# 4 0.000000 0.000000 0.000000 0.027362 0.000000 0.000036
# 5 -0.001979 -0.006310 0.009035 0.000000 0.037041 0.000000
# 6 0.000000 0.000000 0.000000 0.000036 0.000000 0.045527
#
#
# Mechanical properties :
#
#
# Convention : Reuss Voigt Hill
#
# Bulk Modulus (GPa) = 49.41465 51.32278 50.36871
# Shear Modulus (GPa) = 27.32155 31.30307 29.31231
#
# Velocity S-wave (km/s) = 3.59082 3.84357 3.71934
# Velocity P-wave (km/s) = 6.36494 6.62709 6.49734
#
# Compressibility (1/GPa) = 0.02023691
#
# Stress axis : x y z
#
# Youngs Moduli (GPa) = 65.54456 70.65331 72.08204
#
# Poissons Ratio (x) = 0.17487 0.45459
# Poissons Ratio (y) = 0.16222 0.19763
# Poissons Ratio (z) = 0.41336 0.19371
#
# Static dielectric constant tensor:
#      x y z
#    x 3.509200 0.000000 -0.045170 
#    y 0.000000 3.849790 0.000000 
#    z -0.045170 0.000000 3.687540 
# 
# 
# High freq. dielectric constant tensor:
#      x y z
#    x 1.807790 0.000000 -0.004540 
#    y 0.000000 1.846950 0.000000 
#    z -0.004540 0.000000 1.840060 
# 
# From -- ./inp_files/54501.got.cif
#   From: 2010.03.12/outbox.cif.g09.slc.cpg/sg14_28_cif.got.tgz:54501.got - 2010.03.31 13:35:05.
