data_PCOD8125330
_publ_section_title
;
Structure prediction by ZEFSAII (Michael W. Deem and Ramdas Pophale) SiO2 
 PCOD8125330
Probable space group: P 21/C
;
_chemical_formula_sum "Si O2"
_cell_formula_units_Z 28
_cell_length_a 21.830902
_cell_length_b 10.740102
_cell_length_c 12.269493
_cell_angle_alpha 90.000000
_cell_angle_beta 153.504772
_cell_angle_gamma 90.000000
_cell_volume 1283.398670
_symmetry_space_group_name_H-M "P 21/C"
_symmetry_group_IT_number 14
_symmetry_cell_setting 'monoclinic'
loop_
_space_group_symop_operation_xyz
x,y,z
-x,1/2+y,1/2-z
-x,-y,-z
x,1/2-y,1/2+z
loop_
_atom_site_type_symbol
_atom_site_label
_atom_site_fract_x
_atom_site_fract_y
_atom_site_fract_z
Si Si1 0.319227 0.399320 0.645315
Si Si2 0.989923 0.283718 0.463992
Si Si3 0.283677 0.133257 0.508375
Si Si4 0.933183 0.049092 0.248805
Si Si5 0.215958 0.800582 0.167902
Si Si6 0.161789 0.934473 0.465290
Si Si7 0.418294 0.005140 0.527985
O O1 0.345600 0.255175 0.662554
O O2 0.160501 0.431860 0.361756
O O3 0.350959 0.416489 0.823104
O O4 0.419569 0.486281 0.732714
O O5 0.983951 0.135060 0.430156
O O6 0.906752 0.308070 0.441206
O O7 0.929325 0.360949 0.267166
O O8 0.142539 0.335642 0.721630
O O9 0.264548 0.029223 0.570810
O O10 0.395308 0.082462 0.601028
O O11 0.827633 0.127348 0.009125
O O12 0.064167 0.010276 0.389579
O O13 0.349908 0.867623 0.430064
O O14 0.248413 0.659961 0.180188
#
# Coordination Sequence:
#
# PCOD8125330 Si02
#       7
#     4   4   4   4   4   4   4
#     4  10  24  44  62  89 123 168 205 252 298 363
#     4  11  21  37  63  93 127 161 195 257 320 356
#     4  12  23  39  67  94 120 160 210 251 306 366
#     4  10  22  37  60  93 127 158 202 252 308 368
#     4  10  20  38  61  87 121 164 202 251 308 362
#     4  11  22  36  61  96 124 153 205 254 312 369
#     4  10  23  46  65  82 126 169 204 247 305 356
#
# _framework density 21.817070999999999
#
# number of rings (size 3 to 8) (size 9 to 14) (size 15 to 20)
#    0.000    1.429    2.857    3.000    4.000    3.429 
#    5.143    0.714    0.000    0.000    0.000    0.000 
#    0.000    0.000    0.000    0.000    0.000    0.000 
#
# Total GULP energy -347261.470035 kJ/mol
# GULP energy per Si atom -12402.195358 kJ/mol
# Density = 2.176741 g / cm^3
# Si number density = 21.817071 Si / 1000 Ang^3
#
#
#
# Elastic Constant Matrix: (Units=GPa)
#
#
# Indices 1 2 3 4 5 6 
#
# 1 118.1922 31.1445 23.5550 0.0000 23.1407 0.0000
# 2 31.1445 101.4926 8.5584 0.0000 1.6424 0.0000
# 3 23.5550 8.5584 24.8460 0.0000 -1.9906 0.0000
# 4 0.0000 0.0000 0.0000 15.1656 0.0000 -0.5052
# 5 23.1407 1.6424 -1.9906 0.0000 16.0495 0.0000
# 6 0.0000 0.0000 0.0000 -0.5052 0.0000 43.1627
#
#
#
# Elastic Compliance Matrix: (Units=1/GPa)
#
#
# Indices 1 2 3 4 5 6 
#
# 1 0.019003 -0.003747 -0.019079 0.000000 -0.029383 0.000000
# 2 -0.003747 0.010922 0.000135 0.000000 0.004302 0.000000
# 3 -0.019079 0.000135 0.061099 0.000000 0.035074 0.000000
# 4 0.000000 0.000000 0.000000 0.065965 0.000000 0.000772
# 5 -0.029383 0.004302 0.035074 0.000000 0.108583 0.000000
# 6 0.000000 0.000000 0.000000 0.000772 0.000000 0.023177
#
#
# Mechanical properties :
#
#
# Convention : Reuss Voigt Hill
#
# Bulk Modulus (GPa) = 21.90983 41.22741 31.56862
# Shear Modulus (GPa) = 14.31245 26.96041 20.63643
#
# Velocity S-wave (km/s) = 2.56407 3.51914 3.07886
# Velocity P-wave (km/s) = 4.33938 5.95402 5.20963
#
# Compressibility (1/GPa) = 0.04564162
#
# Stress axis : x y z
#
# Youngs Moduli (GPa) = 52.62205 91.56000 16.36675
#
# Poissons Ratio (x) = 0.34309 0.31227
# Poissons Ratio (y) = 0.19718 -0.00221
# Poissons Ratio (z) = 1.00400 -0.01236
#
# Static dielectric constant tensor:
#      x y z
#    x 3.972870 0.000000 -0.021270 
#    y 0.000000 4.326510 0.000000 
#    z -0.021270 0.000000 3.637310 
# 
# 
# High freq. dielectric constant tensor:
#      x y z
#    x 1.868900 0.000000 -0.001040 
#    y 0.000000 1.872320 0.000000 
#    z -0.001040 0.000000 1.826310 
# 
# From -- ./inp_files/35162.got.cif
#   From: 2010.03.12/outbox.cif.g09.slc.cpg/sg14_18_cif.got.tgz:35162.got - 2010.03.31 13:35:05.
