data_PCOD8125097
_publ_section_title
;
Structure prediction by ZEFSAII (Michael W. Deem and Ramdas Pophale) SiO2 
 PCOD8125097
Probable space group: P 21/C
;
_chemical_formula_sum "Si O2"
_cell_formula_units_Z 32
_cell_length_a 15.162073
_cell_length_b 12.965228
_cell_length_c 15.037087
_cell_angle_alpha 90.000000
_cell_angle_beta 150.004051
_cell_angle_gamma 90.000000
_cell_volume 1477.812276
_symmetry_space_group_name_H-M "P 21/C"
_symmetry_group_IT_number 14
_symmetry_cell_setting 'monoclinic'
loop_
_space_group_symop_operation_xyz
x,y,z
-x,1/2+y,1/2-z
-x,-y,-z
x,1/2-y,1/2+z
loop_
_atom_site_type_symbol
_atom_site_label
_atom_site_fract_x
_atom_site_fract_y
_atom_site_fract_z
Si Si1 0.352736 0.016621 0.443696
Si Si2 0.467922 0.575175 0.604851
Si Si3 0.691929 0.746236 0.576574
Si Si4 0.375435 0.025980 0.194317
Si Si5 0.974490 0.700908 0.966285
Si Si6 0.279636 0.243408 0.603306
Si Si7 0.855941 0.416798 0.370958
Si Si8 0.345375 0.612284 0.311959
O O1 0.297766 0.135526 0.384142
O O2 0.500000 0.000000 0.500000
O O3 0.415836 0.986405 0.598351
O O4 0.208860 0.931295 0.288065
O O5 0.352290 0.503764 0.570714
O O6 0.550376 0.671698 0.730019
O O7 0.343370 0.617387 0.417672
O O8 0.614798 0.502263 0.688206
O O9 0.762988 0.746734 0.537939
O O10 0.493959 0.695922 0.408272
O O11 0.827027 0.684003 0.759795
O O12 0.312055 0.140016 0.164986
O O13 0.286523 0.939617 0.177375
O O14 0.069356 0.808436 0.039598
O O15 0.142660 0.625516 0.103181
O O16 0.882268 0.694671 0.982627
O O17 0.000000 0.500000 0.500000
#
# Coordination Sequence:
#
# PCOD8125097 Si02
#       8
#     4   4   4   4   4   4   4   4
#     4  10  20  36  64  97 126 173 217 274 341 402
#     4  11  25  47  71  99 136 191 236 279 348 418
#     4  12  23  46  70 100 140 181 231 289 345 410
#     4  11  22  41  69  98 134 177 234 282 337 416
#     4  12  26  46  69 105 141 179 232 289 352 411
#     4  12  25  44  69 102 143 180 231 294 343 411
#     4  11  21  38  64  97 137 174 213 287 351 397
#     4  11  26  48  72  95 141 191 230 281 350 424
#
# _framework density 21.653631000000001
#
# number of rings (size 3 to 8) (size 9 to 14) (size 15 to 20)
#    0.000    0.750    6.250    2.250    1.750    1.500 
#    2.250    1.250    0.000    0.000    0.000    0.000 
#    0.000    0.000    0.000    0.000    0.000    0.000 
#
# Total GULP energy -396426.195747 kJ/mol
# GULP energy per Si atom -12388.318617 kJ/mol
# Density = 2.160435 g / cm^3
# Si number density = 21.653631 Si / 1000 Ang^3
#
#
#
# Elastic Constant Matrix: (Units=GPa)
#
#
# Indices 1 2 3 4 5 6 
#
# 1 107.9100 2.9402 41.3013 0.0000 -21.6983 0.0000
# 2 2.9402 58.7215 1.2986 0.0000 -1.4516 0.0000
# 3 41.3013 1.2986 105.9434 0.0000 -5.8071 0.0000
# 4 0.0000 0.0000 0.0000 33.3566 0.0000 2.0175
# 5 -21.6983 -1.4516 -5.8071 0.0000 32.4302 0.0000
# 6 0.0000 0.0000 0.0000 2.0175 0.0000 33.3848
#
#
#
# Elastic Compliance Matrix: (Units=1/GPa)
#
#
# Indices 1 2 3 4 5 6 
#
# 1 0.012499 -0.000341 -0.004455 0.000000 0.007550 0.000000
# 2 -0.000341 0.017061 -0.000047 0.000000 0.000527 0.000000
# 3 -0.004455 -0.000047 0.011122 0.000000 -0.000991 0.000000
# 4 0.000000 0.000000 0.000000 0.030089 0.000000 -0.001818
# 5 0.007550 0.000527 -0.000991 0.000000 0.035733 0.000000
# 6 0.000000 0.000000 0.000000 -0.001818 0.000000 0.030064
#
#
# Mechanical properties :
#
#
# Convention : Reuss Voigt Hill
#
# Bulk Modulus (GPa) = 32.26193 40.40610 36.33402
# Shear Modulus (GPa) = 31.93138 34.96999 33.45069
#
# Velocity S-wave (km/s) = 3.84427 4.02303 3.93467
# Velocity P-wave (km/s) = 5.88524 6.34668 6.12031
#
# Compressibility (1/GPa) = 0.03099628
#
# Stress axis : x y z
#
# Youngs Moduli (GPa) = 80.00353 58.61429 89.91254
#
# Poissons Ratio (x) = 0.01997 0.40054
# Poissons Ratio (y) = 0.02726 0.00426
# Poissons Ratio (z) = 0.35640 0.00278
#
# Static dielectric constant tensor:
#      x y z
#    x 3.865650 0.000000 -0.304440 
#    y 0.000000 3.786260 0.000000 
#    z -0.304440 0.000000 5.602910 
# 
# 
# High freq. dielectric constant tensor:
#      x y z
#    x 1.842720 0.000000 -0.013380 
#    y 0.000000 1.857390 0.000000 
#    z -0.013380 0.000000 1.848310 
# 
# From -- ./inp_files/47429.got.cif
#   From: 2010.03.12/outbox.cif.g09.slc.cpg/sg14_24_cif.got.tgz:47429.got - 2010.03.31 13:35:05.
