data_PCOD8125679
_publ_section_title
;
Structure prediction by ZEFSAII (Michael W. Deem and Ramdas Pophale) SiO2 
 PCOD8125679
Probable space group: P 21/C
;
_chemical_formula_sum "Si O2"
_cell_formula_units_Z 28
_cell_length_a 7.761446
_cell_length_b 17.173849
_cell_length_c 7.916800
_cell_angle_alpha 90.000000
_cell_angle_beta 90.755912
_cell_angle_gamma 90.000000
_cell_volume 1055.169323
_symmetry_space_group_name_H-M "P 21/C"
_symmetry_group_IT_number 14
_symmetry_cell_setting 'monoclinic'
loop_
_space_group_symop_operation_xyz
x,y,z
-x,1/2+y,1/2-z
-x,-y,-z
x,1/2-y,1/2+z
loop_
_atom_site_type_symbol
_atom_site_label
_atom_site_fract_x
_atom_site_fract_y
_atom_site_fract_z
Si Si1 0.194151 0.213789 0.287710
Si Si2 0.275462 0.546202 0.927730
Si Si3 0.479926 0.686075 0.982505
Si Si4 0.198812 0.531025 0.309836
Si Si5 0.802787 0.940986 0.868465
Si Si6 0.013853 0.819999 0.407591
Si Si7 0.282084 0.700009 0.291587
O O1 0.351912 0.208407 0.416803
O O2 0.221032 0.152258 0.135484
O O3 0.161218 0.301266 0.209031
O O4 0.029804 0.182025 0.394611
O O5 0.455717 0.596244 0.921927
O O6 0.241401 0.509625 0.114269
O O7 0.304659 0.478419 0.790560
O O8 0.111368 0.599953 0.863825
O O9 0.298426 0.694391 0.088352
O O10 0.457678 0.751505 0.838592
O O11 0.267365 0.468755 0.449142
O O12 0.287268 0.612766 0.364907
O O13 0.996313 0.534467 0.332994
O O14 0.113494 0.742458 0.352319
#
# Coordination Sequence:
#
# PCOD8125679 Si02
#       7
#     4   4   4   4   4   4   4
#     4  12  24  41  61 104 131 168 212 288 333 388
#     4  10  22  42  66  94 127 182 220 269 324 415
#     4  10  23  39  64  91 137 166 222 267 337 399
#     4  10  21  39  63  98 124 164 229 276 316 390
#     4  11  23  39  67  97 136 166 221 278 339 377
#     4  11  22  39  66  94 127 165 231 271 325 381
#     4  10  20  41  63  92 120 179 220 267 321 401
#
# _framework density 26.536024000000001
#
# number of rings (size 3 to 8) (size 9 to 14) (size 15 to 20)
#    0.000    1.429    2.857    3.000    6.000    0.571 
#    0.000    2.857    0.000    0.000    0.000    0.000 
#    0.000    0.000    0.000    0.000    0.000    0.000 
#
# Total GULP energy -346953.758127 kJ/mol
# GULP energy per Si atom -12391.205647 kJ/mol
# Density = 2.647563 g / cm^3
# Si number density = 26.536024 Si / 1000 Ang^3
#
#
#
# Elastic Constant Matrix: (Units=GPa)
#
#
# Indices 1 2 3 4 5 6 
#
# 1 24.9694 10.8136 14.3681 0.0000 7.6951 0.0000
# 2 10.8136 43.3281 30.5655 0.0000 -7.5756 0.0000
# 3 14.3681 30.5655 103.8896 0.0000 6.3788 0.0000
# 4 0.0000 0.0000 0.0000 46.7825 0.0000 5.1068
# 5 7.6951 -7.5756 6.3788 0.0000 31.3978 0.0000
# 6 0.0000 0.0000 0.0000 5.1068 0.0000 14.2388
#
#
#
# Elastic Compliance Matrix: (Units=1/GPa)
#
#
# Indices 1 2 3 4 5 6 
#
# 1 0.052358 -0.014421 -0.002022 0.000000 -0.015901 0.000000
# 2 -0.014421 0.035765 -0.009392 0.000000 0.014072 0.000000
# 3 -0.002022 -0.009392 0.012939 0.000000 -0.004399 0.000000
# 4 0.000000 0.000000 0.000000 0.022246 0.000000 -0.007979
# 5 -0.015901 0.014072 -0.004399 0.000000 0.040035 0.000000
# 6 0.000000 0.000000 0.000000 -0.007979 0.000000 0.073092
#
#
# Mechanical properties :
#
#
# Convention : Reuss Voigt Hill
#
# Bulk Modulus (GPa) = 20.24641 31.52017 25.88329
# Shear Modulus (GPa) = 16.41661 26.24646 21.33153
#
# Velocity S-wave (km/s) = 2.48997 3.14839 2.83834
# Velocity P-wave (km/s) = 3.98911 5.01204 4.52954
#
# Compressibility (1/GPa) = 0.04939147
#
# Stress axis : x y z
#
# Youngs Moduli (GPa) = 19.09913 27.96063 77.28841
#
# Poissons Ratio (x) = 0.40322 0.15629
# Poissons Ratio (y) = 0.27543 0.72588
# Poissons Ratio (z) = 0.03862 0.26260
#
# Static dielectric constant tensor:
#      x y z
#    x 4.851330 0.000000 -0.043720 
#    y 0.000000 4.828500 0.000000 
#    z -0.043720 0.000000 5.117690 
# 
# 
# High freq. dielectric constant tensor:
#      x y z
#    x 2.066680 0.000000 0.008420 
#    y 0.000000 2.051690 0.000000 
#    z 0.008420 0.000000 2.070350 
# 
# From -- ./inp_files/9511.got.cif
#   From: 2010.03.12/outbox.cif.g09.slc.cpg/sg14_5_cif.got.tgz:9511.got - 2010.03.31 13:35:05.
