data_PCOD8125696
_publ_section_title
;
Structure prediction by ZEFSAII (Michael W. Deem and Ramdas Pophale) SiO2 
 PCOD8125696
Probable space group: P 21/C
;
_chemical_formula_sum "Si O2"
_cell_formula_units_Z 32
_cell_length_a 11.288090
_cell_length_b 18.860941
_cell_length_c 13.146829
_cell_angle_alpha 90.000000
_cell_angle_beta 148.118002
_cell_angle_gamma 90.000000
_cell_volume 1478.358804
_symmetry_space_group_name_H-M "P 21/C"
_symmetry_group_IT_number 14
_symmetry_cell_setting 'monoclinic'
loop_
_space_group_symop_operation_xyz
x,y,z
-x,1/2+y,1/2-z
-x,-y,-z
x,1/2-y,1/2+z
loop_
_atom_site_type_symbol
_atom_site_label
_atom_site_fract_x
_atom_site_fract_y
_atom_site_fract_z
Si Si1 0.164117 0.358905 0.795335
Si Si2 0.044283 0.581618 0.543871
Si Si3 0.523338 0.560698 0.853228
Si Si4 0.116931 0.811167 0.729900
Si Si5 0.464429 0.710809 0.063036
Si Si6 0.292401 0.343908 0.193088
Si Si7 0.490460 0.416865 0.515717
Si Si8 0.412838 0.095218 0.196682
O O1 0.351625 0.308524 0.885548
O O2 0.976490 0.380869 0.579824
O O3 0.054224 0.312788 0.802227
O O4 0.275495 0.431994 0.919146
O O5 0.307884 0.592980 0.758999
O O6 0.000000 0.500000 0.500000
O O7 0.854148 0.612486 0.481724
O O8 0.597253 0.603682 0.807977
O O9 0.478459 0.481103 0.787346
O O10 0.279368 0.879423 0.851031
O O11 0.962356 0.817613 0.516063
O O12 0.245561 0.735624 0.837451
O O13 0.544535 0.777103 0.187596
O O14 0.431786 0.648517 0.123208
O O15 0.289976 0.383472 0.301409
O O16 0.500000 0.500000 0.500000
O O17 0.455970 0.398933 0.608796
#
# Coordination Sequence:
#
# PCOD8125696 Si02
#       8
#     4   4   4   4   4   4   4   4
#     4  10  22  40  64  91 123 168 223 266 337 402
#     4   9  19  34  59  90 126 164 205 262 332 382
#     4  10  20  41  65  92 131 170 214 278 328 395
#     4  10  24  43  68  92 126 180 215 270 344 387
#     4  10  23  41  64  95 134 167 227 281 323 404
#     4  10  22  42  67  94 132 178 224 269 336 401
#     4  11  22  41  67  97 136 169 219 279 326 395
#     4  10  22  39  63 101 132 172 222 268 334 397
#
# _framework density 21.645627000000001
#
# number of rings (size 3 to 8) (size 9 to 14) (size 15 to 20)
#    0.000    2.000    1.250    1.500    1.750   12.000 
#    0.000    3.750    0.000    0.000    0.000    0.000 
#    0.000    0.000    0.000    0.000    0.000    0.000 
#
# Total GULP energy -396495.413777 kJ/mol
# GULP energy per Si atom -12390.481681 kJ/mol
# Density = 2.159636 g / cm^3
# Si number density = 21.645627 Si / 1000 Ang^3
#
#
#
# Elastic Constant Matrix: (Units=GPa)
#
#
# Indices 1 2 3 4 5 6 
#
# 1 113.2658 34.3120 37.6543 0.0000 -7.6718 0.0000
# 2 34.3120 100.0405 38.3995 0.0000 -3.8083 0.0000
# 3 37.6543 38.3995 98.4471 0.0000 2.7358 0.0000
# 4 0.0000 0.0000 0.0000 38.5830 0.0000 -3.2816
# 5 -7.6718 -3.8083 2.7358 0.0000 20.7324 0.0000
# 6 0.0000 0.0000 0.0000 -3.2816 0.0000 29.2573
#
#
#
# Elastic Compliance Matrix: (Units=1/GPa)
#
#
# Indices 1 2 3 4 5 6 
#
# 1 0.010928 -0.002288 -0.003401 0.000000 0.004072 0.000000
# 2 -0.002288 0.012396 -0.004015 0.000000 0.001960 0.000000
# 3 -0.003401 -0.004015 0.013128 0.000000 -0.003728 0.000000
# 4 0.000000 0.000000 0.000000 0.026168 0.000000 0.002935
# 5 0.004072 0.001960 -0.003728 0.000000 0.050593 0.000000
# 6 0.000000 0.000000 0.000000 0.002935 0.000000 0.034509
#
#
# Mechanical properties :
#
#
# Convention : Reuss Voigt Hill
#
# Bulk Modulus (GPa) = 58.66406 59.16500 58.91453
# Shear Modulus (GPa) = 28.93353 31.14035 30.03694
#
# Velocity S-wave (km/s) = 3.66005 3.79706 3.72918
# Velocity P-wave (km/s) = 6.70985 6.82762 6.76899
#
# Compressibility (1/GPa) = 0.01704621
#
# Stress axis : x y z
#
# Youngs Moduli (GPa) = 91.50629 80.66978 76.17342
#
# Poissons Ratio (x) = 0.18456 0.25904
# Poissons Ratio (y) = 0.20935 0.30580
# Poissons Ratio (z) = 0.31118 0.32386
#
# Static dielectric constant tensor:
#      x y z
#    x 3.953500 0.000000 0.004560 
#    y 0.000000 3.918680 0.000000 
#    z 0.004560 0.000000 4.267120 
# 
# 
# High freq. dielectric constant tensor:
#      x y z
#    x 1.847280 0.000000 -0.006250 
#    y 0.000000 1.852220 0.000000 
#    z -0.006250 0.000000 1.854930 
# 
# From -- ./inp_files/45393.got.cif
#   From: 2010.03.12/outbox.cif.g09.slc.cpg/sg14_23_cif.got.tgz:45393.got - 2010.03.31 13:35:05.
