data_PCOD8125813
_publ_section_title
;
Structure prediction by ZEFSAII (Michael W. Deem and Ramdas Pophale) SiO2 
 PCOD8125813
Probable space group: P 21/C
;
_chemical_formula_sum "Si O2"
_cell_formula_units_Z 32
_cell_length_a 13.414222
_cell_length_b 25.845729
_cell_length_c 5.017778
_cell_angle_alpha 90.000000
_cell_angle_beta 118.757261
_cell_angle_gamma 90.000000
_cell_volume 1525.105124
_symmetry_space_group_name_H-M "P 21/C"
_symmetry_group_IT_number 14
_symmetry_cell_setting 'monoclinic'
loop_
_space_group_symop_operation_xyz
x,y,z
-x,1/2+y,1/2-z
-x,-y,-z
x,1/2-y,1/2+z
loop_
_atom_site_type_symbol
_atom_site_label
_atom_site_fract_x
_atom_site_fract_y
_atom_site_fract_z
Si Si1 0.440914 0.715275 0.193049
Si Si2 0.173592 0.114961 0.887287
Si Si3 0.167163 0.964858 0.238368
Si Si4 0.933780 0.568326 0.235390
Si Si5 0.482353 0.945674 0.197608
Si Si6 0.336075 0.467499 0.669790
Si Si7 0.701072 0.782854 0.041856
Si Si8 0.373888 0.897432 0.573942
O O1 0.412232 0.742605 0.433012
O O2 0.572190 0.696705 0.338638
O O3 0.361563 0.664650 0.062525
O O4 0.075208 0.098852 0.554393
O O5 0.204553 0.174792 0.907068
O O6 0.136581 0.100704 0.137366
O O7 0.288837 0.083207 0.961799
O O8 0.254084 0.925249 0.498613
O O9 0.114702 0.009586 0.363147
O O10 0.231467 0.993691 0.081304
O O11 0.065831 0.931558 0.981674
O O12 0.610554 0.952325 0.471419
O O13 0.410663 0.915092 0.329180
O O14 0.428933 0.004084 0.098835
O O15 0.471991 0.913874 0.911190
O O16 0.720772 0.765401 0.370194
#
# Coordination Sequence:
#
# PCOD8125813 Si02
#       8
#     4   4   4   4   4   4   4   4
#     4  10  21  36  55  81 109 139 180 226 272 331
#     4  11  21  36  58  80 108 145 181 228 276 319
#     4   9  21  37  56  82 114 150 184 224 270 324
#     4  10  22  37  56  83 112 144 190 229 266 322
#     4  10  21  33  51  83 115 146 181 217 262 334
#     4   9  20  34  53  82 117 147 178 216 269 330
#     4  10  21  37  58  82 108 139 179 227 280 329
#     4  11  21  36  57  78 111 151 185 224 275 327
#
# _framework density 20.982158999999999
#
# number of rings (size 3 to 8) (size 9 to 14) (size 15 to 20)
#    0.000    2.000    0.000    3.000    0.000   17.000 
#    0.000    0.000    0.000    4.500    0.000    0.000 
#    0.000    0.000    0.000    0.000    0.000    0.000 
#
# Total GULP energy -396826.812133 kJ/mol
# GULP energy per Si atom -12400.837879 kJ/mol
# Density = 2.093440 g / cm^3
# Si number density = 20.982159 Si / 1000 Ang^3
#
#
#
# Elastic Constant Matrix: (Units=GPa)
#
#
# Indices 1 2 3 4 5 6 
#
# 1 39.2510 16.7671 14.0087 0.0000 17.3283 0.0000
# 2 16.7671 98.2477 26.3309 0.0000 14.8524 0.0000
# 3 14.0087 26.3309 70.5004 0.0000 3.0526 0.0000
# 4 0.0000 0.0000 0.0000 25.2385 0.0000 0.3973
# 5 17.3283 14.8524 3.0526 0.0000 28.0550 0.0000
# 6 0.0000 0.0000 0.0000 0.3973 0.0000 21.8028
#
#
#
# Elastic Compliance Matrix: (Units=1/GPa)
#
#
# Indices 1 2 3 4 5 6 
#
# 1 0.037996 -0.001546 -0.006020 0.000000 -0.021995 0.000000
# 2 -0.001546 0.012306 -0.004067 0.000000 -0.005117 0.000000
# 3 -0.006020 -0.004067 0.016724 0.000000 0.004052 0.000000
# 4 0.000000 0.000000 0.000000 0.039633 0.000000 -0.000722
# 5 -0.021995 -0.005117 0.004052 0.000000 0.051498 0.000000
# 6 0.000000 0.000000 0.000000 -0.000722 0.000000 0.045879
#
#
# Mechanical properties :
#
#
# Convention : Reuss Voigt Hill
#
# Bulk Modulus (GPa) = 22.85221 35.80138 29.32680
# Shear Modulus (GPa) = 20.67053 25.07876 22.87465
#
# Velocity S-wave (km/s) = 3.14211 3.46098 3.30539
# Velocity P-wave (km/s) = 4.90701 5.75074 5.34554
#
# Compressibility (1/GPa) = 0.04375944
#
# Stress axis : x y z
#
# Youngs Moduli (GPa) = 26.31825 81.26210 59.79358
#
# Poissons Ratio (x) = 0.12563 0.35997
# Poissons Ratio (y) = 0.04069 0.24320
# Poissons Ratio (z) = 0.15844 0.33052
#
# Static dielectric constant tensor:
#      x y z
#    x 3.627370 0.000000 0.063010 
#    y 0.000000 3.668070 0.000000 
#    z 0.063010 0.000000 3.777500 
# 
# 
# High freq. dielectric constant tensor:
#      x y z
#    x 1.805110 0.000000 -0.009650 
#    y 0.000000 1.807170 0.000000 
#    z -0.009650 0.000000 1.822860 
# 
# From -- ./inp_files/3980.got.cif
#   From: 2010.03.12/outbox.cif.g09.slc.cpg/sg14_2_cif.got.tgz:3980.got - 2010.03.31 13:35:05.
