data_PCOD8125866
_publ_section_title
;
Structure prediction by ZEFSAII (Michael W. Deem and Ramdas Pophale) SiO2 
 PCOD8125866
Probable space group: P 21/C
;
_chemical_formula_sum "Si O2"
_cell_formula_units_Z 32
_cell_length_a 25.852146
_cell_length_b 5.168530
_cell_length_c 23.226495
_cell_angle_alpha 90.000000
_cell_angle_beta 148.166505
_cell_angle_gamma 90.000000
_cell_volume 1636.932291
_symmetry_space_group_name_H-M "P 21/C"
_symmetry_group_IT_number 14
_symmetry_cell_setting 'monoclinic'
loop_
_space_group_symop_operation_xyz
x,y,z
-x,1/2+y,1/2-z
-x,-y,-z
x,1/2-y,1/2+z
loop_
_atom_site_type_symbol
_atom_site_label
_atom_site_fract_x
_atom_site_fract_y
_atom_site_fract_z
Si Si1 0.441693 0.689731 0.903183
Si Si2 0.357136 0.104302 0.218280
Si Si3 0.818868 0.744469 0.759783
Si Si4 0.030595 0.622047 0.968178
Si Si5 0.533670 0.061932 0.912956
Si Si6 0.151899 0.346740 0.581115
Si Si7 0.700725 0.243551 0.634770
Si Si8 0.557152 0.622112 0.315686
O O1 0.410759 0.600825 0.809975
O O2 0.339569 0.757841 0.837771
O O3 0.519269 0.914823 0.960879
O O4 0.500000 0.500000 0.000000
O O5 0.425005 0.356793 0.290712
O O6 0.244652 0.137844 0.127507
O O7 0.359125 0.038069 0.151729
O O8 0.813606 0.749301 0.823958
O O9 0.756712 0.509547 0.675609
O O10 0.930516 0.711797 0.842319
O O11 0.774677 0.009205 0.693504
O O12 0.084999 0.380421 0.988599
O O13 0.000000 0.500000 0.000000
O O14 0.098770 0.876085 0.037768
O O15 0.587046 0.910678 0.910862
O O16 0.609809 0.287309 0.003837
O O17 0.469171 0.422084 0.218333
#
# Coordination Sequence:
#
# PCOD8125866 Si02
#       8
#     4   4   4   4   4   4   4   4
#     4  12  22  36  51  84 123 159 189 229 281 342
#     4  11  23  36  59  82 118 156 198 232 289 335
#     4  11  21  36  53  80 112 150 184 223 289 341
#     4  10  21  36  53  77 113 148 183 231 284 344
#     4  11  24  38  55  82 123 154 200 234 283 336
#     4  11  21  34  55  81 112 148 186 231 283 342
#     4  12  23  33  55  82 115 154 183 225 279 349
#     4  10  22  40  58  77 111 160 201 239 272 324
#
# _framework density 19.548760000000001
#
# number of rings (size 3 to 8) (size 9 to 14) (size 15 to 20)
#    0.000    1.000    3.750    5.625    1.750    0.000 
#    0.000    0.000    0.000    0.000    0.000    3.500 
#    0.000    2.000    0.000    0.000    0.000    0.000 
#
# Total GULP energy -396421.495039 kJ/mol
# GULP energy per Si atom -12388.171720 kJ/mol
# Density = 1.950427 g / cm^3
# Si number density = 19.548760 Si / 1000 Ang^3
#
#
#
# Elastic Constant Matrix: (Units=GPa)
#
#
# Indices 1 2 3 4 5 6 
#
# 1 90.6939 22.7661 49.9464 0.0000 18.6502 0.0000
# 2 22.7661 113.5524 43.1685 0.0000 16.6805 0.0000
# 3 49.9464 43.1685 83.0269 0.0000 24.8478 0.0000
# 4 0.0000 0.0000 0.0000 34.0360 0.0000 6.1016
# 5 18.6502 16.6805 24.8478 0.0000 30.1761 0.0000
# 6 0.0000 0.0000 0.0000 6.1016 0.0000 24.6713
#
#
#
# Elastic Compliance Matrix: (Units=1/GPa)
#
#
# Indices 1 2 3 4 5 6 
#
# 1 0.016699 0.000704 -0.009563 0.000000 -0.002835 0.000000
# 2 0.000704 0.011081 -0.005602 0.000000 -0.001947 0.000000
# 3 -0.009563 -0.005602 0.023905 0.000000 -0.010677 0.000000
# 4 0.000000 0.000000 0.000000 0.030744 0.000000 -0.007603
# 5 -0.002835 -0.001947 -0.010677 0.000000 0.044760 0.000000
# 6 0.000000 0.000000 0.000000 -0.007603 0.000000 0.042413
#
#
# Mechanical properties :
#
#
# Convention : Reuss Voigt Hill
#
# Bulk Modulus (GPa) = 43.93085 57.67057 50.80071
# Shear Modulus (GPa) = 24.25863 29.20283 26.73073
#
# Velocity S-wave (km/s) = 3.52650 3.86922 3.70183
# Velocity P-wave (km/s) = 6.25323 7.03748 6.65691
#
# Compressibility (1/GPa) = 0.02276305
#
# Stress axis : x y z
#
# Youngs Moduli (GPa) = 59.88402 90.24311 41.83175
#
# Poissons Ratio (x) = -0.06354 0.40004
# Poissons Ratio (y) = -0.04216 0.23435
# Poissons Ratio (z) = 0.57267 0.50556
#
# Static dielectric constant tensor:
#      x y z
#    x 3.842540 0.000000 0.283070 
#    y 0.000000 3.881010 0.000000 
#    z 0.283070 0.000000 3.685920 
# 
# 
# High freq. dielectric constant tensor:
#      x y z
#    x 1.739850 0.000000 0.019120 
#    y 0.000000 1.777030 0.000000 
#    z 0.019120 0.000000 1.737190 
# 
# From -- ./inp_files/75107.got.cif
#   From: 2010.03.12/outbox.cif.g09.slc.cpg/sg14_38_cif.got.tgz:75107.got - 2010.03.31 13:35:05.
