data_PCOD8125266
_publ_section_title
;
Structure prediction by ZEFSAII (Michael W. Deem and Ramdas Pophale) SiO2 
 PCOD8125266
Probable space group: P 21/C
;
_chemical_formula_sum "Si O2"
_cell_formula_units_Z 32
_cell_length_a 15.380062
_cell_length_b 14.433530
_cell_length_c 15.742892
_cell_angle_alpha 90.000000
_cell_angle_beta 26.468055
_cell_angle_gamma 90.000000
_cell_volume 1557.602387
_symmetry_space_group_name_H-M "P 21/C"
_symmetry_group_IT_number 14
_symmetry_cell_setting 'monoclinic'
loop_
_space_group_symop_operation_xyz
x,y,z
-x,1/2+y,1/2-z
-x,-y,-z
x,1/2-y,1/2+z
loop_
_atom_site_type_symbol
_atom_site_label
_atom_site_fract_x
_atom_site_fract_y
_atom_site_fract_z
Si Si1 0.550406 0.733096 0.761886
Si Si2 0.391771 0.608195 0.666535
Si Si3 0.173864 0.770319 0.487280
Si Si4 0.558211 0.421495 0.567542
Si Si5 0.353890 0.053154 0.734646
Si Si6 0.262139 0.275072 0.578633
Si Si7 0.859425 0.062199 0.951387
Si Si8 0.708995 0.569555 0.903113
O O1 0.333825 0.707368 0.918916
O O2 0.562677 0.835120 0.790316
O O3 0.601690 0.661087 0.790951
O O4 0.707286 0.724519 0.549322
O O5 0.227925 0.672012 0.855062
O O6 0.401336 0.504753 0.697613
O O7 0.343993 0.603270 0.608529
O O8 0.608940 0.647888 0.488300
O O9 0.177228 0.659746 0.467384
O O10 0.961748 0.799378 0.706064
O O11 0.736248 0.447572 0.473455
O O12 0.279405 0.038064 0.704823
O O13 0.541901 0.990461 0.594289
O O14 0.186251 0.021202 0.945089
O O15 0.339685 0.177822 0.547472
O O16 0.086396 0.051382 0.728510
#
# Coordination Sequence:
#
# PCOD8125266 Si02
#       8
#     4   4   4   4   4   4   4   4
#     4  10  21  36  56  83 115 149 188 232 279 335
#     4  10  20  38  60  82 114 151 191 235 279 337
#     4   9  20  37  58  83 112 148 186 230 282 332
#     4  10  21  38  58  83 116 152 189 236 286 331
#     4  11  21  36  59  84 110 147 186 226 280 337
#     4  10  20  38  59  83 116 149 187 233 281 335
#     4  10  20  38  57  83 116 143 182 231 280 334
#     4  10  22  37  57  84 114 144 181 231 284 334
#
# _framework density 20.544397
#
# number of rings (size 3 to 8) (size 9 to 14) (size 15 to 20)
#    0.000    2.000    0.000    4.875    0.000    3.000 
#    0.000   18.750    0.000    0.000    0.000    0.000 
#    0.000    0.000    0.000    0.000    0.000    0.000 
#
# Total GULP energy -396866.844249 kJ/mol
# GULP energy per Si atom -12402.088883 kJ/mol
# Density = 2.049764 g / cm^3
# Si number density = 20.544397 Si / 1000 Ang^3
#
#
#
# Elastic Constant Matrix: (Units=GPa)
#
#
# Indices 1 2 3 4 5 6 
#
# 1 68.3226 17.5856 24.9881 0.0000 11.6353 0.0000
# 2 17.5856 77.3559 23.7618 0.0000 2.8096 0.0000
# 3 24.9881 23.7618 102.1539 0.0000 -3.9409 0.0000
# 4 0.0000 0.0000 0.0000 30.5878 0.0000 9.0992
# 5 11.6353 2.8096 -3.9409 0.0000 21.3637 0.0000
# 6 0.0000 0.0000 0.0000 9.0992 0.0000 33.3179
#
#
#
# Elastic Compliance Matrix: (Units=1/GPa)
#
#
# Indices 1 2 3 4 5 6 
#
# 1 0.018712 -0.002513 -0.004404 0.000000 -0.010673 0.000000
# 2 -0.002513 0.014388 -0.002772 0.000000 -0.001035 0.000000
# 3 -0.004404 -0.002772 0.011701 0.000000 0.004922 0.000000
# 4 0.000000 0.000000 0.000000 0.035584 0.000000 -0.009718
# 5 -0.010673 -0.001035 0.004922 0.000000 0.053665 0.000000
# 6 0.000000 0.000000 0.000000 -0.009718 0.000000 0.032668
#
#
# Mechanical properties :
#
#
# Convention : Reuss Voigt Hill
#
# Bulk Modulus (GPa) = 39.33638 42.27816 40.80727
# Shear Modulus (GPa) = 25.69777 29.15369 27.42573
#
# Velocity S-wave (km/s) = 3.54056 3.77113 3.65766
# Velocity P-wave (km/s) = 5.99188 6.29170 6.14362
#
# Compressibility (1/GPa) = 0.02542176
#
# Stress axis : x y z
#
# Youngs Moduli (GPa) = 53.44249 69.50419 85.46211
#
# Poissons Ratio (x) = 0.17468 0.37640
# Poissons Ratio (y) = 0.13432 0.23688
# Poissons Ratio (z) = 0.23537 0.19265
#
# Static dielectric constant tensor:
#      x y z
#    x 3.613000 0.000000 0.002190 
#    y 0.000000 3.865150 0.000000 
#    z 0.002190 0.000000 3.597310 
# 
# 
# High freq. dielectric constant tensor:
#      x y z
#    x 1.795400 0.000000 0.003700 
#    y 0.000000 1.815730 0.000000 
#    z 0.003700 0.000000 1.792810 
# 
# From -- ./inp_files/47403.got.cif
#   From: 2010.03.12/outbox.cif.g09.slc.cpg/sg14_24_cif.got.tgz:47403.got - 2010.03.31 13:35:05.
