data_PCOD8125675
_publ_section_title
;
Structure prediction by ZEFSAII (Michael W. Deem and Ramdas Pophale) SiO2 
 PCOD8125675
Probable space group: P 21/C
;
_chemical_formula_sum "Si O2"
_cell_formula_units_Z 32
_cell_length_a 14.461438
_cell_length_b 8.385258
_cell_length_c 27.881368
_cell_angle_alpha 90.000000
_cell_angle_beta 152.462362
_cell_angle_gamma 90.000000
_cell_volume 1563.130323
_symmetry_space_group_name_H-M "P 21/C"
_symmetry_group_IT_number 14
_symmetry_cell_setting 'monoclinic'
loop_
_space_group_symop_operation_xyz
x,y,z
-x,1/2+y,1/2-z
-x,-y,-z
x,1/2-y,1/2+z
loop_
_atom_site_type_symbol
_atom_site_label
_atom_site_fract_x
_atom_site_fract_y
_atom_site_fract_z
Si Si1 0.152590 0.308384 0.286253
Si Si2 0.802901 0.939739 0.363781
Si Si3 0.067650 0.763231 0.041297
Si Si4 0.928379 0.489893 0.104249
Si Si5 0.623296 0.063508 0.879819
Si Si6 0.419029 0.750942 0.047163
Si Si7 0.137783 0.969395 0.867310
Si Si8 0.112131 0.160040 0.944988
O O1 0.353699 0.217796 0.362733
O O2 0.178019 0.386348 0.349857
O O3 0.088461 0.447423 0.219487
O O4 0.994923 0.166375 0.217930
O O5 0.577065 0.949019 0.242466
O O6 0.851509 0.778532 0.416968
O O7 0.967903 0.938364 0.397501
O O8 0.818752 0.093608 0.405502
O O9 0.188564 0.896320 0.067786
O O10 0.050545 0.826973 0.087721
O O11 0.863301 0.673623 0.071628
O O12 0.722858 0.401710 0.023165
O O13 0.591407 0.205919 0.901972
O O14 0.679301 0.900738 0.934519
O O15 0.348779 0.893300 0.979749
O O16 0.036386 0.033931 0.870131
#
# Coordination Sequence:
#
# PCOD8125675 Si02
#       8
#     4   4   4   4   4   4   4   4
#     4  11  21  42  68  93 121 169 203 259 323 375
#     4  10  21  38  60  90 122 169 207 258 314 369
#     4  10  22  40  59  86 131 165 211 263 306 359
#     4  10  20  41  63  88 133 159 205 262 311 371
#     4  11  21  38  63  92 121 167 213 250 314 372
#     4  10  21  39  65  93 123 160 205 257 310 379
#     4  10  23  41  63  92 126 159 212 259 315 372
#     4  10  23  41  58  91 131 167 205 264 308 364
#
# _framework density 20.471741000000002
#
# number of rings (size 3 to 8) (size 9 to 14) (size 15 to 20)
#    0.000    1.750    2.500    1.500    1.750    0.000 
#    6.750    6.875    0.000    0.000    0.000    0.000 
#    0.000    0.000    0.000    0.000    0.000    0.000 
#
# Total GULP energy -396649.130271 kJ/mol
# GULP energy per Si atom -12395.285321 kJ/mol
# Density = 2.042515 g / cm^3
# Si number density = 20.471741 Si / 1000 Ang^3
#
#
#
# Elastic Constant Matrix: (Units=GPa)
#
#
# Indices 1 2 3 4 5 6 
#
# 1 77.4738 20.2058 21.6614 0.0000 -4.2324 0.0000
# 2 20.2058 79.7234 27.4762 0.0000 -1.4770 0.0000
# 3 21.6614 27.4762 93.7308 0.0000 4.5077 0.0000
# 4 0.0000 0.0000 0.0000 26.4160 0.0000 -10.4224
# 5 -4.2324 -1.4770 4.5077 0.0000 30.0596 0.0000
# 6 0.0000 0.0000 0.0000 -10.4224 0.0000 32.5042
#
#
#
# Elastic Compliance Matrix: (Units=1/GPa)
#
#
# Indices 1 2 3 4 5 6 
#
# 1 0.014485 -0.002710 -0.002664 0.000000 0.002306 0.000000
# 2 -0.002710 0.014511 -0.003670 0.000000 0.000882 0.000000
# 3 -0.002664 -0.003670 0.012477 0.000000 -0.002426 0.000000
# 4 0.000000 0.000000 0.000000 0.043339 0.000000 0.013896
# 5 0.002306 0.000882 -0.002426 0.000000 0.033999 0.000000
# 6 0.000000 0.000000 0.000000 0.013896 0.000000 0.035221
#
#
# Mechanical properties :
#
#
# Convention : Reuss Voigt Hill
#
# Bulk Modulus (GPa) = 42.76213 43.29052 43.02633
# Shear Modulus (GPa) = 27.79070 29.90158 28.84614
#
# Velocity S-wave (km/s) = 3.68844 3.82596 3.75783
# Velocity P-wave (km/s) = 6.25086 6.38041 6.31597
#
# Compressibility (1/GPa) = 0.02338518
#
# Stress axis : x y z
#
# Youngs Moduli (GPa) = 69.03553 68.91097 80.14760
#
# Poissons Ratio (x) = 0.18678 0.21351
# Poissons Ratio (y) = 0.18712 0.29413
# Poissons Ratio (z) = 0.18391 0.25290
#
# Static dielectric constant tensor:
#      x y z
#    x 3.587950 0.000000 -0.239860 
#    y 0.000000 3.716690 0.000000 
#    z -0.239860 0.000000 3.779550 
# 
# 
# High freq. dielectric constant tensor:
#      x y z
#    x 1.795740 0.000000 -0.021120 
#    y 0.000000 1.797870 0.000000 
#    z -0.021120 0.000000 1.799600 
# 
# From -- ./inp_files/77520.got.cif
#   From: 2010.03.12/outbox.cif.g09.slc.cpg/sg14_39_cif.got.tgz:77520.got - 2010.03.31 13:35:05.
