data_PCOD8125708
_publ_section_title
;
Structure prediction by ZEFSAII (Michael W. Deem and Ramdas Pophale) SiO2 
 PCOD8125708
Probable space group: P 21/C
;
_chemical_formula_sum "Si O2"
_cell_formula_units_Z 24
_cell_length_a 10.464294
_cell_length_b 12.582216
_cell_length_c 9.481489
_cell_angle_alpha 90.000000
_cell_angle_beta 76.554637
_cell_angle_gamma 90.000000
_cell_volume 1214.155603
_symmetry_space_group_name_H-M "P 21/C"
_symmetry_group_IT_number 14
_symmetry_cell_setting 'monoclinic'
loop_
_space_group_symop_operation_xyz
x,y,z
-x,1/2+y,1/2-z
-x,-y,-z
x,1/2-y,1/2+z
loop_
_atom_site_type_symbol
_atom_site_label
_atom_site_fract_x
_atom_site_fract_y
_atom_site_fract_z
Si Si1 0.256574 0.746231 0.413799
Si Si2 0.878257 0.040318 0.117838
Si Si3 0.129095 0.964267 0.549308
Si Si4 0.311193 0.340619 0.014262
Si Si5 0.440481 0.734579 0.613666
Si Si6 0.687978 0.647553 0.658251
O O1 0.146542 0.656202 0.438976
O O2 0.185190 0.853599 0.478859
O O3 0.379829 0.710754 0.476990
O O4 0.313823 0.750496 0.242356
O O5 0.907634 0.042903 0.276871
O O6 0.753945 0.965708 0.115758
O O7 0.000000 0.000000 0.000000
O O8 0.243787 0.049354 0.490006
O O9 0.000000 0.000000 0.500000
O O10 0.301765 0.317928 0.182333
O O11 0.465668 0.340201 0.925325
O O12 0.240853 0.240997 0.951880
O O13 0.465327 0.139321 0.853269
#
# Coordination Sequence:
#
# PCOD8125708 Si02
#       6
#     4   4   4   4   4   4
#     4  12  24  43  65 100 130 165 218 271 322 391
#     4  11  27  45  66  94 132 174 221 272 315 386
#     4  11  27  45  67  93 130 180 218 266 323 385
#     4   9  20  42  66  94 128 166 211 262 324 382
#     4  10  20  41  67 100 130 164 210 268 328 388
#     4   9  20  42  65  95 129 166 208 264 326 378
#
# _framework density 19.766825000000001
#
# number of rings (size 3 to 8) (size 9 to 14) (size 15 to 20)
#    1.000    0.667    3.333    0.000    4.667    4.000 
#    0.000    0.000    0.000    0.000    0.000    0.000 
#    0.000    0.000    0.000    0.000    0.000    0.000 
#
# Total GULP energy -297422.034240 kJ/mol
# GULP energy per Si atom -12392.584760 kJ/mol
# Density = 1.972183 g / cm^3
# Si number density = 19.766825 Si / 1000 Ang^3
#
#
#
# Elastic Constant Matrix: (Units=GPa)
#
#
# Indices 1 2 3 4 5 6 
#
# 1 120.3442 59.8205 44.3896 0.0000 7.2069 0.0000
# 2 59.8205 122.7505 59.5150 0.0000 10.2804 0.0000
# 3 44.3896 59.5150 89.2656 0.0000 -8.7404 0.0000
# 4 0.0000 0.0000 0.0000 26.8131 0.0000 -3.4836
# 5 7.2069 10.2804 -8.7404 0.0000 34.8558 0.0000
# 6 0.0000 0.0000 0.0000 -3.4836 0.0000 38.4862
#
#
#
# Elastic Compliance Matrix: (Units=1/GPa)
#
#
# Indices 1 2 3 4 5 6 
#
# 1 0.011598 -0.003805 -0.003440 0.000000 -0.002138 0.000000
# 2 -0.003805 0.014504 -0.008324 0.000000 -0.005578 0.000000
# 3 -0.003440 -0.008324 0.019245 0.000000 0.007992 0.000000
# 4 0.000000 0.000000 0.000000 0.037739 0.000000 0.003416
# 5 -0.002138 -0.005578 0.007992 0.000000 0.032781 0.000000
# 6 0.000000 0.000000 0.000000 0.003416 0.000000 0.026293
#
#
# Mechanical properties :
#
#
# Convention : Reuss Voigt Hill
#
# Bulk Modulus (GPa) = 70.37647 73.31229 71.84438
# Shear Modulus (GPa) = 28.08443 31.27335 29.67889
#
# Velocity S-wave (km/s) = 3.77342 3.98189 3.87906
# Velocity P-wave (km/s) = 7.39362 7.63608 7.51583
#
# Compressibility (1/GPa) = 0.01420929
#
# Stress axis : x y z
#
# Youngs Moduli (GPa) = 86.22344 68.94583 51.96044
#
# Poissons Ratio (x) = 0.26235 0.17873
# Poissons Ratio (y) = 0.32810 0.43253
# Poissons Ratio (z) = 0.29658 0.57392
#
# Static dielectric constant tensor:
#      x y z
#    x 3.312360 0.000000 0.122150 
#    y 0.000000 3.708510 0.000000 
#    z 0.122150 0.000000 3.718170 
# 
# 
# High freq. dielectric constant tensor:
#      x y z
#    x 1.770740 0.000000 0.007870 
#    y 0.000000 1.758540 0.000000 
#    z 0.007870 0.000000 1.784120 
# 
# From -- ./inp_files/12349.got.cif
#   From: 2010.03.12/outbox.cif.g09.slc.cpg/sg14_7_cif.got.tgz:12349.got - 2010.03.31 13:35:05.
