data_PCOD8125551
_publ_section_title
;
Structure prediction by ZEFSAII (Michael W. Deem and Ramdas Pophale) SiO2 
 PCOD8125551
Probable space group: P 21/C
;
_chemical_formula_sum "Si O2"
_cell_formula_units_Z 28
_cell_length_a 8.332051
_cell_length_b 13.212728
_cell_length_c 15.085084
_cell_angle_alpha 90.000000
_cell_angle_beta 116.387120
_cell_angle_gamma 90.000000
_cell_volume 1487.677768
_symmetry_space_group_name_H-M "P 21/C"
_symmetry_group_IT_number 14
_symmetry_cell_setting 'monoclinic'
loop_
_space_group_symop_operation_xyz
x,y,z
-x,1/2+y,1/2-z
-x,-y,-z
x,1/2-y,1/2+z
loop_
_atom_site_type_symbol
_atom_site_label
_atom_site_fract_x
_atom_site_fract_y
_atom_site_fract_z
Si Si1 0.094648 0.237360 0.275545
Si Si2 0.703491 0.926279 0.235159
Si Si3 0.104085 0.554882 0.352893
Si Si4 0.358965 0.646746 0.555167
Si Si5 0.498995 0.045455 0.639404
Si Si6 0.848160 0.122112 0.821668
Si Si7 0.560052 0.657321 0.052151
O O1 0.184869 0.322113 0.235476
O O2 0.239625 0.193962 0.379475
O O3 0.023702 0.150727 0.192915
O O4 0.931099 0.282254 0.291540
O O5 0.529273 0.915657 0.130878
O O6 0.652933 0.953233 0.322810
O O7 0.823171 0.016498 0.224354
O O8 0.270133 0.582239 0.455652
O O9 0.995406 0.464883 0.373790
O O10 0.219605 0.662588 0.600855
O O11 0.414464 0.755441 0.531113
O O12 0.690693 0.076354 0.723856
O O13 0.443241 0.124662 0.550557
O O14 0.506664 0.932801 0.604270
#
# Coordination Sequence:
#
# PCOD8125551 Si02
#       7
#     4   4   4   4   4   4   4
#     4  10  21  37  56  87 116 149 189 238 279 335
#     4   9  22  38  58  83 115 149 195 228 281 346
#     4  11  20  37  59  83 116 150 182 244 291 326
#     4  10  21  37  57  87 113 149 191 233 281 351
#     4  10  20  40  59  82 112 159 188 235 278 341
#     4  10  21  37  59  84 117 147 193 234 288 337
#     4  10  21  38  58  82 117 149 196 231 280 337
#
# _framework density 18.821280999999999
#
# number of rings (size 3 to 8) (size 9 to 14) (size 15 to 20)
#    0.000    2.000    1.429    1.714    2.000    1.143 
#    2.571    2.143    0.000    0.000    0.000    0.000 
#    0.000    0.000    0.000    0.000    0.000    0.000 
#
# Total GULP energy -347336.079879 kJ/mol
# GULP energy per Si atom -12404.859996 kJ/mol
# Density = 1.877844 g / cm^3
# Si number density = 18.821281 Si / 1000 Ang^3
#
#
#
# Elastic Constant Matrix: (Units=GPa)
#
#
# Indices 1 2 3 4 5 6 
#
# 1 92.2560 13.4115 30.2258 0.0000 -6.5759 0.0000
# 2 13.4115 55.0915 28.7662 0.0000 4.0822 0.0000
# 3 30.2258 28.7662 82.5606 0.0000 -9.9127 0.0000
# 4 0.0000 0.0000 0.0000 14.8089 0.0000 8.1553
# 5 -6.5759 4.0822 -9.9127 0.0000 23.1007 0.0000
# 6 0.0000 0.0000 0.0000 8.1553 0.0000 28.2133
#
#
#
# Elastic Compliance Matrix: (Units=1/GPa)
#
#
# Indices 1 2 3 4 5 6 
#
# 1 0.012432 -0.001140 -0.003907 0.000000 0.002064 0.000000
# 2 -0.001140 0.023647 -0.008817 0.000000 -0.008286 0.000000
# 3 -0.003907 -0.008817 0.017573 0.000000 0.007987 0.000000
# 4 0.000000 0.000000 0.000000 0.080311 0.000000 -0.023214
# 5 0.002064 -0.008286 0.007987 0.000000 0.048768 0.000000
# 6 0.000000 0.000000 0.000000 -0.023214 0.000000 0.042155
#
#
# Mechanical properties :
#
#
# Convention : Reuss Voigt Hill
#
# Bulk Modulus (GPa) = 38.57075 41.63499 40.10287
# Shear Modulus (GPa) = 19.13849 23.72492 21.43171
#
# Velocity S-wave (km/s) = 3.19227 3.55426 3.37812
# Velocity P-wave (km/s) = 5.84167 6.24603 6.04723
#
# Compressibility (1/GPa) = 0.02592638
#
# Stress axis : x y z
#
# Youngs Moduli (GPa) = 80.43700 42.28903 56.90394
#
# Poissons Ratio (x) = 0.04819 0.22230
# Poissons Ratio (y) = 0.09166 0.50171
# Poissons Ratio (z) = 0.31423 0.37286
#
# Static dielectric constant tensor:
#      x y z
#    x 3.545830 0.000000 0.059130 
#    y 0.000000 3.478430 0.000000 
#    z 0.059130 0.000000 3.352790 
# 
# 
# High freq. dielectric constant tensor:
#      x y z
#    x 1.739930 0.000000 0.004990 
#    y 0.000000 1.739700 0.000000 
#    z 0.004990 0.000000 1.727300 
# 
# From -- ./inp_files/40186.got.cif
#   From: 2010.03.12/outbox.cif.g09.slc.cpg/sg14_21_cif.got.tgz:40186.got - 2010.03.31 13:35:05.
