data_PCOD8125767
_publ_section_title
;
Structure prediction by ZEFSAII (Michael W. Deem and Ramdas Pophale) SiO2 
 PCOD8125767
Probable space group: P 21/C
;
_chemical_formula_sum "Si O2"
_cell_formula_units_Z 32
_cell_length_a 18.943327
_cell_length_b 14.257149
_cell_length_c 12.768543
_cell_angle_alpha 90.000000
_cell_angle_beta 153.664907
_cell_angle_gamma 90.000000
_cell_volume 1529.824446
_symmetry_space_group_name_H-M "P 21/C"
_symmetry_group_IT_number 14
_symmetry_cell_setting 'monoclinic'
loop_
_space_group_symop_operation_xyz
x,y,z
-x,1/2+y,1/2-z
-x,-y,-z
x,1/2-y,1/2+z
loop_
_atom_site_type_symbol
_atom_site_label
_atom_site_fract_x
_atom_site_fract_y
_atom_site_fract_z
Si Si1 0.474855 0.365271 0.379089
Si Si2 0.269633 0.480934 0.254259
Si Si3 0.082351 0.082022 0.046061
Si Si4 0.895407 0.374455 0.099854
Si Si5 0.673631 0.016307 0.774160
Si Si6 0.621788 0.275810 0.211763
Si Si7 0.667188 0.705991 0.011870
Si Si8 0.802210 0.603189 0.630723
O O1 0.366515 0.394287 0.334282
O O2 0.613091 0.440483 0.544018
O O3 0.545075 0.262419 0.501467
O O4 0.374770 0.361659 0.140430
O O5 0.161975 0.444197 0.208040
O O6 0.165375 0.524129 0.021228
O O7 0.221706 0.035559 0.169094
O O8 0.164968 0.166587 0.220463
O O9 0.952575 0.124279 0.795088
O O10 0.000000 0.000000 0.000000
O O11 0.039511 0.352345 0.211198
O O12 0.754812 0.299619 0.919389
O O13 0.500000 0.000000 0.500000
O O14 0.714046 0.126483 0.822682
O O15 0.710477 0.973077 0.937234
O O16 0.481345 0.293339 0.107500
O O17 0.684494 0.810854 0.992904
#
# Coordination Sequence:
#
# PCOD8125767 Si02
#       8
#     4   4   4   4   4   4   4   4
#     4  10  22  39  68  99 125 174 226 279 326 393
#     4  10  20  42  67  94 133 170 225 276 335 396
#     4  11  26  45  65 101 133 179 219 277 350 394
#     4  10  25  44  65  97 136 172 227 274 339 404
#     4  11  23  43  68  97 138 175 225 273 331 409
#     4  11  23  45  67  98 130 177 224 276 329 400
#     4  12  24  42  69  97 133 173 226 273 333 407
#     4  11  24  41  66 100 132 177 219 279 339 397
#
# _framework density 20.917432000000002
#
# number of rings (size 3 to 8) (size 9 to 14) (size 15 to 20)
#    0.000    1.250    2.500    2.625    3.500    2.000 
#    9.000    0.000    0.000    0.000    0.000    0.000 
#    0.000    0.000    0.000    0.000    0.000    0.000 
#
# Total GULP energy -396680.402266 kJ/mol
# GULP energy per Si atom -12396.262571 kJ/mol
# Density = 2.086982 g / cm^3
# Si number density = 20.917432 Si / 1000 Ang^3
#
#
#
# Elastic Constant Matrix: (Units=GPa)
#
#
# Indices 1 2 3 4 5 6 
#
# 1 63.4968 12.0059 27.9604 0.0000 -19.3866 0.0000
# 2 12.0059 95.2547 32.9290 0.0000 -15.2059 0.0000
# 3 27.9604 32.9290 125.7778 0.0000 -22.0805 0.0000
# 4 0.0000 0.0000 0.0000 31.8237 0.0000 2.6746
# 5 -19.3866 -15.2059 -22.0805 0.0000 27.3460 0.0000
# 6 0.0000 0.0000 0.0000 2.6746 0.0000 23.3976
#
#
#
# Elastic Compliance Matrix: (Units=1/GPa)
#
#
# Indices 1 2 3 4 5 6 
#
# 1 0.020689 0.000282 -0.002413 0.000000 0.012876 0.000000
# 2 0.000282 0.012074 -0.002342 0.000000 0.005023 0.000000
# 3 -0.002413 -0.002342 0.009987 0.000000 0.005051 0.000000
# 4 0.000000 0.000000 0.000000 0.031728 0.000000 -0.003627
# 5 0.012876 0.005023 0.005051 0.000000 0.052568 0.000000
# 6 0.000000 0.000000 0.000000 -0.003627 0.000000 0.043154
#
#
# Mechanical properties :
#
#
# Convention : Reuss Voigt Hill
#
# Bulk Modulus (GPa) = 29.58185 47.81332 38.69759
# Shear Modulus (GPa) = 26.25863 30.62239 28.44051
#
# Velocity S-wave (km/s) = 3.54693 3.83033 3.69135
# Velocity P-wave (km/s) = 5.56302 6.51687 6.05875
#
# Compressibility (1/GPa) = 0.03380451
#
# Stress axis : x y z
#
# Youngs Moduli (GPa) = 48.33444 82.82244 100.13315
#
# Poissons Ratio (x) = -0.02334 0.24158
# Poissons Ratio (y) = -0.01362 0.23451
# Poissons Ratio (z) = 0.11661 0.19396
#
# Static dielectric constant tensor:
#      x y z
#    x 3.765990 0.000000 -0.032730 
#    y 0.000000 3.936600 0.000000 
#    z -0.032730 0.000000 3.820560 
# 
# 
# High freq. dielectric constant tensor:
#      x y z
#    x 1.822980 0.000000 -0.001100 
#    y 0.000000 1.825760 0.000000 
#    z -0.001100 0.000000 1.825010 
# 
# From -- ./inp_files/34194.got.cif
#   From: 2010.03.12/outbox.cif.g09.slc.cpg/sg14_18_cif.got.tgz:34194.got - 2010.03.31 13:35:05.
