data_PCOD8125741
_publ_section_title
;
Structure prediction by ZEFSAII (Michael W. Deem and Ramdas Pophale) SiO2 
 PCOD8125741
Probable space group: P 21/C
;
_chemical_formula_sum "Si O2"
_cell_formula_units_Z 28
_cell_length_a 8.908405
_cell_length_b 15.043344
_cell_length_c 13.867606
_cell_angle_alpha 90.000000
_cell_angle_beta 137.483778
_cell_angle_gamma 90.000000
_cell_volume 1255.923914
_symmetry_space_group_name_H-M "P 21/C"
_symmetry_group_IT_number 14
_symmetry_cell_setting 'monoclinic'
loop_
_space_group_symop_operation_xyz
x,y,z
-x,1/2+y,1/2-z
-x,-y,-z
x,1/2-y,1/2+z
loop_
_atom_site_type_symbol
_atom_site_label
_atom_site_fract_x
_atom_site_fract_y
_atom_site_fract_z
Si Si1 0.537586 0.962396 0.147834
Si Si2 0.058827 0.281285 0.478991
Si Si3 0.237228 0.512130 0.878290
Si Si4 0.262405 0.098821 0.562969
Si Si5 0.973670 0.067747 0.074782
Si Si6 0.324968 0.687959 0.841439
Si Si7 0.569254 0.857184 0.986110
O O1 0.642756 0.953807 0.301870
O O2 0.561849 0.065773 0.133165
O O3 0.666287 0.900210 0.130874
O O4 0.283407 0.929710 0.018921
O O5 0.102253 0.177833 0.522266
O O6 0.061140 0.335935 0.580322
O O7 0.232047 0.321490 0.484938
O O8 0.816125 0.287489 0.318960
O O9 0.123203 0.460725 0.735666
O O10 0.193184 0.618818 0.848861
O O11 0.500000 0.500000 0.000000
O O12 0.140860 0.472518 0.933791
O O13 0.457286 0.140436 0.593446
O O14 0.000000 0.000000 0.000000
O O15 0.395278 0.778286 0.929466
#
# Coordination Sequence:
#
# PCOD8125741 Si02
#       7
#     4   4   4   4   4   4   4
#     4  11  22  45  64  95 135 175 219 265 347 391
#     4  11  22  40  68  97 132 166 232 266 325 401
#     4  10  21  37  65  98 131 163 223 275 325 379
#     4  10  23  40  64  99 134 166 216 284 325 384
#     4  12  20  39  73  95 121 183 225 262 323 412
#     4  10  20  42  62  97 129 167 222 270 322 397
#     4  10  24  39  68  92 134 173 212 280 330 391
#
# _framework density 22.294343999999999
#
# number of rings (size 3 to 8) (size 9 to 14) (size 15 to 20)
#    0.000    1.429    4.286    0.857    2.000    3.429 
#    2.571    0.714    0.000    0.000    0.000    0.000 
#    0.000    0.000    0.000    0.000    0.000    0.000 
#
# Total GULP energy -347103.282961 kJ/mol
# GULP energy per Si atom -12396.545820 kJ/mol
# Density = 2.224360 g / cm^3
# Si number density = 22.294344 Si / 1000 Ang^3
#
#
#
# Elastic Constant Matrix: (Units=GPa)
#
#
# Indices 1 2 3 4 5 6 
#
# 1 52.2845 40.6716 18.3102 0.0000 -18.4963 0.0000
# 2 40.6716 158.3423 43.3491 0.0000 -24.5612 0.0000
# 3 18.3102 43.3491 118.3932 0.0000 -36.2265 0.0000
# 4 0.0000 0.0000 0.0000 25.2214 0.0000 -5.3980
# 5 -18.4963 -24.5612 -36.2265 0.0000 38.8579 0.0000
# 6 0.0000 0.0000 0.0000 -5.3980 0.0000 24.3085
#
#
#
# Elastic Compliance Matrix: (Units=1/GPa)
#
#
# Indices 1 2 3 4 5 6 
#
# 1 0.026679 -0.005558 0.001007 0.000000 0.010125 0.000000
# 2 -0.005558 0.008411 -0.001963 0.000000 0.000841 0.000000
# 3 0.001007 -0.001963 0.012279 0.000000 0.010686 0.000000
# 4 0.000000 0.000000 0.000000 0.041627 0.000000 0.009244
# 5 0.010125 0.000841 0.010686 0.000000 0.041049 0.000000
# 6 0.000000 0.000000 0.000000 0.009244 0.000000 0.043191
#
#
# Mechanical properties :
#
#
# Convention : Reuss Voigt Hill
#
# Bulk Modulus (GPa) = 29.11922 59.29798 44.20860
# Shear Modulus (GPa) = 25.28970 32.79019 29.03994
#
# Velocity S-wave (km/s) = 3.37167 3.83924 3.61303
# Velocity P-wave (km/s) = 5.31481 6.80504 6.10556
#
# Compressibility (1/GPa) = 0.03434158
#
# Stress axis : x y z
#
# Youngs Moduli (GPa) = 37.48324 118.89519 81.43856
#
# Poissons Ratio (x) = 0.66080 -0.08201
# Poissons Ratio (y) = 0.20832 0.15984
# Poissons Ratio (z) = -0.03775 0.23335
#
# Static dielectric constant tensor:
#      x y z
#    x 4.083030 0.000000 -0.043450 
#    y 0.000000 4.931490 0.000000 
#    z -0.043450 0.000000 3.974880 
# 
# 
# High freq. dielectric constant tensor:
#      x y z
#    x 1.862320 0.000000 -0.001380 
#    y 0.000000 1.892740 0.000000 
#    z -0.001380 0.000000 1.875240 
# 
# From -- ./inp_files/41463.got.cif
#   From: 2010.03.12/outbox.cif.g09.slc.cpg/sg14_21_cif.got.tgz:41463.got - 2010.03.31 13:35:05.
