data_PCOD8125790
_publ_section_title
;
Structure prediction by ZEFSAII (Michael W. Deem and Ramdas Pophale) SiO2 
 PCOD8125790
Probable space group: P 21/C
;
_chemical_formula_sum "Si O2"
_cell_formula_units_Z 24
_cell_length_a 15.490232
_cell_length_b 16.194125
_cell_length_c 9.565208
_cell_angle_alpha 90.000000
_cell_angle_beta 25.654087
_cell_angle_gamma 90.000000
_cell_volume 1038.805914
_symmetry_space_group_name_H-M "P 21/C"
_symmetry_group_IT_number 14
_symmetry_cell_setting 'monoclinic'
loop_
_space_group_symop_operation_xyz
x,y,z
-x,1/2+y,1/2-z
-x,-y,-z
x,1/2-y,1/2+z
loop_
_atom_site_type_symbol
_atom_site_label
_atom_site_fract_x
_atom_site_fract_y
_atom_site_fract_z
Si Si1 0.783527 0.484800 0.378486
Si Si2 0.631255 0.832201 0.146058
Si Si3 0.306565 0.551952 0.776994
Si Si4 0.214136 0.834327 0.646394
Si Si5 0.148556 0.262414 0.936499
Si Si6 0.992341 0.081035 0.813575
O O1 0.661660 0.569697 0.577841
O O2 0.697321 0.425579 0.382376
O O3 0.794821 0.433508 0.505758
O O4 0.000000 0.500000 0.000000
O O5 0.394026 0.809140 0.489950
O O6 0.738850 0.807201 0.134715
O O7 0.722963 0.780222 0.886540
O O8 0.500000 0.500000 0.500000
O O9 0.322799 0.632558 0.848094
O O10 0.120007 0.501963 0.113575
O O11 0.077879 0.902082 0.925971
O O12 0.070181 0.762618 0.801160
O O13 0.124377 0.342830 0.067022
#
# Coordination Sequence:
#
# PCOD8125790 Si02
#       6
#     4   4   4   4   4   4
#     4  10  20  43  71  95 133 179 226 281 343 406
#     4  12  26  47  69 101 138 186 230 282 355 413
#     4  11  21  44  71  99 134 180 230 282 345 411
#     4  12  27  45  71 106 138 184 234 287 350 417
#     4  12  25  47  68 100 146 180 230 288 346 422
#     4  11  24  44  68 102 138 179 227 294 343 403
#
# _framework density 23.103449000000001
#
# number of rings (size 3 to 8) (size 9 to 14) (size 15 to 20)
#    0.000    0.667    6.667    2.500    2.333    0.667 
#    6.000    0.000    0.000    0.000    0.000    0.000 
#    0.000    0.000    0.000    0.000    0.000    0.000 
#
# Total GULP energy -297375.494883 kJ/mol
# GULP energy per Si atom -12390.645620 kJ/mol
# Density = 2.305086 g / cm^3
# Si number density = 23.103449 Si / 1000 Ang^3
#
#
#
# Elastic Constant Matrix: (Units=GPa)
#
#
# Indices 1 2 3 4 5 6 
#
# 1 113.7487 10.7129 19.9977 0.0000 -3.1005 0.0000
# 2 10.7129 40.3230 2.5674 0.0000 4.8578 0.0000
# 3 19.9977 2.5674 59.8937 0.0000 -5.2921 0.0000
# 4 0.0000 0.0000 0.0000 34.1849 0.0000 3.6689
# 5 -3.1005 4.8578 -5.2921 0.0000 48.2688 0.0000
# 6 0.0000 0.0000 0.0000 3.6689 0.0000 35.1235
#
#
#
# Elastic Compliance Matrix: (Units=1/GPa)
#
#
# Indices 1 2 3 4 5 6 
#
# 1 0.009568 -0.002411 -0.003045 0.000000 0.000523 0.000000
# 2 -0.002411 0.025814 -0.000550 0.000000 -0.002813 0.000000
# 3 -0.003045 -0.000550 0.017898 0.000000 0.001822 0.000000
# 4 0.000000 0.000000 0.000000 0.029584 0.000000 -0.003090
# 5 0.000523 -0.002813 0.001822 0.000000 0.021234 0.000000
# 6 0.000000 0.000000 0.000000 -0.003090 0.000000 0.028794
#
#
# Mechanical properties :
#
#
# Convention : Reuss Voigt Hill
#
# Bulk Modulus (GPa) = 24.23227 31.16905 27.70066
# Shear Modulus (GPa) = 31.51393 35.56126 33.53759
#
# Velocity S-wave (km/s) = 3.69729 3.92754 3.81416
# Velocity P-wave (km/s) = 5.36078 5.83848 5.60472
#
# Compressibility (1/GPa) = 0.04126729
#
# Stress axis : x y z
#
# Youngs Moduli (GPa) = 104.51511 38.73823 55.87369
#
# Poissons Ratio (x) = 0.09341 0.17014
# Poissons Ratio (y) = 0.25201 0.03073
# Poissons Ratio (z) = 0.31825 0.02131
#
# Static dielectric constant tensor:
#      x y z
#    x 4.938300 0.000000 -0.126700 
#    y 0.000000 3.785610 0.000000 
#    z -0.126700 0.000000 4.036550 
# 
# 
# High freq. dielectric constant tensor:
#      x y z
#    x 1.938620 0.000000 0.000550 
#    y 0.000000 1.888970 0.000000 
#    z 0.000550 0.000000 1.907280 
# 
# From -- ./inp_files/16609.got.cif
#   From: 2010.03.12/outbox.cif.g09.slc.cpg/sg14_9_cif.got.tgz:16609.got - 2010.03.31 13:35:05.
