data_PCOD8125452
_publ_section_title
;
Structure prediction by ZEFSAII (Michael W. Deem and Ramdas Pophale) SiO2 
 PCOD8125452
Probable space group: P 21/C
;
_chemical_formula_sum "Si O2"
_cell_formula_units_Z 32
_cell_length_a 17.965251
_cell_length_b 8.863060
_cell_length_c 20.180491
_cell_angle_alpha 90.000000
_cell_angle_beta 29.168188
_cell_angle_gamma 90.000000
_cell_volume 1566.072563
_symmetry_space_group_name_H-M "P 21/C"
_symmetry_group_IT_number 14
_symmetry_cell_setting 'monoclinic'
loop_
_space_group_symop_operation_xyz
x,y,z
-x,1/2+y,1/2-z
-x,-y,-z
x,1/2-y,1/2+z
loop_
_atom_site_type_symbol
_atom_site_label
_atom_site_fract_x
_atom_site_fract_y
_atom_site_fract_z
Si Si1 0.606756 0.535033 0.355578
Si Si2 0.064408 0.536401 0.136880
Si Si3 0.664488 0.279782 0.133356
Si Si4 0.405602 0.024787 0.885969
Si Si5 0.901745 0.822810 0.882073
Si Si6 0.887480 0.799517 0.664817
Si Si7 0.176129 0.782066 0.354916
Si Si8 0.951064 0.028965 0.113267
O O1 0.500000 0.500000 0.500000
O O2 0.502857 0.534685 0.372037
O O3 0.707066 0.687346 0.285912
O O4 0.748152 0.421229 0.240227
O O5 0.080294 0.356618 0.128591
O O6 0.031250 0.605851 0.234685
O O7 0.931669 0.583075 0.188542
O O8 0.223647 0.605326 0.989941
O O9 0.650622 0.124462 0.106027
O O10 0.504983 0.367876 0.261447
O O11 0.727617 0.232379 0.155987
O O12 0.262369 0.127030 0.019557
O O13 0.919065 0.895478 0.941745
O O14 0.901033 0.629680 0.684040
O O15 0.001225 0.820879 0.513189
O O16 0.183326 0.651805 0.292725
O O17 0.000000 0.000000 0.000000
#
# Coordination Sequence:
#
# PCOD8125452 Si02
#       8
#     4   4   4   4   4   4   4   4
#     4  11  23  37  56  84 120 157 191 236 294 352
#     4  11  23  40  64  90 118 155 201 252 301 350
#     4  10  22  39  58  87 121 159 203 246 294 354
#     4  11  23  39  59  87 123 160 197 241 296 358
#     4  12  23  39  62  90 120 155 196 250 303 354
#     4  10  20  39  61  86 113 149 200 246 291 351
#     4   9  20  38  59  84 115 152 200 246 287 343
#     4  10  21  37  64  92 116 149 199 253 293 346
#
# _framework density 20.433281000000001
#
# number of rings (size 3 to 8) (size 9 to 14) (size 15 to 20)
#    0.000    1.500    0.000    6.375    0.000    9.000 
#    0.000    0.625    0.000    0.000    0.000    0.000 
#    0.000    0.000    0.000    0.000    0.000    0.000 
#
# Total GULP energy -396644.900584 kJ/mol
# GULP energy per Si atom -12395.153143 kJ/mol
# Density = 2.038677 g / cm^3
# Si number density = 20.433281 Si / 1000 Ang^3
#
#
#
# Elastic Constant Matrix: (Units=GPa)
#
#
# Indices 1 2 3 4 5 6 
#
# 1 79.8124 49.3412 29.9982 0.0000 -9.1136 0.0000
# 2 49.3412 141.0453 41.8997 0.0000 -13.9331 0.0000
# 3 29.9982 41.8997 94.6004 0.0000 -3.1417 0.0000
# 4 0.0000 0.0000 0.0000 19.0395 0.0000 -3.3145
# 5 -9.1136 -13.9331 -3.1417 0.0000 28.5767 0.0000
# 6 0.0000 0.0000 0.0000 -3.3145 0.0000 33.0793
#
#
#
# Elastic Compliance Matrix: (Units=1/GPa)
#
#
# Indices 1 2 3 4 5 6 
#
# 1 0.016959 -0.004709 -0.003200 0.000000 0.002761 0.000000
# 2 -0.004709 0.009857 -0.002773 0.000000 0.002999 0.000000
# 3 -0.003200 -0.002773 0.012782 0.000000 -0.000967 0.000000
# 4 0.000000 0.000000 0.000000 0.053455 0.000000 0.005356
# 5 0.002761 0.002999 -0.000967 0.000000 0.037230 0.000000
# 6 0.000000 0.000000 0.000000 0.005356 0.000000 0.030767
#
#
# Mechanical properties :
#
#
# Convention : Reuss Voigt Hill
#
# Bulk Modulus (GPa) = 54.84615 61.99292 58.41953
# Shear Modulus (GPa) = 26.52631 29.08705 27.80668
#
# Velocity S-wave (km/s) = 3.60695 3.77704 3.69298
# Velocity P-wave (km/s) = 6.65182 7.03039 6.84372
#
# Compressibility (1/GPa) = 0.01823282
#
# Stress axis : x y z
#
# Youngs Moduli (GPa) = 58.96658 101.44677 78.23701
#
# Poissons Ratio (x) = 0.47773 0.25038
# Poissons Ratio (y) = 0.27769 0.21695
# Poissons Ratio (z) = 0.18871 0.28131
#
# Static dielectric constant tensor:
#      x y z
#    x 3.892050 0.000000 -0.072880 
#    y 0.000000 4.328100 0.000000 
#    z -0.072880 0.000000 3.740860 
# 
# 
# High freq. dielectric constant tensor:
#      x y z
#    x 1.804930 0.000000 -0.002980 
#    y 0.000000 1.814530 0.000000 
#    z -0.002980 0.000000 1.783860 
# 
# From -- ./inp_files/69141.got.cif
#   From: 2010.03.12/outbox.cif.g09.slc.cpg/sg14_35_cif.got.tgz:69141.got - 2010.03.31 13:35:05.
