data_PCOD8125456
_publ_section_title
;
Structure prediction by ZEFSAII (Michael W. Deem and Ramdas Pophale) SiO2 
 PCOD8125456
Probable space group: P 21/C
;
_chemical_formula_sum "Si O2"
_cell_formula_units_Z 20
_cell_length_a 21.190705
_cell_length_b 8.952184
_cell_length_c 7.755202
_cell_angle_alpha 90.000000
_cell_angle_beta 143.838561
_cell_angle_gamma 90.000000
_cell_volume 868.091469
_symmetry_space_group_name_H-M "P 21/C"
_symmetry_group_IT_number 14
_symmetry_cell_setting 'monoclinic'
loop_
_space_group_symop_operation_xyz
x,y,z
-x,1/2+y,1/2-z
-x,-y,-z
x,1/2-y,1/2+z
loop_
_atom_site_type_symbol
_atom_site_label
_atom_site_fract_x
_atom_site_fract_y
_atom_site_fract_z
Si Si1 0.881807 0.048104 0.196417
Si Si2 0.650065 0.135371 0.060377
Si Si3 0.440524 0.373552 0.261500
Si Si4 0.202791 0.658070 0.822178
Si Si5 0.328932 0.097911 0.175544
O O1 0.867410 0.213625 0.242796
O O2 0.869617 0.052375 0.959754
O O3 0.000000 0.000000 0.500000
O O4 0.799468 0.930425 0.103594
O O5 0.729251 0.066342 0.383815
O O6 0.707703 0.274159 0.103682
O O7 0.540829 0.209730 0.891695
O O8 0.619638 0.007497 0.856803
O O9 0.500000 0.500000 0.500000
O O10 0.365629 0.266515 0.212697
O O11 0.367148 0.445915 0.951106
#
# Coordination Sequence:
#
# PCOD8125456 Si02
#       5
#     4   4   4   4   4
#     4  10  22  42  66  92 126 171 223 284 331 374
#     4  10  20  39  61  87 125 170 206 254 318 393
#     4  12  24  40  62  93 133 166 203 264 322 389
#     4   9  20  40  64  90 124 167 220 268 324 387
#     4  11  25  41  62  94 126 172 222 254 321 405
#
# _framework density 23.039047
#
# number of rings (size 3 to 8) (size 9 to 14) (size 15 to 20)
#    0.000    1.600    0.000    4.200    0.000    8.000 
#    0.000    9.000    0.000    0.000    0.000    0.000 
#    0.000    0.000    0.000    0.000    0.000    0.000 
#
# Total GULP energy -247875.215024 kJ/mol
# GULP energy per Si atom -12393.760751 kJ/mol
# Density = 2.298661 g / cm^3
# Si number density = 23.039047 Si / 1000 Ang^3
#
#
#
# Elastic Constant Matrix: (Units=GPa)
#
#
# Indices 1 2 3 4 5 6 
#
# 1 87.8986 29.5679 61.7718 0.0000 -7.5040 0.0000
# 2 29.5679 81.2766 55.1693 0.0000 -4.7767 0.0000
# 3 61.7718 55.1693 168.8328 0.0000 -6.7066 0.0000
# 4 0.0000 0.0000 0.0000 38.2755 0.0000 -3.2154
# 5 -7.5040 -4.7767 -6.7066 0.0000 53.0772 0.0000
# 6 0.0000 0.0000 0.0000 -3.2154 0.0000 23.7848
#
#
#
# Elastic Compliance Matrix: (Units=1/GPa)
#
#
# Indices 1 2 3 4 5 6 
#
# 1 0.015750 -0.002279 -0.004962 0.000000 0.001395 0.000000
# 2 -0.002279 0.016172 -0.004428 0.000000 0.000574 0.000000
# 3 -0.004962 -0.004428 0.009188 0.000000 0.000061 0.000000
# 4 0.000000 0.000000 0.000000 0.026426 0.000000 0.003573
# 5 0.001395 0.000574 0.000061 0.000000 0.019097 0.000000
# 6 0.000000 0.000000 0.000000 0.003573 0.000000 0.042527
#
#
# Mechanical properties :
#
#
# Convention : Reuss Voigt Hill
#
# Bulk Modulus (GPa) = 56.27163 70.11398 63.19280
# Shear Modulus (GPa) = 31.56120 35.79411 33.67766
#
# Velocity S-wave (km/s) = 3.70523 3.94589 3.82745
# Velocity P-wave (km/s) = 6.54083 7.15952 6.85716
#
# Compressibility (1/GPa) = 0.01777095
#
# Stress axis : x y z
#
# Youngs Moduli (GPa) = 63.49271 61.83478 108.83932
#
# Poissons Ratio (x) = 0.14095 0.54009
# Poissons Ratio (y) = 0.14473 0.48192
# Poissons Ratio (z) = 0.31507 0.27379
#
# Static dielectric constant tensor:
#      x y z
#    x 4.700620 0.000000 -0.470950 
#    y 0.000000 3.893440 0.000000 
#    z -0.470950 0.000000 4.586860 
# 
# 
# High freq. dielectric constant tensor:
#      x y z
#    x 1.920780 0.000000 -0.021330 
#    y 0.000000 1.879560 0.000000 
#    z -0.021330 0.000000 1.919580 
# 
# From -- ./inp_files/19385.got.cif
#   From: 2010.03.12/outbox.cif.g09.slc.cpg/sg14_10_cif.got.tgz:19385.got - 2010.03.31 13:35:05.
