data_PCOD8125956
_publ_section_title
;
Structure prediction by ZEFSAII (Michael W. Deem and Ramdas Pophale) SiO2 
 PCOD8125956
Probable space group: P 21/C
;
_chemical_formula_sum "Si O2"
_cell_formula_units_Z 28
_cell_length_a 10.949905
_cell_length_b 15.798025
_cell_length_c 8.793425
_cell_angle_alpha 90.000000
_cell_angle_beta 59.796818
_cell_angle_gamma 90.000000
_cell_volume 1314.646606
_symmetry_space_group_name_H-M "P 21/C"
_symmetry_group_IT_number 14
_symmetry_cell_setting 'monoclinic'
loop_
_space_group_symop_operation_xyz
x,y,z
-x,1/2+y,1/2-z
-x,-y,-z
x,1/2-y,1/2+z
loop_
_atom_site_type_symbol
_atom_site_label
_atom_site_fract_x
_atom_site_fract_y
_atom_site_fract_z
Si Si1 0.077438 0.433099 0.849340
Si Si2 0.592491 0.773276 0.433561
Si Si3 0.968748 0.317609 0.669605
Si Si4 0.586497 0.323160 0.211672
Si Si5 0.213283 0.294165 0.941365
Si Si6 0.655715 0.459640 0.380384
Si Si7 0.199019 0.813138 0.019849
O O1 0.096198 0.358315 0.958046
O O2 0.227117 0.467034 0.693114
O O3 0.977257 0.398997 0.775903
O O4 0.000000 0.500000 0.000000
O O5 0.485331 0.834576 0.409727
O O6 0.520193 0.704394 0.588112
O O7 0.702120 0.829130 0.463694
O O8 0.672725 0.717821 0.260278
O O9 0.903507 0.347707 0.549474
O O10 0.886327 0.237738 0.796560
O O11 0.131425 0.291330 0.539016
O O12 0.653693 0.412843 0.217423
O O13 0.701599 0.250899 0.130951
O O14 0.500000 0.500000 0.500000
O O15 0.705109 0.389577 0.474324
#
# Coordination Sequence:
#
# PCOD8125956 Si02
#       7
#     4   4   4   4   4   4   4
#     4  12  26  44  68 101 148 177 221 299 361 397
#     4  10  21  36  71  95 121 169 243 270 322 403
#     4  12  23  43  74 100 129 188 245 278 335 429
#     4  11  21  42  68  95 130 182 231 271 337 428
#     4  11  21  41  67  99 128 173 235 285 328 414
#     4  12  27  44  66 105 148 176 218 303 365 393
#     4  12  23  44  73  99 134 187 243 278 337 434
#
# _framework density 21.298500000000001
#
# number of rings (size 3 to 8) (size 9 to 14) (size 15 to 20)
#    0.000    0.571    5.714    2.571    4.000    0.571 
#    2.571    0.714    0.000    0.000    0.000    0.000 
#    0.000    0.000    0.000    0.000    0.000    0.000 
#
# Total GULP energy -347046.213572 kJ/mol
# GULP energy per Si atom -12394.507628 kJ/mol
# Density = 2.125002 g / cm^3
# Si number density = 21.298500 Si / 1000 Ang^3
#
#
#
# Elastic Constant Matrix: (Units=GPa)
#
#
# Indices 1 2 3 4 5 6 
#
# 1 140.9435 25.2580 33.6585 0.0000 28.8313 0.0000
# 2 25.2580 64.3195 13.5253 0.0000 1.9503 0.0000
# 3 33.6585 13.5253 79.4263 0.0000 0.9562 0.0000
# 4 0.0000 0.0000 0.0000 36.3033 0.0000 0.8680
# 5 28.8313 1.9503 0.9562 0.0000 50.2109 0.0000
# 6 0.0000 0.0000 0.0000 0.8680 0.0000 38.4764
#
#
#
# Elastic Compliance Matrix: (Units=1/GPa)
#
#
# Indices 1 2 3 4 5 6 
#
# 1 0.009519 -0.002845 -0.003486 0.000000 -0.005289 0.000000
# 2 -0.002845 0.016991 -0.001700 0.000000 0.001006 0.000000
# 3 -0.003486 -0.001700 0.014335 0.000000 0.001795 0.000000
# 4 0.000000 0.000000 0.000000 0.027561 0.000000 -0.000622
# 5 -0.005289 0.001006 0.001795 0.000000 0.022880 0.000000
# 6 0.000000 0.000000 0.000000 -0.000622 0.000000 0.026004
#
#
# Mechanical properties :
#
#
# Convention : Reuss Voigt Hill
#
# Bulk Modulus (GPa) = 40.34730 47.73031 44.03880
# Shear Modulus (GPa) = 35.30742 39.14796 37.22769
#
# Velocity S-wave (km/s) = 4.07596 4.29191 4.18533
# Velocity P-wave (km/s) = 6.41374 6.85708 6.63911
#
# Compressibility (1/GPa) = 0.02478481
#
# Stress axis : x y z
#
# Youngs Moduli (GPa) = 105.05053 58.85296 69.75749
#
# Poissons Ratio (x) = 0.16742 0.24316
# Poissons Ratio (y) = 0.29884 0.11859
# Poissons Ratio (z) = 0.36619 0.10005
#
# Static dielectric constant tensor:
#      x y z
#    x 4.307050 0.000000 -0.279050 
#    y 0.000000 3.918410 0.000000 
#    z -0.279050 0.000000 2.918070 
# 
# 
# High freq. dielectric constant tensor:
#      x y z
#    x 1.864680 0.000000 0.001810 
#    y 0.000000 1.800330 0.000000 
#    z 0.001810 0.000000 1.844940 
# 
# From -- ./inp_files/13006.got.cif
#   From: 2010.03.12/outbox.cif.g09.slc.cpg/sg14_7_cif.got.tgz:13006.got - 2010.03.31 13:35:05.
