data_PCOD8125163
_publ_section_title
;
Structure prediction by ZEFSAII (Michael W. Deem and Ramdas Pophale) SiO2 
 PCOD8125163
Probable space group: P 21/C
;
_chemical_formula_sum "Si O2"
_cell_formula_units_Z 28
_cell_length_a 12.272166
_cell_length_b 19.903609
_cell_length_c 5.469383
_cell_angle_alpha 90.000000
_cell_angle_beta 85.552740
_cell_angle_gamma 90.000000
_cell_volume 1331.931264
_symmetry_space_group_name_H-M "P 21/C"
_symmetry_group_IT_number 14
_symmetry_cell_setting 'monoclinic'
loop_
_space_group_symop_operation_xyz
x,y,z
-x,1/2+y,1/2-z
-x,-y,-z
x,1/2-y,1/2+z
loop_
_atom_site_type_symbol
_atom_site_label
_atom_site_fract_x
_atom_site_fract_y
_atom_site_fract_z
Si Si1 0.548100 0.713513 0.258307
Si Si2 0.836241 0.539145 0.611091
Si Si3 0.622687 0.584290 0.457474
Si Si4 0.771183 0.413233 0.910076
Si Si5 0.561255 0.456211 0.187914
Si Si6 0.050717 0.949546 0.301272
Si Si7 0.290151 0.786465 0.818466
O O1 0.587359 0.751838 0.499416
O O2 0.605019 0.639914 0.251017
O O3 0.419161 0.704334 0.288314
O O4 0.743765 0.592815 0.551096
O O5 0.784684 0.490498 0.826462
O O6 0.869696 0.490355 0.387857
O O7 0.944419 0.580997 0.679223
O O8 0.616242 0.507355 0.369213
O O9 0.525712 0.594386 0.672662
O O10 0.768178 0.359567 0.689901
O O11 0.654521 0.407221 0.067230
O O12 0.873361 0.394939 0.072419
O O13 0.500000 0.500000 0.000000
O O14 0.000000 0.000000 0.500000
O O15 0.251893 0.745482 0.581808
#
# Coordination Sequence:
#
# PCOD8125163 Si02
#       7
#     4   4   4   4   4   4   4
#     4  10  24  41  58  82 122 174 211 240 286 362
#     4  10  20  37  59  89 117 153 197 251 317 361
#     4  11  23  35  58  88 123 155 201 246 305 368
#     4  11  21  35  61  85 125 157 196 254 308 371
#     4  11  22  33  53  93 122 151 185 251 319 360
#     4   9  20  37  57  86 116 152 194 241 316 368
#     4  10  24  39  58  85 122 168 211 244 295 361
#
# _framework density 21.022103999999999
#
# number of rings (size 3 to 8) (size 9 to 14) (size 15 to 20)
#    0.000    1.714    2.857    0.857   12.000    0.000 
#    0.000    0.000    0.000    1.714    0.000    0.000 
#    0.000    0.000    0.000    0.000    0.000    0.000 
#
# Total GULP energy -347052.340276 kJ/mol
# GULP energy per Si atom -12394.726438 kJ/mol
# Density = 2.097426 g / cm^3
# Si number density = 21.022104 Si / 1000 Ang^3
#
#
#
# Elastic Constant Matrix: (Units=GPa)
#
#
# Indices 1 2 3 4 5 6 
#
# 1 117.5407 25.5596 36.8806 0.0000 16.4007 0.0000
# 2 25.5596 58.1800 14.1964 0.0000 17.6107 0.0000
# 3 36.8806 14.1964 94.3199 0.0000 16.4141 0.0000
# 4 0.0000 0.0000 0.0000 34.4936 0.0000 12.5544
# 5 16.4007 17.6107 16.4141 0.0000 32.8984 0.0000
# 6 0.0000 0.0000 0.0000 12.5544 0.0000 20.3792
#
#
#
# Elastic Compliance Matrix: (Units=1/GPa)
#
#
# Indices 1 2 3 4 5 6 
#
# 1 0.010508 -0.003251 -0.003297 0.000000 -0.001853 0.000000
# 2 -0.003251 0.021661 -0.000277 0.000000 -0.009836 0.000000
# 3 -0.003297 -0.000277 0.012726 0.000000 -0.004557 0.000000
# 4 0.000000 0.000000 0.000000 0.037370 0.000000 -0.023021
# 5 -0.001853 -0.009836 -0.004557 0.000000 0.038860 0.000000
# 6 0.000000 0.000000 0.000000 -0.023021 0.000000 0.063252
#
#
# Mechanical properties :
#
#
# Convention : Reuss Voigt Hill
#
# Bulk Modulus (GPa) = 32.00512 47.03488 39.52000
# Shear Modulus (GPa) = 23.98755 30.44783 27.21769
#
# Velocity S-wave (km/s) = 3.38163 3.80988 3.60212
# Velocity P-wave (km/s) = 5.52311 6.46345 6.01169
#
# Compressibility (1/GPa) = 0.03124500
#
# Stress axis : x y z
#
# Youngs Moduli (GPa) = 95.16906 46.16539 78.57801
#
# Poissons Ratio (x) = 0.15007 0.25906
# Poissons Ratio (y) = 0.30937 0.02180
# Poissons Ratio (z) = 0.31376 0.01281
#
# Static dielectric constant tensor:
#      x y z
#    x 4.194120 0.000000 0.372220 
#    y 0.000000 3.437050 0.000000 
#    z 0.372220 0.000000 4.092680 
# 
# 
# High freq. dielectric constant tensor:
#      x y z
#    x 1.817430 0.000000 0.017130 
#    y 0.000000 1.776080 0.000000 
#    z 0.017130 0.000000 1.839970 
# 
# From -- ./inp_files/2864.got.cif
#   From: 2010.03.12/outbox.cif.g09.slc.cpg/sg14_2_cif.got.tgz:2864.got - 2010.03.31 13:35:05.
