data_PCOD8125732
_publ_section_title
;
Structure prediction by ZEFSAII (Michael W. Deem and Ramdas Pophale) SiO2 
 PCOD8125732
Probable space group: P 21/C
;
_chemical_formula_sum "Si O2"
_cell_formula_units_Z 24
_cell_length_a 8.915266
_cell_length_b 17.563586
_cell_length_c 11.507649
_cell_angle_alpha 90.000000
_cell_angle_beta 138.103409
_cell_angle_gamma 90.000000
_cell_volume 1203.297154
_symmetry_space_group_name_H-M "P 21/C"
_symmetry_group_IT_number 14
_symmetry_cell_setting 'monoclinic'
loop_
_space_group_symop_operation_xyz
x,y,z
-x,1/2+y,1/2-z
-x,-y,-z
x,1/2-y,1/2+z
loop_
_atom_site_type_symbol
_atom_site_label
_atom_site_fract_x
_atom_site_fract_y
_atom_site_fract_z
Si Si1 0.166921 0.262629 0.519731
Si Si2 0.072823 0.107195 0.135802
Si Si3 0.666179 0.006556 0.846179
Si Si4 0.745967 0.604859 0.850063
Si Si5 0.103182 0.863319 0.718309
Si Si6 0.625492 0.888331 0.019762
O O1 0.107314 0.310325 0.599473
O O2 0.323496 0.191287 0.650901
O O3 0.937555 0.226903 0.331526
O O4 0.293936 0.311962 0.496497
O O5 0.047060 0.114832 0.257596
O O6 0.288047 0.053344 0.231611
O O7 0.852201 0.072035 0.949213
O O8 0.423964 0.044403 0.691422
O O9 0.683066 0.962699 0.978804
O O10 0.996419 0.588729 0.047733
O O11 0.750957 0.599786 0.713821
O O12 0.359745 0.882803 0.887950
#
# Coordination Sequence:
#
# PCOD8125732 Si02
#       6
#     4   4   4   4   4   4
#     4   9  23  38  61  90 118 157 198 243 297 347
#     4  10  20  42  60  87 122 160 196 236 302 351
#     4  10  22  38  65  82 122 164 190 243 298 352
#     4  10  22  37  62  91 114 154 203 238 298 348
#     4  10  23  35  65  86 116 154 197 251 285 347
#     4  11  21  42  59  86 123 156 197 247 292 350
#
# _framework density 19.945198999999999
#
# number of rings (size 3 to 8) (size 9 to 14) (size 15 to 20)
#    1.000    1.000    1.667    1.500    2.333    1.333 
#    0.000    0.000    7.333    0.000    0.000    0.000 
#    0.000    0.000    0.000    0.000    0.000    0.000 
#
# Total GULP energy -297438.614091 kJ/mol
# GULP energy per Si atom -12393.275587 kJ/mol
# Density = 1.989980 g / cm^3
# Si number density = 19.945199 Si / 1000 Ang^3
#
#
#
# Elastic Constant Matrix: (Units=GPa)
#
#
# Indices 1 2 3 4 5 6 
#
# 1 97.7525 10.3820 27.1723 0.0000 -16.3285 0.0000
# 2 10.3820 58.3925 -2.3291 0.0000 -4.4716 0.0000
# 3 27.1723 -2.3291 74.5051 0.0000 -20.4091 0.0000
# 4 0.0000 0.0000 0.0000 18.9255 0.0000 4.1117
# 5 -16.3285 -4.4716 -20.4091 0.0000 21.5180 0.0000
# 6 0.0000 0.0000 0.0000 4.1117 0.0000 21.2741
#
#
#
# Elastic Compliance Matrix: (Units=1/GPa)
#
#
# Indices 1 2 3 4 5 6 
#
# 1 0.012248 -0.001811 -0.002811 0.000000 0.006252 0.000000
# 2 -0.001811 0.017911 0.002518 0.000000 0.004736 0.000000
# 3 -0.002811 0.002518 0.019029 0.000000 0.016438 0.000000
# 4 0.000000 0.000000 0.000000 0.055155 0.000000 -0.010660
# 5 0.006252 0.004736 0.016438 0.000000 0.067792 0.000000
# 6 0.000000 0.000000 0.000000 -0.010660 0.000000 0.049066
#
#
# Mechanical properties :
#
#
# Convention : Reuss Voigt Hill
#
# Bulk Modulus (GPa) = 22.23293 33.45561 27.84427
# Shear Modulus (GPa) = 20.79860 25.37185 23.08523
#
# Velocity S-wave (km/s) = 3.23273 3.57049 3.40580
# Velocity P-wave (km/s) = 5.01051 5.81447 5.42740
#
# Compressibility (1/GPa) = 0.04497832
#
# Stress axis : x y z
#
# Youngs Moduli (GPa) = 81.64667 55.83308 52.55224
#
# Poissons Ratio (x) = 0.10111 0.14772
# Poissons Ratio (y) = 0.14786 -0.13231
# Poissons Ratio (z) = 0.22951 -0.14057
#
# Static dielectric constant tensor:
#      x y z
#    x 3.625530 0.000000 -0.074650 
#    y 0.000000 3.781700 0.000000 
#    z -0.074650 0.000000 3.304200 
# 
# 
# High freq. dielectric constant tensor:
#      x y z
#    x 1.780450 0.000000 -0.010440 
#    y 0.000000 1.791620 0.000000 
#    z -0.010440 0.000000 1.753450 
# 
# From -- ./inp_files/26703.got.cif
#   From: 2010.03.12/outbox.cif.g09.slc.cpg/sg14_14_cif.got.tgz:26703.got - 2010.03.31 13:35:05.
