data_PCOD8125372
_publ_section_title
;
Structure prediction by ZEFSAII (Michael W. Deem and Ramdas Pophale) SiO2 
 PCOD8125372
Probable space group: P 21/C
;
_chemical_formula_sum "Si O2"
_cell_formula_units_Z 28
_cell_length_a 21.227764
_cell_length_b 13.061269
_cell_length_c 14.979312
_cell_angle_alpha 90.000000
_cell_angle_beta 161.664899
_cell_angle_gamma 90.000000
_cell_volume 1306.484837
_symmetry_space_group_name_H-M "P 21/C"
_symmetry_group_IT_number 14
_symmetry_cell_setting 'monoclinic'
loop_
_space_group_symop_operation_xyz
x,y,z
-x,1/2+y,1/2-z
-x,-y,-z
x,1/2-y,1/2+z
loop_
_atom_site_type_symbol
_atom_site_label
_atom_site_fract_x
_atom_site_fract_y
_atom_site_fract_z
Si Si1 0.664732 0.994792 0.886465
Si Si2 0.203891 0.311759 0.553191
Si Si3 0.524497 0.167203 0.022984
Si Si4 0.153024 0.693367 0.458247
Si Si5 0.467936 0.489728 0.592953
Si Si6 0.252166 0.435366 0.778441
Si Si7 0.884111 0.934662 0.716456
O O1 0.657318 0.984781 0.983620
O O2 0.441359 0.988634 0.544476
O O3 0.789427 0.900401 0.013467
O O4 0.764259 0.104047 0.994627
O O5 0.309087 0.345532 0.787680
O O6 0.971877 0.281238 0.262512
O O7 0.345552 0.214606 0.721600
O O8 0.680170 0.256155 0.255884
O O9 0.442180 0.116080 0.004014
O O10 0.621841 0.081023 0.089321
O O11 0.971836 0.656817 0.277439
O O12 0.705769 0.504643 0.928002
O O13 0.195818 0.387948 0.798105
O O14 0.067602 0.489758 0.482031
#
# Coordination Sequence:
#
# PCOD8125372 Si02
#       7
#     4   4   4   4   4   4   4
#     4  11  24  42  67  95 131 171 218 272 320 384
#     4  12  23  39  67  97 129 166 220 267 320 384
#     4  11  24  42  67  94 132 172 210 271 324 381
#     4  12  24  39  68  97 129 170 219 266 323 385
#     4  10  24  45  64  93 135 174 211 266 333 384
#     4  10  20  38  63  90 124 165 212 264 316 375
#     4  10  20  38  63  91 125 165 211 261 318 383
#
# _framework density 21.431553999999998
#
# number of rings (size 3 to 8) (size 9 to 14) (size 15 to 20)
#    0.000    1.143    4.286    2.143    0.000    3.429 
#    0.000    1.429    0.000    0.000    0.000    0.000 
#    0.000    0.000    0.000    0.000    0.000    0.000 
#
# Total GULP energy -347081.247463 kJ/mol
# GULP energy per Si atom -12395.758838 kJ/mol
# Density = 2.138277 g / cm^3
# Si number density = 21.431554 Si / 1000 Ang^3
#
#
#
# Elastic Constant Matrix: (Units=GPa)
#
#
# Indices 1 2 3 4 5 6 
#
# 1 129.4965 49.3246 29.9885 0.0000 -0.6960 0.0000
# 2 49.3246 96.0307 38.3690 0.0000 3.1443 0.0000
# 3 29.9885 38.3690 88.9558 0.0000 2.4571 0.0000
# 4 0.0000 0.0000 0.0000 34.1055 0.0000 3.4022
# 5 -0.6960 3.1443 2.4571 0.0000 28.0383 0.0000
# 6 0.0000 0.0000 0.0000 3.4022 0.0000 19.1848
#
#
#
# Elastic Compliance Matrix: (Units=1/GPa)
#
#
# Indices 1 2 3 4 5 6 
#
# 1 0.009756 -0.004489 -0.001376 0.000000 0.000866 0.000000
# 2 -0.004489 0.014672 -0.004778 0.000000 -0.001338 0.000000
# 3 -0.001376 -0.004778 0.013786 0.000000 -0.000706 0.000000
# 4 0.000000 0.000000 0.000000 0.029849 0.000000 -0.005293
# 5 0.000866 -0.001338 -0.000706 0.000000 0.035899 0.000000
# 6 0.000000 0.000000 0.000000 -0.005293 0.000000 0.053063
#
#
# Mechanical properties :
#
#
# Convention : Reuss Voigt Hill
#
# Bulk Modulus (GPa) = 59.07997 61.09411 60.08704
# Shear Modulus (GPa) = 27.18074 29.38580 28.28327
#
# Velocity S-wave (km/s) = 3.56512 3.70692 3.63671
# Velocity P-wave (km/s) = 6.67634 6.84764 6.76253
#
# Compressibility (1/GPa) = 0.01692621
#
# Stress axis : x y z
#
# Youngs Moduli (GPa) = 102.50599 68.15684 72.53760
#
# Poissons Ratio (x) = 0.30597 0.09984
# Poissons Ratio (y) = 0.46017 0.34659
# Poissons Ratio (z) = 0.14109 0.32566
#
# Static dielectric constant tensor:
#      x y z
#    x 3.935500 0.000000 -0.036620 
#    y 0.000000 3.877820 0.000000 
#    z -0.036620 0.000000 3.889170 
# 
# 
# High freq. dielectric constant tensor:
#      x y z
#    x 1.835650 0.000000 -0.005560 
#    y 0.000000 1.840290 0.000000 
#    z -0.005560 0.000000 1.849150 
# 
# From -- ./inp_files/50585.got.cif
#   From: 2010.03.12/outbox.cif.g09.slc.cpg/sg14_26_cif.got.tgz:50585.got - 2010.03.31 13:35:05.
