data_PCOD8125971
_publ_section_title
;
Structure prediction by ZEFSAII (Michael W. Deem and Ramdas Pophale) SiO2 
 PCOD8125971
Probable space group: P 21/C
;
_chemical_formula_sum "Si O2"
_cell_formula_units_Z 24
_cell_length_a 17.460855
_cell_length_b 4.957838
_cell_length_c 12.270701
_cell_angle_alpha 90.000000
_cell_angle_beta 90.093767
_cell_angle_gamma 90.000000
_cell_volume 1062.249731
_symmetry_space_group_name_H-M "P 21/C"
_symmetry_group_IT_number 14
_symmetry_cell_setting 'monoclinic'
loop_
_space_group_symop_operation_xyz
x,y,z
-x,1/2+y,1/2-z
-x,-y,-z
x,1/2-y,1/2+z
loop_
_atom_site_type_symbol
_atom_site_label
_atom_site_fract_x
_atom_site_fract_y
_atom_site_fract_z
Si Si1 0.224576 0.500833 0.039236
Si Si2 0.669965 0.139656 0.275061
Si Si3 0.995568 0.537875 0.675877
Si Si4 0.350590 0.361140 0.869671
Si Si5 0.490048 0.974459 0.680480
Si Si6 0.875498 0.493539 0.495298
O O1 0.252019 0.584435 0.159797
O O2 0.298083 0.405294 0.973034
O O3 0.164316 0.261002 0.049736
O O4 0.185544 0.757921 0.982175
O O5 0.672469 0.442907 0.230101
O O6 0.596364 0.102287 0.356669
O O7 0.662231 0.942367 0.171571
O O8 0.916188 0.558432 0.609857
O O9 0.005855 0.238619 0.722457
O O10 0.064627 0.610413 0.594709
O O11 0.440578 0.408419 0.904195
O O12 0.507302 0.789064 0.787715
#
# Coordination Sequence:
#
# PCOD8125971 Si02
#       6
#     4   4   4   4   4   4
#     4  12  24  38  60  90 124 154 186 240 296 344
#     4  10  21  37  57  83 117 158 200 242 290 338
#     4  11  24  45  70  88 114 157 190 229 290 344
#     4  10  21  37  57  83 117 158 200 242 290 338
#     4   8  16  33  54  77 110 152 202 247 276 329
#     4  11  26  42  60  95 122 142 196 241 274 356
#
# _framework density 22.59356
#
# number of rings (size 3 to 8) (size 9 to 14) (size 15 to 20)
#    0.000    1.667    0.000    4.000    0.000   11.333 
#    0.000    0.000    0.000   14.000    0.000    0.000 
#    0.000    0.000    0.000    0.000    0.000    0.000 
#
# Total GULP energy -297617.815986 kJ/mol
# GULP energy per Si atom -12400.742333 kJ/mol
# Density = 2.254214 g / cm^3
# Si number density = 22.593560 Si / 1000 Ang^3
#
#
#
# Elastic Constant Matrix: (Units=GPa)
#
#
# Indices 1 2 3 4 5 6 
#
# 1 70.5124 10.1903 9.9151 0.0000 12.6297 0.0000
# 2 10.1903 85.9267 -8.5311 0.0000 2.3491 0.0000
# 3 9.9151 -8.5311 34.9546 0.0000 -6.8507 0.0000
# 4 0.0000 0.0000 0.0000 29.2498 0.0000 -2.1428
# 5 12.6297 2.3491 -6.8507 0.0000 21.5728 0.0000
# 6 0.0000 0.0000 0.0000 -2.1428 0.0000 29.8972
#
#
#
# Elastic Compliance Matrix: (Units=1/GPa)
#
#
# Indices 1 2 3 4 5 6 
#
# 1 0.018035 -0.002608 -0.008281 0.000000 -0.012904 0.000000
# 2 -0.002608 0.012307 0.004031 0.000000 0.001467 0.000000
# 3 -0.008281 0.004031 0.034983 0.000000 0.015519 0.000000
# 4 0.000000 0.000000 0.000000 0.034369 0.000000 0.002463
# 5 -0.012904 0.001467 0.015519 0.000000 0.058678 0.000000
# 6 0.000000 0.000000 0.000000 0.002463 0.000000 0.033624
#
#
# Mechanical properties :
#
#
# Convention : Reuss Voigt Hill
#
# Bulk Modulus (GPa) = 19.37687 23.83805 21.60746
# Shear Modulus (GPa) = 22.43008 28.13193 25.28100
#
# Velocity S-wave (km/s) = 3.15423 3.53247 3.34870
# Velocity P-wave (km/s) = 4.67552 5.21646 4.95338
#
# Compressibility (1/GPa) = 0.05160793
#
# Stress axis : x y z
#
# Youngs Moduli (GPa) = 55.44901 81.25291 28.58543
#
# Poissons Ratio (x) = 0.21192 0.23672
# Poissons Ratio (y) = 0.14462 -0.11523
# Poissons Ratio (z) = 0.45919 -0.32754
#
# Static dielectric constant tensor:
#      x y z
#    x 4.402240 0.000000 -0.024710 
#    y 0.000000 4.057520 0.000000 
#    z -0.024710 0.000000 3.493620 
# 
# 
# High freq. dielectric constant tensor:
#      x y z
#    x 1.910020 0.000000 -0.004840 
#    y 0.000000 1.904140 0.000000 
#    z -0.004840 0.000000 1.853230 
# 
# From -- ./inp_files/33369.got.cif
#   From: 2010.03.12/outbox.cif.g09.slc.cpg/sg14_17_cif.got.tgz:33369.got - 2010.03.31 13:35:05.
