data_PCOD8125927
_publ_section_title
;
Structure prediction by ZEFSAII (Michael W. Deem and Ramdas Pophale) SiO2 
 PCOD8125927
Probable space group: P 21/C
;
_chemical_formula_sum "Si O2"
_cell_formula_units_Z 28
_cell_length_a 24.136162
_cell_length_b 5.341232
_cell_length_c 10.301533
_cell_angle_alpha 90.000000
_cell_angle_beta 122.283750
_cell_angle_gamma 90.000000
_cell_volume 1122.743667
_symmetry_space_group_name_H-M "P 21/C"
_symmetry_group_IT_number 14
_symmetry_cell_setting 'monoclinic'
loop_
_space_group_symop_operation_xyz
x,y,z
-x,1/2+y,1/2-z
-x,-y,-z
x,1/2-y,1/2+z
loop_
_atom_site_type_symbol
_atom_site_label
_atom_site_fract_x
_atom_site_fract_y
_atom_site_fract_z
Si Si1 0.298638 0.581688 0.609925
Si Si2 0.077686 0.432096 0.384124
Si Si3 0.044541 0.939146 0.434018
Si Si4 0.577597 0.976718 0.883006
Si Si5 0.189301 0.139650 0.824222
Si Si6 0.545822 0.476997 0.935552
Si Si7 0.241422 0.849920 0.311398
O O1 0.373584 0.495075 0.679424
O O2 0.247834 0.363029 0.504527
O O3 0.282778 0.822982 0.497656
O O4 0.290872 0.633932 0.752160
O O5 0.087163 0.680388 0.486541
O O6 0.120902 0.424559 0.308480
O O7 0.000806 0.421702 0.250952
O O8 0.093978 0.177898 0.485680
O O9 0.000000 0.000000 0.500000
O O10 0.587917 0.219293 0.989525
O O11 0.501380 0.964840 0.749346
O O12 0.593219 0.720844 0.982378
O O13 0.192947 0.408928 0.757335
O O14 0.199052 0.905539 0.737320
O O15 0.500000 0.500000 0.000000
#
# Coordination Sequence:
#
# PCOD8125927 Si02
#       7
#     4   4   4   4   4   4   4
#     4  10  26  42  67  94 132 168 220 260 331 378
#     4  10  21  39  57  89 121 155 210 251 307 380
#     4  10  21  36  61  86 121 161 201 253 315 364
#     4  10  23  38  61  90 119 161 204 255 311 375
#     4  10  24  39  64  92 126 169 216 262 324 377
#     4  10  22  40  60  89 121 158 205 252 314 368
#     4  10  25  42  64  93 129 169 215 265 321 384
#
# _framework density 24.938907
#
# number of rings (size 3 to 8) (size 9 to 14) (size 15 to 20)
#    0.857    1.143    0.000    1.714    6.000    2.286 
#    0.000    0.000    0.000    0.000    0.000    0.000 
#    0.000    0.000    0.000    0.000    0.000    0.000 
#
# Total GULP energy -346926.243498 kJ/mol
# GULP energy per Si atom -12390.222982 kJ/mol
# Density = 2.488214 g / cm^3
# Si number density = 24.938907 Si / 1000 Ang^3
#
#
#
# Elastic Constant Matrix: (Units=GPa)
#
#
# Indices 1 2 3 4 5 6 
#
# 1 141.1492 71.3602 8.1891 0.0000 -37.5617 0.0000
# 2 71.3602 250.4131 28.6521 0.0000 -23.2332 0.0000
# 3 8.1891 28.6521 27.4759 0.0000 -18.2994 0.0000
# 4 0.0000 0.0000 0.0000 15.4208 0.0000 -11.8448
# 5 -37.5617 -23.2332 -18.2994 0.0000 49.6832 0.0000
# 6 0.0000 0.0000 0.0000 -11.8448 0.0000 38.1359
#
#
#
# Elastic Compliance Matrix: (Units=1/GPa)
#
#
# Indices 1 2 3 4 5 6 
#
# 1 0.010498 -0.002827 0.005598 0.000000 0.008677 0.000000
# 2 -0.002827 0.005305 -0.005911 0.000000 -0.001834 0.000000
# 3 0.005598 -0.005911 0.055478 0.000000 0.021902 0.000000
# 4 0.000000 0.000000 0.000000 0.085166 0.000000 0.026452
# 5 0.008677 -0.001834 0.021902 0.000000 0.033897 0.000000
# 6 0.000000 0.000000 0.000000 0.026452 0.000000 0.034438
#
#
# Mechanical properties :
#
#
# Convention : Reuss Voigt Hill
#
# Bulk Modulus (GPa) = 15.38421 70.60455 42.99438
# Shear Modulus (GPa) = 19.78398 41.37042 30.57720
#
# Velocity S-wave (km/s) = 2.81961 4.07734 3.50535
# Velocity P-wave (km/s) = 4.09664 7.10906 5.80177
#
# Compressibility (1/GPa) = 0.06500170
#
# Stress axis : x y z
#
# Youngs Moduli (GPa) = 95.25393 188.49175 18.02506
#
# Poissons Ratio (x) = 0.53290 -0.10091
# Poissons Ratio (y) = 0.26930 0.10655
# Poissons Ratio (z) = -0.53325 1.11418
#
# Static dielectric constant tensor:
#      x y z
#    x 4.195320 0.000000 0.123880 
#    y 0.000000 4.938760 0.000000 
#    z 0.123880 0.000000 4.039180 
# 
# 
# High freq. dielectric constant tensor:
#      x y z
#    x 1.988700 0.000000 -0.001850 
#    y 0.000000 2.009150 0.000000 
#    z -0.001850 0.000000 1.963770 
# 
# From -- ./inp_files/35466.got.cif
#   From: 2010.03.12/outbox.cif.g09.slc.cpg/sg14_18_cif.got.tgz:35466.got - 2010.03.31 13:35:05.
