data_PCOD8125226
_publ_section_title
;
Structure prediction by ZEFSAII (Michael W. Deem and Ramdas Pophale) SiO2 
 PCOD8125226
Probable space group: P 21/C
;
_chemical_formula_sum "Si O2"
_cell_formula_units_Z 32
_cell_length_a 20.926679
_cell_length_b 8.498199
_cell_length_c 21.313359
_cell_angle_alpha 90.000000
_cell_angle_beta 24.536731
_cell_angle_gamma 90.000000
_cell_volume 1574.042586
_symmetry_space_group_name_H-M "P 21/C"
_symmetry_group_IT_number 14
_symmetry_cell_setting 'monoclinic'
loop_
_space_group_symop_operation_xyz
x,y,z
-x,1/2+y,1/2-z
-x,-y,-z
x,1/2-y,1/2+z
loop_
_atom_site_type_symbol
_atom_site_label
_atom_site_fract_x
_atom_site_fract_y
_atom_site_fract_z
Si Si1 0.650710 0.557968 0.721458
Si Si2 0.774165 0.343434 0.286033
Si Si3 0.743600 0.845459 0.879681
Si Si4 0.977943 0.615438 0.462339
Si Si5 0.318906 0.825217 0.509429
Si Si6 0.258546 0.535732 0.496100
Si Si7 0.925732 0.939406 0.247509
Si Si8 0.464788 0.651766 0.075036
O O1 0.798302 0.658461 0.612533
O O2 0.662997 0.526498 0.636801
O O3 0.643542 0.399659 0.769791
O O4 0.493807 0.650423 0.874933
O O5 0.780581 0.531864 0.290125
O O6 0.772716 0.271136 0.356390
O O7 0.622611 0.290161 0.383692
O O8 0.927484 0.278484 0.113989
O O9 0.895237 0.745709 0.762658
O O10 0.683605 0.931853 0.996441
O O11 0.621719 0.720585 0.962133
O O12 0.000000 0.500000 0.500000
O O13 0.046453 0.520305 0.343351
O O14 0.316455 0.715966 0.450071
O O15 0.224710 0.987230 0.582998
O O16 0.073180 0.536239 0.659891
O O17 0.500000 0.500000 0.000000
#
# Coordination Sequence:
#
# PCOD8125226 Si02
#       8
#     4   4   4   4   4   4   4   4
#     4  11  22  36  64  91 121 164 205 257 319 376
#     4  10  21  39  61  93 122 160 207 261 307 380
#     4  11  23  39  65  93 125 165 213 269 310 372
#     4  10  20  37  63  88 124 160 207 253 317 384
#     4  10  20  38  61  86 118 164 209 248 308 388
#     4  10  24  39  58  91 126 155 211 262 315 363
#     4  10  20  39  63  85 117 171 210 247 309 387
#     4  12  21  39  66  93 121 168 215 250 318 394
#
# _framework density 20.329818
#
# number of rings (size 3 to 8) (size 9 to 14) (size 15 to 20)
#    0.000    1.500    3.750    1.875    1.750    1.000 
#    0.000    1.875    2.750    0.000    0.000    0.000 
#    0.000    0.000    0.000    0.000    0.000    0.000 
#
# Total GULP energy -396692.723317 kJ/mol
# GULP energy per Si atom -12396.647604 kJ/mol
# Density = 2.028355 g / cm^3
# Si number density = 20.329818 Si / 1000 Ang^3
#
#
#
# Elastic Constant Matrix: (Units=GPa)
#
#
# Indices 1 2 3 4 5 6 
#
# 1 92.3366 36.9181 24.5668 0.0000 -4.4800 0.0000
# 2 36.9181 102.2077 36.7831 0.0000 -7.1266 0.0000
# 3 24.5668 36.7831 94.9569 0.0000 -13.9312 0.0000
# 4 0.0000 0.0000 0.0000 19.2748 0.0000 -11.4675
# 5 -4.4800 -7.1266 -13.9312 0.0000 22.4402 0.0000
# 6 0.0000 0.0000 0.0000 -11.4675 0.0000 36.3394
#
#
#
# Elastic Compliance Matrix: (Units=1/GPa)
#
#
# Indices 1 2 3 4 5 6 
#
# 1 0.012913 -0.004019 -0.001753 0.000000 0.000214 0.000000
# 2 -0.004019 0.012639 -0.003724 0.000000 0.000900 0.000000
# 3 -0.001753 -0.003724 0.013425 0.000000 0.006802 0.000000
# 4 0.000000 0.000000 0.000000 0.063873 0.000000 0.020156
# 5 0.000214 0.000900 0.006802 0.000000 0.049114 0.000000
# 6 0.000000 0.000000 0.000000 0.020156 0.000000 0.033879
#
#
# Mechanical properties :
#
#
# Convention : Reuss Voigt Hill
#
# Bulk Modulus (GPa) = 50.03563 54.00415 52.01989
# Shear Modulus (GPa) = 23.64113 28.35977 26.00045
#
# Velocity S-wave (km/s) = 3.41380 3.73900 3.58010
# Velocity P-wave (km/s) = 6.34067 6.72769 6.53705
#
# Compressibility (1/GPa) = 0.01998576
#
# Stress axis : x y z
#
# Youngs Moduli (GPa) = 77.43876 79.12297 74.48753
#
# Poissons Ratio (x) = 0.31797 0.13057
# Poissons Ratio (y) = 0.31120 0.27740
# Poissons Ratio (z) = 0.13574 0.29466
#
# Static dielectric constant tensor:
#      x y z
#    x 3.874420 0.000000 0.024010 
#    y 0.000000 3.770650 0.000000 
#    z 0.024010 0.000000 3.768420 
# 
# 
# High freq. dielectric constant tensor:
#      x y z
#    x 1.803710 0.000000 -0.010190 
#    y 0.000000 1.782430 0.000000 
#    z -0.010190 0.000000 1.786080 
# 
# From -- ./inp_files/74897.got.cif
#   From: 2010.03.12/outbox.cif.g09.slc.cpg/sg14_38_cif.got.tgz:74897.got - 2010.03.31 13:35:05.
