data_PCOD8125132
_publ_section_title
;
Structure prediction by ZEFSAII (Michael W. Deem and Ramdas Pophale) SiO2 
 PCOD8125132
Probable space group: P 21/C
;
_chemical_formula_sum "Si O2"
_cell_formula_units_Z 32
_cell_length_a 25.082878
_cell_length_b 8.682320
_cell_length_c 14.638856
_cell_angle_alpha 90.000000
_cell_angle_beta 29.227384
_cell_angle_gamma 90.000000
_cell_volume 1556.633563
_symmetry_space_group_name_H-M "P 21/C"
_symmetry_group_IT_number 14
_symmetry_cell_setting 'monoclinic'
loop_
_space_group_symop_operation_xyz
x,y,z
-x,1/2+y,1/2-z
-x,-y,-z
x,1/2-y,1/2+z
loop_
_atom_site_type_symbol
_atom_site_label
_atom_site_fract_x
_atom_site_fract_y
_atom_site_fract_z
Si Si1 0.609900 0.165556 0.557911
Si Si2 0.983778 0.788653 0.878091
Si Si3 0.970976 0.149966 0.885099
Si Si4 0.235401 0.158064 0.308691
Si Si5 0.779858 0.310438 0.950738
Si Si6 0.752983 0.294315 0.196825
Si Si7 0.792693 0.670897 0.943143
Si Si8 0.376634 0.199628 0.450589
O O1 0.691943 0.246496 0.508191
O O2 0.646641 0.220384 0.402597
O O3 0.489750 0.224154 0.755682
O O4 0.611922 0.982634 0.560996
O O5 0.010538 0.707485 0.743827
O O6 0.096124 0.768842 0.768410
O O7 0.955492 0.967358 0.908402
O O8 0.876287 0.704697 0.079025
O O9 0.080583 0.198570 0.777237
O O10 0.860921 0.228627 0.087639
O O11 0.229284 0.228673 0.420366
O O12 0.249413 0.976381 0.288415
O O13 0.338630 0.234617 0.104857
O O14 0.752872 0.240258 0.091135
O O15 0.768225 0.491541 0.978493
O O16 0.711290 0.753622 0.994415
#
# Coordination Sequence:
#
# PCOD8125132 Si02
#       8
#     4   4   4   4   4   4   4   4
#     4  11  23  40  57  78 106 143 187 230 268 318
#     4   9  16  31  55  84 112 143 178 217 264 324
#     4   9  16  31  55  84 112 143 178 217 264 324
#     4  10  20  37  58  83 111 144 179 220 270 324
#     4   8  18  36  58  79 109 148 180 210 267 335
#     4  10  20  37  58  83 111 144 179 220 270 324
#     4   8  18  36  58  79 109 148 180 210 267 335
#     4  11  23  40  57  78 106 143 187 230 268 318
#
# _framework density 20.557181
#
# number of rings (size 3 to 8) (size 9 to 14) (size 15 to 20)
#    0.000    2.500    0.000    3.750    0.000    2.000 
#    0.000   25.000    0.000    0.000    0.000    0.000 
#    0.000    0.000    0.000    0.000    0.000    0.000 
#
# Total GULP energy -396585.973427 kJ/mol
# GULP energy per Si atom -12393.311670 kJ/mol
# Density = 2.051039 g / cm^3
# Si number density = 20.557181 Si / 1000 Ang^3
#
#
#
# Elastic Constant Matrix: (Units=GPa)
#
#
# Indices 1 2 3 4 5 6 
#
# 1 39.6181 -10.5353 2.1460 0.0000 -2.9925 0.0000
# 2 -10.5353 33.2085 18.2603 0.0000 10.9013 0.0000
# 3 2.1460 18.2603 119.5420 0.0000 -3.6751 0.0000
# 4 0.0000 0.0000 0.0000 40.0253 0.0000 -1.4030
# 5 -2.9925 10.9013 -3.6751 0.0000 22.5178 0.0000
# 6 0.0000 0.0000 0.0000 -1.4030 0.0000 20.9451
#
#
#
# Elastic Compliance Matrix: (Units=1/GPa)
#
#
# Indices 1 2 3 4 5 6 
#
# 1 0.028070 0.010707 -0.002195 0.000000 -0.001811 0.000000
# 2 0.010707 0.044809 -0.007699 0.000000 -0.021527 0.000000
# 3 -0.002195 -0.007699 0.009735 0.000000 0.005024 0.000000
# 4 0.000000 0.000000 0.000000 0.025043 0.000000 0.001678
# 5 -0.001811 -0.021527 0.005024 0.000000 0.055410 0.000000
# 6 0.000000 0.000000 0.000000 0.001678 0.000000 0.047856
#
#
# Mechanical properties :
#
#
# Convention : Reuss Voigt Hill
#
# Bulk Modulus (GPa) = 11.87079 23.56786 17.71932
# Shear Modulus (GPa) = 21.06344 28.86413 24.96379
#
# Velocity S-wave (km/s) = 3.20445 3.75118 3.48855
# Velocity P-wave (km/s) = 4.41343 5.50012 4.98647
#
# Compressibility (1/GPa) = 0.08424039
#
# Stress axis : x y z
#
# Youngs Moduli (GPa) = 35.62495 22.31687 102.72084
#
# Poissons Ratio (x) = -0.23894 0.22548
# Poissons Ratio (y) = -0.38143 0.79082
# Poissons Ratio (z) = 0.07820 0.17181
#
# Static dielectric constant tensor:
#      x y z
#    x 3.998410 0.000000 -0.239120 
#    y 0.000000 3.569390 0.000000 
#    z -0.239120 0.000000 3.966650 
# 
# 
# High freq. dielectric constant tensor:
#      x y z
#    x 1.791210 0.000000 -0.005660 
#    y 0.000000 1.788190 0.000000 
#    z -0.005660 0.000000 1.812990 
# 
# From -- ./inp_files/51339.got.cif
#   From: 2010.03.12/outbox.cif.g09.slc.cpg/sg14_26_cif.got.tgz:51339.got - 2010.03.31 13:35:05.
