data_PCOD8125366
_publ_section_title
;
Structure prediction by ZEFSAII (Michael W. Deem and Ramdas Pophale) SiO2 
 PCOD8125366
Probable space group: P 21/C
;
_chemical_formula_sum "Si O2"
_cell_formula_units_Z 28
_cell_length_a 8.103186
_cell_length_b 19.535934
_cell_length_c 8.565451
_cell_angle_alpha 90.000000
_cell_angle_beta 81.388473
_cell_angle_gamma 90.000000
_cell_volume 1340.652735
_symmetry_space_group_name_H-M "P 21/C"
_symmetry_group_IT_number 14
_symmetry_cell_setting 'monoclinic'
loop_
_space_group_symop_operation_xyz
x,y,z
-x,1/2+y,1/2-z
-x,-y,-z
x,1/2-y,1/2+z
loop_
_atom_site_type_symbol
_atom_site_label
_atom_site_fract_x
_atom_site_fract_y
_atom_site_fract_z
Si Si1 0.839367 0.825775 0.776286
Si Si2 0.944508 0.691738 0.607445
Si Si3 0.683771 0.313141 0.414216
Si Si4 0.419494 0.958150 0.152036
Si Si5 0.317544 0.388046 0.168510
Si Si6 0.159122 0.460713 0.902768
Si Si7 0.517583 0.749977 0.824136
O O1 0.865532 0.765062 0.649435
O O2 0.901046 0.896349 0.691704
O O3 0.639144 0.816644 0.827000
O O4 0.942531 0.819867 0.922035
O O5 0.844643 0.630431 0.705136
O O6 0.125773 0.697095 0.660720
O O7 0.659743 0.393689 0.422518
O O8 0.658480 0.276433 0.583701
O O9 0.535902 0.275704 0.338565
O O10 0.563137 0.936873 0.250315
O O11 0.271239 0.993643 0.271241
O O12 0.500000 0.000000 0.000000
O O13 0.404823 0.317110 0.101051
O O14 0.272392 0.432295 0.025093
O O15 0.000000 0.500000 0.000000
#
# Coordination Sequence:
#
# PCOD8125366 Si02
#       7
#     4   4   4   4   4   4   4
#     4  11  22  40  63  90 124 167 207 255 323 380
#     4  11  22  39  64  95 125 158 206 272 323 369
#     4  11  22  37  60  92 120 152 205 261 312 364
#     4  11  24  42  64  89 126 172 215 256 313 393
#     4  10  22  41  63  88 123 165 212 259 317 380
#     4  12  25  41  62  91 128 169 212 261 314 381
#     4  10  20  38  63  87 115 155 204 258 307 369
#
# _framework density 20.885349000000001
#
# number of rings (size 3 to 8) (size 9 to 14) (size 15 to 20)
#    0.000    1.143    0.000    9.000    0.000    3.429 
#    0.000    5.714    0.000    0.000    0.000    0.000 
#    0.000    0.000    0.000    0.000    0.000    0.000 
#
# Total GULP energy -346987.643396 kJ/mol
# GULP energy per Si atom -12392.415836 kJ/mol
# Density = 2.083781 g / cm^3
# Si number density = 20.885349 Si / 1000 Ang^3
#
#
#
# Elastic Constant Matrix: (Units=GPa)
#
#
# Indices 1 2 3 4 5 6 
#
# 1 96.4447 23.6377 30.5128 0.0000 -13.9223 0.0000
# 2 23.6377 92.6709 59.3948 0.0000 -10.5056 0.0000
# 3 30.5128 59.3948 107.8178 0.0000 -14.3359 0.0000
# 4 0.0000 0.0000 0.0000 36.0913 0.0000 -0.6480
# 5 -13.9223 -10.5056 -14.3359 0.0000 36.4061 0.0000
# 6 0.0000 0.0000 0.0000 -0.6480 0.0000 20.1733
#
#
#
# Elastic Compliance Matrix: (Units=1/GPa)
#
#
# Indices 1 2 3 4 5 6 
#
# 1 0.011853 -0.001207 -0.002251 0.000000 0.003298 0.000000
# 2 -0.001207 0.016858 -0.008822 0.000000 0.000929 0.000000
# 3 -0.002251 -0.008822 0.015110 0.000000 0.002543 0.000000
# 4 0.000000 0.000000 0.000000 0.027724 0.000000 0.000891
# 5 0.003298 0.000929 0.002543 0.000000 0.029999 0.000000
# 6 0.000000 0.000000 0.000000 0.000891 0.000000 0.049599
#
#
# Mechanical properties :
#
#
# Convention : Reuss Voigt Hill
#
# Bulk Modulus (GPa) = 51.91657 58.22489 55.07073
# Shear Modulus (GPa) = 27.45420 30.76001 29.10711
#
# Velocity S-wave (km/s) = 3.62956 3.84188 3.73723
# Velocity P-wave (km/s) = 6.51742 6.90064 6.71177
#
# Compressibility (1/GPa) = 0.01926167
#
# Stress axis : x y z
#
# Youngs Moduli (GPa) = 84.36926 59.31890 66.18182
#
# Poissons Ratio (x) = 0.07157 0.14898
# Poissons Ratio (y) = 0.10180 0.58384
# Poissons Ratio (z) = 0.18993 0.52329
#
# Static dielectric constant tensor:
#      x y z
#    x 4.488290 0.000000 -0.093790 
#    y 0.000000 3.861280 0.000000 
#    z -0.093790 0.000000 3.734070 
# 
# 
# High freq. dielectric constant tensor:
#      x y z
#    x 1.821960 0.000000 -0.001310 
#    y 0.000000 1.821210 0.000000 
#    z -0.001310 0.000000 1.825310 
# 
# From -- ./inp_files/9359.got.cif
#   From: 2010.03.12/outbox.cif.g09.slc.cpg/sg14_5_cif.got.tgz:9359.got - 2010.03.31 13:35:05.
