data_PCOD8125621
_publ_section_title
;
Structure prediction by ZEFSAII (Michael W. Deem and Ramdas Pophale) SiO2 
 PCOD8125621
Probable space group: P 21/C
;
_chemical_formula_sum "Si O2"
_cell_formula_units_Z 28
_cell_length_a 18.625508
_cell_length_b 8.583379
_cell_length_c 14.721200
_cell_angle_alpha 90.000000
_cell_angle_beta 144.573804
_cell_angle_gamma 90.000000
_cell_volume 1364.200836
_symmetry_space_group_name_H-M "P 21/C"
_symmetry_group_IT_number 14
_symmetry_cell_setting 'monoclinic'
loop_
_space_group_symop_operation_xyz
x,y,z
-x,1/2+y,1/2-z
-x,-y,-z
x,1/2-y,1/2+z
loop_
_atom_site_type_symbol
_atom_site_label
_atom_site_fract_x
_atom_site_fract_y
_atom_site_fract_z
Si Si1 0.991083 0.252318 0.987350
Si Si2 0.673114 0.016992 0.413318
Si Si3 0.596242 0.634397 0.577596
Si Si4 0.472550 0.813176 0.284227
Si Si5 0.825801 0.506668 0.888122
Si Si6 0.166037 0.485810 0.742600
Si Si7 0.620172 0.950608 0.676772
O O1 0.881599 0.335453 0.930608
O O2 0.931690 0.125769 0.859518
O O3 0.060759 0.372649 0.992911
O O4 0.088544 0.174828 0.157785
O O5 0.562498 0.890824 0.302793
O O6 0.751847 0.988909 0.405197
O O7 0.759033 0.993059 0.588117
O O8 0.616952 0.191065 0.357499
O O9 0.500000 0.500000 0.500000
O O10 0.557453 0.724876 0.446639
O O11 0.730140 0.550102 0.707700
O O12 0.611405 0.761817 0.675385
O O13 0.386396 0.953281 0.235806
O O14 0.255888 0.498923 0.748433
O O15 0.500000 0.000000 0.500000
#
# Coordination Sequence:
#
# PCOD8125621 Si02
#       7
#     4   4   4   4   4   4   4
#     4  10  24  43  66  85 117 186 224 253 302 396
#     4  12  25  39  61  99 135 158 206 279 332 378
#     4  11  21  40  68  95 125 174 214 260 319 408
#     4  11  25  37  62 101 133 171 202 264 346 397
#     4  11  23  41  64  92 128 162 223 264 315 378
#     4  11  22  42  67  89 125 167 223 260 318 378
#     4  10  20  40  65  91 126 169 211 254 320 406
#
# _framework density 20.524837999999999
#
# number of rings (size 3 to 8) (size 9 to 14) (size 15 to 20)
#    0.000    1.143    5.714    0.857    4.000    2.286 
#    0.000    0.000    0.000    0.000    0.000    0.000 
#    0.000    0.000    0.000    0.000    0.000    0.000 
#
# Total GULP energy -347086.798881 kJ/mol
# GULP energy per Si atom -12395.957103 kJ/mol
# Density = 2.047812 g / cm^3
# Si number density = 20.524838 Si / 1000 Ang^3
#
#
#
# Elastic Constant Matrix: (Units=GPa)
#
#
# Indices 1 2 3 4 5 6 
#
# 1 98.0276 45.1234 19.0257 0.0000 18.5889 0.0000
# 2 45.1234 132.4077 42.9996 0.0000 10.8557 0.0000
# 3 19.0257 42.9996 82.0962 0.0000 14.9884 0.0000
# 4 0.0000 0.0000 0.0000 39.2893 0.0000 10.3543
# 5 18.5889 10.8557 14.9884 0.0000 27.2264 0.0000
# 6 0.0000 0.0000 0.0000 10.3543 0.0000 35.1116
#
#
#
# Elastic Compliance Matrix: (Units=1/GPa)
#
#
# Indices 1 2 3 4 5 6 
#
# 1 0.013484 -0.004100 0.000450 0.000000 -0.007819 0.000000
# 2 -0.004100 0.010378 -0.004715 0.000000 0.001257 0.000000
# 3 0.000450 -0.004715 0.015852 0.000000 -0.007154 0.000000
# 4 0.000000 0.000000 0.000000 0.027597 0.000000 -0.008138
# 5 -0.007819 0.001257 -0.007154 0.000000 0.045505 0.000000
# 6 0.000000 0.000000 0.000000 -0.008138 0.000000 0.030881
#
#
# Mechanical properties :
#
#
# Convention : Reuss Voigt Hill
#
# Bulk Modulus (GPa) = 43.50826 58.53655 51.02240
# Shear Modulus (GPa) = 29.74631 34.01764 31.88198
#
# Velocity S-wave (km/s) = 3.81108 4.07552 3.94551
# Velocity P-wave (km/s) = 6.37257 7.12238 6.75788
#
# Compressibility (1/GPa) = 0.02298414
#
# Stress axis : x y z
#
# Youngs Moduli (GPa) = 74.16171 96.35842 63.08276
#
# Poissons Ratio (x) = 0.39511 -0.02841
# Poissons Ratio (y) = 0.30409 0.29743
# Poissons Ratio (z) = -0.03340 0.45432
#
# Static dielectric constant tensor:
#      x y z
#    x 3.739810 0.000000 0.224450 
#    y 0.000000 4.715450 0.000000 
#    z 0.224450 0.000000 3.759580 
# 
# 
# High freq. dielectric constant tensor:
#      x y z
#    x 1.787630 0.000000 0.027010 
#    y 0.000000 1.827940 0.000000 
#    z 0.027010 0.000000 1.795240 
# 
# From -- ./inp_files/48583.got.cif
#   From: 2010.03.12/outbox.cif.g09.slc.cpg/sg14_25_cif.got.tgz:48583.got - 2010.03.31 13:35:05.
