data_PCOD8125475
_publ_section_title
;
Structure prediction by ZEFSAII (Michael W. Deem and Ramdas Pophale) SiO2 
 PCOD8125475
Probable space group: P 21/C
;
_chemical_formula_sum "Si O2"
_cell_formula_units_Z 28
_cell_length_a 8.358640
_cell_length_b 12.862043
_cell_length_c 13.383038
_cell_angle_alpha 90.000000
_cell_angle_beta 72.925909
_cell_angle_gamma 90.000000
_cell_volume 1375.385715
_symmetry_space_group_name_H-M "P 21/C"
_symmetry_group_IT_number 14
_symmetry_cell_setting 'monoclinic'
loop_
_space_group_symop_operation_xyz
x,y,z
-x,1/2+y,1/2-z
-x,-y,-z
x,1/2-y,1/2+z
loop_
_atom_site_type_symbol
_atom_site_label
_atom_site_fract_x
_atom_site_fract_y
_atom_site_fract_z
Si Si1 0.592827 0.826533 0.673341
Si Si2 0.272928 0.444907 0.670454
Si Si3 0.544913 0.902652 0.189161
Si Si4 0.060955 0.331616 0.980976
Si Si5 0.126610 0.404459 0.484875
Si Si6 0.030379 0.496430 0.148378
Si Si7 0.591947 0.502947 0.877445
O O1 0.508157 0.716251 0.675103
O O2 0.738652 0.846925 0.564898
O O3 0.670492 0.848807 0.769100
O O4 0.434569 0.896019 0.676374
O O5 0.423562 0.528288 0.642135
O O6 0.231991 0.401583 0.568624
O O7 0.106576 0.503268 0.739550
O O8 0.510852 0.915048 0.314604
O O9 0.740106 0.923013 0.127705
O O10 0.972172 0.390334 0.904640
O O11 0.027247 0.206595 0.991094
O O12 0.989561 0.395029 0.088599
O O13 0.000000 0.500000 0.500000
O O14 0.213157 0.476571 0.156054
O O15 0.500000 0.500000 0.000000
#
# Coordination Sequence:
#
# PCOD8125475 Si02
#       7
#     4   4   4   4   4   4   4
#     4   9  20  39  60  91 118 158 204 247 311 353
#     4  10  22  40  60  87 126 161 202 252 302 367
#     4  10  23  40  60  88 126 164 203 253 300 369
#     4   9  20  38  62  85 123 156 199 258 298 362
#     4  11  23  42  61  91 124 167 204 244 314 369
#     4  10  20  39  62  91 118 156 208 255 306 349
#     4  11  21  37  63  91 119 156 206 255 299 361
#
# _framework density 20.357925999999999
#
# number of rings (size 3 to 8) (size 9 to 14) (size 15 to 20)
#    0.000    2.000    1.429    1.286    4.000    1.143 
#   10.286    0.000    0.000    0.000    0.000    0.000 
#    0.000    0.000    0.000    0.000    0.000    0.000 
#
# Total GULP energy -346952.168302 kJ/mol
# GULP energy per Si atom -12391.148868 kJ/mol
# Density = 2.031159 g / cm^3
# Si number density = 20.357926 Si / 1000 Ang^3
#
#
#
# Elastic Constant Matrix: (Units=GPa)
#
#
# Indices 1 2 3 4 5 6 
#
# 1 53.1565 26.2530 4.4021 0.0000 3.3754 0.0000
# 2 26.2530 112.5181 17.8262 0.0000 -3.2664 0.0000
# 3 4.4021 17.8262 87.1930 0.0000 4.6739 0.0000
# 4 0.0000 0.0000 0.0000 19.4068 0.0000 -9.9769
# 5 3.3754 -3.2664 4.6739 0.0000 28.7547 0.0000
# 6 0.0000 0.0000 0.0000 -9.9769 0.0000 26.3414
#
#
#
# Elastic Compliance Matrix: (Units=1/GPa)
#
#
# Indices 1 2 3 4 5 6 
#
# 1 0.021537 -0.005137 0.000131 0.000000 -0.003133 0.000000
# 2 -0.005137 0.010463 -0.001993 0.000000 0.002116 0.000000
# 3 0.000131 -0.001993 0.011987 0.000000 -0.002190 0.000000
# 4 0.000000 0.000000 0.000000 0.063988 0.000000 0.024236
# 5 -0.003133 0.002116 -0.002190 0.000000 0.035741 0.000000
# 6 0.000000 0.000000 0.000000 0.024236 0.000000 0.047142
#
#
# Mechanical properties :
#
#
# Convention : Reuss Voigt Hill
#
# Bulk Modulus (GPa) = 33.34527 38.87001 36.10764
# Shear Modulus (GPa) = 23.27165 28.52635 25.89900
#
# Velocity S-wave (km/s) = 3.38468 3.74738 3.57064
# Velocity P-wave (km/s) = 5.62937 6.15293 5.89696
#
# Compressibility (1/GPa) = 0.02998926
#
# Stress axis : x y z
#
# Youngs Moduli (GPa) = 46.43065 95.57310 83.42296
#
# Poissons Ratio (x) = 0.49094 -0.01091
# Poissons Ratio (y) = 0.23851 0.16628
# Poissons Ratio (z) = -0.00607 0.19050
#
# Static dielectric constant tensor:
#      x y z
#    x 3.570590 0.000000 -0.037080 
#    y 0.000000 3.739720 0.000000 
#    z -0.037080 0.000000 3.923650 
# 
# 
# High freq. dielectric constant tensor:
#      x y z
#    x 1.786980 0.000000 0.001290 
#    y 0.000000 1.793900 0.000000 
#    z 0.001290 0.000000 1.795480 
# 
# From -- ./inp_files/40023.got.cif
#   From: 2010.03.12/outbox.cif.g09.slc.cpg/sg14_21_cif.got.tgz:40023.got - 2010.03.31 13:35:05.
