data_PCOD8125935
_publ_section_title
;
Structure prediction by ZEFSAII (Michael W. Deem and Ramdas Pophale) SiO2 
 PCOD8125935
Probable space group: P 21/C
;
_chemical_formula_sum "Si O2"
_cell_formula_units_Z 32
_cell_length_a 11.909717
_cell_length_b 8.820385
_cell_length_c 20.834628
_cell_angle_alpha 90.000000
_cell_angle_beta 131.179903
_cell_angle_gamma 90.000000
_cell_volume 1647.272456
_symmetry_space_group_name_H-M "P 21/C"
_symmetry_group_IT_number 14
_symmetry_cell_setting 'monoclinic'
loop_
_space_group_symop_operation_xyz
x,y,z
-x,1/2+y,1/2-z
-x,-y,-z
x,1/2-y,1/2+z
loop_
_atom_site_type_symbol
_atom_site_label
_atom_site_fract_x
_atom_site_fract_y
_atom_site_fract_z
Si Si1 0.867023 0.170393 0.503488
Si Si2 0.800748 0.703351 0.577141
Si Si3 0.789467 0.104961 0.212991
Si Si4 0.519217 0.227258 0.558235
Si Si5 0.449705 0.886830 0.568066
Si Si6 0.028606 0.627078 0.092918
Si Si7 0.049803 0.612902 0.355091
Si Si8 0.758068 0.756736 0.700121
O O1 0.696276 0.116006 0.442626
O O2 0.896727 0.208923 0.440149
O O3 0.880539 0.312874 0.555387
O O4 0.996125 0.050736 0.571511
O O5 0.628356 0.665054 0.496917
O O6 0.912186 0.562968 0.625931
O O7 0.794630 0.803365 0.640262
O O8 0.865466 0.803974 0.544217
O O9 0.629662 0.184218 0.146821
O O10 0.866181 0.160363 0.306876
O O11 0.882519 0.169010 0.187193
O O12 0.772902 0.924311 0.209819
O O13 0.583195 0.204889 0.510347
O O14 0.485060 0.062237 0.572145
O O15 0.591368 0.808865 0.656717
O O16 0.873571 0.651799 0.288564
#
# Coordination Sequence:
#
# PCOD8125935 Si02
#       8
#     4   4   4   4   4   4   4   4
#     4  11  23  42  62  84 121 171 196 242 307 366
#     4  10  22  37  61  92 123 152 197 250 305 356
#     4  11  22  37  62  93 121 152 204 254 302 348
#     4  10  21  36  62  92 120 154 196 257 301 356
#     4  10  21  37  60  90 123 153 199 245 311 359
#     4  11  23  41  62  85 123 161 207 242 298 366
#     4  11  22  37  64  91 123 152 203 255 300 352
#     4  10  22  35  60  96 120 148 200 254 299 350
#
# _framework density 19.426053
#
# number of rings (size 3 to 8) (size 9 to 14) (size 15 to 20)
#    0.000    1.500    5.000    0.000    3.500    2.000 
#    0.000    2.500    0.000    0.000    0.000    0.000 
#    0.000    0.000    0.000    0.000    0.000    0.000 
#
# Total GULP energy -396666.999327 kJ/mol
# GULP energy per Si atom -12395.843729 kJ/mol
# Density = 1.938184 g / cm^3
# Si number density = 19.426053 Si / 1000 Ang^3
#
#
#
# Elastic Constant Matrix: (Units=GPa)
#
#
# Indices 1 2 3 4 5 6 
#
# 1 105.3072 18.1122 49.7172 0.0000 -3.7126 0.0000
# 2 18.1122 51.0163 30.0216 0.0000 3.8016 0.0000
# 3 49.7172 30.0216 107.8647 0.0000 6.8196 0.0000
# 4 0.0000 0.0000 0.0000 29.5941 0.0000 7.9373
# 5 -3.7126 3.8016 6.8196 0.0000 36.7979 0.0000
# 6 0.0000 0.0000 0.0000 7.9373 0.0000 22.8644
#
#
#
# Elastic Compliance Matrix: (Units=1/GPa)
#
#
# Indices 1 2 3 4 5 6 
#
# 1 0.012408 -0.001351 -0.005495 0.000000 0.002410 0.000000
# 2 -0.001351 0.023643 -0.005863 0.000000 -0.001492 0.000000
# 3 -0.005495 -0.005863 0.013592 0.000000 -0.002468 0.000000
# 4 0.000000 0.000000 0.000000 0.037260 0.000000 -0.012935
# 5 0.002410 -0.001492 -0.002468 0.000000 0.028030 0.000000
# 6 0.000000 0.000000 0.000000 -0.012935 0.000000 0.048226
#
#
# Mechanical properties :
#
#
# Convention : Reuss Voigt Hill
#
# Bulk Modulus (GPa) = 41.28299 51.09891 46.19095
# Shear Modulus (GPa) = 25.42558 28.94041 27.18300
#
# Velocity S-wave (km/s) = 3.62171 3.86394 3.74479
# Velocity P-wave (km/s) = 6.22789 6.80207 6.52130
#
# Compressibility (1/GPa) = 0.02422305
#
# Stress axis : x y z
#
# Youngs Moduli (GPa) = 80.59449 42.29616 73.57375
#
# Poissons Ratio (x) = 0.05713 0.40432
# Poissons Ratio (y) = 0.10887 0.43140
# Poissons Ratio (z) = 0.44290 0.24800
#
# Static dielectric constant tensor:
#      x y z
#    x 3.563790 0.000000 0.115860 
#    y 0.000000 3.343410 0.000000 
#    z 0.115860 0.000000 3.553700 
# 
# 
# High freq. dielectric constant tensor:
#      x y z
#    x 1.744120 0.000000 0.021100 
#    y 0.000000 1.748650 0.000000 
#    z 0.021100 0.000000 1.751650 
# 
# From -- ./inp_files/67070.got.cif
#   From: 2010.03.12/outbox.cif.g09.slc.cpg/sg14_34_cif.got.tgz:67070.got - 2010.03.31 13:35:05.
