data_PCOD8125473
_publ_section_title
;
Structure prediction by ZEFSAII (Michael W. Deem and Ramdas Pophale) SiO2 
 PCOD8125473
Probable space group: P 21/C
;
_chemical_formula_sum "Si O2"
_cell_formula_units_Z 24
_cell_length_a 8.797734
_cell_length_b 8.935111
_cell_length_c 31.057971
_cell_angle_alpha 90.000000
_cell_angle_beta 150.654137
_cell_angle_gamma 90.000000
_cell_volume 1196.495722
_symmetry_space_group_name_H-M "P 21/C"
_symmetry_group_IT_number 14
_symmetry_cell_setting 'monoclinic'
loop_
_space_group_symop_operation_xyz
x,y,z
-x,1/2+y,1/2-z
-x,-y,-z
x,1/2-y,1/2+z
loop_
_atom_site_type_symbol
_atom_site_label
_atom_site_fract_x
_atom_site_fract_y
_atom_site_fract_z
Si Si1 0.053254 0.100174 0.971589
Si Si2 0.666674 0.416036 0.002990
Si Si3 0.252861 0.001173 0.322936
Si Si4 0.224257 0.669039 0.345270
Si Si5 0.191145 0.591523 0.429872
Si Si6 0.823438 0.071666 0.416776
O O1 0.410883 0.147408 0.059959
O O2 0.838573 0.247470 0.920089
O O3 0.971230 0.005982 0.907667
O O4 0.000000 0.000000 0.000000
O O5 0.734663 0.245273 0.028495
O O6 0.994337 0.504132 0.079054
O O7 0.500000 0.500000 0.000000
O O8 0.440225 0.410886 0.905945
O O9 0.167226 0.839303 0.318873
O O10 0.468330 0.013316 0.332902
O O11 0.921707 0.073216 0.229533
O O12 0.052735 0.626532 0.348183
O O13 0.500000 0.500000 0.500000
O O14 0.000000 0.000000 0.500000
#
# Coordination Sequence:
#
# PCOD8125473 Si02
#       6
#     4   4   4   4   4   4
#     4  11  21  39  68  92 123 162 216 264 308 375
#     4  11  19  40  68  87 119 170 214 257 308 384
#     4  11  24  40  63  91 130 162 212 262 328 377
#     4  11  24  42  58  96 128 164 206 265 320 379
#     4  10  22  38  61  93 126 159 216 259 307 379
#     4  10  20  39  62  90 121 167 212 252 307 387
#
# _framework density 20.058574
#
# number of rings (size 3 to 8) (size 9 to 14) (size 15 to 20)
#    0.000    1.333    5.000    3.000    7.000    0.000 
#    0.000    3.333    0.000    0.000    0.000    0.000 
#    0.000    0.000    0.000    0.000    0.000    0.000 
#
# Total GULP energy -297417.911844 kJ/mol
# GULP energy per Si atom -12392.412993 kJ/mol
# Density = 2.001292 g / cm^3
# Si number density = 20.058574 Si / 1000 Ang^3
#
#
#
# Elastic Constant Matrix: (Units=GPa)
#
#
# Indices 1 2 3 4 5 6 
#
# 1 101.7206 38.8265 3.7053 0.0000 -15.5498 0.0000
# 2 38.8265 155.5803 17.1569 0.0000 -19.3280 0.0000
# 3 3.7053 17.1569 63.3475 0.0000 -14.9611 0.0000
# 4 0.0000 0.0000 0.0000 24.3437 0.0000 -5.0738
# 5 -15.5498 -19.3280 -14.9611 0.0000 23.0726 0.0000
# 6 0.0000 0.0000 0.0000 -5.0738 0.0000 48.1969
#
#
#
# Elastic Compliance Matrix: (Units=1/GPa)
#
#
# Indices 1 2 3 4 5 6 
#
# 1 0.011698 -0.002218 0.001582 0.000000 0.007052 0.000000
# 2 -0.002218 0.007615 -0.000920 0.000000 0.004288 0.000000
# 3 0.001582 -0.000920 0.018908 0.000000 0.012556 0.000000
# 4 0.000000 0.000000 0.000000 0.042000 0.000000 0.004421
# 5 0.007052 0.004288 0.012556 0.000000 0.059828 0.000000
# 6 0.000000 0.000000 0.000000 0.004421 0.000000 0.021214
#
#
# Mechanical properties :
#
#
# Convention : Reuss Voigt Hill
#
# Bulk Modulus (GPa) = 28.48260 48.89176 38.68718
# Shear Modulus (GPa) = 28.39664 36.51993 32.45829
#
# Velocity S-wave (km/s) = 3.76664 4.27155 4.02702
# Velocity P-wave (km/s) = 5.75737 6.98252 6.39933
#
# Compressibility (1/GPa) = 0.03510915
#
# Stress axis : x y z
#
# Youngs Moduli (GPa) = 85.48708 131.31694 52.88761
#
# Poissons Ratio (x) = 0.29122 -0.08366
# Poissons Ratio (y) = 0.18958 0.04866
# Poissons Ratio (z) = -0.13523 0.12081
#
# Static dielectric constant tensor:
#      x y z
#    x 4.508340 0.000000 0.149630 
#    y 0.000000 4.039500 0.000000 
#    z 0.149630 0.000000 4.001450 
# 
# 
# High freq. dielectric constant tensor:
#      x y z
#    x 1.796810 0.000000 -0.006080 
#    y 0.000000 1.801540 0.000000 
#    z -0.006080 0.000000 1.745840 
# 
# From -- ./inp_files/61676.got.cif
#   From: 2010.03.12/outbox.cif.g09.slc.cpg/sg14_31_cif.got.tgz:61676.got - 2010.03.31 13:35:05.
