data_PCOD8125733
_publ_section_title
;
Structure prediction by ZEFSAII (Michael W. Deem and Ramdas Pophale) SiO2 
 PCOD8125733
Probable space group: P 21/C
;
_chemical_formula_sum "Si O2"
_cell_formula_units_Z 32
_cell_length_a 21.673788
_cell_length_b 14.946218
_cell_length_c 14.901032
_cell_angle_alpha 90.000000
_cell_angle_beta 18.143181
_cell_angle_gamma 90.000000
_cell_volume 1503.110489
_symmetry_space_group_name_H-M "P 21/C"
_symmetry_group_IT_number 14
_symmetry_cell_setting 'monoclinic'
loop_
_space_group_symop_operation_xyz
x,y,z
-x,1/2+y,1/2-z
-x,-y,-z
x,1/2-y,1/2+z
loop_
_atom_site_type_symbol
_atom_site_label
_atom_site_fract_x
_atom_site_fract_y
_atom_site_fract_z
Si Si1 0.674752 0.570809 0.754312
Si Si2 0.810924 0.845461 0.726895
Si Si3 0.488676 0.302604 0.876753
Si Si4 0.589351 0.626404 0.199864
Si Si5 0.813432 0.691357 0.421465
Si Si6 0.941417 0.295825 0.282007
Si Si7 0.065663 0.479921 0.195272
Si Si8 0.314316 0.976085 0.195859
O O1 0.692990 0.606239 0.626822
O O2 0.886465 0.529489 0.494334
O O3 0.500000 0.500000 0.000000
O O4 0.625468 0.656459 0.881523
O O5 0.957284 0.795490 0.455975
O O6 0.759169 0.945998 0.769783
O O7 0.604902 0.792695 0.017009
O O8 0.902230 0.838682 0.701756
O O9 0.467832 0.374279 0.825296
O O10 0.711847 0.278936 0.588663
O O11 0.669217 0.722948 0.117453
O O12 0.385795 0.607638 0.536866
O O13 0.752527 0.547653 0.990573
O O14 0.984641 0.715744 0.256211
O O15 0.974629 0.390205 0.281765
O O16 0.138214 0.542504 0.010990
O O17 0.500000 0.000000 0.000000
#
# Coordination Sequence:
#
# PCOD8125733 Si02
#       8
#     4   4   4   4   4   4   4   4
#     4  12  24  40  62  95 132 173 214 269 339 395
#     4  10  22  42  62  95 127 169 222 272 317 399
#     4  11  23  40  64  91 132 166 214 270 326 397
#     4   9  21  42  63  97 124 168 216 271 321 393
#     4  10  23  43  64  91 137 172 218 266 335 397
#     4  10  20  42  61  85 128 168 212 270 322 379
#     4   9  20  39  61  89 122 166 208 267 325 383
#     4   9  19  37  68  92 126 162 223 274 323 377
#
# _framework density 21.289187999999999
#
# number of rings (size 3 to 8) (size 9 to 14) (size 15 to 20)
#    0.000    2.000    2.500    0.750    1.750    3.500 
#    4.500    2.500    0.000    0.000    0.000    0.000 
#    0.000    0.000    0.000    0.000    0.000    0.000 
#
# Total GULP energy -396654.078023 kJ/mol
# GULP energy per Si atom -12395.439938 kJ/mol
# Density = 2.124073 g / cm^3
# Si number density = 21.289188 Si / 1000 Ang^3
#
#
#
# Elastic Constant Matrix: (Units=GPa)
#
#
# Indices 1 2 3 4 5 6 
#
# 1 130.8134 24.3248 46.9084 0.0000 10.5601 0.0000
# 2 24.3248 55.6755 28.3963 0.0000 4.2942 0.0000
# 3 46.9084 28.3963 127.3956 0.0000 1.8445 0.0000
# 4 0.0000 0.0000 0.0000 28.5082 0.0000 12.8129
# 5 10.5601 4.2942 1.8445 0.0000 22.3844 0.0000
# 6 0.0000 0.0000 0.0000 12.8129 0.0000 25.4890
#
#
#
# Elastic Compliance Matrix: (Units=1/GPa)
#
#
# Indices 1 2 3 4 5 6 
#
# 1 0.009422 -0.002352 -0.002890 0.000000 -0.003755 0.000000
# 2 -0.002352 0.021133 -0.003806 0.000000 -0.002631 0.000000
# 3 -0.002890 -0.003806 0.009744 0.000000 0.001291 0.000000
# 4 0.000000 0.000000 0.000000 0.045316 0.000000 -0.022780
# 5 -0.003755 -0.002631 0.001291 0.000000 0.046844 0.000000
# 6 0.000000 0.000000 0.000000 -0.022780 0.000000 0.050684
#
#
# Mechanical properties :
#
#
# Convention : Reuss Voigt Hill
#
# Bulk Modulus (GPa) = 45.04487 57.01596 51.03042
# Shear Modulus (GPa) = 23.96472 29.55997 26.76235
#
# Velocity S-wave (km/s) = 3.35875 3.73030 3.54939
# Velocity P-wave (km/s) = 6.02047 6.73745 6.38903
#
# Compressibility (1/GPa) = 0.02220008
#
# Stress axis : x y z
#
# Youngs Moduli (GPa) = 106.13987 47.31873 102.63189
#
# Poissons Ratio (x) = 0.11132 0.29664
# Poissons Ratio (y) = 0.24969 0.39065
# Poissons Ratio (z) = 0.30678 0.18011
#
# Static dielectric constant tensor:
#      x y z
#    x 4.150150 0.000000 0.288230 
#    y 0.000000 3.922980 0.000000 
#    z 0.288230 0.000000 4.257250 
# 
# 
# High freq. dielectric constant tensor:
#      x y z
#    x 1.831580 0.000000 0.005030 
#    y 0.000000 1.830720 0.000000 
#    z 0.005030 0.000000 1.839770 
# 
# From -- ./inp_files/50691.got.cif
#   From: 2010.03.12/outbox.cif.g09.slc.cpg/sg14_26_cif.got.tgz:50691.got - 2010.03.31 13:35:05.
