data_PCOD8125496
_publ_section_title
;
Structure prediction by ZEFSAII (Michael W. Deem and Ramdas Pophale) SiO2 
 PCOD8125496
Probable space group: P 21/C
;
_chemical_formula_sum "Si O2"
_cell_formula_units_Z 32
_cell_length_a 18.115786
_cell_length_b 12.028815
_cell_length_c 14.341993
_cell_angle_alpha 90.000000
_cell_angle_beta 151.844989
_cell_angle_gamma 90.000000
_cell_volume 1474.692330
_symmetry_space_group_name_H-M "P 21/C"
_symmetry_group_IT_number 14
_symmetry_cell_setting 'monoclinic'
loop_
_space_group_symop_operation_xyz
x,y,z
-x,1/2+y,1/2-z
-x,-y,-z
x,1/2-y,1/2+z
loop_
_atom_site_type_symbol
_atom_site_label
_atom_site_fract_x
_atom_site_fract_y
_atom_site_fract_z
Si Si1 0.227825 0.271630 0.923585
Si Si2 0.152746 0.051609 0.924432
Si Si3 0.284975 0.871918 0.950364
Si Si4 0.018165 0.921532 0.933499
Si Si5 0.427130 0.790641 0.756549
Si Si6 0.487987 0.453915 0.883849
Si Si7 0.400335 0.464321 0.178257
Si Si8 0.302723 0.722655 0.809952
O O1 0.122885 0.332426 0.727983
O O2 0.117774 0.175832 0.846821
O O3 0.388122 0.215515 0.063543
O O4 0.268789 0.368818 0.045254
O O5 0.310646 0.066804 0.159137
O O6 0.165529 0.966504 0.851813
O O7 0.019550 0.002614 0.844224
O O8 0.320321 0.792352 0.077839
O O9 0.444789 0.929814 0.093225
O O10 0.216381 0.812457 0.780975
O O11 0.180905 0.857524 0.123953
O O12 0.000000 0.000000 0.000000
O O13 0.409478 0.771741 0.846942
O O14 0.353442 0.912547 0.656098
O O15 0.563378 0.539311 0.893703
O O16 0.500000 0.500000 0.000000
O O17 0.583634 0.338780 0.988953
#
# Coordination Sequence:
#
# PCOD8125496 Si02
#       8
#     4   4   4   4   4   4   4   4
#     4  11  24  44  66  97 137 175 222 278 337 409
#     4  11  23  45  68  96 134 180 217 288 342 392
#     4  10  20  40  66  98 128 167 225 271 340 388
#     4  12  28  43  63 101 134 178 237 266 334 408
#     4  11  21  40  71  99 133 165 221 283 336 395
#     4  11  17  34  68  98 123 159 226 275 327 377
#     4  10  20  39  64 100 128 165 216 279 330 397
#     4  12  23  38  69  98 131 176 216 278 336 403
#
# _framework density 21.699442000000001
#
# number of rings (size 3 to 8) (size 9 to 14) (size 15 to 20)
#    0.000    1.000    6.250    3.000    1.750    2.500 
#    0.000    0.625    0.000    0.000    0.000    0.000 
#    0.000    0.000    0.000    0.000    0.000    0.000 
#
# Total GULP energy -396640.733720 kJ/mol
# GULP energy per Si atom -12395.022929 kJ/mol
# Density = 2.165005 g / cm^3
# Si number density = 21.699442 Si / 1000 Ang^3
#
#
#
# Elastic Constant Matrix: (Units=GPa)
#
#
# Indices 1 2 3 4 5 6 
#
# 1 88.0475 41.8428 20.5264 0.0000 -6.3602 0.0000
# 2 41.8428 147.2271 22.8841 0.0000 -2.9609 0.0000
# 3 20.5264 22.8841 35.4537 0.0000 -6.5842 0.0000
# 4 0.0000 0.0000 0.0000 30.6055 0.0000 -9.2741
# 5 -6.3602 -2.9609 -6.5842 0.0000 19.4502 0.0000
# 6 0.0000 0.0000 0.0000 -9.2741 0.0000 34.1448
#
#
#
# Elastic Compliance Matrix: (Units=1/GPa)
#
#
# Indices 1 2 3 4 5 6 
#
# 1 0.014378 -0.003125 -0.005892 0.000000 0.002231 0.000000
# 2 -0.003125 0.008234 -0.003695 0.000000 -0.001019 0.000000
# 3 -0.005892 -0.003695 0.035790 0.000000 0.009626 0.000000
# 4 0.000000 0.000000 0.000000 0.035604 0.000000 0.009670
# 5 0.002231 -0.001019 0.009626 0.000000 0.055246 0.000000
# 6 0.000000 0.000000 0.000000 0.009670 0.000000 0.031914
#
#
# Mechanical properties :
#
#
# Convention : Reuss Voigt Hill
#
# Bulk Modulus (GPa) = 30.32456 49.02610 39.67533
# Shear Modulus (GPa) = 22.97970 29.20511 26.09240
#
# Velocity S-wave (km/s) = 3.25776 3.67262 3.47139
# Velocity P-wave (km/s) = 5.30620 6.37389 5.86440
#
# Compressibility (1/GPa) = 0.03297657
#
# Stress axis : x y z
#
# Youngs Moduli (GPa) = 69.55219 121.44340 27.94085
#
# Poissons Ratio (x) = 0.37957 0.16464
# Poissons Ratio (y) = 0.21738 0.10323
# Poissons Ratio (z) = 0.40983 0.44870
#
# Static dielectric constant tensor:
#      x y z
#    x 3.846850 0.000000 0.029440 
#    y 0.000000 4.550060 0.000000 
#    z 0.029440 0.000000 3.807970 
# 
# 
# High freq. dielectric constant tensor:
#      x y z
#    x 1.832810 0.000000 -0.005620 
#    y 0.000000 1.872960 0.000000 
#    z -0.005620 0.000000 1.825090 
# 
# From -- ./inp_files/48931.got.cif
#   From: 2010.03.12/outbox.cif.g09.slc.cpg/sg14_25_cif.got.tgz:48931.got - 2010.03.31 13:35:05.
