data_PCOD8125572
_publ_section_title
;
Structure prediction by ZEFSAII (Michael W. Deem and Ramdas Pophale) SiO2 
 PCOD8125572
Probable space group: P 21/C
;
_chemical_formula_sum "Si O2"
_cell_formula_units_Z 28
_cell_length_a 10.727902
_cell_length_b 14.618188
_cell_length_c 9.570865
_cell_angle_alpha 90.000000
_cell_angle_beta 99.712945
_cell_angle_gamma 90.000000
_cell_volume 1479.411643
_symmetry_space_group_name_H-M "P 21/C"
_symmetry_group_IT_number 14
_symmetry_cell_setting 'monoclinic'
loop_
_space_group_symop_operation_xyz
x,y,z
-x,1/2+y,1/2-z
-x,-y,-z
x,1/2-y,1/2+z
loop_
_atom_site_type_symbol
_atom_site_label
_atom_site_fract_x
_atom_site_fract_y
_atom_site_fract_z
Si Si1 0.742883 0.457719 0.851455
Si Si2 0.881729 0.741164 0.672785
Si Si3 0.045057 0.907459 0.080619
Si Si4 0.754709 0.844753 0.402882
Si Si5 0.857866 0.183910 0.166085
Si Si6 0.513858 0.555256 0.861972
Si Si7 0.246790 0.620640 0.838129
O O1 0.815758 0.554882 0.883750
O O2 0.803291 0.401706 0.738841
O O3 0.595352 0.483199 0.781838
O O4 0.754803 0.405038 0.000076
O O5 0.811234 0.808671 0.556574
O O6 0.786410 0.722395 0.781672
O O7 0.919756 0.647319 0.602381
O O8 0.004710 0.792232 0.751448
O O9 0.131664 0.927210 0.233109
O O10 0.129461 0.845126 0.992820
O O11 0.000000 0.000000 0.000000
O O12 0.602626 0.854222 0.395430
O O13 0.764226 0.269437 0.167595
O O14 0.376108 0.587867 0.784594
O O15 0.500000 0.500000 0.000000
#
# Coordination Sequence:
#
# PCOD8125572 Si02
#       7
#     4   4   4   4   4   4   4
#     4   9  21  39  63  86 115 164 208 243 304 372
#     4  11  22  40  58  93 124 158 202 252 304 366
#     4  11  24  37  58  88 128 157 196 257 308 359
#     4  10  22  40  63  88 125 156 207 249 305 361
#     4  11  22  38  58  91 123 157 201 250 306 364
#     4   8  19  42  62  85 112 158 213 246 295 370
#     4  10  20  40  62  86 116 161 204 252 302 361
#
# _framework density 18.926442000000002
#
# number of rings (size 3 to 8) (size 9 to 14) (size 15 to 20)
#    0.857    1.143    1.429    2.571    4.000    0.571 
#    7.714    0.714    0.000    0.000    0.000    0.000 
#    0.000    0.000    0.000    0.000    0.000    0.000 
#
# Total GULP energy -346912.675466 kJ/mol
# GULP energy per Si atom -12389.738410 kJ/mol
# Density = 1.888337 g / cm^3
# Si number density = 18.926442 Si / 1000 Ang^3
#
#
#
# Elastic Constant Matrix: (Units=GPa)
#
#
# Indices 1 2 3 4 5 6 
#
# 1 90.1231 28.8985 20.5551 0.0000 -4.5436 0.0000
# 2 28.8985 78.1350 20.4341 0.0000 2.5166 0.0000
# 3 20.5551 20.4341 63.9477 0.0000 -7.4703 0.0000
# 4 0.0000 0.0000 0.0000 33.2248 0.0000 -7.1419
# 5 -4.5436 2.5166 -7.4703 0.0000 27.8319 0.0000
# 6 0.0000 0.0000 0.0000 -7.1419 0.0000 42.4730
#
#
#
# Elastic Compliance Matrix: (Units=1/GPa)
#
#
# Indices 1 2 3 4 5 6 
#
# 1 0.013150 -0.004225 -0.002665 0.000000 0.001814 0.000000
# 2 -0.004225 0.015499 -0.003963 0.000000 -0.003155 0.000000
# 3 -0.002665 -0.003963 0.018326 0.000000 0.004842 0.000000
# 4 0.000000 0.000000 0.000000 0.031227 0.000000 0.005251
# 5 0.001814 -0.003155 0.004842 0.000000 0.037811 0.000000
# 6 0.000000 0.000000 0.000000 0.005251 0.000000 0.024427
#
#
# Mechanical properties :
#
#
# Convention : Reuss Voigt Hill
#
# Bulk Modulus (GPa) = 39.57368 41.33122 40.45245
# Shear Modulus (GPa) = 29.31353 31.52715 30.42034
#
# Velocity S-wave (km/s) = 3.93977 4.08582 4.01346
# Velocity P-wave (km/s) = 6.45370 6.64408 6.54958
#
# Compressibility (1/GPa) = 0.02526932
#
# Stress axis : x y z
#
# Youngs Moduli (GPa) = 76.04589 64.52002 54.56601
#
# Poissons Ratio (x) = 0.27260 0.14541
# Poissons Ratio (y) = 0.32130 0.21625
# Poissons Ratio (z) = 0.20266 0.25570
#
# Static dielectric constant tensor:
#      x y z
#    x 3.760890 0.000000 -0.082730 
#    y 0.000000 3.693970 0.000000 
#    z -0.082730 0.000000 3.330830 
# 
# 
# High freq. dielectric constant tensor:
#      x y z
#    x 1.732690 0.000000 -0.013100 
#    y 0.000000 1.740190 0.000000 
#    z -0.013100 0.000000 1.722950 
# 
# From -- ./inp_files/13127.got.cif
#   From: 2010.03.12/outbox.cif.g09.slc.cpg/sg14_7_cif.got.tgz:13127.got - 2010.03.31 13:35:05.
