data_PCOD8125282
_publ_section_title
;
Structure prediction by ZEFSAII (Michael W. Deem and Ramdas Pophale) SiO2 
 PCOD8125282
Probable space group: P 21/C
;
_chemical_formula_sum "Si O2"
_cell_formula_units_Z 32
_cell_length_a 14.160033
_cell_length_b 16.028964
_cell_length_c 14.317140
_cell_angle_alpha 90.000000
_cell_angle_beta 152.083591
_cell_angle_gamma 90.000000
_cell_volume 1521.393428
_symmetry_space_group_name_H-M "P 21/C"
_symmetry_group_IT_number 14
_symmetry_cell_setting 'monoclinic'
loop_
_space_group_symop_operation_xyz
x,y,z
-x,1/2+y,1/2-z
-x,-y,-z
x,1/2-y,1/2+z
loop_
_atom_site_type_symbol
_atom_site_label
_atom_site_fract_x
_atom_site_fract_y
_atom_site_fract_z
Si Si1 0.916617 0.142263 0.988076
Si Si2 0.155150 0.201875 0.897803
Si Si3 0.816265 0.939425 0.621761
Si Si4 0.177639 0.293446 0.207120
Si Si5 0.167811 0.889199 0.285330
Si Si6 0.508606 0.193501 0.717995
Si Si7 0.602009 0.283339 0.506294
Si Si8 0.998056 0.860542 0.622088
O O1 0.842630 0.089161 0.834007
O O2 0.729068 0.194302 0.866069
O O3 0.023333 0.085575 0.157962
O O4 0.072766 0.208494 0.080656
O O5 0.093698 0.185793 0.736354
O O6 0.066748 0.288594 0.860404
O O7 0.061114 0.126576 0.875544
O O8 0.398382 0.215403 0.112572
O O9 0.622826 0.878678 0.447773
O O10 0.936684 0.942949 0.627305
O O11 0.737711 0.031810 0.578240
O O12 0.418468 0.279569 0.419111
O O13 0.118040 0.362885 0.078233
O O14 0.307316 0.809202 0.428150
O O15 0.524444 0.176827 0.842095
O O16 0.765220 0.348174 0.690960
#
# Coordination Sequence:
#
# PCOD8125282 Si02
#       8
#     4   4   4   4   4   4   4   4
#     4  12  21  38  64  94 123 161 199 252 314 368
#     4  10  20  38  59  88 119 156 205 254 290 355
#     4  11  23  42  60  88 135 162 194 250 318 372
#     4  12  20  37  66  89 117 156 214 258 287 354
#     4  11  24  40  59  94 131 162 196 255 316 365
#     4  11  21  39  64  89 121 164 209 244 303 363
#     4  11  20  38  61  90 118 159 210 247 298 357
#     4  10  20  38  61  83 118 160 202 247 301 357
#
# _framework density 21.033351
#
# number of rings (size 3 to 8) (size 9 to 14) (size 15 to 20)
#    0.000    1.000    8.750    1.875    0.000    0.500 
#    4.500    0.625    0.000    0.750    0.000    0.000 
#    0.000    0.000    0.000    0.000    0.000    0.000 
#
# Total GULP energy -396566.458614 kJ/mol
# GULP energy per Si atom -12392.701832 kJ/mol
# Density = 2.098548 g / cm^3
# Si number density = 21.033351 Si / 1000 Ang^3
#
#
#
# Elastic Constant Matrix: (Units=GPa)
#
#
# Indices 1 2 3 4 5 6 
#
# 1 107.2245 2.5434 33.0612 0.0000 -4.1378 0.0000
# 2 2.5434 26.9095 7.6973 0.0000 1.7490 0.0000
# 3 33.0612 7.6973 92.2719 0.0000 0.9924 0.0000
# 4 0.0000 0.0000 0.0000 17.6825 0.0000 -2.3599
# 5 -4.1378 1.7490 0.9924 0.0000 44.5802 0.0000
# 6 0.0000 0.0000 0.0000 -2.3599 0.0000 15.2784
#
#
#
# Elastic Compliance Matrix: (Units=1/GPa)
#
#
# Indices 1 2 3 4 5 6 
#
# 1 0.010535 0.000019 -0.003788 0.000000 0.001061 0.000000
# 2 0.000019 0.038160 -0.003175 0.000000 -0.001425 0.000000
# 3 -0.003788 -0.003175 0.012465 0.000000 -0.000504 0.000000
# 4 0.000000 0.000000 0.000000 0.057743 0.000000 0.008919
# 5 0.001061 -0.001425 -0.000504 0.000000 0.022597 0.000000
# 6 0.000000 0.000000 0.000000 0.008919 0.000000 0.066830
#
#
# Mechanical properties :
#
#
# Convention : Reuss Voigt Hill
#
# Bulk Modulus (GPa) = 21.15379 34.77887 27.96633
# Shear Modulus (GPa) = 21.01064 27.71516 24.36290
#
# Velocity S-wave (km/s) = 3.16400 3.63392 3.40707
# Velocity P-wave (km/s) = 4.84014 5.84621 5.36680
#
# Compressibility (1/GPa) = 0.04727285
#
# Stress axis : x y z
#
# Youngs Moduli (GPa) = 94.92552 26.20512 80.22538
#
# Poissons Ratio (x) = -0.00049 0.30386
# Poissons Ratio (y) = -0.00178 0.25469
# Poissons Ratio (z) = 0.35953 0.08319
#
# Static dielectric constant tensor:
#      x y z
#    x 4.014700 0.000000 0.113610 
#    y 0.000000 3.418640 0.000000 
#    z 0.113610 0.000000 4.012100 
# 
# 
# High freq. dielectric constant tensor:
#      x y z
#    x 1.841800 0.000000 -0.003500 
#    y 0.000000 1.761540 0.000000 
#    z -0.003500 0.000000 1.833010 
# 
# From -- ./inp_files/47554.got.cif
#   From: 2010.03.12/outbox.cif.g09.slc.cpg/sg14_24_cif.got.tgz:47554.got - 2010.03.31 13:35:05.
