data_PCOD8125105
_publ_section_title
;
Structure prediction by ZEFSAII (Michael W. Deem and Ramdas Pophale) SiO2 
 PCOD8125105
Probable space group: P 21/C
;
_chemical_formula_sum "Si O2"
_cell_formula_units_Z 32
_cell_length_a 23.030405
_cell_length_b 11.674701
_cell_length_c 16.954243
_cell_angle_alpha 90.000000
_cell_angle_beta 20.478375
_cell_angle_gamma 90.000000
_cell_volume 1594.822591
_symmetry_space_group_name_H-M "P 21/C"
_symmetry_group_IT_number 14
_symmetry_cell_setting 'monoclinic'
loop_
_space_group_symop_operation_xyz
x,y,z
-x,1/2+y,1/2-z
-x,-y,-z
x,1/2-y,1/2+z
loop_
_atom_site_type_symbol
_atom_site_label
_atom_site_fract_x
_atom_site_fract_y
_atom_site_fract_z
Si Si1 0.062362 0.811296 0.798939
Si Si2 0.852218 0.927248 0.326210
Si Si3 0.774250 0.720102 0.779017
Si Si4 0.538097 0.179257 0.902530
Si Si5 0.217048 0.887451 0.184807
Si Si6 0.438823 0.074312 0.189440
Si Si7 0.901184 0.258730 0.420842
Si Si8 0.037571 0.407064 0.863377
O O1 0.182531 0.744363 0.706895
O O2 0.067111 0.739461 0.712300
O O3 0.134736 0.936901 0.695085
O O4 0.878003 0.815052 0.069310
O O5 0.783915 0.883433 0.329097
O O6 0.727258 0.889392 0.554280
O O7 0.029654 0.872182 0.123474
O O8 0.845713 0.834687 0.726961
O O9 0.586661 0.745208 0.991358
O O10 0.708208 0.250812 0.689660
O O11 0.575544 0.057568 0.815883
O O12 0.461811 0.159272 0.086274
O O13 0.142507 0.920024 0.365790
O O14 0.125897 0.970654 0.237174
O O15 0.411969 0.909469 0.938568
O O16 0.007290 0.150231 0.317694
#
# Coordination Sequence:
#
# PCOD8125105 Si02
#       8
#     4   4   4   4   4   4   4   4
#     4  11  24  40  65  90 129 172 214 246 325 380
#     4  11  25  42  62  91 130 174 207 256 322 389
#     4  10  22  42  64  88 128 171 207 258 309 389
#     4  11  22  40  67  98 123 160 211 275 317 362
#     4  10  20  36  66  95 122 160 205 269 306 375
#     4  11  22  38  67  97 129 154 217 273 318 360
#     4  11  23  40  62  92 132 164 209 261 310 388
#     4   9  19  38  63  95 122 157 208 256 321 362
#
# _framework density 20.064927000000001
#
# number of rings (size 3 to 8) (size 9 to 14) (size 15 to 20)
#    0.000    1.500    3.750    1.125    3.500    0.000 
#    0.000    0.625    0.000    0.000    0.000    0.000 
#    0.000    0.000    0.000    0.000    0.000    0.000 
#
# Total GULP energy -396881.160627 kJ/mol
# GULP energy per Si atom -12402.536270 kJ/mol
# Density = 2.001926 g / cm^3
# Si number density = 20.064927 Si / 1000 Ang^3
#
#
#
# Elastic Constant Matrix: (Units=GPa)
#
#
# Indices 1 2 3 4 5 6 
#
# 1 81.2914 26.3364 45.7620 0.0000 -1.5613 0.0000
# 2 26.3364 81.8559 31.8760 0.0000 -7.5353 0.0000
# 3 45.7620 31.8760 118.2067 0.0000 -9.6891 0.0000
# 4 0.0000 0.0000 0.0000 25.0394 0.0000 0.4812
# 5 -1.5613 -7.5353 -9.6891 0.0000 35.3482 0.0000
# 6 0.0000 0.0000 0.0000 0.4812 0.0000 21.5562
#
#
#
# Elastic Compliance Matrix: (Units=1/GPa)
#
#
# Indices 1 2 3 4 5 6 
#
# 1 0.016498 -0.003253 -0.005633 0.000000 -0.001509 0.000000
# 2 -0.003253 0.014423 -0.002445 0.000000 0.002261 0.000000
# 3 -0.005633 -0.002445 0.011495 0.000000 0.002381 0.000000
# 4 0.000000 0.000000 0.000000 0.039954 0.000000 -0.000892
# 5 -0.001509 0.002261 0.002381 0.000000 0.029358 0.000000
# 6 0.000000 0.000000 0.000000 -0.000892 0.000000 0.046410
#
#
# Mechanical properties :
#
#
# Convention : Reuss Voigt Hill
#
# Bulk Modulus (GPa) = 50.62338 54.36698 52.49518
# Shear Modulus (GPa) = 26.68301 28.21406 27.44853
#
# Velocity S-wave (km/s) = 3.65064 3.75392 3.70264
# Velocity P-wave (km/s) = 6.56157 6.77817 6.67075
#
# Compressibility (1/GPa) = 0.01975372
#
# Stress axis : x y z
#
# Youngs Moduli (GPa) = 60.61513 69.33170 86.99451
#
# Poissons Ratio (x) = 0.22555 0.49006
# Poissons Ratio (y) = 0.19719 0.21268
# Poissons Ratio (z) = 0.34146 0.16950
#
# Static dielectric constant tensor:
#      x y z
#    x 3.642150 0.000000 0.003370 
#    y 0.000000 3.529350 0.000000 
#    z 0.003370 0.000000 3.596390 
# 
# 
# High freq. dielectric constant tensor:
#      x y z
#    x 1.784870 0.000000 -0.002550 
#    y 0.000000 1.773760 0.000000 
#    z -0.002550 0.000000 1.779680 
# 
# From -- ./inp_files/61978.got.cif
#   From: 2010.03.12/outbox.cif.g09.slc.cpg/sg14_31_cif.got.tgz:61978.got - 2010.03.31 13:35:05.
