data_PCOD8125909
_publ_section_title
;
Structure prediction by ZEFSAII (Michael W. Deem and Ramdas Pophale) SiO2 
 PCOD8125909
Probable space group: P 21/C
;
_chemical_formula_sum "Si O2"
_cell_formula_units_Z 32
_cell_length_a 9.889177
_cell_length_b 26.102566
_cell_length_c 13.961805
_cell_angle_alpha 90.000000
_cell_angle_beta 27.302244
_cell_angle_gamma 90.000000
_cell_volume 1653.098949
_symmetry_space_group_name_H-M "P 21/C"
_symmetry_group_IT_number 14
_symmetry_cell_setting 'monoclinic'
loop_
_space_group_symop_operation_xyz
x,y,z
-x,1/2+y,1/2-z
-x,-y,-z
x,1/2-y,1/2+z
loop_
_atom_site_type_symbol
_atom_site_label
_atom_site_fract_x
_atom_site_fract_y
_atom_site_fract_z
Si Si1 0.384815 0.223846 0.657026
Si Si2 0.481869 0.953248 0.636611
Si Si3 0.848371 0.636549 0.821177
Si Si4 0.840380 0.204597 0.532100
Si Si5 0.208697 0.385738 0.716744
Si Si6 0.690399 0.190711 0.844839
Si Si7 0.332080 0.940006 0.948672
Si Si8 0.945065 0.473542 0.762479
O O1 0.336423 0.168985 0.638907
O O2 0.552836 0.216443 0.650827
O O3 0.584583 0.257559 0.461349
O O4 0.071811 0.249646 0.874653
O O5 0.624020 0.899124 0.519659
O O6 0.374536 0.952658 0.811919
O O7 0.198214 0.964033 0.750450
O O8 0.715543 0.999059 0.478017
O O9 0.002532 0.673840 0.800720
O O10 0.086604 0.603961 0.612262
O O11 0.735647 0.202279 0.706160
O O12 0.980873 0.150695 0.414204
O O13 0.451196 0.354050 0.505728
O O14 0.359531 0.421777 0.701063
O O15 0.033159 0.419510 0.751301
O O16 0.231731 0.990953 0.067898
#
# Coordination Sequence:
#
# PCOD8125909 Si02
#       8
#     4   4   4   4   4   4   4   4
#     4  11  23  40  58  88 116 152 200 248 291 361
#     4  10  21  36  59  85 115 155 196 236 297 348
#     4  10  21  39  58  82 121 151 192 249 292 341
#     4  11  24  38  62  86 116 155 200 239 303 356
#     4  10  22  39  57  86 119 150 198 243 292 354
#     4  10  23  40  59  86 119 154 196 250 296 352
#     4  10  21  37  58  85 115 155 194 239 293 349
#     4  10  21  37  57  86 119 151 193 247 285 346
#
# _framework density 19.357583000000002
#
# number of rings (size 3 to 8) (size 9 to 14) (size 15 to 20)
#    0.000    1.750    1.250    2.250    1.750    3.500 
#    0.000    0.000    0.000    0.000    0.000    0.000 
#    0.000    0.000    0.000    0.000    0.000    0.000 
#
# Total GULP energy -397013.099629 kJ/mol
# GULP energy per Si atom -12406.659363 kJ/mol
# Density = 1.931352 g / cm^3
# Si number density = 19.357583 Si / 1000 Ang^3
#
#
#
# Elastic Constant Matrix: (Units=GPa)
#
#
# Indices 1 2 3 4 5 6 
#
# 1 95.2953 20.3661 34.8979 0.0000 8.4370 0.0000
# 2 20.3661 47.5352 16.7843 0.0000 0.3298 0.0000
# 3 34.8979 16.7843 43.6316 0.0000 12.4307 0.0000
# 4 0.0000 0.0000 0.0000 11.9258 0.0000 8.6432
# 5 8.4370 0.3298 12.4307 0.0000 32.5946 0.0000
# 6 0.0000 0.0000 0.0000 8.6432 0.0000 -10.9520
#
#
#
# Elastic Compliance Matrix: (Units=1/GPa)
#
#
# Indices 1 2 3 4 5 6 
#
# 1 0.015108 -0.002510 -0.011232 0.000000 0.000398 0.000000
# 2 -0.002510 0.025172 -0.008738 0.000000 0.003727 0.000000
# 3 -0.011232 -0.008738 0.038605 0.000000 -0.011727 0.000000
# 4 0.000000 0.000000 0.000000 0.053342 0.000000 0.042097
# 5 0.000398 0.003727 -0.011727 0.000000 0.035012 0.000000
# 6 0.000000 0.000000 0.000000 0.042097 0.000000 -0.058085
#
#
# Mechanical properties :
#
#
# Convention : Reuss Voigt Hill
#
# Bulk Modulus (GPa) = 29.47570 36.72875 33.10223
# Shear Modulus (GPa) = 30.22604 14.34127 22.28365
#
# Velocity S-wave (km/s) = 3.95581 2.72483 3.39655
# Velocity P-wave (km/s) = 6.01038 5.37723 5.70260
#
# Compressibility (1/GPa) = 0.03392625
#
# Stress axis : x y z
#
# Youngs Moduli (GPa) = 66.19000 39.72723 25.90337
#
# Poissons Ratio (x) = 0.09971 0.29094
# Poissons Ratio (y) = 0.16612 0.22633
# Poissons Ratio (z) = 0.74344 0.34712
#
# Static dielectric constant tensor:
#      x y z
#    x 3.508780 0.000000 -0.151390 
#    y 0.000000 3.652480 0.000000 
#    z -0.151390 0.000000 3.485270 
# 
# 
# High freq. dielectric constant tensor:
#      x y z
#    x 1.761960 0.000000 -0.005470 
#    y 0.000000 1.764970 0.000000 
#    z -0.005470 0.000000 1.753390 
# 
# From -- ./inp_files/27145.got.cif
#   From: 2010.03.12/outbox.cif.g09.slc.cpg/sg14_14_cif.got.tgz:27145.got - 2010.03.31 13:35:05.
