data_PCOD8125201
_publ_section_title
;
Structure prediction by ZEFSAII (Michael W. Deem and Ramdas Pophale) SiO2 
 PCOD8125201
Probable space group: P 21/C
;
_chemical_formula_sum "Si O2"
_cell_formula_units_Z 28
_cell_length_a 7.807051
_cell_length_b 8.850362
_cell_length_c 14.390655
_cell_angle_alpha 90.000000
_cell_angle_beta 84.254559
_cell_angle_gamma 90.000000
_cell_volume 989.330574
_symmetry_space_group_name_H-M "P 21/C"
_symmetry_group_IT_number 14
_symmetry_cell_setting 'monoclinic'
loop_
_space_group_symop_operation_xyz
x,y,z
-x,1/2+y,1/2-z
-x,-y,-z
x,1/2-y,1/2+z
loop_
_atom_site_type_symbol
_atom_site_label
_atom_site_fract_x
_atom_site_fract_y
_atom_site_fract_z
Si Si1 0.284076 0.812521 0.582130
Si Si2 0.496116 0.023979 0.687099
Si Si3 0.596172 0.679710 0.453744
Si Si4 0.330165 0.027518 0.882932
Si Si5 0.062769 0.898626 0.219105
Si Si6 0.806795 0.289645 0.104675
Si Si7 0.235574 0.200244 0.237470
O O1 0.338771 0.962980 0.632685
O O2 0.453106 0.768535 0.517329
O O3 0.216324 0.686878 0.657750
O O4 0.144961 0.835072 0.504899
O O5 0.393510 0.103088 0.780603
O O6 0.609173 0.155086 0.634654
O O7 0.623357 0.885784 0.707169
O O8 0.733851 0.635649 0.528634
O O9 0.516911 0.531975 0.408710
O O10 0.688089 0.771881 0.363252
O O11 0.194157 0.891746 0.878810
O O12 0.063237 0.863440 0.329876
O O13 0.090835 0.078217 0.209470
O O14 0.874993 0.831429 0.196688
#
# Coordination Sequence:
#
# PCOD8125201 Si02
#       7
#     4   4   4   4   4   4   4
#     4  11  21  40  69  95 126 165 219 272 331 380
#     4  10  20  37  62  94 128 163 210 273 330 385
#     4   9  18  36  64  90 118 161 220 266 302 380
#     4   9  16  32  59  88 114 158 205 266 311 361
#     4  11  23  46  65  94 135 178 211 271 326 394
#     4  10  20  37  61  90 125 162 212 262 326 382
#     4  10  23  45  65  92 136 174 218 266 330 385
#
# _framework density 28.301967000000001
#
# number of rings (size 3 to 8) (size 9 to 14) (size 15 to 20)
#    0.000    2.000    1.429    4.714    0.000    0.000 
#   15.429    2.857    0.000    0.000    0.000    0.000 
#    0.000    0.000    0.000    0.000    0.000    0.000 
#
# Total GULP energy -346896.924936 kJ/mol
# GULP energy per Si atom -12389.175891 kJ/mol
# Density = 2.823755 g / cm^3
# Si number density = 28.301967 Si / 1000 Ang^3
#
#
#
# Elastic Constant Matrix: (Units=GPa)
#
#
# Indices 1 2 3 4 5 6 
#
# 1 70.4588 -3.6486 -10.7683 0.0000 -14.2092 0.0000
# 2 -3.6486 78.8692 3.9084 0.0000 -28.3116 0.0000
# 3 -10.7683 3.9084 130.8935 0.0000 9.7936 0.0000
# 4 0.0000 0.0000 0.0000 48.6391 0.0000 -1.8564
# 5 -14.2092 -28.3116 9.7936 0.0000 32.2899 0.0000
# 6 0.0000 0.0000 0.0000 -1.8564 0.0000 32.5426
#
#
#
# Elastic Compliance Matrix: (Units=1/GPa)
#
#
# Indices 1 2 3 4 5 6 
#
# 1 0.016850 0.004937 0.000369 0.000000 0.011632 0.000000
# 2 0.004937 0.020377 -0.001741 0.000000 0.020567 0.000000
# 3 0.000369 -0.001741 0.008006 0.000000 -0.003793 0.000000
# 4 0.000000 0.000000 0.000000 0.020604 0.000000 0.001175
# 5 0.011632 0.020567 -0.003793 0.000000 0.055271 0.000000
# 6 0.000000 0.000000 0.000000 0.001175 0.000000 0.030796
#
#
# Mechanical properties :
#
#
# Convention : Reuss Voigt Hill
#
# Bulk Modulus (GPa) = 19.09816 28.80052 23.94934
# Shear Modulus (GPa) = 30.82044 42.07631 36.44837
#
# Velocity S-wave (km/s) = 3.30356 3.85995 3.59254
# Velocity P-wave (km/s) = 4.61671 5.48305 5.06842
#
# Compressibility (1/GPa) = 0.05236106
#
# Stress axis : x y z
#
# Youngs Moduli (GPa) = 59.34591 49.07573 124.90826
#
# Poissons Ratio (x) = -0.24227 -0.04603
# Poissons Ratio (y) = -0.29297 0.21748
# Poissons Ratio (z) = -0.02187 0.08545
#
# Static dielectric constant tensor:
#      x y z
#    x 5.357680 0.000000 1.038640 
#    y 0.000000 5.220820 0.000000 
#    z 1.038640 0.000000 7.148650 
# 
# 
# High freq. dielectric constant tensor:
#      x y z
#    x 2.138370 0.000000 0.021980 
#    y 0.000000 2.154250 0.000000 
#    z 0.021980 0.000000 2.163150 
# 
# From -- ./inp_files/40003.got.cif
#   From: 2010.03.12/outbox.cif.g09.slc.cpg/sg14_21_cif.got.tgz:40003.got - 2010.03.31 13:35:05.
