data_PCOD8125388
_publ_section_title
;
Structure prediction by ZEFSAII (Michael W. Deem and Ramdas Pophale) SiO2 
 PCOD8125388
Probable space group: P 21/C
;
_chemical_formula_sum "Si O2"
_cell_formula_units_Z 20
_cell_length_a 7.472706
_cell_length_b 18.558394
_cell_length_c 8.341393
_cell_angle_alpha 90.000000
_cell_angle_beta 52.361797
_cell_angle_gamma 90.000000
_cell_volume 916.046866
_symmetry_space_group_name_H-M "P 21/C"
_symmetry_group_IT_number 14
_symmetry_cell_setting 'monoclinic'
loop_
_space_group_symop_operation_xyz
x,y,z
-x,1/2+y,1/2-z
-x,-y,-z
x,1/2-y,1/2+z
loop_
_atom_site_type_symbol
_atom_site_label
_atom_site_fract_x
_atom_site_fract_y
_atom_site_fract_z
Si Si1 0.259272 0.683697 0.272785
Si Si2 0.142074 0.832655 0.483845
Si Si3 0.935695 0.440338 0.407699
Si Si4 0.250730 0.521031 0.807391
Si Si5 0.717297 0.611866 0.035902
O O1 0.256553 0.764214 0.339731
O O2 0.116742 0.677531 0.187731
O O3 0.157169 0.631509 0.461540
O O4 0.518832 0.664935 0.092176
O O5 0.305532 0.900923 0.354251
O O6 0.891495 0.844151 0.551621
O O7 0.747425 0.473663 0.387847
O O8 0.000000 0.500000 0.500000
O O9 0.160991 0.418147 0.188894
O O10 0.398679 0.455385 0.799903
O O11 0.000000 0.500000 0.000000
#
# Coordination Sequence:
#
# PCOD8125388 Si02
#       5
#     4   4   4   4   4
#     4  12  24  40  65  91 122 168 207 249 320 375
#     4  10  22  41  61  89 124 156 205 258 299 364
#     4  10  20  38  64  95 126 160 206 257 307 369
#     4   8  17  38  62  85 120 157 197 253 300 349
#     4  10  23  43  64  91 126 162 206 260 309 365
#
# _framework density 21.832943
#
# number of rings (size 3 to 8) (size 9 to 14) (size 15 to 20)
#    0.000    2.400    0.000    6.000    0.000    7.200 
#    0.000    8.000    0.000    0.000    0.000    0.000 
#    0.000    0.000    0.000    0.000    0.000    0.000 
#
# Total GULP energy -247948.761292 kJ/mol
# GULP energy per Si atom -12397.438065 kJ/mol
# Density = 2.178325 g / cm^3
# Si number density = 21.832943 Si / 1000 Ang^3
#
#
#
# Elastic Constant Matrix: (Units=GPa)
#
#
# Indices 1 2 3 4 5 6 
#
# 1 73.4596 48.4203 47.9245 0.0000 18.4786 0.0000
# 2 48.4203 163.4655 48.7657 0.0000 8.7771 0.0000
# 3 47.9245 48.7657 108.1943 0.0000 30.4046 0.0000
# 4 0.0000 0.0000 0.0000 46.5558 0.0000 6.4275
# 5 18.4786 8.7771 30.4046 0.0000 37.0807 0.0000
# 6 0.0000 0.0000 0.0000 6.4275 0.0000 28.6193
#
#
#
# Elastic Compliance Matrix: (Units=1/GPa)
#
#
# Indices 1 2 3 4 5 6 
#
# 1 0.021786 -0.004289 -0.006434 0.000000 -0.004566 0.000000
# 2 -0.004289 0.007955 -0.002283 0.000000 0.002127 0.000000
# 3 -0.006434 -0.002283 0.015682 0.000000 -0.009112 0.000000
# 4 0.000000 0.000000 0.000000 0.022167 0.000000 -0.004978
# 5 -0.004566 0.002127 -0.009112 0.000000 0.036212 0.000000
# 6 0.000000 0.000000 0.000000 -0.004978 0.000000 0.036059
#
#
# Mechanical properties :
#
#
# Convention : Reuss Voigt Hill
#
# Bulk Modulus (GPa) = 51.51671 70.59339 61.05505
# Shear Modulus (GPa) = 29.01188 35.78510 32.39849
#
# Velocity S-wave (km/s) = 3.64924 4.05290 3.85636
# Velocity P-wave (km/s) = 6.43452 7.36919 6.91766
#
# Compressibility (1/GPa) = 0.01941118
#
# Stress axis : x y z
#
# Youngs Moduli (GPa) = 45.90173 125.70947 63.76589
#
# Poissons Ratio (x) = 0.53912 0.41026
# Poissons Ratio (y) = 0.19686 0.14560
# Poissons Ratio (z) = 0.29532 0.28704
#
# Static dielectric constant tensor:
#      x y z
#    x 3.901880 0.000000 0.318380 
#    y 0.000000 4.891120 0.000000 
#    z 0.318380 0.000000 3.854230 
# 
# 
# High freq. dielectric constant tensor:
#      x y z
#    x 1.845190 0.000000 0.023740 
#    y 0.000000 1.874620 0.000000 
#    z 0.023740 0.000000 1.856660 
# 
# From -- ./inp_files/8972.got.cif
#   From: 2010.03.12/outbox.cif.g09.slc.cpg/sg14_5_cif.got.tgz:8972.got - 2010.03.31 13:35:05.
