data_PCOD8125328
_publ_section_title
;
Structure prediction by ZEFSAII (Michael W. Deem and Ramdas Pophale) SiO2 
 PCOD8125328
Probable space group: P 21/C
;
_chemical_formula_sum "Si O2"
_cell_formula_units_Z 28
_cell_length_a 13.093705
_cell_length_b 19.494030
_cell_length_c 8.527530
_cell_angle_alpha 90.000000
_cell_angle_beta 136.582188
_cell_angle_gamma 90.000000
_cell_volume 1496.036605
_symmetry_space_group_name_H-M "P 21/C"
_symmetry_group_IT_number 14
_symmetry_cell_setting 'monoclinic'
loop_
_space_group_symop_operation_xyz
x,y,z
-x,1/2+y,1/2-z
-x,-y,-z
x,1/2-y,1/2+z
loop_
_atom_site_type_symbol
_atom_site_label
_atom_site_fract_x
_atom_site_fract_y
_atom_site_fract_z
Si Si1 0.744354 0.158246 0.692234
Si Si2 0.446635 0.535253 0.096524
Si Si3 0.240775 0.447560 0.071229
Si Si4 0.508134 0.152261 0.907139
Si Si5 0.050084 0.555026 0.429900
Si Si6 0.708171 0.477582 0.559313
Si Si7 0.375712 0.740844 0.195704
O O1 0.598223 0.111498 0.501474
O O2 0.756096 0.203206 0.548291
O O3 0.715933 0.207785 0.802998
O O4 0.893759 0.117759 0.900015
O O5 0.303167 0.497163 0.005983
O O6 0.577245 0.531717 0.371349
O O7 0.500000 0.500000 0.000000
O O8 0.346970 0.382641 0.218418
O O9 0.213693 0.491835 0.199147
O O10 0.083038 0.420443 0.831784
O O11 0.513325 0.215516 0.790965
O O12 0.637830 0.097016 0.015592
O O13 0.530365 0.184030 0.104506
O O14 0.181154 0.527022 0.464311
O O15 0.000000 0.500000 0.500000
#
# Coordination Sequence:
#
# PCOD8125328 Si02
#       7
#     4   4   4   4   4   4   4
#     4  11  20  38  56  88 115 154 202 235 301 350
#     4  11  18  35  62  88 119 148 197 251 296 344
#     4  11  22  36  57  90 123 150 187 253 308 351
#     4  10  20  38  61  87 112 153 201 244 293 342
#     4  12  23  38  57  88 124 158 193 248 312 364
#     4  11  21  37  59  91 119 155 194 250 304 351
#     4  10  21  36  63  82 113 157 204 245 272 364
#
# _framework density 18.71612
#
# number of rings (size 3 to 8) (size 9 to 14) (size 15 to 20)
#    0.000    1.143    4.286    4.714    0.000    0.000 
#    0.000    1.429    0.000    0.000    0.000    0.000 
#    0.000    0.000    0.000    0.000    0.000    0.000 
#
# Total GULP energy -347140.046051 kJ/mol
# GULP energy per Si atom -12397.858788 kJ/mol
# Density = 1.867352 g / cm^3
# Si number density = 18.716120 Si / 1000 Ang^3
#
#
#
# Elastic Constant Matrix: (Units=GPa)
#
#
# Indices 1 2 3 4 5 6 
#
# 1 74.1103 45.3915 37.9702 0.0000 -7.6286 0.0000
# 2 45.3915 117.4892 73.0815 0.0000 -5.8107 0.0000
# 3 37.9702 73.0815 139.9998 0.0000 -1.1711 0.0000
# 4 0.0000 0.0000 0.0000 31.4007 0.0000 8.6678
# 5 -7.6286 -5.8107 -1.1711 0.0000 34.9713 0.0000
# 6 0.0000 0.0000 0.0000 8.6678 0.0000 7.1291
#
#
#
# Elastic Compliance Matrix: (Units=1/GPa)
#
#
# Indices 1 2 3 4 5 6 
#
# 1 0.018297 -0.005702 -0.001961 0.000000 0.002978 0.000000
# 2 -0.005702 0.014505 -0.006017 0.000000 0.000965 0.000000
# 3 -0.001961 -0.006017 0.010807 0.000000 -0.001066 0.000000
# 4 0.000000 0.000000 0.000000 0.047934 0.000000 -0.058279
# 5 0.002978 0.000965 -0.001066 0.000000 0.029369 0.000000
# 6 0.000000 0.000000 0.000000 -0.058279 0.000000 0.211126
#
#
# Mechanical properties :
#
#
# Convention : Reuss Voigt Hill
#
# Bulk Modulus (GPa) = 61.54418 71.60953 66.57686
# Shear Modulus (GPa) = 13.70560 26.37730 20.04145
#
# Velocity S-wave (km/s) = 2.70902 3.75819 3.27588
# Velocity P-wave (km/s) = 6.53754 7.56147 7.06807
#
# Compressibility (1/GPa) = 0.01624849
#
# Stress axis : x y z
#
# Youngs Moduli (GPa) = 54.65374 68.94230 92.53348
#
# Poissons Ratio (x) = 0.39310 0.18147
# Poissons Ratio (y) = 0.31163 0.55679
# Poissons Ratio (z) = 0.10718 0.41484
#
# Static dielectric constant tensor:
#      x y z
#    x 3.408460 0.000000 -0.161940 
#    y 0.000000 4.042480 0.000000 
#    z -0.161940 0.000000 4.346130 
# 
# 
# High freq. dielectric constant tensor:
#      x y z
#    x 1.716280 0.000000 -0.029040 
#    y 0.000000 1.726180 0.000000 
#    z -0.029040 0.000000 1.739970 
# 
# From -- ./inp_files/9357.got.cif
#   From: 2010.03.12/outbox.cif.g09.slc.cpg/sg14_5_cif.got.tgz:9357.got - 2010.03.31 13:35:05.
