data_PCOD8125138
_publ_section_title
;
Structure prediction by ZEFSAII (Michael W. Deem and Ramdas Pophale) SiO2 
 PCOD8125138
Probable space group: P 21/C
;
_chemical_formula_sum "Si O2"
_cell_formula_units_Z 28
_cell_length_a 25.217846
_cell_length_b 5.340895
_cell_length_c 29.344671
_cell_angle_alpha 90.000000
_cell_angle_beta 19.860629
_cell_angle_gamma 90.000000
_cell_volume 1342.732347
_symmetry_space_group_name_H-M "P 21/C"
_symmetry_group_IT_number 14
_symmetry_cell_setting 'monoclinic'
loop_
_space_group_symop_operation_xyz
x,y,z
-x,1/2+y,1/2-z
-x,-y,-z
x,1/2-y,1/2+z
loop_
_atom_site_type_symbol
_atom_site_label
_atom_site_fract_x
_atom_site_fract_y
_atom_site_fract_z
Si Si1 0.974844 0.853667 0.913822
Si Si2 0.912635 0.537125 0.766710
Si Si3 0.451643 0.800858 0.350870
Si Si4 0.200266 0.536407 0.600785
Si Si5 0.304271 0.643375 0.314191
Si Si6 0.287338 0.038489 0.406139
Si Si7 0.088251 0.750051 0.413913
O O1 0.102248 0.748666 0.847191
O O2 0.891725 0.632533 0.951587
O O3 0.054254 0.045993 0.814394
O O4 0.838271 0.974434 0.053640
O O5 0.819369 0.282305 0.852145
O O6 0.076241 0.535573 0.660431
O O7 0.809779 0.780692 0.862296
O O8 0.375225 0.560765 0.438025
O O9 0.580587 0.751531 0.207271
O O10 0.535697 0.983793 0.319466
O O11 0.305841 0.929413 0.442034
O O12 0.258028 0.751474 0.301537
O O13 0.327749 0.859956 0.331579
O O14 0.000000 0.500000 0.500000
O O15 0.000000 0.000000 0.500000
#
# Coordination Sequence:
#
# PCOD8125138 Si02
#       7
#     4   4   4   4   4   4   4
#     4  10  22  36  61  86 120 151 205 258 296 366
#     4  10  23  38  59  84 110 165 203 248 298 354
#     4  11  23  34  55  87 124 161 193 249 308 383
#     4  10  24  39  56  81 122 157 203 243 300 366
#     4  10  21  36  56  88 121 157 195 241 321 368
#     4  11  21  33  57  89 120 157 195 245 318 371
#     4  10  20  37  58  87 121 155 195 253 308 356
#
# _framework density 20.853002
#
# number of rings (size 3 to 8) (size 9 to 14) (size 15 to 20)
#    0.000    1.714    2.857    0.857   12.000    0.000 
#    0.000    0.000    0.000    1.714    0.000    0.000 
#    0.000    0.000    0.000    0.000    0.000    0.000 
#
# Total GULP energy -347031.508932 kJ/mol
# GULP energy per Si atom -12393.982462 kJ/mol
# Density = 2.080554 g / cm^3
# Si number density = 20.853002 Si / 1000 Ang^3
#
#
#
# Elastic Constant Matrix: (Units=GPa)
#
#
# Indices 1 2 3 4 5 6 
#
# 1 165.4018 47.4683 41.6632 0.0000 -5.3058 0.0000
# 2 47.4683 113.6803 26.9032 0.0000 6.2354 0.0000
# 3 41.6632 26.9032 63.9615 0.0000 8.1834 0.0000
# 4 0.0000 0.0000 0.0000 34.0203 0.0000 0.9919
# 5 -5.3058 6.2354 8.1834 0.0000 17.1055 0.0000
# 6 0.0000 0.0000 0.0000 0.9919 0.0000 23.9896
#
#
#
# Elastic Compliance Matrix: (Units=1/GPa)
#
#
# Indices 1 2 3 4 5 6 
#
# 1 0.008244 -0.002573 -0.005044 0.000000 0.005908 0.000000
# 2 -0.002573 0.010619 -0.002336 0.000000 -0.003551 0.000000
# 3 -0.005044 -0.002336 0.021297 0.000000 -0.010902 0.000000
# 4 0.000000 0.000000 0.000000 0.029430 0.000000 -0.001217
# 5 0.005908 -0.003551 -0.010902 0.000000 0.066803 0.000000
# 6 0.000000 0.000000 0.000000 -0.001217 0.000000 0.041735
#
#
# Mechanical properties :
#
#
# Convention : Reuss Voigt Hill
#
# Bulk Modulus (GPa) = 49.37183 63.90144 56.63663
# Shear Modulus (GPa) = 24.41580 30.15699 27.28640
#
# Velocity S-wave (km/s) = 3.42549 3.80698 3.62126
# Velocity P-wave (km/s) = 6.27477 7.07350 6.68608
#
# Compressibility (1/GPa) = 0.02025447
#
# Stress axis : x y z
#
# Youngs Moduli (GPa) = 121.29598 94.17477 46.95448
#
# Poissons Ratio (x) = 0.24230 0.23683
# Poissons Ratio (y) = 0.31208 0.10969
# Poissons Ratio (z) = 0.61180 0.22000
#
# Static dielectric constant tensor:
#      x y z
#    x 4.267070 0.000000 -0.243320 
#    y 0.000000 4.042400 0.000000 
#    z -0.243320 0.000000 3.530670 
# 
# 
# High freq. dielectric constant tensor:
#      x y z
#    x 1.806700 0.000000 -0.004240 
#    y 0.000000 1.828790 0.000000 
#    z -0.004240 0.000000 1.776500 
# 
# From -- ./inp_files/80734.got.cif
#   From: 2010.03.12/outbox.cif.g09.slc.cpg/sg14_41_cif.got.tgz:80734.got - 2010.03.31 13:35:05.
