data_PCOD8125419
_publ_section_title
;
Structure prediction by ZEFSAII (Michael W. Deem and Ramdas Pophale) SiO2 
 PCOD8125419
Probable space group: P 21/C
;
_chemical_formula_sum "Si O2"
_cell_formula_units_Z 20
_cell_length_a 17.134886
_cell_length_b 5.075247
_cell_length_c 13.015986
_cell_angle_alpha 90.000000
_cell_angle_beta 120.761003
_cell_angle_gamma 90.000000
_cell_volume 972.667568
_symmetry_space_group_name_H-M "P 21/C"
_symmetry_group_IT_number 14
_symmetry_cell_setting 'monoclinic'
loop_
_space_group_symop_operation_xyz
x,y,z
-x,1/2+y,1/2-z
-x,-y,-z
x,1/2-y,1/2+z
loop_
_atom_site_type_symbol
_atom_site_label
_atom_site_fract_x
_atom_site_fract_y
_atom_site_fract_z
Si Si1 0.016021 0.817128 0.414296
Si Si2 0.112506 0.448113 0.804229
Si Si3 0.477693 0.065983 0.601354
Si Si4 0.183973 0.931734 0.946604
Si Si5 0.388114 0.929648 0.129160
O O1 0.929436 0.623091 0.336174
O O2 0.108321 0.640705 0.483358
O O3 0.000000 0.000000 0.500000
O O4 0.024762 0.010353 0.320857
O O5 0.176247 0.709124 0.850271
O O6 0.172890 0.212256 0.887226
O O7 0.570736 0.044484 0.729046
O O8 0.431172 0.351563 0.582152
O O9 0.500000 0.000000 0.500000
O O10 0.406816 0.855015 0.595183
O O11 0.280205 0.945876 0.067632
#
# Coordination Sequence:
#
# PCOD8125419 Si02
#       5
#     4   4   4   4   4
#     4  10  21  39  62  83 123 166 205 250 310 358
#     4  10  20  39  56  84 124 155 207 249 301 359
#     4  10  21  40  64  91 120 166 196 243 318 378
#     4  10  20  39  58  86 124 156 202 257 297 354
#     4  10  21  39  64  87 130 155 198 260 300 361
#
# _framework density 20.562007000000001
#
# number of rings (size 3 to 8) (size 9 to 14) (size 15 to 20)
#    1.200    0.800    2.000    1.800    0.000    0.800 
#    3.600    2.000    0.000    0.000    0.000    0.000 
#    0.000    0.000    0.000    0.000    0.000    0.000 
#
# Total GULP energy -247829.151842 kJ/mol
# GULP energy per Si atom -12391.457592 kJ/mol
# Density = 2.051521 g / cm^3
# Si number density = 20.562007 Si / 1000 Ang^3
#
#
#
# Elastic Constant Matrix: (Units=GPa)
#
#
# Indices 1 2 3 4 5 6 
#
# 1 59.9971 7.2232 45.9748 0.0000 24.9137 0.0000
# 2 7.2232 97.0715 15.2542 0.0000 12.5840 0.0000
# 3 45.9748 15.2542 90.5152 0.0000 10.4222 0.0000
# 4 0.0000 0.0000 0.0000 31.1178 0.0000 3.6307
# 5 24.9137 12.5840 10.4222 0.0000 43.4730 0.0000
# 6 0.0000 0.0000 0.0000 3.6307 0.0000 21.3709
#
#
#
# Elastic Compliance Matrix: (Units=1/GPa)
#
#
# Indices 1 2 3 4 5 6 
#
# 1 0.036760 0.002224 -0.017016 0.000000 -0.017631 0.000000
# 2 0.002224 0.011036 -0.002545 0.000000 -0.003859 0.000000
# 3 -0.017016 -0.002545 0.019449 0.000000 0.005826 0.000000
# 4 0.000000 0.000000 0.000000 0.032786 0.000000 -0.005570
# 5 -0.017631 -0.003859 0.005826 0.000000 0.032827 0.000000
# 6 0.000000 0.000000 0.000000 -0.005570 0.000000 0.047739
#
#
# Mechanical properties :
#
#
# Convention : Reuss Voigt Hill
#
# Bulk Modulus (GPa) = 30.70210 42.72093 36.71152
# Shear Modulus (GPa) = 22.11132 31.13443 26.62288
#
# Velocity S-wave (km/s) = 3.28281 3.89546 3.60218
# Velocity P-wave (km/s) = 5.41599 6.40738 5.93243
#
# Compressibility (1/GPa) = 0.03257106
#
# Stress axis : x y z
#
# Youngs Moduli (GPa) = 27.20350 90.60895 51.41685
#
# Poissons Ratio (x) = -0.20153 0.87491
# Poissons Ratio (y) = -0.06051 0.13087
# Poissons Ratio (z) = 0.46290 0.23063
#
# Static dielectric constant tensor:
#      x y z
#    x 3.298950 0.000000 0.223910 
#    y 0.000000 4.044040 0.000000 
#    z 0.223910 0.000000 3.745430 
# 
# 
# High freq. dielectric constant tensor:
#      x y z
#    x 1.764220 0.000000 0.022790 
#    y 0.000000 1.830600 0.000000 
#    z 0.022790 0.000000 1.796960 
# 
# From -- ./inp_files/33280.got.cif
#   From: 2010.03.12/outbox.cif.g09.slc.cpg/sg14_17_cif.got.tgz:33280.got - 2010.03.31 13:35:05.
