data_PCOD8125296
_publ_section_title
;
Structure prediction by ZEFSAII (Michael W. Deem and Ramdas Pophale) SiO2 
 PCOD8125296
Probable space group: P 21/C
;
_chemical_formula_sum "Si O2"
_cell_formula_units_Z 20
_cell_length_a 10.163566
_cell_length_b 4.926210
_cell_length_c 20.185702
_cell_angle_alpha 90.000000
_cell_angle_beta 68.347961
_cell_angle_gamma 90.000000
_cell_volume 939.344872
_symmetry_space_group_name_H-M "P 21/C"
_symmetry_group_IT_number 14
_symmetry_cell_setting 'monoclinic'
loop_
_space_group_symop_operation_xyz
x,y,z
-x,1/2+y,1/2-z
-x,-y,-z
x,1/2-y,1/2+z
loop_
_atom_site_type_symbol
_atom_site_label
_atom_site_fract_x
_atom_site_fract_y
_atom_site_fract_z
Si Si1 0.374386 0.430864 0.708328
Si Si2 0.073648 0.516665 0.711081
Si Si3 0.080806 0.751850 0.564168
Si Si4 0.442850 0.073444 0.343728
Si Si5 0.186542 0.249141 0.975358
O O1 0.223251 0.384960 0.703077
O O2 0.421759 0.732263 0.681087
O O3 0.358814 0.395606 0.790233
O O4 0.493733 0.226484 0.657623
O O5 0.074357 0.662863 0.640618
O O6 0.967811 0.258019 0.729954
O O7 0.186772 0.554794 0.503862
O O8 0.922253 0.754026 0.565353
O O9 0.141384 0.054666 0.544363
O O10 0.339698 0.157022 0.422226
#
# Coordination Sequence:
#
# PCOD8125296 Si02
#       5
#     4   4   4   4   4
#     4  10  22  37  58  87 114 148 199 236 284 353
#     4  12  24  40  61  86 119 152 188 245 298 338
#     4  10  22  37  58  88 115 149 199 235 281 350
#     4  10  20  38  60  83 115 154 192 239 286 339
#     4  10  20  38  60  83 116 154 192 238 283 336
#
# _framework density 21.291433999999999
#
# number of rings (size 3 to 8) (size 9 to 14) (size 15 to 20)
#    0.000    1.600    0.000    4.800    0.000    6.400 
#    0.000    6.000    0.000    0.000    0.000    0.000 
#    0.000    0.000    0.000    0.000    0.000    0.000 
#
# Total GULP energy -248042.051496 kJ/mol
# GULP energy per Si atom -12402.102575 kJ/mol
# Density = 2.124297 g / cm^3
# Si number density = 21.291434 Si / 1000 Ang^3
#
#
#
# Elastic Constant Matrix: (Units=GPa)
#
#
# Indices 1 2 3 4 5 6 
#
# 1 86.4283 20.6656 36.9594 0.0000 -2.1323 0.0000
# 2 20.6656 83.7683 4.2280 0.0000 0.8275 0.0000
# 3 36.9594 4.2280 66.7981 0.0000 -11.2276 0.0000
# 4 0.0000 0.0000 0.0000 13.6950 0.0000 3.9424
# 5 -2.1323 0.8275 -11.2276 0.0000 16.2976 0.0000
# 6 0.0000 0.0000 0.0000 3.9424 0.0000 22.9742
#
#
#
# Elastic Compliance Matrix: (Units=1/GPa)
#
#
# Indices 1 2 3 4 5 6 
#
# 1 0.016398 -0.003520 -0.009567 0.000000 -0.004267 0.000000
# 2 -0.003520 0.012755 0.001079 0.000000 -0.000365 0.000000
# 3 -0.009567 0.001079 0.022592 0.000000 0.014258 0.000000
# 4 0.000000 0.000000 0.000000 0.076814 0.000000 -0.013181
# 5 -0.004267 -0.000365 0.014258 0.000000 0.070641 0.000000
# 6 0.000000 0.000000 0.000000 -0.013181 0.000000 0.045789
#
#
# Mechanical properties :
#
#
# Convention : Reuss Voigt Hill
#
# Bulk Modulus (GPa) = 36.06411 40.07785 38.07098
# Shear Modulus (GPa) = 17.96942 22.26945 20.11944
#
# Velocity S-wave (km/s) = 2.90827 3.23760 3.07735
# Velocity P-wave (km/s) = 5.31531 5.73065 5.52688
#
# Compressibility (1/GPa) = 0.02772840
#
# Stress axis : x y z
#
# Youngs Moduli (GPa) = 60.98266 78.39884 44.26274
#
# Poissons Ratio (x) = 0.27599 0.42348
# Poissons Ratio (y) = 0.21468 -0.04777
# Poissons Ratio (z) = 0.58345 -0.08460
#
# Static dielectric constant tensor:
#      x y z
#    x 3.517130 0.000000 -0.059200 
#    y 0.000000 4.130890 0.000000 
#    z -0.059200 0.000000 3.603710 
# 
# 
# High freq. dielectric constant tensor:
#      x y z
#    x 1.817920 0.000000 -0.011330 
#    y 0.000000 1.857840 0.000000 
#    z -0.011330 0.000000 1.824020 
# 
# From -- ./inp_files/53967.got.cif
#   From: 2010.03.12/outbox.cif.g09.slc.cpg/sg14_27_cif.got.tgz:53967.got - 2010.03.31 13:35:05.
