data_PCOD8125999
_publ_section_title
;
Structure prediction by ZEFSAII (Michael W. Deem and Ramdas Pophale) SiO2 
 PCOD8125999
Probable space group: P 21/C
;
_chemical_formula_sum "Si O2"
_cell_formula_units_Z 28
_cell_length_a 26.918649
_cell_length_b 9.432311
_cell_length_c 9.601431
_cell_angle_alpha 90.000000
_cell_angle_beta 147.859609
_cell_angle_gamma 90.000000
_cell_volume 1296.926614
_symmetry_space_group_name_H-M "P 21/C"
_symmetry_group_IT_number 14
_symmetry_cell_setting 'monoclinic'
loop_
_space_group_symop_operation_xyz
x,y,z
-x,1/2+y,1/2-z
-x,-y,-z
x,1/2-y,1/2+z
loop_
_atom_site_type_symbol
_atom_site_label
_atom_site_fract_x
_atom_site_fract_y
_atom_site_fract_z
Si Si1 0.128142 0.669367 0.024725
Si Si2 0.675796 0.191542 0.142587
Si Si3 0.587939 0.134669 0.657249
Si Si4 0.707275 0.889575 0.310293
Si Si5 0.029828 0.837853 0.561270
Si Si6 0.382697 0.177881 0.185275
Si Si7 0.087534 0.089192 0.265497
O O1 0.053756 0.770595 0.767846
O O2 0.115104 0.500077 0.968234
O O3 0.228693 0.716784 0.213413
O O4 0.117579 0.686768 0.165549
O O5 0.662564 0.316429 0.220502
O O6 0.668276 0.048774 0.215731
O O7 0.598441 0.194080 0.838493
O O8 0.486978 0.195281 0.369453
O O9 0.607085 0.966700 0.702023
O O10 0.652318 0.802803 0.297292
O O11 0.818855 0.898770 0.607652
O O12 0.690474 0.825375 0.115817
O O13 0.944584 0.750932 0.287003
O O14 0.000000 0.000000 0.500000
O O15 0.000000 0.000000 0.000000
#
# Coordination Sequence:
#
# PCOD8125999 Si02
#       7
#     4   4   4   4   4   4   4
#     4  10  21  38  56  84 118 149 195 244 294 353
#     4  10  21  37  59  85 117 158 197 245 297 355
#     4  10  21  38  60  87 122 156 194 247 302 355
#     4  10  22  38  59  85 117 156 199 245 296 359
#     4  11  22  37  61  85 113 154 197 243 299 358
#     4  10  22  39  59  89 122 155 198 247 298 358
#     4   9  21  39  57  81 118 153 191 245 298 346
#
# _framework density 21.589500999999998
#
# number of rings (size 3 to 8) (size 9 to 14) (size 15 to 20)
#    0.000    2.000    0.000    2.571    0.000    8.571 
#    0.000    1.429    0.000    0.000    0.000    0.000 
#    0.000    0.000    0.000    0.000    0.000    0.000 
#
# Total GULP energy -346933.255740 kJ/mol
# GULP energy per Si atom -12390.473419 kJ/mol
# Density = 2.154036 g / cm^3
# Si number density = 21.589501 Si / 1000 Ang^3
#
#
#
# Elastic Constant Matrix: (Units=GPa)
#
#
# Indices 1 2 3 4 5 6 
#
# 1 117.6078 38.0589 29.0995 0.0000 9.1303 0.0000
# 2 38.0589 90.6671 20.4755 0.0000 7.9968 0.0000
# 3 29.0995 20.4755 73.3113 0.0000 19.0785 0.0000
# 4 0.0000 0.0000 0.0000 22.5811 0.0000 2.9389
# 5 9.1303 7.9968 19.0785 0.0000 26.2576 0.0000
# 6 0.0000 0.0000 0.0000 2.9389 0.0000 35.9973
#
#
#
# Elastic Compliance Matrix: (Units=1/GPa)
#
#
# Indices 1 2 3 4 5 6 
#
# 1 0.010472 -0.003680 -0.003049 0.000000 -0.000305 0.000000
# 2 -0.003680 0.013112 -0.001844 0.000000 -0.001374 0.000000
# 3 -0.003049 -0.001844 0.018428 0.000000 -0.011768 0.000000
# 4 0.000000 0.000000 0.000000 0.044760 0.000000 -0.003654
# 5 -0.000305 -0.001374 -0.011768 0.000000 0.047159 0.000000
# 6 0.000000 0.000000 0.000000 -0.003654 0.000000 0.028078
#
#
# Mechanical properties :
#
#
# Convention : Reuss Voigt Hill
#
# Bulk Modulus (GPa) = 40.21682 50.76157 45.48919
# Shear Modulus (GPa) = 26.67449 29.89734 28.28591
#
# Velocity S-wave (km/s) = 3.51882 3.72534 3.62355
# Velocity P-wave (km/s) = 5.93110 6.48594 6.21471
#
# Compressibility (1/GPa) = 0.02486522
#
# Stress axis : x y z
#
# Youngs Moduli (GPa) = 95.49300 76.26748 54.26434
#
# Poissons Ratio (x) = 0.28068 0.16548
# Poissons Ratio (y) = 0.35144 0.10005
# Poissons Ratio (z) = 0.29120 0.14062
#
# Static dielectric constant tensor:
#      x y z
#    x 3.688330 0.000000 0.166330 
#    y 0.000000 3.973130 0.000000 
#    z 0.166330 0.000000 4.079850 
# 
# 
# High freq. dielectric constant tensor:
#      x y z
#    x 1.841600 0.000000 0.012570 
#    y 0.000000 1.845910 0.000000 
#    z 0.012570 0.000000 1.847290 
# 
# From -- ./inp_files/19759.got.cif
#   From: 2010.03.12/outbox.cif.g09.slc.cpg/sg14_10_cif.got.tgz:19759.got - 2010.03.31 13:35:05.
