data_PCOD8125820
_publ_section_title
;
Structure prediction by ZEFSAII (Michael W. Deem and Ramdas Pophale) SiO2 
 PCOD8125820
Probable space group: P 21/C
;
_chemical_formula_sum "Si O2"
_cell_formula_units_Z 24
_cell_length_a 11.611851
_cell_length_b 10.154453
_cell_length_c 17.322638
_cell_angle_alpha 90.000000
_cell_angle_beta 138.236659
_cell_angle_gamma 90.000000
_cell_volume 1360.449257
_symmetry_space_group_name_H-M "P 21/C"
_symmetry_group_IT_number 14
_symmetry_cell_setting 'monoclinic'
loop_
_space_group_symop_operation_xyz
x,y,z
-x,1/2+y,1/2-z
-x,-y,-z
x,1/2-y,1/2+z
loop_
_atom_site_type_symbol
_atom_site_label
_atom_site_fract_x
_atom_site_fract_y
_atom_site_fract_z
Si Si1 0.040461 0.251828 0.104965
Si Si2 0.370134 0.249999 0.685066
Si Si3 0.860399 0.012506 0.270501
Si Si4 0.500000 0.000000 0.174251
Si Si5 0.139599 0.987494 0.910101
Si Si6 0.040460 0.248172 0.935495
O O1 0.243978 0.214188 0.194707
O O2 0.026838 0.398278 0.132950
O O3 0.951051 0.151154 0.118134
O O4 0.947894 0.250000 0.973947
O O5 0.490293 0.126677 0.765356
O O6 0.490293 0.373321 0.724935
O O7 0.243977 0.214187 0.549270
O O8 0.665730 0.014487 0.203350
O O9 0.857110 0.986597 0.178555
O O10 0.951047 0.151154 0.332915
O O11 0.334268 0.985512 0.037620
O O12 0.026837 0.101722 0.893888
#
# Coordination Sequence:
#
# PCOD8125820 Si02
#       6
#     4   4   4   4   4   4
#     4   9  20  36  54  78 101 141 182 210 249 313
#     4   8  20  32  54  78 102 138 178 214 248 304
#     4  11  21  35  55  81 109 136 171 219 267 308
#     4  10  21  34  52  80 107 136 170 218 265 306
#     4  11  21  35  55  81 109 136 171 219 267 308
#     4   9  20  36  54  78 101 141 182 210 249 313
#
# _framework density 17.641233
#
# number of rings (size 3 to 8) (size 9 to 14) (size 15 to 20)
#    1.000    1.333    0.000    2.500    2.333    0.000 
#    0.000    0.000    0.000    0.000    0.000   18.667 
#    0.000    0.000    0.000    0.000    0.000    0.000 
#
# Total GULP energy -297486.374437 kJ/mol
# GULP energy per Si atom -12395.265602 kJ/mol
# Density = 1.760108 g / cm^3
# Si number density = 17.641233 Si / 1000 Ang^3
#
#
#
# Elastic Constant Matrix: (Units=GPa)
#
#
# Indices 1 2 3 4 5 6 
#
# 1 61.5032 41.9661 28.5936 0.0000 -3.4377 0.0000
# 2 41.9661 109.1294 41.6326 0.0000 6.5119 0.0000
# 3 28.5936 41.6326 61.8696 0.0000 -3.7839 0.0000
# 4 0.0000 0.0000 0.0000 27.3650 0.0000 -1.3686
# 5 -3.4377 6.5119 -3.7839 0.0000 23.3242 0.0000
# 6 0.0000 0.0000 0.0000 -1.3686 0.0000 27.2953
#
#
#
# Elastic Compliance Matrix: (Units=1/GPa)
#
#
# Indices 1 2 3 4 5 6 
#
# 1 0.024323 -0.007334 -0.006021 0.000000 0.004656 0.000000
# 2 -0.007334 0.015105 -0.007170 0.000000 -0.006461 0.000000
# 3 -0.006021 -0.007170 0.024077 0.000000 0.005020 0.000000
# 4 0.000000 0.000000 0.000000 0.036635 0.000000 0.001837
# 5 0.004656 -0.006461 0.005020 0.000000 0.046179 0.000000
# 6 0.000000 0.000000 0.000000 0.001837 0.000000 0.036728
#
#
# Mechanical properties :
#
#
# Convention : Reuss Voigt Hill
#
# Bulk Modulus (GPa) = 44.53335 50.76521 47.64928
# Shear Modulus (GPa) = 21.59057 23.61754 22.60406
#
# Velocity S-wave (km/s) = 3.50218 3.66289 3.58344
# Velocity P-wave (km/s) = 6.45387 6.83578 6.64757
#
# Compressibility (1/GPa) = 0.02245508
#
# Stress axis : x y z
#
# Youngs Moduli (GPa) = 41.11257 66.20488 41.53297
#
# Poissons Ratio (x) = 0.48558 0.25008
# Poissons Ratio (y) = 0.30154 0.29777
# Poissons Ratio (z) = 0.24755 0.47466
#
# Static dielectric constant tensor:
#      x y z
#    x 3.109000 0.000000 -0.031040 
#    y 0.000000 3.247490 0.000000 
#    z -0.031040 0.000000 3.110590 
# 
# 
# High freq. dielectric constant tensor:
#      x y z
#    x 1.670750 0.000000 -0.001920 
#    y 0.000000 1.689700 0.000000 
#    z -0.001920 0.000000 1.670850 
# 
# From -- ./inp_files/57110.got.cif
#   From: 2010.03.12/outbox.cif.g09.slc.cpg/sg14_29_cif.got.tgz:57110.got - 2010.03.31 13:35:05.
