data_PCOD8125668
_publ_section_title
;
Structure prediction by ZEFSAII (Michael W. Deem and Ramdas Pophale) SiO2 
 PCOD8125668
Probable space group: P 21/C
;
_chemical_formula_sum "Si O2"
_cell_formula_units_Z 24
_cell_length_a 20.145076
_cell_length_b 11.889705
_cell_length_c 14.737066
_cell_angle_alpha 90.000000
_cell_angle_beta 19.628819
_cell_angle_gamma 90.000000
_cell_volume 1185.751879
_symmetry_space_group_name_H-M "P 21/C"
_symmetry_group_IT_number 14
_symmetry_cell_setting 'monoclinic'
loop_
_space_group_symop_operation_xyz
x,y,z
-x,1/2+y,1/2-z
-x,-y,-z
x,1/2-y,1/2+z
loop_
_atom_site_type_symbol
_atom_site_label
_atom_site_fract_x
_atom_site_fract_y
_atom_site_fract_z
Si Si1 0.554234 0.285471 0.361674
Si Si2 0.160644 0.426709 0.629314
Si Si3 0.738382 0.170994 0.962434
Si Si4 0.140394 0.154464 0.351899
Si Si5 0.239304 0.011892 0.384859
Si Si6 0.571642 0.765531 0.786238
O O1 0.331564 0.263430 0.610819
O O2 0.589169 0.420445 0.322719
O O3 0.566788 0.239457 0.448332
O O4 0.717286 0.226461 0.089260
O O5 0.285488 0.537157 0.495852
O O6 0.086692 0.367822 0.817141
O O7 0.292754 0.342933 0.401299
O O8 0.971037 0.460138 0.811569
O O9 0.949256 0.207218 0.648576
O O10 0.562057 0.218298 0.129108
O O11 0.201171 0.040293 0.327329
O O12 0.291468 0.125034 0.372666
#
# Coordination Sequence:
#
# PCOD8125668 Si02
#       6
#     4   4   4   4   4   4
#     4  11  22  39  66  92 127 163 207 255 312 366
#     4  11  22  39  67  93 127 163 207 253 314 369
#     4  11  23  40  64  92 126 165 206 258 308 366
#     4  10  20  41  62  94 118 162 211 259 295 371
#     4  10  22  37  65  91 122 159 218 252 301 363
#     4  11  23  40  64  92 128 163 207 258 310 365
#
# _framework density 20.240323
#
# number of rings (size 3 to 8) (size 9 to 14) (size 15 to 20)
#    0.000    1.333    1.667    7.000    7.000    0.667 
#    0.000    0.000    0.000    3.000    0.000    0.000 
#    0.000    0.000    0.000    0.000    0.000    0.000 
#
# Total GULP energy -297516.533022 kJ/mol
# GULP energy per Si atom -12396.522209 kJ/mol
# Density = 2.019425 g / cm^3
# Si number density = 20.240323 Si / 1000 Ang^3
#
#
#
# Elastic Constant Matrix: (Units=GPa)
#
#
# Indices 1 2 3 4 5 6 
#
# 1 70.6155 16.3947 34.3285 0.0000 9.5995 0.0000
# 2 16.3947 36.1969 30.2967 0.0000 18.3212 0.0000
# 3 34.3285 30.2967 107.8277 0.0000 12.1632 0.0000
# 4 0.0000 0.0000 0.0000 38.9760 0.0000 1.7500
# 5 9.5995 18.3212 12.1632 0.0000 39.7842 0.0000
# 6 0.0000 0.0000 0.0000 1.7500 0.0000 22.5901
#
#
#
# Elastic Compliance Matrix: (Units=1/GPa)
#
#
# Indices 1 2 3 4 5 6 
#
# 1 0.017272 -0.003570 -0.004361 0.000000 -0.001190 0.000000
# 2 -0.003570 0.046396 -0.009929 0.000000 -0.017469 0.000000
# 3 -0.004361 -0.009929 0.013276 0.000000 0.001566 0.000000
# 4 0.000000 0.000000 0.000000 0.025746 0.000000 -0.001995
# 5 -0.001190 -0.017469 0.001566 0.000000 0.032989 0.000000
# 6 0.000000 0.000000 0.000000 -0.001995 0.000000 0.044422
#
#
# Mechanical properties :
#
#
# Convention : Reuss Voigt Hill
#
# Bulk Modulus (GPa) = 24.25836 41.85332 33.05584
# Shear Modulus (GPa) = 21.78051 29.17808 25.47929
#
# Velocity S-wave (km/s) = 3.28395 3.80094 3.55186
# Velocity P-wave (km/s) = 5.13715 6.32344 5.76091
#
# Compressibility (1/GPa) = 0.04122291
#
# Stress axis : x y z
#
# Youngs Moduli (GPa) = 57.89681 21.55345 75.32567
#
# Poissons Ratio (x) = 0.07695 0.32853
# Poissons Ratio (y) = 0.20670 0.74790
# Poissons Ratio (z) = 0.25251 0.21400
#
# Static dielectric constant tensor:
#      x y z
#    x 3.690170 0.000000 -0.145540 
#    y 0.000000 3.436420 0.000000 
#    z -0.145540 0.000000 3.872310 
# 
# 
# High freq. dielectric constant tensor:
#      x y z
#    x 1.788910 0.000000 -0.011070 
#    y 0.000000 1.762150 0.000000 
#    z -0.011070 0.000000 1.801480 
# 
# From -- ./inp_files/50415.got.cif
#   From: 2010.03.12/outbox.cif.g09.slc.cpg/sg14_26_cif.got.tgz:50415.got - 2010.03.31 13:35:05.
