data_PCOD8125430
_publ_section_title
;
Structure prediction by ZEFSAII (Michael W. Deem and Ramdas Pophale) SiO2 
 PCOD8125430
Probable space group: P 21/C
;
_chemical_formula_sum "Si O2"
_cell_formula_units_Z 28
_cell_length_a 15.437377
_cell_length_b 13.247453
_cell_length_c 9.938198
_cell_angle_alpha 90.000000
_cell_angle_beta 136.192362
_cell_angle_gamma 90.000000
_cell_volume 1406.921438
_symmetry_space_group_name_H-M "P 21/C"
_symmetry_group_IT_number 14
_symmetry_cell_setting 'monoclinic'
loop_
_space_group_symop_operation_xyz
x,y,z
-x,1/2+y,1/2-z
-x,-y,-z
x,1/2-y,1/2+z
loop_
_atom_site_type_symbol
_atom_site_label
_atom_site_fract_x
_atom_site_fract_y
_atom_site_fract_z
Si Si1 0.894888 0.673949 0.060782
Si Si2 0.641808 0.277887 0.012893
Si Si3 0.463866 0.853197 0.873022
Si Si4 0.703208 0.531015 0.720735
Si Si5 0.822183 0.435193 0.332302
Si Si6 0.090140 0.350625 0.618310
Si Si7 0.831225 0.395406 0.652671
O O1 0.903064 0.701567 0.227564
O O2 0.025373 0.629176 0.153822
O O3 0.787818 0.590982 0.920879
O O4 0.860266 0.773524 0.938027
O O5 0.558032 0.228064 0.034442
O O6 0.702267 0.381184 0.134123
O O7 0.751290 0.204648 0.086849
O O8 0.549679 0.300464 0.786202
O O9 0.363276 0.942843 0.770054
O O10 0.603357 0.895288 0.039549
O O11 0.789844 0.486247 0.701461
O O12 0.821661 0.551008 0.283930
O O13 0.813183 0.433132 0.482014
O O14 0.948140 0.380535 0.422600
#
# Coordination Sequence:
#
# PCOD8125430 Si02
#       7
#     4   4   4   4   4   4   4
#     4  11  22  39  61  94 120 166 195 252 316 360
#     4  11  19  39  66  90 117 162 205 245 305 368
#     4  10  23  40  63  86 119 164 206 248 296 364
#     4  10  23  41  60  87 125 157 208 252 300 363
#     4  10  20  39  59  93 125 156 199 255 298 368
#     4  10  23  36  59  91 130 156 197 249 311 363
#     4  10  21  38  66  94 116 159 200 257 309 367
#
# _framework density 19.901609000000001
#
# number of rings (size 3 to 8) (size 9 to 14) (size 15 to 20)
#    0.000    1.714    2.857    1.286    2.000    1.143 
#    2.571    2.143    0.000    0.000    0.000    0.000 
#    0.000    0.000    0.000    0.000    0.000    0.000 
#
# Total GULP energy -347363.275543 kJ/mol
# GULP energy per Si atom -12405.831269 kJ/mol
# Density = 1.985631 g / cm^3
# Si number density = 19.901609 Si / 1000 Ang^3
#
#
#
# Elastic Constant Matrix: (Units=GPa)
#
#
# Indices 1 2 3 4 5 6 
#
# 1 34.3788 49.0234 18.3851 0.0000 -8.7452 0.0000
# 2 49.0234 111.3456 54.2311 0.0000 -10.2290 0.0000
# 3 18.3851 54.2311 88.5770 0.0000 -9.5135 0.0000
# 4 0.0000 0.0000 0.0000 35.7995 0.0000 1.2265
# 5 -8.7452 -10.2290 -9.5135 0.0000 26.2967 0.0000
# 6 0.0000 0.0000 0.0000 1.2265 0.0000 17.9159
#
#
#
# Elastic Compliance Matrix: (Units=1/GPa)
#
#
# Indices 1 2 3 4 5 6 
#
# 1 0.087347 -0.041302 0.008898 0.000000 0.016201 0.000000
# 2 -0.041302 0.032454 -0.011878 0.000000 -0.005408 0.000000
# 3 0.008898 -0.011878 0.017205 0.000000 0.004563 0.000000
# 4 0.000000 0.000000 0.000000 0.027999 0.000000 -0.001917
# 5 0.016201 -0.005408 0.004563 0.000000 0.042962 0.000000
# 6 0.000000 0.000000 0.000000 -0.001917 0.000000 0.055947
#
#
# Mechanical properties :
#
#
# Convention : Reuss Voigt Hill
#
# Bulk Modulus (GPa) = 20.64395 53.06449 36.85422
# Shear Modulus (GPa) = 13.56383 23.51322 18.53852
#
# Velocity S-wave (km/s) = 2.61347 3.44099 3.05537
# Velocity P-wave (km/s) = 4.41616 6.51985 5.56826
#
# Compressibility (1/GPa) = 0.04844035
#
# Stress axis : x y z
#
# Youngs Moduli (GPa) = 11.44861 30.81275 58.12184
#
# Poissons Ratio (x) = 1.27264 -0.51714
# Poissons Ratio (y) = 0.47286 0.69038
# Poissons Ratio (z) = -0.10187 0.36600
#
# Static dielectric constant tensor:
#      x y z
#    x 3.558800 0.000000 -0.033790 
#    y 0.000000 3.622490 0.000000 
#    z -0.033790 0.000000 3.482120 
# 
# 
# High freq. dielectric constant tensor:
#      x y z
#    x 1.772140 0.000000 -0.008640 
#    y 0.000000 1.780370 0.000000 
#    z -0.008640 0.000000 1.776140 
# 
# From -- ./inp_files/13189.got.cif
#   From: 2010.03.12/outbox.cif.g09.slc.cpg/sg14_7_cif.got.tgz:13189.got - 2010.03.31 13:35:05.
