data_PCOD8125089
_publ_section_title
;
Structure prediction by ZEFSAII (Michael W. Deem and Ramdas Pophale) SiO2 
 PCOD8125089
Probable space group: P 21/C
;
_chemical_formula_sum "Si O2"
_cell_formula_units_Z 32
_cell_length_a 11.595806
_cell_length_b 14.381781
_cell_length_c 9.512307
_cell_angle_alpha 90.000000
_cell_angle_beta 89.278054
_cell_angle_gamma 90.000000
_cell_volume 1586.225741
_symmetry_space_group_name_H-M "P 21/C"
_symmetry_group_IT_number 14
_symmetry_cell_setting 'monoclinic'
loop_
_space_group_symop_operation_xyz
x,y,z
-x,1/2+y,1/2-z
-x,-y,-z
x,1/2-y,1/2+z
loop_
_atom_site_type_symbol
_atom_site_label
_atom_site_fract_x
_atom_site_fract_y
_atom_site_fract_z
Si Si1 0.603815 0.056263 0.167340
Si Si2 0.347299 0.307619 0.991676
Si Si3 0.241118 0.021608 0.372279
Si Si4 0.605467 0.079726 0.847146
Si Si5 0.964346 0.649850 0.181104
Si Si6 0.489981 0.250381 0.744593
Si Si7 0.167063 0.516721 0.164860
Si Si8 0.894854 0.689771 0.884719
O O1 0.539803 0.147176 0.224638
O O2 0.713450 0.032278 0.258384
O O3 0.515325 0.971206 0.179315
O O4 0.645627 0.069112 0.006724
O O5 0.337316 0.416447 0.951824
O O6 0.379266 0.251343 0.849916
O O7 0.451574 0.294137 0.098318
O O8 0.227560 0.269078 0.057496
O O9 0.293253 0.956910 0.253118
O O10 0.179861 0.962628 0.497025
O O11 0.151293 0.089717 0.296682
O O12 0.590191 0.187849 0.810590
O O13 0.956559 0.741373 0.276474
O O14 0.073641 0.588665 0.227269
O O15 0.978064 0.679400 0.018203
O O16 0.124870 0.410456 0.188752
#
# Coordination Sequence:
#
# PCOD8125089 Si02
#       8
#     4   4   4   4   4   4   4   4
#     4  11  25  41  60  97 131 168 205 261 318 370
#     4  10  20  36  63  91 127 158 216 252 301 375
#     4  10  21  39  68  91 118 172 212 259 314 368
#     4  11  24  40  63  91 133 165 211 259 311 378
#     4  10  22  44  67  94 124 158 218 264 310 379
#     4  12  22  39  58  94 131 168 202 255 317 377
#     4  10  23  45  64  91 131 164 214 258 316 385
#     4  10  21  40  70  97 116 172 210 264 315 358
#
# _framework density 20.173673999999998
#
# number of rings (size 3 to 8) (size 9 to 14) (size 15 to 20)
#    0.000    1.750    2.500    4.500    1.750    2.000 
#    6.750    1.250    0.000    0.000    0.000    0.000 
#    0.000    0.000    0.000    0.000    0.000    0.000 
#
# Total GULP energy -396810.159176 kJ/mol
# GULP energy per Si atom -12400.317474 kJ/mol
# Density = 2.012776 g / cm^3
# Si number density = 20.173674 Si / 1000 Ang^3
#
#
#
# Elastic Constant Matrix: (Units=GPa)
#
#
# Indices 1 2 3 4 5 6 
#
# 1 66.3379 36.3166 34.6474 0.0000 -0.9210 0.0000
# 2 36.3166 80.6835 40.7271 0.0000 -9.4143 0.0000
# 3 34.6474 40.7271 81.6999 0.0000 -10.0679 0.0000
# 4 0.0000 0.0000 0.0000 29.2002 0.0000 -6.2304
# 5 -0.9210 -9.4143 -10.0679 0.0000 25.6067 0.0000
# 6 0.0000 0.0000 0.0000 -6.2304 0.0000 32.9642
#
#
#
# Elastic Compliance Matrix: (Units=1/GPa)
#
#
# Indices 1 2 3 4 5 6 
#
# 1 0.022369 -0.007376 -0.006352 0.000000 -0.004405 0.000000
# 2 -0.007376 0.019214 -0.005898 0.000000 0.004480 0.000000
# 3 -0.006352 -0.005898 0.018474 0.000000 0.004866 0.000000
# 4 0.000000 0.000000 0.000000 0.035685 0.000000 0.006745
# 5 -0.004405 0.004480 0.004866 0.000000 0.042454 0.000000
# 6 0.000000 0.000000 0.000000 0.006745 0.000000 0.031611
#
#
# Mechanical properties :
#
#
# Convention : Reuss Voigt Hill
#
# Bulk Modulus (GPa) = 48.06741 50.23372 49.15056
# Shear Modulus (GPa) = 23.14880 25.35622 24.25251
#
# Velocity S-wave (km/s) = 3.39112 3.54912 3.47102
# Velocity P-wave (km/s) = 6.26190 6.46140 6.36243
#
# Compressibility (1/GPa) = 0.02080412
#
# Stress axis : x y z
#
# Youngs Moduli (GPa) = 44.70519 52.04519 54.13139
#
# Poissons Ratio (x) = 0.38389 0.34385
# Poissons Ratio (y) = 0.32975 0.31927
# Poissons Ratio (z) = 0.28397 0.30697
#
# Static dielectric constant tensor:
#      x y z
#    x 3.453030 0.000000 -0.067040 
#    y 0.000000 3.665720 0.000000 
#    z -0.067040 0.000000 3.738330 
# 
# 
# High freq. dielectric constant tensor:
#      x y z
#    x 1.771150 0.000000 -0.001220 
#    y 0.000000 1.783950 0.000000 
#    z -0.001220 0.000000 1.794190 
# 
# From -- ./inp_files/13316.got.cif
#   From: 2010.03.12/outbox.cif.g09.slc.cpg/sg14_7_cif.got.tgz:13316.got - 2010.03.31 13:35:05.
