data_PCOD8125111
_publ_section_title
;
Structure prediction by ZEFSAII (Michael W. Deem and Ramdas Pophale) SiO2 
 PCOD8125111
Probable space group: P 21/C
;
_chemical_formula_sum "Si O2"
_cell_formula_units_Z 28
_cell_length_a 7.106534
_cell_length_b 16.184926
_cell_length_c 15.285205
_cell_angle_alpha 90.000000
_cell_angle_beta 124.144059
_cell_angle_gamma 90.000000
_cell_volume 1455.041933
_symmetry_space_group_name_H-M "P 21/C"
_symmetry_group_IT_number 14
_symmetry_cell_setting 'monoclinic'
loop_
_space_group_symop_operation_xyz
x,y,z
-x,1/2+y,1/2-z
-x,-y,-z
x,1/2-y,1/2+z
loop_
_atom_site_type_symbol
_atom_site_label
_atom_site_fract_x
_atom_site_fract_y
_atom_site_fract_z
Si Si1 0.745605 0.526466 0.452151
Si Si2 0.273214 0.225201 0.319568
Si Si3 0.468416 0.626674 0.250256
Si Si4 0.543812 0.886139 0.058098
Si Si5 0.513444 0.371289 0.028184
Si Si6 0.756823 0.211802 0.152533
Si Si7 0.736855 0.484035 0.946675
O O1 0.679425 0.591605 0.360427
O O2 0.572434 0.449168 0.404355
O O3 0.724076 0.568041 0.542155
O O4 0.000000 0.500000 0.500000
O O5 0.450820 0.198412 0.292711
O O6 0.312267 0.321128 0.349234
O O7 0.315542 0.170238 0.417454
O O8 0.026111 0.214736 0.214116
O O9 0.287245 0.669518 0.265973
O O10 0.357442 0.551607 0.168469
O O11 0.340505 0.843980 0.950757
O O12 0.648583 0.302833 0.118806
O O13 0.392437 0.430752 0.066210
O O14 0.694933 0.420426 0.015625
O O15 0.000000 0.500000 0.000000
#
# Coordination Sequence:
#
# PCOD8125111 Si02
#       7
#     4   4   4   4   4   4   4
#     4  10  20  37  56  78 108 140 173 220 264 307
#     4  10  20  37  55  77 109 141 173 220 264 307
#     4  10  22  34  54  82 104 138 186 214 254 322
#     4   9  21  36  54  80 107 138 179 213 262 322
#     4   9  21  36  54  80 107 138 179 213 262 322
#     4  10  20  37  55  77 109 141 173 220 264 307
#     4  10  20  37  56  78 108 140 173 220 264 307
#
# _framework density 19.243431999999999
#
# number of rings (size 3 to 8) (size 9 to 14) (size 15 to 20)
#    0.000    2.286    0.000    1.714    0.000    5.714 
#    0.000   11.429    0.000    0.000    0.000    0.000 
#    0.000    0.000    0.000    0.000    0.000    0.000 
#
# Total GULP energy -347265.689286 kJ/mol
# GULP energy per Si atom -12402.346046 kJ/mol
# Density = 1.919963 g / cm^3
# Si number density = 19.243432 Si / 1000 Ang^3
#
#
#
# Elastic Constant Matrix: (Units=GPa)
#
#
# Indices 1 2 3 4 5 6 
#
# 1 88.5958 27.8444 25.3090 0.0000 9.9070 0.0000
# 2 27.8444 97.2640 7.8191 0.0000 -4.6370 0.0000
# 3 25.3090 7.8191 44.5634 0.0000 1.1805 0.0000
# 4 0.0000 0.0000 0.0000 30.5846 0.0000 -2.7451
# 5 9.9070 -4.6370 1.1805 0.0000 30.6206 0.0000
# 6 0.0000 0.0000 0.0000 -2.7451 0.0000 22.5509
#
#
#
# Elastic Compliance Matrix: (Units=1/GPa)
#
#
# Indices 1 2 3 4 5 6 
#
# 1 0.015401 -0.004026 -0.007900 0.000000 -0.005288 0.000000
# 2 -0.004026 0.011565 0.000177 0.000000 0.003047 0.000000
# 3 -0.007900 0.000177 0.026855 0.000000 0.001547 0.000000
# 4 0.000000 0.000000 0.000000 0.033057 0.000000 0.004024
# 5 -0.005288 0.003047 0.001547 0.000000 0.034770 0.000000
# 6 0.000000 0.000000 0.000000 0.004024 0.000000 0.044834
#
#
# Mechanical properties :
#
#
# Convention : Reuss Voigt Hill
#
# Bulk Modulus (GPa) = 32.98003 39.15205 36.06604
# Shear Modulus (GPa) = 24.98905 28.04793 26.51849
#
# Velocity S-wave (km/s) = 3.60748 3.82191 3.71624
# Velocity P-wave (km/s) = 5.87601 6.31394 6.09890
#
# Compressibility (1/GPa) = 0.03032138
#
# Stress axis : x y z
#
# Youngs Moduli (GPa) = 64.93269 86.46877 37.23748
#
# Poissons Ratio (x) = 0.34811 0.29418
# Poissons Ratio (y) = 0.26141 -0.00657
# Poissons Ratio (z) = 0.51297 -0.01526
#
# Static dielectric constant tensor:
#      x y z
#    x 3.397560 0.000000 -0.133190 
#    y 0.000000 3.737640 0.000000 
#    z -0.133190 0.000000 3.492610 
# 
# 
# High freq. dielectric constant tensor:
#      x y z
#    x 1.747220 0.000000 -0.005020 
#    y 0.000000 1.763630 0.000000 
#    z -0.005020 0.000000 1.741490 
# 
# From -- ./inp_files/37634.got.cif
#   From: 2010.03.12/outbox.cif.g09.slc.cpg/sg14_19_cif.got.tgz:37634.got - 2010.03.31 13:35:05.
