data_PCOD8125000
_publ_section_title
;
Structure prediction by ZEFSAII (Michael W. Deem and Ramdas Pophale) SiO2 
 PCOD8125000
Probable space group: P 21/C
;
_chemical_formula_sum "Si O2"
_cell_formula_units_Z 28
_cell_length_a 15.261804
_cell_length_b 19.088219
_cell_length_c 9.260037
_cell_angle_alpha 90.000000
_cell_angle_beta 148.843928
_cell_angle_gamma 90.000000
_cell_volume 1395.680898
_symmetry_space_group_name_H-M "P 21/C"
_symmetry_group_IT_number 14
_symmetry_cell_setting 'monoclinic'
loop_
_space_group_symop_operation_xyz
x,y,z
-x,1/2+y,1/2-z
-x,-y,-z
x,1/2-y,1/2+z
loop_
_atom_site_type_symbol
_atom_site_label
_atom_site_fract_x
_atom_site_fract_y
_atom_site_fract_z
Si Si1 0.006399 0.221172 0.629146
Si Si2 0.317068 0.035273 0.761991
Si Si3 0.782902 0.586986 0.574132
Si Si4 0.837225 0.189009 0.658517
Si Si5 0.538397 0.800714 0.774971
Si Si6 0.977078 0.459069 0.321109
Si Si7 0.312432 0.196059 0.706863
O O1 0.072724 0.143796 0.682101
O O2 0.841728 0.213602 0.499178
O O3 0.941317 0.253798 0.391905
O O4 0.141990 0.268902 0.906060
O O5 0.262524 0.038088 0.853374
O O6 0.317306 0.112554 0.691114
O O7 0.180931 0.987887 0.490507
O O8 0.500000 0.000000 0.000000
O O9 0.614972 0.632282 0.295265
O O10 0.852189 0.539889 0.538247
O O11 0.646597 0.178048 0.437667
O O12 0.941680 0.118543 0.824828
O O13 0.535254 0.731629 0.670643
O O14 0.660993 0.786701 0.086236
O O15 0.000000 0.500000 0.500000
#
# Coordination Sequence:
#
# PCOD8125000 Si02
#       7
#     4   4   4   4   4   4   4
#     4  10  20  36  61  84 111 144 189 240 283 333
#     4  11  22  39  59  82 115 156 193 227 277 351
#     4   9  21  40  60  80 112 156 193 228 283 342
#     4  11  21  36  57  89 114 142 187 238 285 327
#     4  10  20  36  58  84 113 142 184 242 285 328
#     4  11  23  38  59  84 116 152 192 234 277 339
#     4  10  20  37  57  81 110 148 186 227 287 338
#
# _framework density 20.061893000000001
#
# number of rings (size 3 to 8) (size 9 to 14) (size 15 to 20)
#    0.000    1.714    0.000    6.429    0.000    3.429 
#    0.000    7.143    0.000    0.000    0.000    0.000 
#    0.000    0.000    0.000    0.000    0.000    0.000 
#
# Total GULP energy -347061.258646 kJ/mol
# GULP energy per Si atom -12395.044952 kJ/mol
# Density = 2.001623 g / cm^3
# Si number density = 20.061893 Si / 1000 Ang^3
#
#
#
# Elastic Constant Matrix: (Units=GPa)
#
#
# Indices 1 2 3 4 5 6 
#
# 1 163.0005 48.9016 40.0759 0.0000 18.5913 0.0000
# 2 48.9016 74.6140 6.7038 0.0000 -4.5171 0.0000
# 3 40.0759 6.7038 51.7319 0.0000 12.0800 0.0000
# 4 0.0000 0.0000 0.0000 19.2933 0.0000 -6.4561
# 5 18.5913 -4.5171 12.0800 0.0000 33.4980 0.0000
# 6 0.0000 0.0000 0.0000 -6.4561 0.0000 42.2533
#
#
#
# Elastic Compliance Matrix: (Units=1/GPa)
#
#
# Indices 1 2 3 4 5 6 
#
# 1 0.009942 -0.006241 -0.005905 0.000000 -0.004230 0.000000
# 2 -0.006241 0.017704 0.001282 0.000000 0.005389 0.000000
# 3 -0.005905 0.001282 0.025042 0.000000 -0.005580 0.000000
# 4 0.000000 0.000000 0.000000 0.054624 0.000000 0.008346
# 5 -0.004230 0.005389 -0.005580 0.000000 0.034939 0.000000
# 6 0.000000 0.000000 0.000000 0.008346 0.000000 0.024942
#
#
# Mechanical properties :
#
#
# Convention : Reuss Voigt Hill
#
# Bulk Modulus (GPa) = 32.30023 53.41210 42.85617
# Shear Modulus (GPa) = 25.09529 31.91993 28.50761
#
# Velocity S-wave (km/s) = 3.54063 3.99315 3.77368
# Velocity P-wave (km/s) = 5.73149 6.92400 6.35578
#
# Compressibility (1/GPa) = 0.03095953
#
# Stress axis : x y z
#
# Youngs Moduli (GPa) = 100.58693 56.48518 39.93295
#
# Poissons Ratio (x) = 0.35254 0.23581
# Poissons Ratio (y) = 0.62778 -0.05121
# Poissons Ratio (z) = 0.59398 -0.07244
#
# Static dielectric constant tensor:
#      x y z
#    x 4.062500 0.000000 0.109180 
#    y 0.000000 3.727620 0.000000 
#    z 0.109180 0.000000 3.355730 
# 
# 
# High freq. dielectric constant tensor:
#      x y z
#    x 1.807930 0.000000 0.009930 
#    y 0.000000 1.781030 0.000000 
#    z 0.009930 0.000000 1.763090 
# 
# From -- ./inp_files/16940.got.cif
#   From: 2010.03.12/outbox.cif.g09.slc.cpg/sg14_9_cif.got.tgz:16940.got - 2010.03.31 13:35:05.
