data_PCOD8125083
_publ_section_title
;
Structure prediction by ZEFSAII (Michael W. Deem and Ramdas Pophale) SiO2 
 PCOD8125083
Probable space group: P 21/C
;
_chemical_formula_sum "Si O2"
_cell_formula_units_Z 24
_cell_length_a 12.525091
_cell_length_b 12.353388
_cell_length_c 21.863751
_cell_angle_alpha 90.000000
_cell_angle_beta 19.642136
_cell_angle_gamma 90.000000
_cell_volume 1137.148988
_symmetry_space_group_name_H-M "P 21/C"
_symmetry_group_IT_number 14
_symmetry_cell_setting 'monoclinic'
loop_
_space_group_symop_operation_xyz
x,y,z
-x,1/2+y,1/2-z
-x,-y,-z
x,1/2-y,1/2+z
loop_
_atom_site_type_symbol
_atom_site_label
_atom_site_fract_x
_atom_site_fract_y
_atom_site_fract_z
Si Si1 0.465065 0.773662 0.357109
Si Si2 0.881014 0.164974 0.683591
Si Si3 0.923020 0.641927 0.704928
Si Si4 0.650462 0.544612 0.481030
Si Si5 0.347090 0.217816 0.527000
Si Si6 0.991406 0.627728 0.018312
O O1 0.705673 0.856244 0.261405
O O2 0.662582 0.670075 0.225193
O O3 0.206360 0.729223 0.545048
O O4 0.295064 0.841220 0.395526
O O5 0.182533 0.143299 0.564152
O O6 0.979642 0.191479 0.561489
O O7 0.648221 0.059924 0.810807
O O8 0.708993 0.268620 0.808534
O O9 0.689272 0.664030 0.887534
O O10 0.082629 0.526487 0.630455
O O11 0.500000 0.500000 0.500000
O O12 0.806058 0.661611 0.384269
O O13 0.000000 0.500000 0.000000
#
# Coordination Sequence:
#
# PCOD8125083 Si02
#       6
#     4   4   4   4   4   4
#     4  10  24  40  66  92 129 166 211 268 292 385
#     4  10  21  39  60  90 123 160 202 260 309 366
#     4  11  19  43  61  95 125 162 209 255 320 366
#     4  10  20  36  63  88 124 162 196 249 322 372
#     4  10  21  36  64  90 125 159 194 266 314 370
#     4  11  23  45  66  93 125 175 216 255 317 372
#
# _framework density 21.105414
#
# number of rings (size 3 to 8) (size 9 to 14) (size 15 to 20)
#    1.000    0.667    1.667    4.000    0.000    1.333 
#    6.000    4.167    0.000    0.000    0.000    0.000 
#    0.000    0.000    0.000    0.000    0.000    0.000 
#
# Total GULP energy -297337.144550 kJ/mol
# GULP energy per Si atom -12389.047690 kJ/mol
# Density = 2.105738 g / cm^3
# Si number density = 21.105414 Si / 1000 Ang^3
#
#
#
# Elastic Constant Matrix: (Units=GPa)
#
#
# Indices 1 2 3 4 5 6 
#
# 1 125.7493 15.2223 29.3558 0.0000 -3.3981 0.0000
# 2 15.2223 59.8362 -10.2784 0.0000 -14.5300 0.0000
# 3 29.3558 -10.2784 61.5116 0.0000 3.2275 0.0000
# 4 0.0000 0.0000 0.0000 29.0923 0.0000 -5.7504
# 5 -3.3981 -14.5300 3.2275 0.0000 36.7963 0.0000
# 6 0.0000 0.0000 0.0000 -5.7504 0.0000 30.2737
#
#
#
# Elastic Compliance Matrix: (Units=1/GPa)
#
#
# Indices 1 2 3 4 5 6 
#
# 1 0.009545 -0.003299 -0.005108 0.000000 0.000027 0.000000
# 2 -0.003299 0.020089 0.004552 0.000000 0.007229 0.000000
# 3 -0.005108 0.004552 0.019475 0.000000 -0.000382 0.000000
# 4 0.000000 0.000000 0.000000 0.035714 0.000000 0.006784
# 5 0.000027 0.007229 -0.000382 0.000000 0.030067 0.000000
# 6 0.000000 0.000000 0.000000 0.006784 0.000000 0.034321
#
#
# Mechanical properties :
#
#
# Convention : Reuss Voigt Hill
#
# Bulk Modulus (GPa) = 24.15510 35.07737 29.61623
# Shear Modulus (GPa) = 29.28759 33.41894 31.35326
#
# Velocity S-wave (km/s) = 3.72920 3.98355 3.85847
# Velocity P-wave (km/s) = 5.47836 6.14934 5.82352
#
# Compressibility (1/GPa) = 0.04139913
#
# Stress axis : x y z
#
# Youngs Moduli (GPa) = 104.76872 49.77890 51.34670
#
# Poissons Ratio (x) = 0.16423 0.26227
# Poissons Ratio (y) = 0.34564 -0.23373
# Poissons Ratio (z) = 0.53514 -0.22659
#
# Static dielectric constant tensor:
#      x y z
#    x 3.775540 0.000000 0.079680 
#    y 0.000000 3.537340 0.000000 
#    z 0.079680 0.000000 3.912450 
# 
# 
# High freq. dielectric constant tensor:
#      x y z
#    x 1.835300 0.000000 -0.000520 
#    y 0.000000 1.802000 0.000000 
#    z -0.000520 0.000000 1.830930 
# 
# From -- ./inp_files/67504.got.cif
#   From: 2010.03.12/outbox.cif.g09.slc.cpg/sg14_34_cif.got.tgz:67504.got - 2010.03.31 13:35:05.
