data_PCOD8125511
_publ_section_title
;
Structure prediction by ZEFSAII (Michael W. Deem and Ramdas Pophale) SiO2 
 PCOD8125511
Probable space group: P 21/C
;
_chemical_formula_sum "Si O2"
_cell_formula_units_Z 20
_cell_length_a 9.003861
_cell_length_b 8.078800
_cell_length_c 23.944754
_cell_angle_alpha 90.000000
_cell_angle_beta 147.880294
_cell_angle_gamma 90.000000
_cell_volume 926.071312
_symmetry_space_group_name_H-M "P 21/C"
_symmetry_group_IT_number 14
_symmetry_cell_setting 'monoclinic'
loop_
_space_group_symop_operation_xyz
x,y,z
-x,1/2+y,1/2-z
-x,-y,-z
x,1/2-y,1/2+z
loop_
_atom_site_type_symbol
_atom_site_label
_atom_site_fract_x
_atom_site_fract_y
_atom_site_fract_z
Si Si1 0.185590 0.799255 0.146420
Si Si2 0.160327 0.654900 0.026013
Si Si3 0.808107 0.949518 0.115623
Si Si4 0.781139 0.785028 0.707589
Si Si5 0.776371 0.920108 0.312874
O O1 0.121394 0.801489 0.059193
O O2 0.488903 0.877588 0.252829
O O3 0.170310 0.614732 0.166223
O O4 0.965197 0.913221 0.107824
O O5 0.488497 0.616693 0.121192
O O6 0.000000 0.500000 0.000000
O O7 0.015449 0.690481 0.920310
O O8 0.804302 0.785769 0.152599
O O9 0.961025 0.094332 0.198544
O O10 0.500000 0.000000 0.000000
O O11 0.783466 0.630358 0.750693
#
# Coordination Sequence:
#
# PCOD8125511 Si02
#       5
#     4   4   4   4   4
#     4  10  21  38  63  92 123 161 208 261 314 380
#     4   9  19  37  62  87 116 157 207 258 310 366
#     4  12  26  43  62  94 133 171 211 263 322 382
#     4  11  24  41  62  91 127 168 214 260 316 384
#     4  10  20  39  64  92 122 163 212 264 315 372
#
# _framework density 21.596609000000001
#
# number of rings (size 3 to 8) (size 9 to 14) (size 15 to 20)
#    0.000    1.600    0.000    6.000    0.000    6.400 
#    0.000   12.000    0.000    0.000    0.000    0.000 
#    0.000    0.000    0.000    0.000    0.000    0.000 
#
# Total GULP energy -247983.101430 kJ/mol
# GULP energy per Si atom -12399.155072 kJ/mol
# Density = 2.154745 g / cm^3
# Si number density = 21.596609 Si / 1000 Ang^3
#
#
#
# Elastic Constant Matrix: (Units=GPa)
#
#
# Indices 1 2 3 4 5 6 
#
# 1 83.2219 14.1503 44.3429 0.0000 9.6364 0.0000
# 2 14.1503 67.7905 31.4351 0.0000 10.2001 0.0000
# 3 44.3429 31.4351 151.2985 0.0000 19.6646 0.0000
# 4 0.0000 0.0000 0.0000 34.0387 0.0000 2.5450
# 5 9.6364 10.2001 19.6646 0.0000 32.8683 0.0000
# 6 0.0000 0.0000 0.0000 2.5450 0.0000 35.9016
#
#
#
# Elastic Compliance Matrix: (Units=1/GPa)
#
#
# Indices 1 2 3 4 5 6 
#
# 1 0.014400 -0.000997 -0.003800 0.000000 -0.001639 0.000000
# 2 -0.000997 0.016728 -0.002761 0.000000 -0.003247 0.000000
# 3 -0.003800 -0.002761 0.008719 0.000000 -0.003245 0.000000
# 4 0.000000 0.000000 0.000000 0.029535 0.000000 -0.002094
# 5 -0.001639 -0.003247 -0.003245 0.000000 0.033854 0.000000
# 6 0.000000 0.000000 0.000000 -0.002094 0.000000 0.028002
#
#
# Mechanical properties :
#
#
# Convention : Reuss Voigt Hill
#
# Bulk Modulus (GPa) = 40.43673 53.57417 47.00545
# Shear Modulus (GPa) = 32.34159 34.72056 33.53108
#
# Velocity S-wave (km/s) = 3.87399 4.01395 3.94459
# Velocity P-wave (km/s) = 6.22694 6.80757 6.52371
#
# Compressibility (1/GPa) = 0.02472999
#
# Stress axis : x y z
#
# Youngs Moduli (GPa) = 69.44319 59.77823 114.69500
#
# Poissons Ratio (x) = 0.05960 0.43588
# Poissons Ratio (y) = 0.06924 0.31672
# Poissons Ratio (z) = 0.26391 0.16507
#
# Static dielectric constant tensor:
#      x y z
#    x 4.098070 0.000000 -0.330640 
#    y 0.000000 3.641480 0.000000 
#    z -0.330640 0.000000 4.622820 
# 
# 
# High freq. dielectric constant tensor:
#      x y z
#    x 1.855990 0.000000 -0.003350 
#    y 0.000000 1.832800 0.000000 
#    z -0.003350 0.000000 1.861380 
# 
# From -- ./inp_files/22994.got.cif
#   From: 2010.03.12/outbox.cif.g09.slc.cpg/sg14_12_cif.got.tgz:22994.got - 2010.03.31 13:35:05.
