data_PCOD8125704
_publ_section_title
;
Structure prediction by ZEFSAII (Michael W. Deem and Ramdas Pophale) SiO2 
 PCOD8125704
Probable space group: P 21/C
;
_chemical_formula_sum "Si O2"
_cell_formula_units_Z 28
_cell_length_a 27.183484
_cell_length_b 9.641640
_cell_length_c 27.284122
_cell_angle_alpha 90.000000
_cell_angle_beta 10.618158
_cell_angle_gamma 90.000000
_cell_volume 1317.661318
_symmetry_space_group_name_H-M "P 21/C"
_symmetry_group_IT_number 14
_symmetry_cell_setting 'monoclinic'
loop_
_space_group_symop_operation_xyz
x,y,z
-x,1/2+y,1/2-z
-x,-y,-z
x,1/2-y,1/2+z
loop_
_atom_site_type_symbol
_atom_site_label
_atom_site_fract_x
_atom_site_fract_y
_atom_site_fract_z
Si Si1 0.244123 0.383991 0.706952
Si Si2 0.267658 0.434907 0.793435
Si Si3 0.173540 0.323709 0.195751
Si Si4 0.637911 0.220124 0.170676
Si Si5 0.898625 0.398357 0.776847
Si Si6 0.392916 0.996611 0.349694
Si Si7 0.382875 0.282515 0.777663
O O1 0.281066 0.354613 0.728378
O O2 0.513571 0.443479 0.419000
O O3 0.166851 0.238486 0.757043
O O4 0.020903 0.499316 0.915694
O O5 0.314367 0.320172 0.789068
O O6 0.139221 0.490590 0.230430
O O7 0.940986 0.253554 0.390350
O O8 0.457766 0.284017 0.895117
O O9 0.623532 0.075747 0.154498
O O10 0.523824 0.341546 0.247349
O O11 0.194258 0.338587 0.482716
O O12 0.863596 0.481498 0.862819
O O13 0.685141 0.273216 0.983031
O O14 0.328897 0.081533 0.363265
#
# Coordination Sequence:
#
# PCOD8125704 Si02
#       7
#     4   4   4   4   4   4   4
#     4  10  20  41  66  96 124 157 211 263 311 379
#     4  10  22  39  67  97 123 159 208 264 317 369
#     4  11  23  41  62  89 125 164 207 252 317 369
#     4  11  25  38  64  88 124 161 216 247 318 366
#     4  11  26  39  59  89 126 166 208 258 301 392
#     4  11  24  42  60  88 122 168 206 262 305 369
#     4  12  24  42  62  89 129 163 209 258 322 362
#
# _framework density 21.249770000000002
#
# number of rings (size 3 to 8) (size 9 to 14) (size 15 to 20)
#    0.000    1.143    1.429    5.143    4.000    3.429 
#    0.000    1.429    0.000    0.000    0.000    0.000 
#    0.000    0.000    0.000    0.000    0.000    0.000 
#
# Total GULP energy -347241.006232 kJ/mol
# GULP energy per Si atom -12401.464508 kJ/mol
# Density = 2.120140 g / cm^3
# Si number density = 21.249770 Si / 1000 Ang^3
#
#
#
# Elastic Constant Matrix: (Units=GPa)
#
#
# Indices 1 2 3 4 5 6 
#
# 1 101.8442 35.3344 15.8460 0.0000 -0.0011 0.0000
# 2 35.3344 84.9148 8.6384 0.0000 5.1502 0.0000
# 3 15.8460 8.6384 66.6221 0.0000 -5.1486 0.0000
# 4 0.0000 0.0000 0.0000 28.1388 0.0000 3.1933
# 5 -0.0011 5.1502 -5.1486 0.0000 21.0872 0.0000
# 6 0.0000 0.0000 0.0000 3.1933 0.0000 37.3946
#
#
#
# Elastic Compliance Matrix: (Units=1/GPa)
#
#
# Indices 1 2 3 4 5 6 
#
# 1 0.011792 -0.004727 -0.002143 0.000000 0.000632 0.000000
# 2 -0.004727 0.014067 -0.000984 0.000000 -0.003676 0.000000
# 3 -0.002143 -0.000984 0.015967 0.000000 0.004139 0.000000
# 4 0.000000 0.000000 0.000000 0.035886 0.000000 -0.003064
# 5 0.000632 -0.003676 0.004139 0.000000 0.049330 0.000000
# 6 0.000000 0.000000 0.000000 -0.003064 0.000000 0.027003
#
#
# Mechanical properties :
#
#
# Convention : Reuss Voigt Hill
#
# Bulk Modulus (GPa) = 38.28736 41.44652 39.86694
# Shear Modulus (GPa) = 28.01748 30.22829 29.12289
#
# Velocity S-wave (km/s) = 3.63503 3.77573 3.70605
# Velocity P-wave (km/s) = 5.97284 6.20926 6.09220
#
# Compressibility (1/GPa) = 0.02611828
#
# Stress axis : x y z
#
# Youngs Moduli (GPa) = 84.79967 71.09018 62.62868
#
# Poissons Ratio (x) = 0.33607 0.13422
# Poissons Ratio (y) = 0.40088 0.06160
# Poissons Ratio (z) = 0.18173 0.06992
#
# Static dielectric constant tensor:
#      x y z
#    x 3.854520 0.000000 0.100800 
#    y 0.000000 3.827290 0.000000 
#    z 0.100800 0.000000 3.802260 
# 
# 
# High freq. dielectric constant tensor:
#      x y z
#    x 1.825080 0.000000 0.001940 
#    y 0.000000 1.829860 0.000000 
#    z 0.001940 0.000000 1.843290 
# 
# From -- ./inp_files/80872.got.cif
#   From: 2010.03.12/outbox.cif.g09.slc.cpg/sg14_41_cif.got.tgz:80872.got - 2010.03.31 13:35:05.
