data_PCOD8125834
_publ_section_title
;
Structure prediction by ZEFSAII (Michael W. Deem and Ramdas Pophale) SiO2 
 PCOD8125834
Probable space group: P 21/C
;
_chemical_formula_sum "Si O2"
_cell_formula_units_Z 32
_cell_length_a 9.919002
_cell_length_b 18.616468
_cell_length_c 13.136542
_cell_angle_alpha 90.000000
_cell_angle_beta 41.578509
_cell_angle_gamma 90.000000
_cell_volume 1609.839552
_symmetry_space_group_name_H-M "P 21/C"
_symmetry_group_IT_number 14
_symmetry_cell_setting 'monoclinic'
loop_
_space_group_symop_operation_xyz
x,y,z
-x,1/2+y,1/2-z
-x,-y,-z
x,1/2-y,1/2+z
loop_
_atom_site_type_symbol
_atom_site_label
_atom_site_fract_x
_atom_site_fract_y
_atom_site_fract_z
Si Si1 0.507323 0.066830 0.857031
Si Si2 0.283214 0.205239 0.984864
Si Si3 0.015295 0.793047 0.027315
Si Si4 0.523139 0.172799 0.250547
Si Si5 0.039713 0.437789 0.342776
Si Si6 0.794629 0.663282 0.243234
Si Si7 0.179411 0.009928 0.202212
Si Si8 0.670868 0.024704 0.199850
O O1 0.467112 0.150180 0.857966
O O2 0.729242 0.050641 0.775239
O O3 0.495335 0.025454 0.758013
O O4 0.340502 0.038379 0.030052
O O5 0.086413 0.187100 0.025138
O O6 0.372260 0.282816 0.907384
O O7 0.228799 0.200683 0.133841
O O8 0.935131 0.851707 0.156216
O O9 0.950437 0.712991 0.094318
O O10 0.258525 0.789854 0.886186
O O11 0.420933 0.160019 0.196399
O O12 0.558406 0.098551 0.291674
O O13 0.244160 0.481600 0.252061
O O14 0.998500 0.464777 0.251413
O O15 0.854863 0.458930 0.519797
O O16 0.888736 0.582494 0.199211
#
# Coordination Sequence:
#
# PCOD8125834 Si02
#       8
#     4   4   4   4   4   4   4   4
#     4   9  15  28  48  73  98 127 167 213 257 290
#     4  10  21  35  53  78 106 138 172 211 259 309
#     4  10  21  36  53  77 108 137 170 213 258 307
#     4  10  21  35  53  78 106 138 172 211 259 309
#     4   9  17  28  48  76 100 129 168 217 255 295
#     4  10  21  36  53  77 108 137 170 213 258 307
#     4   9  17  28  48  76 100 129 168 217 255 295
#     4   9  15  28  48  73  98 127 167 213 257 290
#
# _framework density 19.877758
#
# number of rings (size 3 to 8) (size 9 to 14) (size 15 to 20)
#    0.000    2.500    2.500    0.000   10.500    1.000 
#    0.000    0.000    0.000    3.000    0.000    0.000 
#    0.000    0.000    0.000    0.000    0.000    0.000 
#
# Total GULP energy -396506.492283 kJ/mol
# GULP energy per Si atom -12390.827884 kJ/mol
# Density = 1.983252 g / cm^3
# Si number density = 19.877758 Si / 1000 Ang^3
#
#
#
# Elastic Constant Matrix: (Units=GPa)
#
#
# Indices 1 2 3 4 5 6 
#
# 1 120.3392 4.2236 7.5570 0.0000 -16.5847 0.0000
# 2 4.2236 25.7158 -6.8527 0.0000 -4.7632 0.0000
# 3 7.5570 -6.8527 13.8266 0.0000 -4.7405 0.0000
# 4 0.0000 0.0000 0.0000 22.3460 0.0000 -2.8537
# 5 -16.5847 -4.7632 -4.7405 0.0000 17.2184 0.0000
# 6 0.0000 0.0000 0.0000 -2.8537 0.0000 36.4577
#
#
#
# Elastic Compliance Matrix: (Units=1/GPa)
#
#
# Indices 1 2 3 4 5 6 
#
# 1 0.009660 -0.000803 -0.002831 0.000000 0.008303 0.000000
# 2 -0.000803 0.052491 0.034416 0.000000 0.023222 0.000000
# 3 -0.002831 0.034416 0.102979 0.000000 0.035145 0.000000
# 4 0.000000 0.000000 0.000000 0.045203 0.000000 0.003538
# 5 0.008303 0.023222 0.035145 0.000000 0.082175 0.000000
# 6 0.000000 0.000000 0.000000 0.003538 0.000000 0.027706
#
#
# Mechanical properties :
#
#
# Convention : Reuss Voigt Hill
#
# Bulk Modulus (GPa) = 4.41124 18.85970 11.63547
# Shear Modulus (GPa) = 14.96048 25.53466 20.24757
#
# Velocity S-wave (km/s) = 2.74638 3.58800 3.19502
# Velocity P-wave (km/s) = 3.50439 5.16463 4.41329
#
# Compressibility (1/GPa) = 0.22669360
#
# Stress axis : x y z
#
# Youngs Moduli (GPa) = 103.51858 19.05092 9.71075
#
# Poissons Ratio (x) = 0.01530 0.02749
# Poissons Ratio (y) = 0.08313 -0.33421
# Poissons Ratio (z) = 0.29307 -0.65566
#
# Static dielectric constant tensor:
#      x y z
#    x 4.016910 0.000000 -0.178650 
#    y 0.000000 3.869040 0.000000 
#    z -0.178650 0.000000 2.845930 
# 
# 
# High freq. dielectric constant tensor:
#      x y z
#    x 1.794700 0.000000 -0.015820 
#    y 0.000000 1.788480 0.000000 
#    z -0.015820 0.000000 1.700380 
# 
# From -- ./inp_files/42048.got.cif
#   From: 2010.03.12/outbox.cif.g09.slc.cpg/sg14_22_cif.got.tgz:42048.got - 2010.03.31 13:35:05.
