data_PCOD8125386
_publ_section_title
;
Structure prediction by ZEFSAII (Michael W. Deem and Ramdas Pophale) SiO2 
 PCOD8125386
Probable space group: P 21/C
;
_chemical_formula_sum "Si O2"
_cell_formula_units_Z 28
_cell_length_a 10.830075
_cell_length_b 15.661499
_cell_length_c 19.118790
_cell_angle_alpha 90.000000
_cell_angle_beta 155.307174
_cell_angle_gamma 90.000000
_cell_volume 1354.706144
_symmetry_space_group_name_H-M "P 21/C"
_symmetry_group_IT_number 14
_symmetry_cell_setting 'monoclinic'
loop_
_space_group_symop_operation_xyz
x,y,z
-x,1/2+y,1/2-z
-x,-y,-z
x,1/2-y,1/2+z
loop_
_atom_site_type_symbol
_atom_site_label
_atom_site_fract_x
_atom_site_fract_y
_atom_site_fract_z
Si Si1 0.339386 0.902143 0.695229
Si Si2 0.854548 0.149209 0.614964
Si Si3 0.633407 0.064115 0.625896
Si Si4 0.154307 0.483851 0.973428
Si Si5 0.765500 0.290103 0.404632
Si Si6 0.307741 0.245517 0.269969
Si Si7 0.993244 0.931495 0.056999
O O1 0.238344 0.809715 0.616567
O O2 0.126869 0.930397 0.648278
O O3 0.326125 0.972279 0.626682
O O4 0.662629 0.896253 0.895151
O O5 0.774108 0.144287 0.656216
O O6 0.557682 0.181230 0.424700
O O7 0.140555 0.208400 0.748404
O O8 0.944532 0.057245 0.631353
O O9 0.365737 0.083761 0.541745
O O10 0.897117 0.029071 0.812261
O O11 0.500000 0.000000 0.500000
O O12 0.475084 0.311519 0.302757
O O13 0.065089 0.308616 0.602675
O O14 0.783702 0.352897 0.347781
O O15 0.000000 0.000000 0.000000
#
# Coordination Sequence:
#
# PCOD8125386 Si02
#       7
#     4   4   4   4   4   4   4
#     4  11  22  39  65 102 133 166 223 281 342 394
#     4  10  21  42  61  91 127 182 220 258 329 407
#     4  10  24  44  65  89 136 177 213 269 337 399
#     4  10  20  39  67  95 130 173 216 272 341 393
#     4  11  22  38  64  97 135 165 219 283 336 383
#     4  10  20  38  64  93 128 172 220 267 326 404
#     4  12  25  41  69 103 131 172 228 286 328 397
#
# _framework density 20.668688
#
# number of rings (size 3 to 8) (size 9 to 14) (size 15 to 20)
#    0.000    1.429    5.714    0.000    6.000    0.000 
#    5.143    4.286    0.000    0.000    0.000    0.000 
#    0.000    0.000    0.000    0.000    0.000    0.000 
#
# Total GULP energy -346935.464167 kJ/mol
# GULP energy per Si atom -12390.552292 kJ/mol
# Density = 2.062165 g / cm^3
# Si number density = 20.668688 Si / 1000 Ang^3
#
#
#
# Elastic Constant Matrix: (Units=GPa)
#
#
# Indices 1 2 3 4 5 6 
#
# 1 155.8895 52.8708 54.5134 0.0000 20.9335 0.0000
# 2 52.8708 73.9992 30.2008 0.0000 8.0227 0.0000
# 3 54.5134 30.2008 100.7120 0.0000 3.6054 0.0000
# 4 0.0000 0.0000 0.0000 18.2597 0.0000 3.7613
# 5 20.9335 8.0227 3.6054 0.0000 40.3275 0.0000
# 6 0.0000 0.0000 0.0000 3.7613 0.0000 44.3767
#
#
#
# Elastic Compliance Matrix: (Units=1/GPa)
#
#
# Indices 1 2 3 4 5 6 
#
# 1 0.009992 -0.005211 -0.003709 0.000000 -0.003818 0.000000
# 2 -0.005211 0.018406 -0.002673 0.000000 -0.000717 0.000000
# 3 -0.003709 -0.002673 0.012691 0.000000 0.001322 0.000000
# 4 0.000000 0.000000 0.000000 0.055738 0.000000 -0.004724
# 5 -0.003818 -0.000717 0.001322 0.000000 0.026804 0.000000
# 6 0.000000 0.000000 0.000000 -0.004724 0.000000 0.022935
#
#
# Mechanical properties :
#
#
# Convention : Reuss Voigt Hill
#
# Bulk Modulus (GPa) = 55.85881 67.30787 61.58334
# Shear Modulus (GPa) = 28.45441 33.46050 30.95745
#
# Velocity S-wave (km/s) = 3.71440 4.02792 3.87433
# Velocity P-wave (km/s) = 6.74390 7.36668 7.06216
#
# Compressibility (1/GPa) = 0.01790228
#
# Stress axis : x y z
#
# Youngs Moduli (GPa) = 100.07960 54.33093 78.79518
#
# Poissons Ratio (x) = 0.28314 0.29226
# Poissons Ratio (y) = 0.52155 0.21061
# Poissons Ratio (z) = 0.37120 0.14522
#
# Static dielectric constant tensor:
#      x y z
#    x 4.508090 0.000000 0.163640 
#    y 0.000000 3.539720 0.000000 
#    z 0.163640 0.000000 3.785220 
# 
# 
# High freq. dielectric constant tensor:
#      x y z
#    x 1.818710 0.000000 0.019500 
#    y 0.000000 1.781070 0.000000 
#    z 0.019500 0.000000 1.806810 
# 
# From -- ./inp_files/67556.got.cif
#   From: 2010.03.12/outbox.cif.g09.slc.cpg/sg14_34_cif.got.tgz:67556.got - 2010.03.31 13:35:05.
