data_PCOD8125238
_publ_section_title
;
Structure prediction by ZEFSAII (Michael W. Deem and Ramdas Pophale) SiO2 
 PCOD8125238
Probable space group: P 21/C
;
_chemical_formula_sum "Si O2"
_cell_formula_units_Z 28
_cell_length_a 8.794973
_cell_length_b 12.086871
_cell_length_c 19.479025
_cell_angle_alpha 90.000000
_cell_angle_beta 136.595863
_cell_angle_gamma 90.000000
_cell_volume 1422.855591
_symmetry_space_group_name_H-M "P 21/C"
_symmetry_group_IT_number 14
_symmetry_cell_setting 'monoclinic'
loop_
_space_group_symop_operation_xyz
x,y,z
-x,1/2+y,1/2-z
-x,-y,-z
x,1/2-y,1/2+z
loop_
_atom_site_type_symbol
_atom_site_label
_atom_site_fract_x
_atom_site_fract_y
_atom_site_fract_z
Si Si1 0.323787 0.228001 0.052334
Si Si2 0.975222 0.618115 0.954564
Si Si3 0.510191 0.004739 0.920386
Si Si4 0.367503 0.752511 0.035912
Si Si5 0.814088 0.673353 0.129200
Si Si6 0.797831 0.227362 0.668634
Si Si7 0.947842 0.534784 0.799011
O O1 0.567956 0.282276 0.134195
O O2 0.190464 0.291845 0.067166
O O3 0.340906 0.094033 0.063735
O O4 0.202547 0.244553 0.940003
O O5 0.882937 0.598643 0.847631
O O6 0.214580 0.678067 0.034714
O O7 0.000000 0.500000 0.000000
O O8 0.602207 0.123233 0.924911
O O9 0.267309 0.986302 0.808945
O O10 0.500000 0.000000 0.000000
O O11 0.601843 0.688571 0.108363
O O12 0.255060 0.766097 0.925339
O O13 0.040039 0.684320 0.245214
O O14 0.853597 0.549473 0.114366
O O15 0.931928 0.113537 0.716226
#
# Coordination Sequence:
#
# PCOD8125238 Si02
#       7
#     4   4   4   4   4   4   4
#     4  11  23  38  65  89 129 164 203 254 313 374
#     4  11  25  44  57  88 133 168 204 249 310 385
#     4  12  20  42  68  95 123 157 212 273 306 363
#     4  10  23  38  65  91 125 161 203 263 312 364
#     4  11  19  38  64  96 117 160 211 261 313 357
#     4  10  20  37  63  96 118 156 215 259 312 360
#     4  11  22  38  66  90 126 162 207 265 313 365
#
# _framework density 19.678736000000001
#
# number of rings (size 3 to 8) (size 9 to 14) (size 15 to 20)
#    0.000    1.143    7.143    0.000    2.000    2.286 
#    5.143    0.000    3.143    0.000    0.000    0.000 
#    0.000    0.000    0.000    0.000    0.000    0.000 
#
# Total GULP energy -346982.133807 kJ/mol
# GULP energy per Si atom -12392.219065 kJ/mol
# Density = 1.963395 g / cm^3
# Si number density = 19.678736 Si / 1000 Ang^3
#
#
#
# Elastic Constant Matrix: (Units=GPa)
#
#
# Indices 1 2 3 4 5 6 
#
# 1 126.2815 71.0223 43.4815 0.0000 20.3214 0.0000
# 2 71.0223 140.2905 29.1316 0.0000 15.3966 0.0000
# 3 43.4815 29.1316 96.4802 0.0000 16.7178 0.0000
# 4 0.0000 0.0000 0.0000 30.1603 0.0000 14.0268
# 5 20.3214 15.3966 16.7178 0.0000 18.8827 0.0000
# 6 0.0000 0.0000 0.0000 14.0268 0.0000 41.0567
#
#
#
# Elastic Compliance Matrix: (Units=1/GPa)
#
#
# Indices 1 2 3 4 5 6 
#
# 1 0.013033 -0.005181 -0.003084 0.000000 -0.007070 0.000000
# 2 -0.005181 0.010073 -0.000295 0.000000 -0.002376 0.000000
# 3 -0.003084 -0.000295 0.013261 0.000000 -0.008182 0.000000
# 4 0.000000 0.000000 0.000000 0.039420 0.000000 -0.013467
# 5 -0.007070 -0.002376 -0.008182 0.000000 0.069749 0.000000
# 6 0.000000 0.000000 0.000000 -0.013467 0.000000 0.028958
#
#
# Mechanical properties :
#
#
# Convention : Reuss Voigt Hill
#
# Bulk Modulus (GPa) = 51.95529 72.25811 62.10670
# Shear Modulus (GPa) = 25.24887 32.64773 28.94830
#
# Velocity S-wave (km/s) = 3.58586 4.07755 3.83958
# Velocity P-wave (km/s) = 6.60330 7.67900 7.16138
#
# Compressibility (1/GPa) = 0.01924732
#
# Stress axis : x y z
#
# Youngs Moduli (GPa) = 76.73120 99.27383 75.40726
#
# Poissons Ratio (x) = 0.51438 0.23254
# Poissons Ratio (y) = 0.39758 0.02221
# Poissons Ratio (z) = 0.23663 0.02925
#
# Static dielectric constant tensor:
#      x y z
#    x 3.555030 0.000000 0.223980 
#    y 0.000000 3.926220 0.000000 
#    z 0.223980 0.000000 3.594180 
# 
# 
# High freq. dielectric constant tensor:
#      x y z
#    x 1.740360 0.000000 0.013150 
#    y 0.000000 1.786980 0.000000 
#    z 0.013150 0.000000 1.770410 
# 
# From -- ./inp_files/39653.got.cif
#   From: 2010.03.12/outbox.cif.g09.slc.cpg/sg14_20_cif.got.tgz:39653.got - 2010.03.31 13:35:05.
