data_PCOD8125583
_publ_section_title
;
Structure prediction by ZEFSAII (Michael W. Deem and Ramdas Pophale) SiO2 
 PCOD8125583
Probable space group: P 21/C
;
_chemical_formula_sum "Si O2"
_cell_formula_units_Z 20
_cell_length_a 6.803336
_cell_length_b 7.525733
_cell_length_c 21.414572
_cell_angle_alpha 90.000000
_cell_angle_beta 117.201946
_cell_angle_gamma 90.000000
_cell_volume 975.164010
_symmetry_space_group_name_H-M "P 21/C"
_symmetry_group_IT_number 14
_symmetry_cell_setting 'monoclinic'
loop_
_space_group_symop_operation_xyz
x,y,z
-x,1/2+y,1/2-z
-x,-y,-z
x,1/2-y,1/2+z
loop_
_atom_site_type_symbol
_atom_site_label
_atom_site_fract_x
_atom_site_fract_y
_atom_site_fract_z
Si Si1 0.758278 0.876783 0.215866
Si Si2 0.504088 0.827330 0.584267
Si Si3 0.308561 0.517099 0.616779
Si Si4 0.022462 0.859847 0.839337
Si Si5 0.500562 0.775435 0.440767
O O1 0.717256 0.724935 0.157111
O O2 0.853420 0.794772 0.293419
O O3 0.523095 0.976505 0.194665
O O4 0.931818 0.018484 0.214119
O O5 0.295517 0.707314 0.578383
O O6 0.566412 0.778709 0.522575
O O7 0.450325 0.034486 0.583941
O O8 0.087637 0.479290 0.622775
O O9 0.343290 0.365301 0.570149
O O10 0.243242 0.773490 0.898293
#
# Coordination Sequence:
#
# PCOD8125583 Si02
#       5
#     4   4   4   4   4
#     4   9  22  37  55  84 120 151 197 246 298 344
#     4   9  20  42  58  87 125 154 187 255 295 351
#     4   9  22  38  59  88 116 155 194 250 292 353
#     4  11  21  39  62  87 115 163 201 246 295 367
#     4  10  20  40  63  85 123 155 196 240 304 354
#
# _framework density 20.509371000000002
#
# number of rings (size 3 to 8) (size 9 to 14) (size 15 to 20)
#    1.200    1.200    0.000    1.800    0.000    5.600 
#    7.200    2.000    0.000    0.000    0.000    0.000 
#    0.000    0.000    0.000    0.000    0.000    0.000 
#
# Total GULP energy -247868.068707 kJ/mol
# GULP energy per Si atom -12393.403435 kJ/mol
# Density = 2.046269 g / cm^3
# Si number density = 20.509371 Si / 1000 Ang^3
#
#
#
# Elastic Constant Matrix: (Units=GPa)
#
#
# Indices 1 2 3 4 5 6 
#
# 1 72.5214 43.9957 16.5462 0.0000 -12.0851 0.0000
# 2 43.9957 121.5249 10.7787 0.0000 -12.6301 0.0000
# 3 16.5462 10.7787 42.9938 0.0000 4.6167 0.0000
# 4 0.0000 0.0000 0.0000 38.5029 0.0000 -1.9015
# 5 -12.0851 -12.6301 4.6167 0.0000 15.5400 0.0000
# 6 0.0000 0.0000 0.0000 -1.9015 0.0000 17.3301
#
#
#
# Elastic Compliance Matrix: (Units=1/GPa)
#
#
# Indices 1 2 3 4 5 6 
#
# 1 0.021532 -0.005504 -0.008495 0.000000 0.014795 0.000000
# 2 -0.005504 0.010824 -0.001116 0.000000 0.004849 0.000000
# 3 -0.008495 -0.001116 0.028525 0.000000 -0.015988 0.000000
# 4 0.000000 0.000000 0.000000 0.026114 0.000000 0.002865
# 5 0.014795 0.004849 -0.015988 0.000000 0.084547 0.000000
# 6 0.000000 0.000000 0.000000 0.002865 0.000000 0.058017
#
#
# Mechanical properties :
#
#
# Convention : Reuss Voigt Hill
#
# Bulk Modulus (GPa) = 32.62602 42.18680 37.40641
# Shear Modulus (GPa) = 18.51803 25.32257 21.92030
#
# Velocity S-wave (km/s) = 3.00810 3.51762 3.27279
# Velocity P-wave (km/s) = 5.29219 6.09199 5.70612
#
# Compressibility (1/GPa) = 0.03065039
#
# Stress axis : x y z
#
# Youngs Moduli (GPa) = 46.44275 92.38472 35.05658
#
# Poissons Ratio (x) = 0.50849 0.29782
# Poissons Ratio (y) = 0.25562 0.03913
# Poissons Ratio (z) = 0.39455 0.10311
#
# Static dielectric constant tensor:
#      x y z
#    x 3.302330 0.000000 0.034830 
#    y 0.000000 3.842290 0.000000 
#    z 0.034830 0.000000 3.479030 
# 
# 
# High freq. dielectric constant tensor:
#      x y z
#    x 1.773890 0.000000 0.002570 
#    y 0.000000 1.810790 0.000000 
#    z 0.002570 0.000000 1.794710 
# 
# From -- ./inp_files/62929.got.cif
#   From: 2010.03.12/outbox.cif.g09.slc.cpg/sg14_32_cif.got.tgz:62929.got - 2010.03.31 13:35:05.
