data_PCOD8125420
_publ_section_title
;
Structure prediction by ZEFSAII (Michael W. Deem and Ramdas Pophale) SiO2 
 PCOD8125420
Probable space group: P 21/C
;
_chemical_formula_sum "Si O2"
_cell_formula_units_Z 20
_cell_length_a 7.703781
_cell_length_b 9.530916
_cell_length_c 13.714514
_cell_angle_alpha 90.000000
_cell_angle_beta 67.320761
_cell_angle_gamma 90.000000
_cell_volume 929.114189
_symmetry_space_group_name_H-M "P 21/C"
_symmetry_group_IT_number 14
_symmetry_cell_setting 'monoclinic'
loop_
_space_group_symop_operation_xyz
x,y,z
-x,1/2+y,1/2-z
-x,-y,-z
x,1/2-y,1/2+z
loop_
_atom_site_type_symbol
_atom_site_label
_atom_site_fract_x
_atom_site_fract_y
_atom_site_fract_z
Si Si1 0.876213 0.798418 0.062270
Si Si2 0.917919 0.735102 0.845101
Si Si3 0.532646 0.525156 0.639644
Si Si4 0.597034 0.763248 0.279609
Si Si5 0.863526 0.056346 0.849802
O O1 0.732811 0.922318 0.052698
O O2 0.763461 0.709247 0.168567
O O3 0.060612 0.869321 0.068913
O O4 0.931342 0.703158 0.958162
O O5 0.710183 0.688445 0.851849
O O6 0.077419 0.645566 0.757781
O O7 0.950956 0.901308 0.820145
O O8 0.546546 0.361515 0.664928
O O9 0.489820 0.608217 0.751043
O O10 0.364657 0.553649 0.598857
#
# Coordination Sequence:
#
# PCOD8125420 Si02
#       5
#     4   4   4   4   4
#     4   9  20  37  58  78 114 139 183 223 269 320
#     4  10  20  39  57  80 112 143 180 227 268 323
#     4   9  19  37  56  77 111 144 179 221 271 317
#     4   8  19  35  56  79 109 142 178 225 265 317
#     4  10  21  35  58  83 106 146 181 221 275 319
#
# _framework density 21.525880000000001
#
# number of rings (size 3 to 8) (size 9 to 14) (size 15 to 20)
#    1.200    1.600    0.000    0.600    2.800    3.200 
#    3.600   10.000    0.000    0.000    0.000    0.000 
#    0.000    0.000    0.000    0.000    0.000    0.000 
#
# Total GULP energy -247811.086650 kJ/mol
# GULP energy per Si atom -12390.554332 kJ/mol
# Density = 2.147689 g / cm^3
# Si number density = 21.525880 Si / 1000 Ang^3
#
#
#
# Elastic Constant Matrix: (Units=GPa)
#
#
# Indices 1 2 3 4 5 6 
#
# 1 74.7881 -1.1680 10.2243 0.0000 14.6844 0.0000
# 2 -1.1680 22.2402 -13.2969 0.0000 -3.3839 0.0000
# 3 10.2243 -13.2969 58.0705 0.0000 10.6828 0.0000
# 4 0.0000 0.0000 0.0000 23.9139 0.0000 -2.7227
# 5 14.6844 -3.3839 10.6828 0.0000 35.0654 0.0000
# 6 0.0000 0.0000 0.0000 -2.7227 0.0000 30.3126
#
#
#
# Elastic Compliance Matrix: (Units=1/GPa)
#
#
# Indices 1 2 3 4 5 6 
#
# 1 0.014725 -0.001180 -0.001809 0.000000 -0.005729 0.000000
# 2 -0.001180 0.052262 0.011818 0.000000 0.001937 0.000000
# 3 -0.001809 0.011818 0.021077 0.000000 -0.004523 0.000000
# 4 0.000000 0.000000 0.000000 0.042249 0.000000 0.003795
# 5 -0.005729 0.001937 -0.004523 0.000000 0.032482 0.000000
# 6 0.000000 0.000000 0.000000 0.003795 0.000000 0.033330
#
#
# Mechanical properties :
#
#
# Convention : Reuss Voigt Hill
#
# Bulk Modulus (GPa) = 9.45861 16.29085 12.87473
# Shear Modulus (GPa) = 23.39645 28.48100 25.93872
#
# Velocity S-wave (km/s) = 3.30039 3.64140 3.47508
# Velocity P-wave (km/s) = 4.35052 5.02635 4.70060
#
# Compressibility (1/GPa) = 0.10572376
#
# Stress axis : x y z
#
# Youngs Moduli (GPa) = 67.91229 19.13425 47.44474
#
# Poissons Ratio (x) = 0.02258 0.08582
# Poissons Ratio (y) = 0.08013 -0.56072
# Poissons Ratio (z) = 0.12284 -0.22613
#
# Static dielectric constant tensor:
#      x y z
#    x 3.750250 0.000000 0.294260 
#    y 0.000000 3.602120 0.000000 
#    z 0.294260 0.000000 3.724180 
# 
# 
# High freq. dielectric constant tensor:
#      x y z
#    x 1.846040 0.000000 0.024210 
#    y 0.000000 1.810330 0.000000 
#    z 0.024210 0.000000 1.843080 
# 
# From -- ./inp_files/23417.got.cif
#   From: 2010.03.12/outbox.cif.g09.slc.cpg/sg14_12_cif.got.tgz:23417.got - 2010.03.31 13:35:05.
