data_PCOD8125602
_publ_section_title
;
Structure prediction by ZEFSAII (Michael W. Deem and Ramdas Pophale) SiO2 
 PCOD8125602
Probable space group: P 21/C
;
_chemical_formula_sum "Si O2"
_cell_formula_units_Z 32
_cell_length_a 17.482828
_cell_length_b 16.726870
_cell_length_c 12.580836
_cell_angle_alpha 90.000000
_cell_angle_beta 22.737139
_cell_angle_gamma 90.000000
_cell_volume 1421.967932
_symmetry_space_group_name_H-M "P 21/C"
_symmetry_group_IT_number 14
_symmetry_cell_setting 'monoclinic'
loop_
_space_group_symop_operation_xyz
x,y,z
-x,1/2+y,1/2-z
-x,-y,-z
x,1/2-y,1/2+z
loop_
_atom_site_type_symbol
_atom_site_label
_atom_site_fract_x
_atom_site_fract_y
_atom_site_fract_z
Si Si1 0.206124 0.538827 0.027054
Si Si2 0.382305 0.262201 0.920554
Si Si3 0.777732 0.923717 0.132114
Si Si4 0.364554 0.806096 0.227435
Si Si5 0.281984 0.368820 0.862109
Si Si6 0.701306 0.197631 0.371888
Si Si7 0.091158 0.244431 0.972363
Si Si8 0.425764 0.533379 0.952391
O O1 0.391291 0.532037 0.870468
O O2 0.993333 0.535964 0.356560
O O3 0.216712 0.624976 0.956930
O O4 0.222909 0.461936 0.929228
O O5 0.554703 0.258061 0.789559
O O6 0.334675 0.345168 0.918080
O O7 0.476238 0.206448 0.707174
O O8 0.182867 0.233543 0.237540
O O9 0.782902 0.828270 0.138475
O O10 0.657685 0.951297 0.180511
O O11 0.652755 0.952315 0.394595
O O12 0.246868 0.754031 0.292832
O O13 0.539037 0.854559 0.947163
O O14 0.100775 0.316289 0.045690
O O15 0.710611 0.105457 0.324642
O O16 0.863738 0.217870 0.253571
#
# Coordination Sequence:
#
# PCOD8125602 Si02
#       8
#     4   4   4   4   4   4   4   4
#     4  12  23  44  67  97 133 182 216 277 346 387
#     4  10  20  40  64  92 126 178 213 272 329 388
#     4  11  24  42  66 100 132 169 227 278 329 405
#     4  10  22  42  66  93 135 172 223 272 330 401
#     4  10  24  41  66  97 133 170 230 270 334 406
#     4  11  23  41  65 100 131 173 227 273 330 403
#     4  11  23  42  66  96 133 174 225 274 332 408
#     4  11  23  42  66  98 136 167 220 287 330 390
#
# _framework density 22.504024999999999
#
# number of rings (size 3 to 8) (size 9 to 14) (size 15 to 20)
#    0.000    1.250    2.500    3.750    1.750    4.000 
#    9.000    0.625    0.000    0.000    0.000    0.000 
#    0.000    0.000    0.000    0.000    0.000    0.000 
#
# Total GULP energy -396470.432215 kJ/mol
# GULP energy per Si atom -12389.701007 kJ/mol
# Density = 2.245280 g / cm^3
# Si number density = 22.504025 Si / 1000 Ang^3
#
#
#
# Elastic Constant Matrix: (Units=GPa)
#
#
# Indices 1 2 3 4 5 6 
#
# 1 96.7666 35.0943 21.6276 0.0000 -2.8679 0.0000
# 2 35.0943 99.7880 7.5618 0.0000 -4.1026 0.0000
# 3 21.6276 7.5618 64.5547 0.0000 -2.2081 0.0000
# 4 0.0000 0.0000 0.0000 23.8518 0.0000 0.6682
# 5 -2.8679 -4.1026 -2.2081 0.0000 33.3080 0.0000
# 6 0.0000 0.0000 0.0000 0.6682 0.0000 35.4780
#
#
#
# Elastic Compliance Matrix: (Units=1/GPa)
#
#
# Indices 1 2 3 4 5 6 
#
# 1 0.012694 -0.004166 -0.003753 0.000000 0.000331 0.000000
# 2 -0.004166 0.011524 0.000082 0.000000 0.001066 0.000000
# 3 -0.003753 0.000082 0.016766 0.000000 0.000798 0.000000
# 4 0.000000 0.000000 0.000000 0.041948 0.000000 -0.000790
# 5 0.000331 0.001066 0.000798 0.000000 0.030236 0.000000
# 6 0.000000 0.000000 0.000000 -0.000790 0.000000 0.028201
#
#
# Mechanical properties :
#
#
# Convention : Reuss Voigt Hill
#
# Bulk Modulus (GPa) = 39.51135 43.29741 41.40438
# Shear Modulus (GPa) = 30.21524 31.64927 30.93226
#
# Velocity S-wave (km/s) = 3.66821 3.75425 3.71148
# Velocity P-wave (km/s) = 5.96126 6.17042 6.06674
#
# Compressibility (1/GPa) = 0.02530918
#
# Stress axis : x y z
#
# Youngs Moduli (GPa) = 78.77844 86.77498 59.64481
#
# Poissons Ratio (x) = 0.36153 0.22387
# Poissons Ratio (y) = 0.32821 -0.00491
# Poissons Ratio (z) = 0.29569 -0.00715
#
# Static dielectric constant tensor:
#      x y z
#    x 4.092980 0.000000 0.014600 
#    y 0.000000 4.028560 0.000000 
#    z 0.014600 0.000000 3.905030 
# 
# 
# High freq. dielectric constant tensor:
#      x y z
#    x 1.887950 0.000000 -0.003360 
#    y 0.000000 1.882350 0.000000 
#    z -0.003360 0.000000 1.873910 
# 
# From -- ./inp_files/33028.got.cif
#   From: 2010.03.12/outbox.cif.g09.slc.cpg/sg14_17_cif.got.tgz:33028.got - 2010.03.31 13:35:05.
