data_PCOD8125256
_publ_section_title
;
Structure prediction by ZEFSAII (Michael W. Deem and Ramdas Pophale) SiO2 
 PCOD8125256
Probable space group: P 21/C
;
_chemical_formula_sum "Si O2"
_cell_formula_units_Z 32
_cell_length_a 9.333680
_cell_length_b 13.703952
_cell_length_c 13.119113
_cell_angle_alpha 90.000000
_cell_angle_beta 63.777087
_cell_angle_gamma 90.000000
_cell_volume 1505.342156
_symmetry_space_group_name_H-M "P 21/C"
_symmetry_group_IT_number 14
_symmetry_cell_setting 'monoclinic'
loop_
_space_group_symop_operation_xyz
x,y,z
-x,1/2+y,1/2-z
-x,-y,-z
x,1/2-y,1/2+z
loop_
_atom_site_type_symbol
_atom_site_label
_atom_site_fract_x
_atom_site_fract_y
_atom_site_fract_z
Si Si1 0.761845 0.071843 0.829704
Si Si2 0.655862 0.428636 0.780625
Si Si3 0.059717 0.451368 0.378726
Si Si4 0.378630 0.400703 0.726292
Si Si5 0.663773 0.692267 0.703839
Si Si6 0.825106 0.470679 0.089493
Si Si7 0.467759 0.910558 0.426466
Si Si8 0.452770 0.749272 0.589814
O O1 0.822378 0.094838 0.694595
O O2 0.640237 0.151938 0.913762
O O3 0.910344 0.072291 0.856656
O O4 0.671088 0.965895 0.856782
O O5 0.831433 0.470353 0.713833
O O6 0.558991 0.428301 0.703906
O O7 0.561983 0.482321 0.909305
O O8 0.672057 0.315966 0.807696
O O9 0.157892 0.351039 0.364973
O O10 0.000000 0.500000 0.500000
O O11 0.345053 0.286563 0.718263
O O12 0.266966 0.428423 0.858353
O O13 0.549260 0.609386 0.788302
O O14 0.604647 0.721112 0.610159
O O15 0.724195 0.417261 0.031085
O O16 0.000000 0.500000 0.000000
O O17 0.515228 0.815472 0.476632
#
# Coordination Sequence:
#
# PCOD8125256 Si02
#       8
#     4   4   4   4   4   4   4   4
#     4  10  22  40  59  92 128 163 207 257 318 380
#     4   9  20  41  62  89 124 153 213 270 298 375
#     4  11  25  42  59  88 132 169 201 259 323 379
#     4   8  19  40  65  83 119 165 200 261 307 358
#     4  10  21  44  59  91 128 156 215 263 299 386
#     4   9  19  38  62  88 125 157 208 256 310 372
#     4  10  20  37  66  91 118 164 214 258 312 372
#     4  11  21  38  67  92 118 164 212 263 317 370
#
# _framework density 21.257625000000001
#
# number of rings (size 3 to 8) (size 9 to 14) (size 15 to 20)
#    0.750    1.500    1.250    1.125    1.750    5.000 
#    6.750    1.875    0.000    0.000    0.000    0.000 
#    0.000    0.000    0.000    0.000    0.000    0.000 
#
# Total GULP energy -396467.410751 kJ/mol
# GULP energy per Si atom -12389.606586 kJ/mol
# Density = 2.120924 g / cm^3
# Si number density = 21.257625 Si / 1000 Ang^3
#
#
#
# Elastic Constant Matrix: (Units=GPa)
#
#
# Indices 1 2 3 4 5 6 
#
# 1 135.0918 55.0657 22.6855 0.0000 16.9325 0.0000
# 2 55.0657 120.0509 6.7837 0.0000 2.0547 0.0000
# 3 22.6855 6.7837 27.1981 0.0000 -2.4733 0.0000
# 4 0.0000 0.0000 0.0000 21.5738 0.0000 -1.0046
# 5 16.9325 2.0547 -2.4733 0.0000 24.7337 0.0000
# 6 0.0000 0.0000 0.0000 -1.0046 0.0000 32.4140
#
#
#
# Elastic Compliance Matrix: (Units=1/GPa)
#
#
# Indices 1 2 3 4 5 6 
#
# 1 0.012126 -0.004862 -0.009708 0.000000 -0.008868 0.000000
# 2 -0.004862 0.010419 0.001696 0.000000 0.002632 0.000000
# 3 -0.009708 0.001696 0.045446 0.000000 0.011049 0.000000
# 4 0.000000 0.000000 0.000000 0.046420 0.000000 0.001439
# 5 -0.008868 0.002632 0.011049 0.000000 0.047388 0.000000
# 6 0.000000 0.000000 0.000000 0.001439 0.000000 0.030895
#
#
# Mechanical properties :
#
#
# Convention : Reuss Voigt Hill
#
# Bulk Modulus (GPa) = 23.67226 50.15674 36.91450
# Shear Modulus (GPa) = 21.50329 28.93134 25.21732
#
# Velocity S-wave (km/s) = 3.18395 3.69316 3.44797
# Velocity P-wave (km/s) = 4.96757 6.46775 5.76665
#
# Compressibility (1/GPa) = 0.04224354
#
# Stress axis : x y z
#
# Youngs Moduli (GPa) = 82.46892 95.97963 22.00400
#
# Poissons Ratio (x) = 0.46661 0.21361
# Poissons Ratio (y) = 0.40093 -0.03731
# Poissons Ratio (z) = 0.80059 -0.16275
#
# Static dielectric constant tensor:
#      x y z
#    x 3.644860 0.000000 0.139330 
#    y 0.000000 4.002380 0.000000 
#    z 0.139330 0.000000 3.739130 
# 
# 
# High freq. dielectric constant tensor:
#      x y z
#    x 1.821940 0.000000 0.011510 
#    y 0.000000 1.844390 0.000000 
#    z 0.011510 0.000000 1.821630 
# 
# From -- ./inp_files/25484.got.cif
#   From: 2010.03.12/outbox.cif.g09.slc.cpg/sg14_13_cif.got.tgz:25484.got - 2010.03.31 13:35:05.
