data_PCOD8125077
_publ_section_title
;
Structure prediction by ZEFSAII (Michael W. Deem and Ramdas Pophale) SiO2 
 PCOD8125077
Probable space group: P 21/C
;
_chemical_formula_sum "Si O2"
_cell_formula_units_Z 28
_cell_length_a 11.036741
_cell_length_b 18.363503
_cell_length_c 13.526260
_cell_angle_alpha 90.000000
_cell_angle_beta 31.709741
_cell_angle_gamma 90.000000
_cell_volume 1440.930157
_symmetry_space_group_name_H-M "P 21/C"
_symmetry_group_IT_number 14
_symmetry_cell_setting 'monoclinic'
loop_
_space_group_symop_operation_xyz
x,y,z
-x,1/2+y,1/2-z
-x,-y,-z
x,1/2-y,1/2+z
loop_
_atom_site_type_symbol
_atom_site_label
_atom_site_fract_x
_atom_site_fract_y
_atom_site_fract_z
Si Si1 0.506458 0.177308 0.769813
Si Si2 0.019463 0.305208 0.653698
Si Si3 0.972928 0.227599 0.494917
Si Si4 0.910039 0.326479 0.351606
Si Si5 0.316046 0.424714 0.027462
Si Si6 0.422116 0.162440 0.258547
Si Si7 0.368763 0.906731 0.506052
O O1 0.750113 0.173003 0.658879
O O2 0.492106 0.261188 0.753652
O O3 0.491740 0.125813 0.683500
O O4 0.278581 0.163767 0.994525
O O5 0.968516 0.220341 0.713846
O O6 0.974978 0.297578 0.567152
O O7 0.861483 0.360147 0.822792
O O8 0.981274 0.267361 0.384357
O O9 0.192435 0.173153 0.352429
O O10 0.069380 0.397553 0.237305
O O11 0.648711 0.358197 0.536446
O O12 0.303356 0.511084 0.027362
O O13 0.387321 0.395250 0.870579
O O14 0.497124 0.399104 0.984304
#
# Coordination Sequence:
#
# PCOD8125077 Si02
#       7
#     4   4   4   4   4   4   4
#     4  10  20  38  58  89 116 156 203 247 287 351
#     4  11  21  36  62  89 121 156 201 247 292 354
#     4  10  20  36  62  92 116 152 210 250 288 344
#     4  11  21  36  62  89 121 156 201 247 292 354
#     4  11  23  39  60  90 126 158 193 248 307 355
#     4  10  20  38  58  89 116 156 203 247 287 351
#     4  11  23  39  60  90 126 158 193 248 307 355
#
# _framework density 19.431892000000001
#
# number of rings (size 3 to 8) (size 9 to 14) (size 15 to 20)
#    0.000    1.429    5.714    3.429    0.000    1.143 
#    0.000    4.286    0.000    1.714    0.000    0.000 
#    0.000    0.000    0.000    0.000    0.000    0.000 
#
# Total GULP energy -346940.555463 kJ/mol
# GULP energy per Si atom -12390.734124 kJ/mol
# Density = 1.938766 g / cm^3
# Si number density = 19.431892 Si / 1000 Ang^3
#
#
#
# Elastic Constant Matrix: (Units=GPa)
#
#
# Indices 1 2 3 4 5 6 
#
# 1 64.1471 17.7583 13.5061 0.0000 -17.3031 0.0000
# 2 17.7583 76.8136 13.9485 0.0000 -2.8694 0.0000
# 3 13.5061 13.9485 151.0440 0.0000 -15.2941 0.0000
# 4 0.0000 0.0000 0.0000 59.5607 0.0000 17.5575
# 5 -17.3031 -2.8694 -15.2941 0.0000 22.1399 0.0000
# 6 0.0000 0.0000 0.0000 17.5575 0.0000 35.0667
#
#
#
# Elastic Compliance Matrix: (Units=1/GPa)
#
#
# Indices 1 2 3 4 5 6 
#
# 1 0.021066 -0.004297 0.000133 0.000000 0.015999 0.000000
# 2 -0.004297 0.014135 -0.001157 0.000000 -0.002325 0.000000
# 3 0.000133 -0.001157 0.007216 0.000000 0.004939 0.000000
# 4 0.000000 0.000000 0.000000 0.019697 0.000000 -0.009862
# 5 0.015999 -0.002325 0.004939 0.000000 0.060782 0.000000
# 6 0.000000 0.000000 0.000000 -0.009862 0.000000 0.033455
#
#
# Mechanical properties :
#
#
# Convention : Reuss Voigt Hill
#
# Bulk Modulus (GPa) = 31.46986 42.49228 36.98107
# Shear Modulus (GPa) = 28.15593 39.80623 33.98108
#
# Velocity S-wave (km/s) = 3.81064 4.53095 4.18632
# Velocity P-wave (km/s) = 5.96586 7.02050 6.51455
#
# Compressibility (1/GPa) = 0.03177644
#
# Stress axis : x y z
#
# Youngs Moduli (GPa) = 47.46926 70.74615 138.58956
#
# Poissons Ratio (x) = 0.30398 -0.01844
# Poissons Ratio (y) = 0.20396 0.16029
# Poissons Ratio (z) = -0.00632 0.08182
#
# Static dielectric constant tensor:
#      x y z
#    x 3.899160 0.000000 -0.847760 
#    y 0.000000 3.268570 0.000000 
#    z -0.847760 0.000000 5.146500 
# 
# 
# High freq. dielectric constant tensor:
#      x y z
#    x 1.751000 0.000000 -0.007120 
#    y 0.000000 1.724110 0.000000 
#    z -0.007120 0.000000 1.778440 
# 
# From -- ./inp_files/45266.got.cif
#   From: 2010.03.12/outbox.cif.g09.slc.cpg/sg14_23_cif.got.tgz:45266.got - 2010.03.31 13:35:05.
