data_PCOD8125691
_publ_section_title
;
Structure prediction by ZEFSAII (Michael W. Deem and Ramdas Pophale) SiO2 
 PCOD8125691
Probable space group: P 21/C
;
_chemical_formula_sum "Si O2"
_cell_formula_units_Z 32
_cell_length_a 8.854722
_cell_length_b 11.776105
_cell_length_c 23.629682
_cell_angle_alpha 90.000000
_cell_angle_beta 142.829222
_cell_angle_gamma 90.000000
_cell_volume 1488.709691
_symmetry_space_group_name_H-M "P 21/C"
_symmetry_group_IT_number 14
_symmetry_cell_setting 'monoclinic'
loop_
_space_group_symop_operation_xyz
x,y,z
-x,1/2+y,1/2-z
-x,-y,-z
x,1/2-y,1/2+z
loop_
_atom_site_type_symbol
_atom_site_label
_atom_site_fract_x
_atom_site_fract_y
_atom_site_fract_z
Si Si1 0.653064 0.203443 0.779448
Si Si2 0.695630 0.232849 0.415228
Si Si3 0.314835 0.647528 0.914601
Si Si4 0.665392 0.602227 0.119769
Si Si5 0.385658 0.516460 0.590000
Si Si6 0.226515 0.668594 0.296942
Si Si7 0.900511 0.517771 0.381146
Si Si8 0.905792 0.730167 0.873383
O O1 0.749716 0.269895 0.864405
O O2 0.695297 0.286989 0.740776
O O3 0.799066 0.085110 0.812273
O O4 0.362168 0.171970 0.700231
O O5 0.519242 0.130130 0.383034
O O6 0.553678 0.349932 0.388646
O O7 0.963014 0.229552 0.526013
O O8 0.309000 0.532636 0.876848
O O9 0.336982 0.750271 0.877906
O O10 0.061080 0.656123 0.875138
O O11 0.552788 0.652427 0.027662
O O12 0.929684 0.659311 0.211674
O O13 0.645145 0.453320 0.654984
O O14 0.264145 0.472115 0.611578
O O15 0.189999 0.491935 0.481181
O O16 0.878877 0.639306 0.342953
#
# Coordination Sequence:
#
# PCOD8125691 Si02
#       8
#     4   4   4   4   4   4   4   4
#     4  11  23  33  65  96 126 159 206 265 319 372
#     4   9  21  43  66  87 121 171 210 259 310 383
#     4  10  25  45  64  89 131 171 211 267 316 385
#     4  10  24  46  65  89 128 174 213 260 323 377
#     4   9  19  38  63  89 122 157 202 264 311 357
#     4  12  25  36  64  97 126 160 213 265 317 381
#     4   9  19  38  60  91 122 156 205 259 308 372
#     4  10  20  41  65  88 119 174 212 250 321 371
#
# _framework density 21.495125000000002
#
# number of rings (size 3 to 8) (size 9 to 14) (size 15 to 20)
#    0.000    2.000    1.250    1.500    7.000    2.000 
#    0.000    1.875    0.000    5.250    0.000    0.000 
#    0.000    0.000    0.000    0.000    0.000    0.000 
#
# Total GULP energy -396884.682938 kJ/mol
# GULP energy per Si atom -12402.646342 kJ/mol
# Density = 2.144620 g / cm^3
# Si number density = 21.495125 Si / 1000 Ang^3
#
#
#
# Elastic Constant Matrix: (Units=GPa)
#
#
# Indices 1 2 3 4 5 6 
#
# 1 29.9098 -8.9654 4.6831 0.0000 1.1123 0.0000
# 2 -8.9654 51.8628 5.5751 0.0000 10.6902 0.0000
# 3 4.6831 5.5751 75.1129 0.0000 7.1710 0.0000
# 4 0.0000 0.0000 0.0000 27.4265 0.0000 7.0831
# 5 1.1123 10.6902 7.1710 0.0000 27.8723 0.0000
# 6 0.0000 0.0000 0.0000 7.0831 0.0000 36.5475
#
#
#
# Elastic Compliance Matrix: (Units=1/GPa)
#
#
# Indices 1 2 3 4 5 6 
#
# 1 0.036123 0.007248 -0.002447 0.000000 -0.003592 0.000000
# 2 0.007248 0.022439 -0.001300 0.000000 -0.008561 0.000000
# 3 -0.002447 -0.001300 0.013846 0.000000 -0.002966 0.000000
# 4 0.000000 0.000000 0.000000 0.038382 0.000000 -0.007439
# 5 -0.003592 -0.008561 -0.002966 0.000000 0.040068 0.000000
# 6 0.000000 0.000000 0.000000 -0.007439 0.000000 0.028803
#
#
# Mechanical properties :
#
#
# Convention : Reuss Voigt Hill
#
# Bulk Modulus (GPa) = 12.59302 17.71900 15.15601
# Shear Modulus (GPa) = 25.10931 28.74213 26.92572
#
# Velocity S-wave (km/s) = 3.42151 3.66067 3.54311
# Velocity P-wave (km/s) = 4.63468 5.11160 4.87897
#
# Compressibility (1/GPa) = 0.07940908
#
# Stress axis : x y z
#
# Youngs Moduli (GPa) = 27.68305 44.56522 72.22559
#
# Poissons Ratio (x) = -0.32301 0.17675
# Poissons Ratio (y) = -0.20065 0.09390
# Poissons Ratio (z) = 0.06775 0.05794
#
# Static dielectric constant tensor:
#      x y z
#    x 3.614080 0.000000 -0.034600 
#    y 0.000000 3.850050 0.000000 
#    z -0.034600 0.000000 4.072220 
# 
# 
# High freq. dielectric constant tensor:
#      x y z
#    x 1.820630 0.000000 0.001240 
#    y 0.000000 1.839570 0.000000 
#    z 0.001240 0.000000 1.858640 
# 
# From -- ./inp_files/72366.got.cif
#   From: 2010.03.12/outbox.cif.g09.slc.cpg/sg14_37_cif.got.tgz:72366.got - 2010.03.31 13:35:05.
