data_PCOD8125351
_publ_section_title
;
Structure prediction by ZEFSAII (Michael W. Deem and Ramdas Pophale) SiO2 
 PCOD8125351
Probable space group: P 21/C
;
_chemical_formula_sum "Si O2"
_cell_formula_units_Z 28
_cell_length_a 16.881093
_cell_length_b 14.321110
_cell_length_c 9.806757
_cell_angle_alpha 90.000000
_cell_angle_beta 151.515004
_cell_angle_gamma 90.000000
_cell_volume 1130.722494
_symmetry_space_group_name_H-M "P 21/C"
_symmetry_group_IT_number 14
_symmetry_cell_setting 'monoclinic'
loop_
_space_group_symop_operation_xyz
x,y,z
-x,1/2+y,1/2-z
-x,-y,-z
x,1/2-y,1/2+z
loop_
_atom_site_type_symbol
_atom_site_label
_atom_site_fract_x
_atom_site_fract_y
_atom_site_fract_z
Si Si1 0.134232 0.090787 0.241231
Si Si2 0.064101 0.622201 0.823162
Si Si3 0.390267 0.947014 0.526528
Si Si4 0.733056 0.260199 0.044238
Si Si5 0.096697 0.290382 0.191029
Si Si6 0.060745 0.439201 0.930652
Si Si7 0.687553 0.440228 0.404187
O O1 0.206447 0.197164 0.333831
O O2 0.042806 0.098732 0.249413
O O3 0.279168 0.013846 0.455728
O O4 0.997890 0.073489 0.913834
O O5 0.901568 0.667318 0.652502
O O6 0.207547 0.697268 0.011986
O O7 0.143790 0.542098 0.041845
O O8 0.381467 0.838221 0.556052
O O9 0.332206 0.959454 0.285069
O O10 0.579643 0.984277 0.825342
O O11 0.902184 0.237704 0.380285
O O12 0.631222 0.165465 0.859964
O O13 0.159808 0.366065 0.174885
O O14 0.881256 0.455243 0.730298
#
# Coordination Sequence:
#
# PCOD8125351 Si02
#       7
#     4   4   4   4   4   4   4
#     4  11  20  36  61  90 115 153 208 247 288 360
#     4  11  19  34  62  89 119 158 201 250 300 358
#     4  11  21  39  62  88 118 158 206 248 293 360
#     4  10  20  38  62  85 118 163 201 243 304 363
#     4  10  22  33  57  93 125 154 196 253 308 349
#     4  11  20  38  59  89 120 158 203 250 300 356
#     4  10  22  38  60  88 118 157 204 247 299 359
#
# _framework density 24.762929
#
# number of rings (size 3 to 8) (size 9 to 14) (size 15 to 20)
#    0.000    1.429    2.857    6.000    0.000    0.000 
#    2.571    1.429    0.000    4.286    0.000    0.000 
#    0.000    0.000    0.000    0.000    0.000    0.000 
#
# Total GULP energy -346938.319254 kJ/mol
# GULP energy per Si atom -12390.654259 kJ/mol
# Density = 2.470657 g / cm^3
# Si number density = 24.762929 Si / 1000 Ang^3
#
#
#
# Elastic Constant Matrix: (Units=GPa)
#
#
# Indices 1 2 3 4 5 6 
#
# 1 105.2871 24.1071 9.2223 0.0000 4.8196 0.0000
# 2 24.1071 115.4408 9.9681 0.0000 6.7746 0.0000
# 3 9.2223 9.9681 29.8051 0.0000 11.1006 0.0000
# 4 0.0000 0.0000 0.0000 33.3903 0.0000 9.2561
# 5 4.8196 6.7746 11.1006 0.0000 19.2345 0.0000
# 6 0.0000 0.0000 0.0000 9.2561 0.0000 55.4811
#
#
#
# Elastic Compliance Matrix: (Units=1/GPa)
#
#
# Indices 1 2 3 4 5 6 
#
# 1 0.010158 -0.001890 -0.002307 0.000000 -0.000548 0.000000
# 2 -0.001890 0.009321 -0.001893 0.000000 -0.001717 0.000000
# 3 -0.002307 -0.001893 0.043863 0.000000 -0.024069 0.000000
# 4 0.000000 0.000000 0.000000 0.031401 0.000000 -0.005239
# 5 -0.000548 -0.001717 -0.024069 0.000000 0.066623 0.000000
# 6 0.000000 0.000000 0.000000 -0.005239 0.000000 0.018898
#
#
# Mechanical properties :
#
#
# Convention : Reuss Voigt Hill
#
# Bulk Modulus (GPa) = 19.54580 37.45867 28.50223
# Shear Modulus (GPa) = 23.86669 35.43688 29.65179
#
# Velocity S-wave (km/s) = 3.10789 3.78702 3.46414
# Velocity P-wave (km/s) = 4.55949 5.85507 5.24742
#
# Compressibility (1/GPa) = 0.05116190
#
# Stress axis : x y z
#
# Youngs Moduli (GPa) = 98.44751 107.28082 22.79850
#
# Poissons Ratio (x) = 0.20274 0.05259
# Poissons Ratio (y) = 0.18605 0.04316
# Poissons Ratio (z) = 0.22709 0.20311
#
# Static dielectric constant tensor:
#      x y z
#    x 4.668920 0.000000 -0.041170 
#    y 0.000000 5.329810 0.000000 
#    z -0.041170 0.000000 3.673980 
# 
# 
# High freq. dielectric constant tensor:
#      x y z
#    x 2.002490 0.000000 -0.016320 
#    y 0.000000 2.027590 0.000000 
#    z -0.016320 0.000000 1.897140 
# 
# From -- ./inp_files/34105.got.cif
#   From: 2010.03.12/outbox.cif.g09.slc.cpg/sg14_18_cif.got.tgz:34105.got - 2010.03.31 13:35:05.
