data_PCOD8125344
_publ_section_title
;
Structure prediction by ZEFSAII (Michael W. Deem and Ramdas Pophale) SiO2 
 PCOD8125344
Probable space group: P 21/C
;
_chemical_formula_sum "Si O2"
_cell_formula_units_Z 32
_cell_length_a 20.638020
_cell_length_b 5.607453
_cell_length_c 22.406143
_cell_angle_alpha 90.000000
_cell_angle_beta 148.452430
_cell_angle_gamma 90.000000
_cell_volume 1356.668472
_symmetry_space_group_name_H-M "P 21/C"
_symmetry_group_IT_number 14
_symmetry_cell_setting 'monoclinic'
loop_
_space_group_symop_operation_xyz
x,y,z
-x,1/2+y,1/2-z
-x,-y,-z
x,1/2-y,1/2+z
loop_
_atom_site_type_symbol
_atom_site_label
_atom_site_fract_x
_atom_site_fract_y
_atom_site_fract_z
Si Si1 0.313992 0.958625 0.074779
Si Si2 0.501521 0.843718 0.412499
Si Si3 0.333982 0.810517 0.381891
Si Si4 0.440433 0.283386 0.772705
Si Si5 0.137122 0.876334 0.038059
Si Si6 0.786329 0.890798 0.344956
Si Si7 0.859291 0.818096 0.786175
Si Si8 0.744919 0.921680 0.092799
O O1 0.418221 0.792297 0.126304
O O2 0.230340 0.822263 0.056947
O O3 0.378521 0.183336 0.158608
O O4 0.216395 0.030452 0.945312
O O5 0.405355 0.700038 0.380139
O O6 0.603842 0.660462 0.471771
O O7 0.564346 0.056038 0.498758
O O8 0.434975 0.961421 0.302802
O O9 0.257341 0.641968 0.364727
O O10 0.232096 0.969336 0.269275
O O11 0.358422 0.094533 0.747245
O O12 0.143779 0.634071 0.081953
O O13 0.161337 0.134358 0.088363
O O14 0.998972 0.895123 0.904758
O O15 0.810334 0.890143 0.292499
O O16 0.837341 0.760409 0.698319
#
# Coordination Sequence:
#
# PCOD8125344 Si02
#       8
#     4   4   4   4   4   4   4   4
#     4  11  24  43  63 104 134 189 231 282 344 429
#     4  10  20  38  62 101 132 173 225 287 351 411
#     4  10  21  39  62  99 138 170 226 281 356 422
#     4  11  21  41  69  97 138 175 233 289 354 414
#     4  11  27  48  72 102 143 185 240 294 343 420
#     4  11  25  46  75 107 136 179 239 299 358 411
#     4  11  25  44  70 102 136 185 235 295 360 409
#     4  11  24  39  65  97 140 186 229 283 347 428
#
# _framework density 23.587192000000002
#
# number of rings (size 3 to 8) (size 9 to 14) (size 15 to 20)
#    0.000    1.250    2.500    2.625    3.500    3.000 
#    2.250    0.000    0.000    0.000    0.000    0.000 
#    0.000    0.000    0.000    0.000    0.000    0.000 
#
# Total GULP energy -396508.099365 kJ/mol
# GULP energy per Si atom -12390.878105 kJ/mol
# Density = 2.353351 g / cm^3
# Si number density = 23.587192 Si / 1000 Ang^3
#
#
#
# Elastic Constant Matrix: (Units=GPa)
#
#
# Indices 1 2 3 4 5 6 
#
# 1 94.6224 12.7988 35.9740 0.0000 -27.5758 0.0000
# 2 12.7988 74.5684 9.0540 0.0000 -17.4443 0.0000
# 3 35.9740 9.0540 90.7231 0.0000 -13.5609 0.0000
# 4 0.0000 0.0000 0.0000 -12.3768 0.0000 -3.4579
# 5 -27.5758 -17.4443 -13.5609 0.0000 29.9770 0.0000
# 6 0.0000 0.0000 0.0000 -3.4579 0.0000 29.7333
#
#
#
# Elastic Compliance Matrix: (Units=1/GPa)
#
#
# Indices 1 2 3 4 5 6 
#
# 1 0.015993 0.000887 -0.004455 0.000000 0.013212 0.000000
# 2 0.000887 0.015577 -0.000460 0.000000 0.009672 0.000000
# 3 -0.004455 -0.000460 0.013066 0.000000 0.001545 0.000000
# 4 0.000000 0.000000 0.000000 -0.078254 0.000000 -0.009101
# 5 0.013212 0.009672 0.001545 0.000000 0.051840 0.000000
# 6 0.000000 0.000000 0.000000 -0.009101 0.000000 0.032574
#
#
# Mechanical properties :
#
#
# Convention : Reuss Voigt Hill
#
# Bulk Modulus (GPa) = 27.33886 41.72972 34.53429
# Shear Modulus (GPa) = 70.37732 22.93917 46.65824
#
# Velocity S-wave (km/s) = 5.46826 3.12192 4.45243
# Velocity P-wave (km/s) = 7.17530 5.54304 6.41132
#
# Compressibility (1/GPa) = 0.03657796
#
# Stress axis : x y z
#
# Youngs Moduli (GPa) = 62.52910 64.19782 76.53502
#
# Poissons Ratio (x) = -0.05693 0.34097
# Poissons Ratio (y) = -0.05545 0.03524
# Poissons Ratio (z) = 0.27857 0.02956
#
# Static dielectric constant tensor:
#      x y z
#    x 4.435880 0.000000 -0.211430 
#    y 0.000000 4.036820 0.000000 
#    z -0.211430 0.000000 4.262210 
# 
# 
# High freq. dielectric constant tensor:
#      x y z
#    x 1.939050 0.000000 -0.018930 
#    y 0.000000 1.922630 0.000000 
#    z -0.018930 0.000000 1.935030 
# 
# From -- ./inp_files/74543.got.cif
#   From: 2010.03.12/outbox.cif.g09.slc.cpg/sg14_38_cif.got.tgz:74543.got - 2010.03.31 13:35:05.
