data_PCOD8125327
_publ_section_title
;
Structure prediction by ZEFSAII (Michael W. Deem and Ramdas Pophale) SiO2 
 PCOD8125327
Probable space group: P 21/C
;
_chemical_formula_sum "Si O2"
_cell_formula_units_Z 28
_cell_length_a 4.966747
_cell_length_b 11.572966
_cell_length_c 20.978656
_cell_angle_alpha 90.000000
_cell_angle_beta 86.617222
_cell_angle_gamma 90.000000
_cell_volume 1203.751957
_symmetry_space_group_name_H-M "P 21/C"
_symmetry_group_IT_number 14
_symmetry_cell_setting 'monoclinic'
loop_
_space_group_symop_operation_xyz
x,y,z
-x,1/2+y,1/2-z
-x,-y,-z
x,1/2-y,1/2+z
loop_
_atom_site_type_symbol
_atom_site_label
_atom_site_fract_x
_atom_site_fract_y
_atom_site_fract_z
Si Si1 0.071595 0.597525 0.828708
Si Si2 0.741948 0.131864 0.056399
Si Si3 0.218365 0.325949 0.632116
Si Si4 0.307447 0.118678 0.898723
Si Si5 0.546975 0.693836 0.017935
Si Si6 0.585378 0.968081 0.403896
Si Si7 0.826319 0.068376 0.816923
O O1 0.303275 0.570532 0.876986
O O2 0.195969 0.592652 0.757411
O O3 0.920796 0.719345 0.832574
O O4 0.822415 0.511496 0.848798
O O5 0.537727 0.185852 0.112781
O O6 0.055864 0.149350 0.068614
O O7 0.695771 0.993051 0.053686
O O8 0.678196 0.205167 0.993421
O O9 0.185851 0.430694 0.680934
O O10 0.243800 0.234928 0.940704
O O11 0.593037 0.130786 0.859670
O O12 0.102274 0.111713 0.843435
O O13 0.424160 0.587562 0.058306
O O14 0.673711 0.637737 0.951254
#
# Coordination Sequence:
#
# PCOD8125327 Si02
#       7
#     4   4   4   4   4   4   4
#     4  12  22  45  62  88 126 170 211 252 314 367
#     4  10  20  39  62  90 119 164 191 252 312 373
#     4  10  20  38  61  86 122 155 209 245 310 366
#     4  10  23  40  64  95 124 160 208 263 318 356
#     4  11  23  43  63  97 132 157 210 261 307 379
#     4  11  27  38  65  94 124 171 206 251 318 375
#     4  10  24  40  64  93 119 165 216 257 307 370
#
# _framework density 23.260605000000002
#
# number of rings (size 3 to 8) (size 9 to 14) (size 15 to 20)
#    0.000    1.429    2.857    1.286    0.000    9.143 
#    0.000    4.286    0.000    0.000    0.000    0.000 
#    0.000    0.000    0.000    0.000    0.000    0.000 
#
# Total GULP energy -346937.436437 kJ/mol
# GULP energy per Si atom -12390.622730 kJ/mol
# Density = 2.320766 g / cm^3
# Si number density = 23.260605 Si / 1000 Ang^3
#
#
#
# Elastic Constant Matrix: (Units=GPa)
#
#
# Indices 1 2 3 4 5 6 
#
# 1 84.1495 9.7750 18.2598 0.0000 5.3286 0.0000
# 2 9.7750 116.7007 45.6317 0.0000 10.2529 0.0000
# 3 18.2598 45.6317 107.2287 0.0000 6.0437 0.0000
# 4 0.0000 0.0000 0.0000 24.7052 0.0000 -3.2850
# 5 5.3286 10.2529 6.0437 0.0000 8.7865 0.0000
# 6 0.0000 0.0000 0.0000 -3.2850 0.0000 16.3871
#
#
#
# Elastic Compliance Matrix: (Units=1/GPa)
#
#
# Indices 1 2 3 4 5 6 
#
# 1 0.012689 0.000268 -0.001897 0.000000 -0.006703 0.000000
# 2 0.000268 0.011080 -0.004185 0.000000 -0.010213 0.000000
# 3 -0.001897 -0.004185 0.011537 0.000000 -0.001902 0.000000
# 4 0.000000 0.000000 0.000000 0.041586 0.000000 0.008336
# 5 -0.006703 -0.010213 -0.001902 0.000000 0.131102 0.000000
# 6 0.000000 0.000000 0.000000 0.008336 0.000000 0.062695
#
#
# Mechanical properties :
#
#
# Convention : Reuss Voigt Hill
#
# Bulk Modulus (GPa) = 42.23461 50.60134 46.41797
# Shear Modulus (GPa) = 17.22894 25.60324 21.41609
#
# Velocity S-wave (km/s) = 2.72452 3.32130 3.03760
# Velocity P-wave (km/s) = 5.30037 6.04230 5.68345
#
# Compressibility (1/GPa) = 0.02367726
#
# Stress axis : x y z
#
# Youngs Moduli (GPa) = 78.81125 90.25038 86.67689
#
# Poissons Ratio (x) = -0.02417 0.16442
# Poissons Ratio (y) = -0.02110 0.36276
# Poissons Ratio (z) = 0.14950 0.37772
#
# Static dielectric constant tensor:
#      x y z
#    x 4.200900 0.000000 -0.020390 
#    y 0.000000 4.449560 0.000000 
#    z -0.020390 0.000000 3.983630 
# 
# 
# High freq. dielectric constant tensor:
#      x y z
#    x 1.923600 0.000000 -0.001890 
#    y 0.000000 1.931290 0.000000 
#    z -0.001890 0.000000 1.903280 
# 
# From -- ./inp_files/63320.got.cif
#   From: 2010.03.12/outbox.cif.g09.slc.cpg/sg14_32_cif.got.tgz:63320.got - 2010.03.31 13:35:05.
