data_PCOD8125705
_publ_section_title
;
Structure prediction by ZEFSAII (Michael W. Deem and Ramdas Pophale) SiO2 
 PCOD8125705
Probable space group: P 21/C
;
_chemical_formula_sum "Si O2"
_cell_formula_units_Z 28
_cell_length_a 4.948356
_cell_length_b 26.953690
_cell_length_c 9.661310
_cell_angle_alpha 90.000000
_cell_angle_beta 97.550314
_cell_angle_gamma 90.000000
_cell_volume 1277.418996
_symmetry_space_group_name_H-M "P 21/C"
_symmetry_group_IT_number 14
_symmetry_cell_setting 'monoclinic'
loop_
_space_group_symop_operation_xyz
x,y,z
-x,1/2+y,1/2-z
-x,-y,-z
x,1/2-y,1/2+z
loop_
_atom_site_type_symbol
_atom_site_label
_atom_site_fract_x
_atom_site_fract_y
_atom_site_fract_z
Si Si1 0.299927 0.939862 0.563113
Si Si2 0.858968 0.342969 0.790190
Si Si3 0.920467 0.259501 0.006282
Si Si4 0.707479 0.193442 0.760029
Si Si5 0.233449 0.133542 0.815410
Si Si6 0.256431 0.451893 0.121477
Si Si7 0.687024 0.676483 0.391902
O O1 0.241369 0.896388 0.666483
O O2 0.568605 0.927457 0.491585
O O3 0.058475 0.947888 0.438709
O O4 0.345062 0.991025 0.651842
O O5 0.970145 0.310332 0.925979
O O6 0.607215 0.315989 0.697038
O O7 0.106579 0.349470 0.701297
O O8 0.727904 0.222983 0.905593
O O9 0.205117 0.231149 0.056004
O O10 0.765824 0.269968 0.138024
O O11 0.403177 0.171865 0.729571
O O12 0.917954 0.147416 0.775427
O O13 0.293439 0.077848 0.767625
O O14 0.334416 0.138960 0.979794
#
# Coordination Sequence:
#
# PCOD8125705 Si02
#       7
#     4   4   4   4   4   4   4
#     4  10  22  39  67  99 123 162 211 267 323 374
#     4  12  24  42  66  89 133 167 216 262 329 373
#     4  11  24  43  60  91 124 171 210 268 311 376
#     4  11  25  38  64  88 125 162 219 250 324 372
#     4  11  23  41  62  89 126 167 208 256 322 375
#     4  10  20  41  66  96 128 158 213 268 316 385
#     4  11  26  42  59  92 128 171 212 265 309 401
#
# _framework density 21.919195999999999
#
# number of rings (size 3 to 8) (size 9 to 14) (size 15 to 20)
#    0.000    1.143    1.429    5.143    2.000    3.429 
#    0.000    1.429    0.000    0.000    0.000    0.000 
#    0.000    0.000    0.000    0.000    0.000    0.000 
#
# Total GULP energy -347319.405429 kJ/mol
# GULP energy per Si atom -12404.264480 kJ/mol
# Density = 2.186931 g / cm^3
# Si number density = 21.919196 Si / 1000 Ang^3
#
#
#
# Elastic Constant Matrix: (Units=GPa)
#
#
# Indices 1 2 3 4 5 6 
#
# 1 54.4030 -2.4750 5.2359 0.0000 -7.5497 0.0000
# 2 -2.4750 99.2802 39.1560 0.0000 -7.9224 0.0000
# 3 5.2359 39.1560 93.8300 0.0000 -2.5549 0.0000
# 4 0.0000 0.0000 0.0000 32.5580 0.0000 -9.2644
# 5 -7.5497 -7.9224 -2.5549 0.0000 18.7546 0.0000
# 6 0.0000 0.0000 0.0000 -9.2644 0.0000 28.7767
#
#
#
# Elastic Compliance Matrix: (Units=1/GPa)
#
#
# Indices 1 2 3 4 5 6 
#
# 1 0.019803 0.001817 -0.001631 0.000000 0.008517 0.000000
# 2 0.001817 0.012601 -0.005214 0.000000 0.005344 0.000000
# 3 -0.001631 -0.005214 0.012895 0.000000 -0.001103 0.000000
# 4 0.000000 0.000000 0.000000 0.033812 0.000000 0.010885
# 5 0.008517 0.005344 -0.001103 0.000000 0.058856 0.000000
# 6 0.000000 0.000000 0.000000 0.010885 0.000000 0.038255
#
#
# Mechanical properties :
#
#
# Convention : Reuss Voigt Hill
#
# Bulk Modulus (GPa) = 28.37648 36.81635 32.59641
# Shear Modulus (GPa) = 25.24931 29.72427 27.48679
#
# Velocity S-wave (km/s) = 3.39769 3.68650 3.54504
# Velocity P-wave (km/s) = 5.32601 5.91213 5.62671
#
# Compressibility (1/GPa) = 0.03524046
#
# Stress axis : x y z
#
# Youngs Moduli (GPa) = 50.49770 79.36057 77.55232
#
# Poissons Ratio (x) = -0.14417 0.12651
# Poissons Ratio (y) = -0.09174 0.40438
# Poissons Ratio (z) = 0.08237 0.41381
#
# Static dielectric constant tensor:
#      x y z
#    x 4.006780 0.000000 -0.076310 
#    y 0.000000 3.940880 0.000000 
#    z -0.076310 0.000000 3.935150 
# 
# 
# High freq. dielectric constant tensor:
#      x y z
#    x 1.876860 0.000000 -0.010320 
#    y 0.000000 1.852070 0.000000 
#    z -0.010320 0.000000 1.853090 
# 
# From -- ./inp_files/6690.got.cif
#   From: 2010.03.12/outbox.cif.g09.slc.cpg/sg14_4_cif.got.tgz:6690.got - 2010.03.31 13:35:05.
