data_PCOD8125434
_publ_section_title
;
Structure prediction by ZEFSAII (Michael W. Deem and Ramdas Pophale) SiO2 
 PCOD8125434
Probable space group: P 21/C
;
_chemical_formula_sum "Si O2"
_cell_formula_units_Z 32
_cell_length_a 14.996102
_cell_length_b 7.994940
_cell_length_c 13.093086
_cell_angle_alpha 90.000000
_cell_angle_beta 89.301172
_cell_angle_gamma 90.000000
_cell_volume 1569.651758
_symmetry_space_group_name_H-M "P 21/C"
_symmetry_group_IT_number 14
_symmetry_cell_setting 'monoclinic'
loop_
_space_group_symop_operation_xyz
x,y,z
-x,1/2+y,1/2-z
-x,-y,-z
x,1/2-y,1/2+z
loop_
_atom_site_type_symbol
_atom_site_label
_atom_site_fract_x
_atom_site_fract_y
_atom_site_fract_z
Si Si1 0.405365 0.960733 0.372206
Si Si2 0.939157 0.903382 0.305787
Si Si3 0.304519 0.174393 0.227146
Si Si4 0.842916 0.912340 0.905734
Si Si5 0.101339 0.771718 0.194560
Si Si6 0.704437 0.316608 0.735071
Si Si7 0.197779 0.107578 0.860383
Si Si8 0.612403 0.972305 0.394891
O O1 0.352038 0.797581 0.339888
O O2 0.369874 0.015940 0.484179
O O3 0.389804 0.095360 0.281869
O O4 0.510034 0.929568 0.374826
O O5 0.886349 0.764280 0.370781
O O6 0.894394 0.932329 0.195815
O O7 0.039217 0.835612 0.289107
O O8 0.934044 0.093709 0.353523
O O9 0.248927 0.049796 0.154915
O O10 0.235958 0.217232 0.319630
O O11 0.329411 0.324298 0.151869
O O12 0.903400 0.078806 0.889868
O O13 0.821718 0.886155 0.022140
O O14 0.201434 0.761096 0.234293
O O15 0.723332 0.478268 0.666206
O O16 0.645325 0.359432 0.836832
#
# Coordination Sequence:
#
# PCOD8125434 Si02
#       8
#     4   4   4   4   4   4   4   4
#     4  11  21  37  63  88 118 160 201 246 316 373
#     4  10  22  41  59  87 126 155 202 257 297 352
#     4  10  20  39  60  83 122 156 199 252 306 360
#     4  11  21  40  64  85 119 163 204 249 303 361
#     4  11  21  39  62  86 122 163 199 250 305 360
#     4  10  22  40  59  88 124 155 201 253 302 364
#     4   9  22  39  59  88 119 159 200 252 299 355
#     4  10  23  39  58  90 122 154 201 257 304 370
#
# _framework density 20.386686999999998
#
# number of rings (size 3 to 8) (size 9 to 14) (size 15 to 20)
#    0.000    1.750    2.500    2.250    1.750    0.500 
#    0.000    0.625    0.000    8.250    0.000    0.000 
#    0.000    0.000    0.000    0.000    0.000    0.000 
#
# Total GULP energy -396540.025136 kJ/mol
# GULP energy per Si atom -12391.875786 kJ/mol
# Density = 2.034029 g / cm^3
# Si number density = 20.386687 Si / 1000 Ang^3
#
#
#
# Elastic Constant Matrix: (Units=GPa)
#
#
# Indices 1 2 3 4 5 6 
#
# 1 90.6068 24.4503 32.5023 0.0000 -12.4828 0.0000
# 2 24.4503 112.8916 38.5611 0.0000 -5.4168 0.0000
# 3 32.5023 38.5611 123.1871 0.0000 -19.5513 0.0000
# 4 0.0000 0.0000 0.0000 18.6835 0.0000 9.9136
# 5 -12.4828 -5.4168 -19.5513 0.0000 22.5389 0.0000
# 6 0.0000 0.0000 0.0000 9.9136 0.0000 19.8406
#
#
#
# Elastic Compliance Matrix: (Units=1/GPa)
#
#
# Indices 1 2 3 4 5 6 
#
# 1 0.012958 -0.001869 -0.002048 0.000000 0.004951 0.000000
# 2 -0.001869 0.010191 -0.002867 0.000000 -0.001073 0.000000
# 3 -0.002048 -0.002867 0.010746 0.000000 0.007498 0.000000
# 4 0.000000 0.000000 0.000000 0.072833 0.000000 -0.036392
# 5 0.004951 -0.001073 0.007498 0.000000 0.053356 0.000000
# 6 0.000000 0.000000 0.000000 -0.036392 0.000000 0.068585
#
#
# Mechanical properties :
#
#
# Convention : Reuss Voigt Hill
#
# Bulk Modulus (GPa) = 49.19966 57.52364 53.36165
# Shear Modulus (GPa) = 20.07936 27.62405 23.85170
#
# Velocity S-wave (km/s) = 3.14176 3.68503 3.42419
# Velocity P-wave (km/s) = 6.11118 6.81054 6.47031
#
# Compressibility (1/GPa) = 0.02032534
#
# Stress axis : x y z
#
# Youngs Moduli (GPa) = 77.17333 98.12803 93.06153
#
# Poissons Ratio (x) = 0.18344 0.19059
# Poissons Ratio (y) = 0.14426 0.26682
# Poissons Ratio (z) = 0.15805 0.28134
#
# Static dielectric constant tensor:
#      x y z
#    x 3.755190 0.000000 -0.061310 
#    y 0.000000 3.973820 0.000000 
#    z -0.061310 0.000000 3.547760 
# 
# 
# High freq. dielectric constant tensor:
#      x y z
#    x 1.802230 0.000000 -0.007720 
#    y 0.000000 1.805660 0.000000 
#    z -0.007720 0.000000 1.781070 
# 
# From -- ./inp_files/31827.got.cif
#   From: 2010.03.12/outbox.cif.g09.slc.cpg/sg14_16_cif.got.tgz:31827.got - 2010.03.31 13:35:05.
