data_PCOD8125818
_publ_section_title
;
Structure prediction by ZEFSAII (Michael W. Deem and Ramdas Pophale) SiO2 
 PCOD8125818
Probable space group: P 21/C
;
_chemical_formula_sum "Si O2"
_cell_formula_units_Z 28
_cell_length_a 18.383706
_cell_length_b 12.917682
_cell_length_c 22.221761
_cell_angle_alpha 90.000000
_cell_angle_beta 162.635248
_cell_angle_gamma 90.000000
_cell_volume 1574.972897
_symmetry_space_group_name_H-M "P 21/C"
_symmetry_group_IT_number 14
_symmetry_cell_setting 'monoclinic'
loop_
_space_group_symop_operation_xyz
x,y,z
-x,1/2+y,1/2-z
-x,-y,-z
x,1/2-y,1/2+z
loop_
_atom_site_type_symbol
_atom_site_label
_atom_site_fract_x
_atom_site_fract_y
_atom_site_fract_z
Si Si1 0.620582 0.900031 0.166333
Si Si2 0.302050 0.887742 0.150947
Si Si3 0.192018 0.114548 0.096130
Si Si4 0.665747 0.833046 0.333034
Si Si5 0.196443 0.899962 0.742629
Si Si6 0.658530 0.180616 0.686695
Si Si7 0.770924 0.819563 0.742693
O O1 0.566811 0.884229 0.193898
O O2 0.761447 0.802209 0.249672
O O3 0.790256 0.999965 0.289824
O O4 0.359087 0.917063 0.929836
O O5 0.481628 0.855043 0.240583
O O6 0.408060 0.842013 0.296838
O O7 0.294616 0.011582 0.147372
O O8 0.036262 0.842447 0.924983
O O9 0.312992 0.209609 0.156660
O O10 0.264558 0.115725 0.223929
O O11 0.898478 0.115875 0.857846
O O12 0.925594 0.883531 0.553323
O O13 0.285513 0.802397 0.773934
O O14 0.436655 0.146836 0.468449
#
# Coordination Sequence:
#
# PCOD8125818 Si02
#       7
#     4   4   4   4   4   4   4
#     4   9  18  34  55  75  97 132 173 204 237 288
#     4  11  22  32  50  78 102 127 164 204 248 300
#     4   9  20  36  50  71  99 131 168 200 242 298
#     4  10  21  34  49  73 107 132 154 204 258 292
#     4   9  18  34  55  75  97 132 173 204 237 288
#     4   9  18  34  54  74  98 130 169 206 238 286
#     4   9  18  34  54  74  98 130 169 206 238 286
#
# _framework density 17.778085000000001
#
# number of rings (size 3 to 8) (size 9 to 14) (size 15 to 20)
#    0.000    2.571    0.000    3.000    0.000    5.714 
#    0.000    0.000    0.000    0.000    0.000    0.000 
#    0.000    0.000    0.000    0.000    0.000    0.000 
#
# Total GULP energy -347244.088481 kJ/mol
# GULP energy per Si atom -12401.574589 kJ/mol
# Density = 1.773762 g / cm^3
# Si number density = 17.778085 Si / 1000 Ang^3
#
#
#
# Elastic Constant Matrix: (Units=GPa)
#
#
# Indices 1 2 3 4 5 6 
#
# 1 145.9845 66.0929 81.5006 0.0000 21.9969 0.0000
# 2 66.0929 91.6135 49.7553 0.0000 7.1793 0.0000
# 3 81.5006 49.7553 129.5493 0.0000 -12.5479 0.0000
# 4 0.0000 0.0000 0.0000 -56.9991 0.0000 25.4047
# 5 21.9969 7.1793 -12.5479 0.0000 19.1801 0.0000
# 6 0.0000 0.0000 0.0000 25.4047 0.0000 16.5182
#
#
#
# Elastic Compliance Matrix: (Units=1/GPa)
#
#
# Indices 1 2 3 4 5 6 
#
# 1 0.024057 -0.005531 -0.016529 0.000000 -0.036333 0.000000
# 2 -0.005531 0.016778 -0.003158 0.000000 -0.002003 0.000000
# 3 -0.016529 -0.003158 0.022721 0.000000 0.035003 0.000000
# 4 0.000000 0.000000 0.000000 -0.010409 0.000000 0.016009
# 5 -0.036333 -0.002003 0.035003 0.000000 0.117456 0.000000
# 6 0.000000 0.000000 0.000000 0.016009 0.000000 0.035918
#
#
# Mechanical properties :
#
#
# Convention : Reuss Voigt Hill
#
# Bulk Modulus (GPa) = 76.22621 84.64943 80.43782
# Shear Modulus (GPa) = 19.13284 7.05972 13.09628
#
# Velocity S-wave (km/s) = 3.28411 1.99490 2.71708
# Velocity P-wave (km/s) = 7.57299 7.28176 7.42880
#
# Compressibility (1/GPa) = 0.01311885
#
# Stress axis : x y z
#
# Youngs Moduli (GPa) = 41.56824 59.60233 44.01209
#
# Poissons Ratio (x) = 0.32966 0.72749
# Poissons Ratio (y) = 0.22992 0.13900
# Poissons Ratio (z) = 0.68709 0.18823
#
# Static dielectric constant tensor:
#      x y z
#    x 3.014560 0.000000 -0.199810 
#    y 0.000000 3.429140 0.000000 
#    z -0.199810 0.000000 3.538400 
# 
# 
# High freq. dielectric constant tensor:
#      x y z
#    x 1.663480 0.000000 -0.012340 
#    y 0.000000 1.701850 0.000000 
#    z -0.012340 0.000000 1.695790 
# 
# From -- ./inp_files/32930.got.cif
#   From: 2010.03.12/outbox.cif.g09.slc.cpg/sg14_17_cif.got.tgz:32930.got - 2010.03.31 13:35:05.
