data_PCOD8125117
_publ_section_title
;
Structure prediction by ZEFSAII (Michael W. Deem and Ramdas Pophale) SiO2 
 PCOD8125117
Probable space group: P 21/C
;
_chemical_formula_sum "Si O2"
_cell_formula_units_Z 32
_cell_length_a 19.661656
_cell_length_b 9.907946
_cell_length_c 16.857657
_cell_angle_alpha 90.000000
_cell_angle_beta 149.024606
_cell_angle_gamma 90.000000
_cell_volume 1690.167386
_symmetry_space_group_name_H-M "P 21/C"
_symmetry_group_IT_number 14
_symmetry_cell_setting 'monoclinic'
loop_
_space_group_symop_operation_xyz
x,y,z
-x,1/2+y,1/2-z
-x,-y,-z
x,1/2-y,1/2+z
loop_
_atom_site_type_symbol
_atom_site_label
_atom_site_fract_x
_atom_site_fract_y
_atom_site_fract_z
Si Si1 0.101883 0.488805 0.444386
Si Si2 0.379665 0.690537 0.035107
Si Si3 0.899995 0.280499 0.991945
Si Si4 0.101882 0.011195 0.759379
Si Si5 0.399023 0.991833 0.055372
Si Si6 0.899996 0.280499 0.308046
Si Si7 0.379666 0.809462 0.724225
Si Si8 0.600976 0.491833 0.257325
O O1 0.067323 0.644766 0.426840
O O2 0.077668 0.460703 0.327668
O O3 0.253023 0.458738 0.621207
O O4 0.013449 0.389761 0.407697
O O5 0.369776 0.683340 0.119776
O O6 0.488336 0.588005 0.108000
O O7 0.422082 0.839507 0.048470
O O8 0.237215 0.652788 0.857559
O O9 0.890916 0.250000 0.890916
O O10 0.762783 0.347211 0.883127
O O11 0.013446 0.389762 0.119198
O O12 0.067322 0.855234 0.707806
O O13 0.253022 0.041262 0.884838
O O14 0.511663 0.088004 0.131328
O O15 0.411539 0.996431 0.161539
O O16 0.422084 0.660493 0.795696
#
# Coordination Sequence:
#
# PCOD8125117 Si02
#       8
#     4   4   4   4   4   4   4   4
#     4  10  20  37  57  78 104 141 184 225 264 315
#     4   9  17  33  53  75 102 136 175 218 262 313
#     4  11  22  36  53  80 113 143 175 221 272 320
#     4  10  20  37  57  78 104 141 184 225 264 315
#     4   8  16  30  51  75  99 128 174 224 260 302
#     4  11  22  36  53  80 113 143 175 221 272 320
#     4   9  17  33  53  75 102 136 175 218 262 313
#     4   8  16  30  51  75  99 128 174 224 260 302
#
# _framework density 18.933036000000001
#
# number of rings (size 3 to 8) (size 9 to 14) (size 15 to 20)
#    0.000    2.500    0.000    4.500    0.000    2.000 
#    0.000   11.250    0.000    0.000    0.000    0.000 
#    0.000    0.000    0.000    0.000    0.000    0.000 
#
# Total GULP energy -396792.575716 kJ/mol
# GULP energy per Si atom -12399.767991 kJ/mol
# Density = 1.888994 g / cm^3
# Si number density = 18.933036 Si / 1000 Ang^3
#
#
#
# Elastic Constant Matrix: (Units=GPa)
#
#
# Indices 1 2 3 4 5 6 
#
# 1 41.7177 13.7048 23.9971 0.0000 4.4433 0.0000
# 2 13.7048 58.4792 34.0786 0.0000 18.3792 0.0000
# 3 23.9971 34.0786 65.6266 0.0000 17.1251 0.0000
# 4 0.0000 0.0000 0.0000 32.3049 0.0000 15.2174
# 5 4.4433 18.3792 17.1251 0.0000 22.7639 0.0000
# 6 0.0000 0.0000 0.0000 15.2174 0.0000 15.4375
#
#
#
# Elastic Compliance Matrix: (Units=1/GPa)
#
#
# Indices 1 2 3 4 5 6 
#
# 1 0.030648 -0.001869 -0.011284 0.000000 0.004016 0.000000
# 2 -0.001869 0.027997 -0.010018 0.000000 -0.014703 0.000000
# 3 -0.011284 -0.010018 0.027225 0.000000 -0.010190 0.000000
# 4 0.000000 0.000000 0.000000 0.057789 0.000000 -0.056965
# 5 0.004016 -0.014703 -0.010190 0.000000 0.062682 0.000000
# 6 0.000000 0.000000 0.000000 -0.056965 0.000000 0.120930
#
#
# Mechanical properties :
#
#
# Convention : Reuss Voigt Hill
#
# Bulk Modulus (GPa) = 25.29857 34.37605 29.83731
# Shear Modulus (GPa) = 12.92693 20.37079 16.64886
#
# Velocity S-wave (km/s) = 2.61582 3.28371 2.96861
# Velocity P-wave (km/s) = 4.74495 5.70728 5.24822
#
# Compressibility (1/GPa) = 0.03952793
#
# Stress axis : x y z
#
# Youngs Moduli (GPa) = 32.62874 35.71791 36.73046
#
# Poissons Ratio (x) = 0.06674 0.41447
# Poissons Ratio (y) = 0.06097 0.36798
# Poissons Ratio (z) = 0.36819 0.35784
#
# Static dielectric constant tensor:
#      x y z
#    x 3.298510 0.000000 0.205200 
#    y 0.000000 3.704110 0.000000 
#    z 0.205200 0.000000 3.525960 
# 
# 
# High freq. dielectric constant tensor:
#      x y z
#    x 1.720490 0.000000 0.012810 
#    y 0.000000 1.735660 0.000000 
#    z 0.012810 0.000000 1.734680 
# 
# From -- ./inp_files/61168.got.cif
#   From: 2010.03.12/outbox.cif.g09.slc.cpg/sg14_31_cif.got.tgz:61168.got - 2010.03.31 13:35:05.
