data_PCOD8125652
_publ_section_title
;
Structure prediction by ZEFSAII (Michael W. Deem and Ramdas Pophale) SiO2 
 PCOD8125652
Probable space group: P 21/C
;
_chemical_formula_sum "Si O2"
_cell_formula_units_Z 32
_cell_length_a 12.594284
_cell_length_b 13.978781
_cell_length_c 11.617341
_cell_angle_alpha 90.000000
_cell_angle_beta 133.410422
_cell_angle_gamma 90.000000
_cell_volume 1485.781877
_symmetry_space_group_name_H-M "P 21/C"
_symmetry_group_IT_number 14
_symmetry_cell_setting 'monoclinic'
loop_
_space_group_symop_operation_xyz
x,y,z
-x,1/2+y,1/2-z
-x,-y,-z
x,1/2-y,1/2+z
loop_
_atom_site_type_symbol
_atom_site_label
_atom_site_fract_x
_atom_site_fract_y
_atom_site_fract_z
Si Si1 0.399222 0.095641 0.927037
Si Si2 0.943638 0.862008 0.954470
Si Si3 0.437571 0.210122 0.564075
Si Si4 0.234897 0.305501 0.116835
Si Si5 0.239013 0.469343 0.856966
Si Si6 0.817255 0.524865 0.559925
Si Si7 0.729253 0.385356 0.306273
Si Si8 0.037477 0.042299 0.402536
O O1 0.311977 0.106230 0.741963
O O2 0.293469 0.092386 0.956280
O O3 0.467707 0.202130 0.997409
O O4 0.500000 0.000000 0.000000
O O5 0.828692 0.776128 0.846777
O O6 0.904565 0.938109 0.825790
O O7 0.924424 0.907046 0.067054
O O8 0.113290 0.832062 0.072388
O O9 0.342817 0.241226 0.604324
O O10 0.359729 0.115390 0.452519
O O11 0.600373 0.188901 0.730060
O O12 0.086780 0.347350 0.949006
O O13 0.304810 0.560518 0.839892
O O14 0.177428 0.503465 0.936439
O O15 0.721438 0.459038 0.405598
O O16 0.896308 0.462568 0.717238
O O17 0.000000 0.000000 0.500000
#
# Coordination Sequence:
#
# PCOD8125652 Si02
#       8
#     4   4   4   4   4   4   4   4
#     4  12  25  43  68  90 136 186 222 278 352 410
#     4  11  20  40  72  96 128 175 231 275 336 400
#     4  11  24  42  65 101 135 176 229 276 345 414
#     4  11  24  41  66  95 133 187 221 274 347 418
#     4  10  20  40  69  98 134 177 226 273 342 414
#     4  11  21  42  65  95 133 172 221 283 337 398
#     4  11  22  40  70 105 130 168 230 293 334 390
#     4  11  21  38  66  97 130 173 227 269 333 404
#
# _framework density 21.537483000000002
#
# number of rings (size 3 to 8) (size 9 to 14) (size 15 to 20)
#    0.000    1.000    6.250    1.875    0.000    1.000 
#    0.000    1.250    2.750    0.000    0.000    0.000 
#    0.000    0.000    0.000    0.000    0.000    0.000 
#
# Total GULP energy -396452.891173 kJ/mol
# GULP energy per Si atom -12389.152849 kJ/mol
# Density = 2.148846 g / cm^3
# Si number density = 21.537483 Si / 1000 Ang^3
#
#
#
# Elastic Constant Matrix: (Units=GPa)
#
#
# Indices 1 2 3 4 5 6 
#
# 1 100.8581 31.6073 39.0150 0.0000 -1.7108 0.0000
# 2 31.6073 77.2187 25.0260 0.0000 8.5582 0.0000
# 3 39.0150 25.0260 79.2193 0.0000 3.2964 0.0000
# 4 0.0000 0.0000 0.0000 33.4279 0.0000 -0.6180
# 5 -1.7108 8.5582 3.2964 0.0000 43.8406 0.0000
# 6 0.0000 0.0000 0.0000 -0.6180 0.0000 34.7767
#
#
#
# Elastic Compliance Matrix: (Units=1/GPa)
#
#
# Indices 1 2 3 4 5 6 
#
# 1 0.013229 -0.003862 -0.005365 0.000000 0.001673 0.000000
# 2 -0.003862 0.015829 -0.002973 0.000000 -0.003017 0.000000
# 3 -0.005365 -0.002973 0.016240 0.000000 -0.000850 0.000000
# 4 0.000000 0.000000 0.000000 0.029925 0.000000 0.000532
# 5 0.001673 -0.003017 -0.000850 0.000000 0.023528 0.000000
# 6 0.000000 0.000000 0.000000 0.000532 0.000000 0.028764
#
#
# Mechanical properties :
#
#
# Convention : Reuss Voigt Hill
#
# Bulk Modulus (GPa) = 47.85033 49.84364 48.84698
# Shear Modulus (GPa) = 31.47032 33.18557 32.32794
#
# Velocity S-wave (km/s) = 3.82670 3.92960 3.87849
# Velocity P-wave (km/s) = 6.46454 6.61679 6.54111
#
# Compressibility (1/GPa) = 0.02089850
#
# Stress axis : x y z
#
# Youngs Moduli (GPa) = 75.59307 63.17599 61.57679
#
# Poissons Ratio (x) = 0.24396 0.33035
# Poissons Ratio (y) = 0.29191 0.18307
# Poissons Ratio (z) = 0.40554 0.18783
#
# Static dielectric constant tensor:
#      x y z
#    x 4.008400 0.000000 -0.110520 
#    y 0.000000 3.726160 0.000000 
#    z -0.110520 0.000000 3.832000 
# 
# 
# High freq. dielectric constant tensor:
#      x y z
#    x 1.853350 0.000000 -0.008020 
#    y 0.000000 1.824300 0.000000 
#    z -0.008020 0.000000 1.843950 
# 
# From -- ./inp_files/30047.got.cif
#   From: 2010.03.12/outbox.cif.g09.slc.cpg/sg14_16_cif.got.tgz:30047.got - 2010.03.31 13:35:05.
