data_PCOD8125020
_publ_section_title
;
Structure prediction by ZEFSAII (Michael W. Deem and Ramdas Pophale) SiO2 
 PCOD8125020
Probable space group: P 21/C
;
_chemical_formula_sum "Si O2"
_cell_formula_units_Z 32
_cell_length_a 12.672321
_cell_length_b 13.431546
_cell_length_c 9.608227
_cell_angle_alpha 90.000000
_cell_angle_beta 100.335277
_cell_angle_gamma 90.000000
_cell_volume 1608.870548
_symmetry_space_group_name_H-M "P 21/C"
_symmetry_group_IT_number 14
_symmetry_cell_setting 'monoclinic'
loop_
_space_group_symop_operation_xyz
x,y,z
-x,1/2+y,1/2-z
-x,-y,-z
x,1/2-y,1/2+z
loop_
_atom_site_type_symbol
_atom_site_label
_atom_site_fract_x
_atom_site_fract_y
_atom_site_fract_z
Si Si1 0.777273 0.456499 0.243779
Si Si2 0.286448 0.163033 0.184231
Si Si3 0.937867 0.295534 0.340961
Si Si4 0.739940 0.160079 0.325027
Si Si5 0.615407 0.798493 0.506551
Si Si6 0.364800 0.709768 0.911435
Si Si7 0.921430 0.721675 0.888328
Si Si8 0.218621 0.045456 0.546883
O O1 0.729968 0.544292 0.328681
O O2 0.874287 0.399872 0.345306
O O3 0.681052 0.380004 0.192270
O O4 0.820928 0.500145 0.108599
O O5 0.331081 0.198899 0.045725
O O6 0.369169 0.197155 0.323912
O O7 0.173757 0.213266 0.199546
O O8 0.859366 0.202643 0.342205
O O9 0.035164 0.285435 0.471120
O O10 0.982450 0.292795 0.195639
O O11 0.681917 0.207425 0.445058
O O12 0.751691 0.041043 0.336898
O O13 0.670746 0.187138 0.171318
O O14 0.491327 0.801119 0.442792
O O15 0.672024 0.892907 0.448448
O O16 0.878088 0.613233 0.921068
#
# Coordination Sequence:
#
# PCOD8125020 Si02
#       8
#     4   4   4   4   4   4   4   4
#     4   9  20  36  55  83 113 142 185 232 273 330
#     4  10  21  38  55  80 114 143 185 233 273 332
#     4  11  22  37  58  82 111 148 186 229 279 329
#     4  10  21  38  57  83 115 143 185 235 274 329
#     4  10  20  36  59  83 110 148 187 227 278 330
#     4  10  20  36  59  84 111 146 184 227 281 331
#     4  11  22  38  59  82 111 149 189 228 277 330
#     4   9  20  37  58  83 113 149 191 228 269 338
#
# _framework density 19.889728999999999
#
# number of rings (size 3 to 8) (size 9 to 14) (size 15 to 20)
#    0.000    2.000    0.000    5.250    0.000    9.000 
#    0.000   10.000    0.000    7.500    0.000    0.000 
#    0.000    0.000    0.000    0.000    0.000    0.000 
#
# Total GULP energy -396866.939798 kJ/mol
# GULP energy per Si atom -12402.091869 kJ/mol
# Density = 1.984446 g / cm^3
# Si number density = 19.889729 Si / 1000 Ang^3
#
#
#
# Elastic Constant Matrix: (Units=GPa)
#
#
# Indices 1 2 3 4 5 6 
#
# 1 107.9472 39.8177 30.3857 0.0000 4.3826 0.0000
# 2 39.8177 102.5530 40.0752 0.0000 9.5464 0.0000
# 3 30.3857 40.0752 66.8403 0.0000 7.2072 0.0000
# 4 0.0000 0.0000 0.0000 25.4498 0.0000 0.5336
# 5 4.3826 9.5464 7.2072 0.0000 31.2913 0.0000
# 6 0.0000 0.0000 0.0000 0.5336 0.0000 19.6597
#
#
#
# Elastic Compliance Matrix: (Units=1/GPa)
#
#
# Indices 1 2 3 4 5 6 
#
# 1 0.011339 -0.003127 -0.003293 0.000000 0.000124 0.000000
# 2 -0.003127 0.013744 -0.006577 0.000000 -0.002240 0.000000
# 3 -0.003293 -0.006577 0.020648 0.000000 -0.002288 0.000000
# 4 0.000000 0.000000 0.000000 0.039315 0.000000 -0.001067
# 5 0.000124 -0.002240 -0.002288 0.000000 0.033151 0.000000
# 6 0.000000 0.000000 0.000000 -0.001067 0.000000 0.050894
#
#
# Mechanical properties :
#
#
# Convention : Reuss Voigt Hill
#
# Bulk Modulus (GPa) = 50.66862 55.32199 52.99530
# Shear Modulus (GPa) = 24.79342 26.41763 25.60553
#
# Velocity S-wave (km/s) = 3.53447 3.64841 3.59189
# Velocity P-wave (km/s) = 6.49513 6.75445 6.62606
#
# Compressibility (1/GPa) = 0.01973608
#
# Stress axis : x y z
#
# Youngs Moduli (GPa) = 88.18894 72.75890 48.43008
#
# Poissons Ratio (x) = 0.22754 0.15949
# Poissons Ratio (y) = 0.27579 0.31854
# Poissons Ratio (z) = 0.29043 0.47855
#
# Static dielectric constant tensor:
#      x y z
#    x 3.531910 0.000000 0.004970 
#    y 0.000000 3.791320 0.000000 
#    z 0.004970 0.000000 3.619390 
# 
# 
# High freq. dielectric constant tensor:
#      x y z
#    x 1.779020 0.000000 0.003400 
#    y 0.000000 1.775380 0.000000 
#    z 0.003400 0.000000 1.769810 
# 
# From -- ./inp_files/13387.got.cif
#   From: 2010.03.12/outbox.cif.g09.slc.cpg/sg14_7_cif.got.tgz:13387.got - 2010.03.31 13:35:05.
