data_PCOD8125033
_publ_section_title
;
Structure prediction by ZEFSAII (Michael W. Deem and Ramdas Pophale) SiO2 
 PCOD8125033
Probable space group: P 21/C
;
_chemical_formula_sum "Si O2"
_cell_formula_units_Z 32
_cell_length_a 9.495955
_cell_length_b 13.508706
_cell_length_c 22.072947
_cell_angle_alpha 90.000000
_cell_angle_beta 144.619044
_cell_angle_gamma 90.000000
_cell_volume 1639.452878
_symmetry_space_group_name_H-M "P 21/C"
_symmetry_group_IT_number 14
_symmetry_cell_setting 'monoclinic'
loop_
_space_group_symop_operation_xyz
x,y,z
-x,1/2+y,1/2-z
-x,-y,-z
x,1/2-y,1/2+z
loop_
_atom_site_type_symbol
_atom_site_label
_atom_site_fract_x
_atom_site_fract_y
_atom_site_fract_z
Si Si1 0.646705 0.197177 0.388743
Si Si2 0.785355 0.994191 0.600845
Si Si3 0.823021 0.674880 0.199240
Si Si4 0.132471 0.102579 0.803166
Si Si5 0.960468 0.934197 0.429289
Si Si6 0.383957 0.921046 0.100754
Si Si7 0.531595 0.977727 0.753181
Si Si8 0.973893 0.038470 0.133444
O O1 0.452281 0.171800 0.372717
O O2 0.644119 0.314674 0.374362
O O3 0.585750 0.129607 0.307132
O O4 0.912081 0.171111 0.511074
O O5 0.881382 0.071724 0.683838
O O6 0.907233 0.011983 0.579470
O O7 0.500000 0.000000 0.500000
O O8 0.857565 0.886436 0.650121
O O9 0.893455 0.781411 0.199930
O O10 0.004364 0.635178 0.315591
O O11 0.357569 0.071191 0.840766
O O12 0.160869 0.050744 0.878698
O O13 0.668399 0.932239 0.318106
O O14 0.000000 0.000000 0.500000
O O15 0.368032 0.013223 0.142495
O O16 0.170555 0.931576 0.977043
O O17 0.755421 0.000178 0.787392
#
# Coordination Sequence:
#
# PCOD8125033 Si02
#       8
#     4   4   4   4   4   4   4   4
#     4   9  20  36  62  90 113 155 202 242 299 357
#     4  11  20  36  65  86 114 156 200 248 298 343
#     4   9  20  37  60  86 120 151 198 249 296 356
#     4  10  22  38  59  88 118 156 200 254 297 353
#     4  10  20  36  59  85 119 148 198 245 295 347
#     4  11  21  38  65  84 117 163 201 248 294 364
#     4  10  21  40  58  86 124 156 195 253 295 355
#     4  10  22  38  59  86 121 159 199 242 307 354
#
# _framework density 19.518706999999999
#
# number of rings (size 3 to 8) (size 9 to 14) (size 15 to 20)
#    0.000    2.000    2.500    0.750    3.500    1.000 
#    4.500    0.000    2.750    0.000    0.000    0.000 
#    0.000    0.000    0.000    0.000    0.000    0.000 
#
# Total GULP energy -396506.285024 kJ/mol
# GULP energy per Si atom -12390.821407 kJ/mol
# Density = 1.947428 g / cm^3
# Si number density = 19.518707 Si / 1000 Ang^3
#
#
#
# Elastic Constant Matrix: (Units=GPa)
#
#
# Indices 1 2 3 4 5 6 
#
# 1 72.9386 53.2098 27.1704 0.0000 -9.2568 0.0000
# 2 53.2098 116.1640 47.9241 0.0000 -6.4998 0.0000
# 3 27.1704 47.9241 100.9162 0.0000 -2.3584 0.0000
# 4 0.0000 0.0000 0.0000 19.3837 0.0000 -2.7358
# 5 -9.2568 -6.4998 -2.3584 0.0000 37.0968 0.0000
# 6 0.0000 0.0000 0.0000 -2.7358 0.0000 27.0656
#
#
#
# Elastic Compliance Matrix: (Units=1/GPa)
#
#
# Indices 1 2 3 4 5 6 
#
# 1 0.021209 -0.008943 -0.001378 0.000000 0.003638 0.000000
# 2 -0.008943 0.014567 -0.004509 0.000000 0.000034 0.000000
# 3 -0.001378 -0.004509 0.012414 0.000000 -0.000345 0.000000
# 4 0.000000 0.000000 0.000000 0.052336 0.000000 0.005290
# 5 0.003638 0.000034 -0.000345 0.000000 0.027848 0.000000
# 6 0.000000 0.000000 0.000000 0.005290 0.000000 0.037482
#
#
# Mechanical properties :
#
#
# Convention : Reuss Voigt Hill
#
# Bulk Modulus (GPa) = 53.96944 60.73638 57.35291
# Shear Modulus (GPa) = 24.79002 27.49016 26.14009
#
# Velocity S-wave (km/s) = 3.56766 3.75694 3.66352
# Velocity P-wave (km/s) = 6.68439 7.07135 6.88059
#
# Compressibility (1/GPa) = 0.01852901
#
# Stress axis : x y z
#
# Youngs Moduli (GPa) = 47.14918 68.64800 80.55638
#
# Poissons Ratio (x) = 0.61391 0.11104
# Poissons Ratio (y) = 0.42165 0.36325
# Poissons Ratio (z) = 0.06499 0.30955
#
# Static dielectric constant tensor:
#      x y z
#    x 3.744580 0.000000 -0.319160 
#    y 0.000000 3.113930 0.000000 
#    z -0.319160 0.000000 6.236900 
# 
# 
# High freq. dielectric constant tensor:
#      x y z
#    x 1.757860 0.000000 0.001580 
#    y 0.000000 1.741790 0.000000 
#    z 0.001580 0.000000 1.772470 
# 
# From -- ./inp_files/65850.got.cif
#   From: 2010.03.12/outbox.cif.g09.slc.cpg/sg14_33_cif.got.tgz:65850.got - 2010.03.31 13:35:05.
