data_PCOD8125407
_publ_section_title
;
Structure prediction by ZEFSAII (Michael W. Deem and Ramdas Pophale) SiO2 
 PCOD8125407
Probable space group: P 21/C
;
_chemical_formula_sum "Si O2"
_cell_formula_units_Z 28
_cell_length_a 20.889907
_cell_length_b 13.868382
_cell_length_c 15.117520
_cell_angle_alpha 90.000000
_cell_angle_beta 17.677879
_cell_angle_gamma 90.000000
_cell_volume 1329.957989
_symmetry_space_group_name_H-M "P 21/C"
_symmetry_group_IT_number 14
_symmetry_cell_setting 'monoclinic'
loop_
_space_group_symop_operation_xyz
x,y,z
-x,1/2+y,1/2-z
-x,-y,-z
x,1/2-y,1/2+z
loop_
_atom_site_type_symbol
_atom_site_label
_atom_site_fract_x
_atom_site_fract_y
_atom_site_fract_z
Si Si1 0.201893 0.117605 0.119685
Si Si2 0.797254 0.176568 0.455927
Si Si3 0.779418 0.908036 0.098874
Si Si4 0.312264 0.913485 0.676052
Si Si5 0.504607 0.205124 0.209572
Si Si6 0.577137 0.488844 0.161762
Si Si7 0.785035 0.290398 0.177756
O O1 0.976903 0.142224 0.458321
O O2 0.169762 0.063210 0.068853
O O3 0.317364 0.219312 0.949266
O O4 0.337761 0.045704 0.002499
O O5 0.682742 0.254697 0.543275
O O6 0.728946 0.064291 0.531512
O O7 0.738779 0.198452 0.634401
O O8 0.051336 0.177256 0.100269
O O9 0.530727 0.882458 0.439536
O O10 0.820831 0.001942 0.103807
O O11 0.371738 0.940170 0.498928
O O12 0.158485 0.821728 0.879391
O O13 0.405501 0.103374 0.370596
O O14 0.589863 0.184238 0.998421
#
# Coordination Sequence:
#
# PCOD8125407 Si02
#       7
#     4   4   4   4   4   4   4
#     4   9  21  41  58  91 130 155 206 261 298 365
#     4  10  23  40  59  95 124 157 211 250 306 374
#     4   9  19  36  59  92 122 152 201 260 300 357
#     4  10  20  38  67  91 120 160 210 260 309 347
#     4  11  23  41  63  91 127 163 203 259 307 360
#     4  10  22  41  59  90 128 156 207 258 299 370
#     4  11  22  41  64  88 126 167 200 249 321 362
#
# _framework density 21.053296
#
# number of rings (size 3 to 8) (size 9 to 14) (size 15 to 20)
#    0.000    2.000    4.286    0.000    8.000    2.857 
#    2.571    0.000    0.000    0.000    0.000    0.000 
#    0.000    0.000    0.000    0.000    0.000    0.000 
#
# Total GULP energy -346866.575234 kJ/mol
# GULP energy per Si atom -12388.091973 kJ/mol
# Density = 2.100538 g / cm^3
# Si number density = 21.053296 Si / 1000 Ang^3
#
#
#
# Elastic Constant Matrix: (Units=GPa)
#
#
# Indices 1 2 3 4 5 6 
#
# 1 78.3081 23.0812 20.3087 0.0000 8.1424 0.0000
# 2 23.0812 74.6744 -1.2262 0.0000 7.3584 0.0000
# 3 20.3087 -1.2262 37.8085 0.0000 4.1120 0.0000
# 4 0.0000 0.0000 0.0000 35.9093 0.0000 3.9560
# 5 8.1424 7.3584 4.1120 0.0000 8.7483 0.0000
# 6 0.0000 0.0000 0.0000 3.9560 0.0000 35.1481
#
#
#
# Elastic Compliance Matrix: (Units=1/GPa)
#
#
# Indices 1 2 3 4 5 6 
#
# 1 0.017189 -0.004656 -0.008505 0.000000 -0.008085 0.000000
# 2 -0.004656 0.015994 0.004228 0.000000 -0.011107 0.000000
# 3 -0.008505 0.004228 0.032333 0.000000 -0.010838 0.000000
# 4 0.000000 0.000000 0.000000 0.028198 0.000000 -0.003174
# 5 -0.008085 -0.011107 -0.010838 0.000000 0.136270 0.000000
# 6 0.000000 0.000000 0.000000 -0.003174 0.000000 0.028808
#
#
# Mechanical properties :
#
#
# Convention : Reuss Voigt Hill
#
# Bulk Modulus (GPa) = 20.98612 30.56872 25.77742
# Shear Modulus (GPa) = 17.09163 25.86962 21.48063
#
# Velocity S-wave (km/s) = 2.85235 3.50918 3.19767
# Velocity P-wave (km/s) = 4.56482 5.56510 5.08959
#
# Compressibility (1/GPa) = 0.04765054
#
# Stress axis : x y z
#
# Youngs Moduli (GPa) = 58.17815 62.52178 30.92804
#
# Poissons Ratio (x) = 0.29109 0.26303
# Poissons Ratio (y) = 0.27087 -0.13075
# Poissons Ratio (z) = 0.49478 -0.26431
#
# Static dielectric constant tensor:
#      x y z
#    x 3.831850 0.000000 -0.221990 
#    y 0.000000 3.857340 0.000000 
#    z -0.221990 0.000000 3.846590 
# 
# 
# High freq. dielectric constant tensor:
#      x y z
#    x 1.817640 0.000000 -0.007700 
#    y 0.000000 1.814310 0.000000 
#    z -0.007700 0.000000 1.818090 
# 
# From -- ./inp_files/50560.got.cif
#   From: 2010.03.12/outbox.cif.g09.slc.cpg/sg14_26_cif.got.tgz:50560.got - 2010.03.31 13:35:05.
