data_PCOD8125065
_publ_section_title
;
Structure prediction by ZEFSAII (Michael W. Deem and Ramdas Pophale) SiO2 
 PCOD8125065
Probable space group: P 21/C
;
_chemical_formula_sum "Si O2"
_cell_formula_units_Z 28
_cell_length_a 26.455453
_cell_length_b 9.910133
_cell_length_c 25.705182
_cell_angle_alpha 90.000000
_cell_angle_beta 168.989854
_cell_angle_gamma 90.000000
_cell_volume 1287.092235
_symmetry_space_group_name_H-M "P 21/C"
_symmetry_group_IT_number 14
_symmetry_cell_setting 'monoclinic'
loop_
_space_group_symop_operation_xyz
x,y,z
-x,1/2+y,1/2-z
-x,-y,-z
x,1/2-y,1/2+z
loop_
_atom_site_type_symbol
_atom_site_label
_atom_site_fract_x
_atom_site_fract_y
_atom_site_fract_z
Si Si1 0.424120 0.912987 0.190855
Si Si2 0.739757 0.357312 0.781640
Si Si3 0.504365 0.812784 0.691591
Si Si4 0.771385 0.829995 0.290835
Si Si5 0.021108 0.255558 0.893354
Si Si6 0.583447 0.316349 0.740926
Si Si7 0.062511 0.478733 0.246772
O O1 0.557898 0.818441 0.282014
O O2 0.425677 0.836699 0.247451
O O3 0.564830 0.057344 0.342848
O O4 0.135282 0.947985 0.874756
O O5 0.520493 0.286290 0.522896
O O6 0.736150 0.517816 0.774647
O O7 0.677473 0.309899 0.776742
O O8 0.030803 0.310468 0.058119
O O9 0.276867 0.792814 0.418698
O O10 0.779729 0.834144 0.939883
O O11 0.888578 0.738502 0.455666
O O12 0.034296 0.414511 0.893931
O O13 0.308771 0.394906 0.471408
O O14 0.814302 0.384394 0.008523
#
# Coordination Sequence:
#
# PCOD8125065 Si02
#       7
#     4   4   4   4   4   4   4
#     4  11  26  44  65  93 133 173 211 263 309 394
#     4  10  21  34  60  95 125 164 209 264 324 368
#     4  11  26  41  66  94 127 170 218 253 325 376
#     4  10  20  36  61  90 130 159 211 268 324 370
#     4  11  23  40  65  90 132 163 214 262 323 378
#     4  12  24  41  64  93 136 163 215 261 318 375
#     4  11  24  38  62  92 128 171 203 257 324 368
#
# _framework density 21.754462
#
# number of rings (size 3 to 8) (size 9 to 14) (size 15 to 20)
#    0.000    1.143    2.857    3.429    8.000    3.429 
#    0.000    0.000    0.000    5.143    0.000    0.000 
#    0.000    0.000    0.000    0.000    0.000    0.000 
#
# Total GULP energy -347060.937966 kJ/mol
# GULP energy per Si atom -12395.033499 kJ/mol
# Density = 2.170495 g / cm^3
# Si number density = 21.754462 Si / 1000 Ang^3
#
#
#
# Elastic Constant Matrix: (Units=GPa)
#
#
# Indices 1 2 3 4 5 6 
#
# 1 107.6405 16.8222 22.2179 0.0000 -10.1598 0.0000
# 2 16.8222 66.1657 13.2098 0.0000 -2.2937 0.0000
# 3 22.2179 13.2098 97.5255 0.0000 -1.5611 0.0000
# 4 0.0000 0.0000 0.0000 14.2347 0.0000 0.5841
# 5 -10.1598 -2.2937 -1.5611 0.0000 30.2460 0.0000
# 6 0.0000 0.0000 0.0000 0.5841 0.0000 22.4277
#
#
#
# Elastic Compliance Matrix: (Units=1/GPa)
#
#
# Indices 1 2 3 4 5 6 
#
# 1 0.010340 -0.002115 -0.002018 0.000000 0.003209 0.000000
# 2 -0.002115 0.016001 -0.001679 0.000000 0.000416 0.000000
# 3 -0.002018 -0.001679 0.010937 0.000000 -0.000241 0.000000
# 4 0.000000 0.000000 0.000000 0.070326 0.000000 -0.001832
# 5 0.003209 0.000416 -0.000241 0.000000 0.034159 0.000000
# 6 0.000000 0.000000 0.000000 -0.001832 0.000000 0.044635
#
#
# Mechanical properties :
#
#
# Convention : Reuss Voigt Hill
#
# Bulk Modulus (GPa) = 38.97887 41.75904 40.36895
# Shear Modulus (GPa) = 24.20448 27.98713 26.09581
#
# Velocity S-wave (km/s) = 3.33922 3.59067 3.46723
# Velocity P-wave (km/s) = 5.72920 6.03555 5.88437
#
# Compressibility (1/GPa) = 0.02565493
#
# Stress axis : x y z
#
# Youngs Moduli (GPa) = 96.71137 62.49665 91.43303
#
# Poissons Ratio (x) = 0.13217 0.18449
# Poissons Ratio (y) = 0.20452 0.15350
# Poissons Ratio (z) = 0.19515 0.10492
#
# Static dielectric constant tensor:
#      x y z
#    x 3.843990 0.000000 -0.148590 
#    y 0.000000 3.627930 0.000000 
#    z -0.148590 0.000000 4.075150 
# 
# 
# High freq. dielectric constant tensor:
#      x y z
#    x 1.855740 0.000000 -0.007530 
#    y 0.000000 1.811550 0.000000 
#    z -0.007530 0.000000 1.869460 
# 
# From -- ./inp_files/80920.got.cif
#   From: 2010.03.12/outbox.cif.g09.slc.cpg/sg14_41_cif.got.tgz:80920.got - 2010.03.31 13:35:05.
