data_PCOD8125168
_publ_section_title
;
Structure prediction by ZEFSAII (Michael W. Deem and Ramdas Pophale) SiO2 
 PCOD8125168
Probable space group: P 21/C
;
_chemical_formula_sum "Si O2"
_cell_formula_units_Z 20
_cell_length_a 7.642566
_cell_length_b 16.096953
_cell_length_c 9.397666
_cell_angle_alpha 90.000000
_cell_angle_beta 48.870190
_cell_angle_gamma 90.000000
_cell_volume 870.814105
_symmetry_space_group_name_H-M "P 21/C"
_symmetry_group_IT_number 14
_symmetry_cell_setting 'monoclinic'
loop_
_space_group_symop_operation_xyz
x,y,z
-x,1/2+y,1/2-z
-x,-y,-z
x,1/2-y,1/2+z
loop_
_atom_site_type_symbol
_atom_site_label
_atom_site_fract_x
_atom_site_fract_y
_atom_site_fract_z
Si Si1 0.852695 0.361869 0.207029
Si Si2 0.557450 0.005944 0.710822
Si Si3 0.256443 0.073976 0.654300
Si Si4 0.531549 0.760784 0.554406
Si Si5 0.281410 0.163860 0.284570
O O1 0.656976 0.427484 0.267918
O O2 0.730340 0.274993 0.314776
O O3 0.995269 0.390779 0.271929
O O4 0.023226 0.353495 0.980010
O O5 0.303107 0.036278 0.787423
O O6 0.712308 0.996850 0.484008
O O7 0.554603 0.918179 0.794819
O O8 0.446537 0.147034 0.523452
O O9 0.712526 0.698451 0.378289
O O10 0.605598 0.763301 0.679466
#
# Coordination Sequence:
#
# PCOD8125168 Si02
#       5
#     4   4   4   4   4
#     4  10  20  37  60  82 113 153 189 234 290 337
#     4   9  18  36  59  81 114 150 189 236 283 338
#     4   9  19  35  56  84 113 150 190 231 286 343
#     4  10  21  36  57  86 117 146 190 238 281 340
#     4  10  22  38  58  87 115 151 194 236 285 341
#
# _framework density 22.967013999999999
#
# number of rings (size 3 to 8) (size 9 to 14) (size 15 to 20)
#    0.000    2.800    0.000    3.600    0.000    7.200 
#    0.000    5.000    0.000    0.000    0.000    2.800 
#    0.000    0.000    0.000    0.000    0.000    0.000 
#
# Total GULP energy -247781.219869 kJ/mol
# GULP energy per Si atom -12389.060993 kJ/mol
# Density = 2.291474 g / cm^3
# Si number density = 22.967014 Si / 1000 Ang^3
#
#
#
# Elastic Constant Matrix: (Units=GPa)
#
#
# Indices 1 2 3 4 5 6 
#
# 1 122.5560 53.5178 17.8560 0.0000 -5.9713 0.0000
# 2 53.5178 98.6545 23.4577 0.0000 8.8140 0.0000
# 3 17.8560 23.4577 45.2444 0.0000 -2.7941 0.0000
# 4 0.0000 0.0000 0.0000 14.9399 0.0000 -2.3796
# 5 -5.9713 8.8140 -2.7941 0.0000 9.0720 0.0000
# 6 0.0000 0.0000 0.0000 -2.3796 0.0000 49.8568
#
#
#
# Elastic Compliance Matrix: (Units=1/GPa)
#
#
# Indices 1 2 3 4 5 6 
#
# 1 0.012574 -0.008400 0.000416 0.000000 0.016566 0.000000
# 2 -0.008400 0.019006 -0.008176 0.000000 -0.026513 0.000000
# 3 0.000416 -0.008176 0.027202 0.000000 0.016595 0.000000
# 4 0.000000 0.000000 0.000000 0.067448 0.000000 0.003219
# 5 0.016566 -0.026513 0.016595 0.000000 0.152003 0.000000
# 6 0.000000 0.000000 0.000000 0.003219 0.000000 0.020211
#
#
# Mechanical properties :
#
#
# Convention : Reuss Voigt Hill
#
# Bulk Modulus (GPa) = 37.79116 50.67976 44.23546
# Shear Modulus (GPa) = 14.72382 26.21529 20.46955
#
# Velocity S-wave (km/s) = 2.53471 3.38217 2.98863
# Velocity P-wave (km/s) = 5.00566 6.11280 5.58672
#
# Compressibility (1/GPa) = 0.02646122
#
# Stress axis : x y z
#
# Youngs Moduli (GPa) = 79.52737 52.61479 36.76197
#
# Poissons Ratio (x) = 0.44197 -0.01528
# Poissons Ratio (y) = 0.66804 0.30057
# Poissons Ratio (z) = -0.03306 0.43018
#
# Static dielectric constant tensor:
#      x y z
#    x 4.198700 0.000000 0.109270 
#    y 0.000000 4.219810 0.000000 
#    z 0.109270 0.000000 3.596740 
# 
# 
# High freq. dielectric constant tensor:
#      x y z
#    x 1.900980 0.000000 0.011330 
#    y 0.000000 1.915590 0.000000 
#    z 0.011330 0.000000 1.862100 
# 
# From -- ./inp_files/24427.got.cif
#   From: 2010.03.12/outbox.cif.g09.slc.cpg/sg14_13_cif.got.tgz:24427.got - 2010.03.31 13:35:05.
