data_PCOD8125445
_publ_section_title
;
Structure prediction by ZEFSAII (Michael W. Deem and Ramdas Pophale) SiO2 
 PCOD8125445
Probable space group: P 21/C
;
_chemical_formula_sum "Si O2"
_cell_formula_units_Z 32
_cell_length_a 8.970607
_cell_length_b 13.308663
_cell_length_c 13.575793
_cell_angle_alpha 90.000000
_cell_angle_beta 95.482193
_cell_angle_gamma 90.000000
_cell_volume 1613.356783
_symmetry_space_group_name_H-M "P 21/C"
_symmetry_group_IT_number 14
_symmetry_cell_setting 'monoclinic'
loop_
_space_group_symop_operation_xyz
x,y,z
-x,1/2+y,1/2-z
-x,-y,-z
x,1/2-y,1/2+z
loop_
_atom_site_type_symbol
_atom_site_label
_atom_site_fract_x
_atom_site_fract_y
_atom_site_fract_z
Si Si1 0.644425 0.276899 0.650736
Si Si2 0.817611 0.761421 0.652910
Si Si3 0.206537 0.719439 0.541055
Si Si4 0.876534 0.371473 0.807448
Si Si5 0.888580 0.766355 0.943710
Si Si6 0.061265 0.097732 0.709940
Si Si7 0.345052 0.370341 0.703198
Si Si8 0.270672 0.907207 0.231252
O O1 0.669413 0.269213 0.535434
O O2 0.787675 0.330833 0.707621
O O3 0.496564 0.341497 0.658186
O O4 0.625105 0.166435 0.697045
O O5 0.791672 0.761605 0.534515
O O6 0.852429 0.648473 0.692742
O O7 0.670274 0.805460 0.697086
O O8 0.954307 0.833509 0.694266
O O9 0.193009 0.826373 0.596420
O O10 0.254993 0.633165 0.619492
O O11 0.046361 0.686242 0.486424
O O12 0.865176 0.491031 0.809842
O O13 0.919163 0.664754 0.885847
O O14 0.797377 0.847998 0.875529
O O15 0.888101 0.084149 0.724747
O O16 0.353058 0.486759 0.731231
#
# Coordination Sequence:
#
# PCOD8125445 Si02
#       8
#     4   4   4   4   4   4   4   4
#     4  11  23  43  58  83 130 160 192 245 295 363
#     4  10  20  39  60  93 118 155 198 255 292 338
#     4  10  21  39  62  89 117 157 200 247 294 345
#     4  10  21  37  63  88 113 158 204 243 295 350
#     4  10  21  37  59  93 119 151 197 251 293 340
#     4  11  19  36  64  91 119 149 201 254 295 340
#     4  11  25  37  61  89 123 159 197 241 299 363
#     4  11  22  39  64  88 116 160 203 244 298 350
#
# _framework density 19.834422
#
# number of rings (size 3 to 8) (size 9 to 14) (size 15 to 20)
#    0.000    1.500    6.250    0.750    0.000    9.000 
#    0.000    0.000    0.000    7.500    0.000    0.000 
#    0.000    0.000    0.000    0.000    0.000    0.000 
#
# Total GULP energy -396875.054184 kJ/mol
# GULP energy per Si atom -12402.345443 kJ/mol
# Density = 1.978928 g / cm^3
# Si number density = 19.834422 Si / 1000 Ang^3
#
#
#
# Elastic Constant Matrix: (Units=GPa)
#
#
# Indices 1 2 3 4 5 6 
#
# 1 30.1624 14.4813 25.6593 0.0000 -17.6362 0.0000
# 2 14.4813 96.4474 12.4764 0.0000 -3.7035 0.0000
# 3 25.6593 12.4764 113.0443 0.0000 -24.9503 0.0000
# 4 0.0000 0.0000 0.0000 16.1373 0.0000 -6.3443
# 5 -17.6362 -3.7035 -24.9503 0.0000 26.3665 0.0000
# 6 0.0000 0.0000 0.0000 -6.3443 0.0000 22.5509
#
#
#
# Elastic Compliance Matrix: (Units=1/GPa)
#
#
# Indices 1 2 3 4 5 6 
#
# 1 0.061849 -0.007227 -0.005479 0.000000 0.035170 0.000000
# 2 -0.007227 0.011368 -0.000415 0.000000 -0.003631 0.000000
# 3 -0.005479 -0.000415 0.011773 0.000000 0.007417 0.000000
# 4 0.000000 0.000000 0.000000 0.069675 0.000000 0.019602
# 5 0.035170 -0.003631 0.007417 0.000000 0.067961 0.000000
# 6 0.000000 0.000000 0.000000 0.019602 0.000000 0.049859
#
#
# Mechanical properties :
#
#
# Convention : Reuss Voigt Hill
#
# Bulk Modulus (GPa) = 17.02223 38.32089 27.67156
# Shear Modulus (GPa) = 15.70806 25.48008 20.59407
#
# Velocity S-wave (km/s) = 2.81723 3.58807 3.22576
# Velocity P-wave (km/s) = 4.37986 6.04384 5.27784
#
# Compressibility (1/GPa) = 0.05874669
#
# Stress axis : x y z
#
# Youngs Moduli (GPa) = 16.16852 87.96768 84.94293
#
# Poissons Ratio (x) = 0.63575 0.46536
# Poissons Ratio (y) = 0.11685 0.03529
# Poissons Ratio (z) = 0.08858 0.03655
#
# Static dielectric constant tensor:
#      x y z
#    x 3.390450 0.000000 -0.124790 
#    y 0.000000 3.598270 0.000000 
#    z -0.124790 0.000000 3.803190 
# 
# 
# High freq. dielectric constant tensor:
#      x y z
#    x 1.753190 0.000000 -0.015610 
#    y 0.000000 1.766490 0.000000 
#    z -0.015610 0.000000 1.785790 
# 
# From -- ./inp_files/40328.got.cif
#   From: 2010.03.12/outbox.cif.g09.slc.cpg/sg14_21_cif.got.tgz:40328.got - 2010.03.31 13:35:05.
