data_PCOD8125938
_publ_section_title
;
Structure prediction by ZEFSAII (Michael W. Deem and Ramdas Pophale) SiO2 
 PCOD8125938
Probable space group: P 21/C
;
_chemical_formula_sum "Si O2"
_cell_formula_units_Z 24
_cell_length_a 8.270743
_cell_length_b 23.177725
_cell_length_c 12.140529
_cell_angle_alpha 90.000000
_cell_angle_beta 151.467381
_cell_angle_gamma 90.000000
_cell_volume 1111.657260
_symmetry_space_group_name_H-M "P 21/C"
_symmetry_group_IT_number 14
_symmetry_cell_setting 'monoclinic'
loop_
_space_group_symop_operation_xyz
x,y,z
-x,1/2+y,1/2-z
-x,-y,-z
x,1/2-y,1/2+z
loop_
_atom_site_type_symbol
_atom_site_label
_atom_site_fract_x
_atom_site_fract_y
_atom_site_fract_z
Si Si1 0.541467 0.830466 0.921526
Si Si2 0.220604 0.286723 0.012259
Si Si3 0.680447 0.921740 0.825457
Si Si4 0.735388 0.877359 0.630045
Si Si5 0.487618 0.357717 0.358590
Si Si6 0.470681 0.550653 0.785342
O O1 0.775731 0.781312 0.007624
O O2 0.552189 0.887209 0.853878
O O3 0.162784 0.806729 0.701455
O O4 0.695102 0.847587 0.133221
O O5 0.430171 0.301055 0.248652
O O6 0.399026 0.321002 0.016589
O O7 0.560726 0.887310 0.643895
O O8 0.494275 0.983270 0.717584
O O9 0.082943 0.929717 0.068667
O O10 0.672771 0.934219 0.517964
O O11 0.126608 0.867958 0.883142
O O12 0.356991 0.414040 0.213190
#
# Coordination Sequence:
#
# PCOD8125938 Si02
#       6
#     4   4   4   4   4   4
#     4  11  25  38  61  90 119 161 205 252 312 364
#     4  10  24  40  59  85 122 162 201 257 306 368
#     4  10  21  36  62  97 124 162 209 251 307 366
#     4   9  19  38  62  86 121 161 202 247 301 363
#     4   9  21  41  58  86 121 158 200 252 308 359
#     4   9  19  39  65  90 127 164 203 254 303 370
#
# _framework density 21.589386999999999
#
# number of rings (size 3 to 8) (size 9 to 14) (size 15 to 20)
#    0.000    2.333    0.000    0.500    9.333    3.333 
#    0.000    7.500    0.000    0.000    0.000    0.000 
#    0.000    0.000    0.000    0.000    0.000    0.000 
#
# Total GULP energy -297507.437402 kJ/mol
# GULP energy per Si atom -12396.143225 kJ/mol
# Density = 2.154025 g / cm^3
# Si number density = 21.589387 Si / 1000 Ang^3
#
#
#
# Elastic Constant Matrix: (Units=GPa)
#
#
# Indices 1 2 3 4 5 6 
#
# 1 111.9285 55.5140 39.2129 0.0000 -40.5431 0.0000
# 2 55.5140 89.9298 10.8363 0.0000 -8.4320 0.0000
# 3 39.2129 10.8363 76.9767 0.0000 -26.1933 0.0000
# 4 0.0000 0.0000 0.0000 27.7347 0.0000 -5.0735
# 5 -40.5431 -8.4320 -26.1933 0.0000 43.7043 0.0000
# 6 0.0000 0.0000 0.0000 -5.0735 0.0000 33.6129
#
#
#
# Elastic Compliance Matrix: (Units=1/GPa)
#
#
# Indices 1 2 3 4 5 6 
#
# 1 0.021609 -0.011397 -0.004184 0.000000 0.015340 0.000000
# 2 -0.011397 0.017406 0.001131 0.000000 -0.006536 0.000000
# 3 -0.004184 0.001131 0.017231 0.000000 0.006664 0.000000
# 4 0.000000 0.000000 0.000000 0.037080 0.000000 0.005597
# 5 0.015340 -0.006536 0.006664 0.000000 0.039844 0.000000
# 6 0.000000 0.000000 0.000000 0.005597 0.000000 0.030595
#
#
# Mechanical properties :
#
#
# Convention : Reuss Voigt Hill
#
# Bulk Modulus (GPa) = 36.56760 54.44016 45.50388
# Shear Modulus (GPa) = 24.77959 32.56185 28.67072
#
# Velocity S-wave (km/s) = 3.39155 3.88781 3.64813
# Velocity P-wave (km/s) = 5.68431 6.73976 6.23441
#
# Compressibility (1/GPa) = 0.02734661
#
# Stress axis : x y z
#
# Youngs Moduli (GPa) = 46.27694 57.45154 58.03657
#
# Poissons Ratio (x) = 0.65477 0.24281
# Poissons Ratio (y) = 0.52741 -0.06565
# Poissons Ratio (z) = 0.19361 -0.06499
#
# Static dielectric constant tensor:
#      x y z
#    x 4.076900 0.000000 -0.558150 
#    y 0.000000 4.076440 0.000000 
#    z -0.558150 0.000000 4.024630 
# 
# 
# High freq. dielectric constant tensor:
#      x y z
#    x 1.836600 0.000000 -0.025810 
#    y 0.000000 1.845490 0.000000 
#    z -0.025810 0.000000 1.850940 
# 
# From -- ./inp_files/6306.got.cif
#   From: 2010.03.12/outbox.cif.g09.slc.cpg/sg14_4_cif.got.tgz:6306.got - 2010.03.31 13:35:05.
