data_PCOD8125810
_publ_section_title
;
Structure prediction by ZEFSAII (Michael W. Deem and Ramdas Pophale) SiO2 
 PCOD8125810
Probable space group: P 21/C
;
_chemical_formula_sum "Si O2"
_cell_formula_units_Z 32
_cell_length_a 13.012019
_cell_length_b 12.800075
_cell_length_c 24.811884
_cell_angle_alpha 90.000000
_cell_angle_beta 152.947916
_cell_angle_gamma 90.000000
_cell_volume 1879.479786
_symmetry_space_group_name_H-M "P 21/C"
_symmetry_group_IT_number 14
_symmetry_cell_setting 'monoclinic'
loop_
_space_group_symop_operation_xyz
x,y,z
-x,1/2+y,1/2-z
-x,-y,-z
x,1/2-y,1/2+z
loop_
_atom_site_type_symbol
_atom_site_label
_atom_site_fract_x
_atom_site_fract_y
_atom_site_fract_z
Si Si1 0.805585 0.622974 0.701409
Si Si2 0.486108 0.386478 0.861077
Si Si3 0.002338 0.427937 0.841285
Si Si4 0.324774 0.801056 0.986748
Si Si5 0.918586 0.756648 0.856626
Si Si6 0.518627 0.058621 0.564540
Si Si7 0.953678 0.053810 0.534579
Si Si8 0.867130 0.239336 0.713137
O O1 0.911674 0.507439 0.753161
O O2 0.533446 0.617684 0.579937
O O3 0.910441 0.688956 0.798752
O O4 0.896230 0.678176 0.688769
O O5 0.300196 0.329104 0.736756
O O6 0.372331 0.483086 0.839166
O O7 0.576159 0.312742 0.951469
O O8 0.686140 0.428213 0.916729
O O9 0.939084 0.476012 0.870262
O O10 0.892812 0.315533 0.776663
O O11 0.268056 0.410112 0.964372
O O12 0.204057 0.804582 0.872769
O O13 0.145509 0.827484 0.951876
O O14 0.935332 0.670841 0.912343
O O15 0.667919 0.160798 0.633528
O O16 0.500000 0.000000 0.500000
O O17 0.000000 0.000000 0.500000
#
# Coordination Sequence:
#
# PCOD8125810 Si02
#       8
#     4   4   4   4   4   4   4   4
#     4   9  17  29  44  67 100 136 164 196 242 290
#     4   9  17  31  51  75  95 127 173 200 241 302
#     4  10  21  33  46  72  99 128 175 202 242 310
#     4   9  16  26  44  71 102 131 161 199 239 286
#     4   8  16  29  50  77  95 122 171 210 239 298
#     4  11  18  31  48  69 100 137 163 194 237 294
#     4   9  18  36  55  72  98 129 167 220 259 285
#     4  11  19  27  46  70 102 140 163 198 242 297
#
# _framework density 17.025987000000001
#
# number of rings (size 3 to 8) (size 9 to 14) (size 15 to 20)
#    0.000    2.500    2.500    2.250    3.500    0.500 
#    0.000    3.750    0.000    0.000    0.000   14.875 
#    0.000    0.000    0.000    0.000    0.000    0.000 
#
# Total GULP energy -396465.849457 kJ/mol
# GULP energy per Si atom -12389.557796 kJ/mol
# Density = 1.698724 g / cm^3
# Si number density = 17.025987 Si / 1000 Ang^3
#
#
#
# Elastic Constant Matrix: (Units=GPa)
#
#
# Indices 1 2 3 4 5 6 
#
# 1 69.8309 45.2870 37.4656 0.0000 0.0507 0.0000
# 2 45.2870 89.8369 45.5771 0.0000 3.9697 0.0000
# 3 37.4656 45.5771 82.1875 0.0000 12.3526 0.0000
# 4 0.0000 0.0000 0.0000 38.3622 0.0000 0.9968
# 5 0.0507 3.9697 12.3526 0.0000 18.6442 0.0000
# 6 0.0000 0.0000 0.0000 0.9968 0.0000 23.1056
#
#
#
# Elastic Compliance Matrix: (Units=1/GPa)
#
#
# Indices 1 2 3 4 5 6 
#
# 1 0.023675 -0.008704 -0.006924 0.000000 0.006376 0.000000
# 2 -0.008704 0.018808 -0.006513 0.000000 0.000334 0.000000
# 3 -0.006924 -0.006513 0.020795 0.000000 -0.012372 0.000000
# 4 0.000000 0.000000 0.000000 0.026097 0.000000 -0.001126
# 5 0.006376 0.000334 -0.012372 0.000000 0.061744 0.000000
# 6 0.000000 0.000000 0.000000 -0.001126 0.000000 0.043328
#
#
# Mechanical properties :
#
#
# Convention : Reuss Voigt Hill
#
# Bulk Modulus (GPa) = 52.63951 55.39051 54.01501
# Shear Modulus (GPa) = 20.40314 23.59078 21.99696
#
# Velocity S-wave (km/s) = 3.46548 3.72637 3.59829
# Velocity P-wave (km/s) = 6.85544 7.14968 7.00411
#
# Compressibility (1/GPa) = 0.01899714
#
# Stress axis : x y z
#
# Youngs Moduli (GPa) = 42.23850 53.16858 48.08887
#
# Poissons Ratio (x) = 0.46276 0.33298
# Poissons Ratio (y) = 0.36762 0.31319
# Poissons Ratio (z) = 0.29247 0.34627
#
# Static dielectric constant tensor:
#      x y z
#    x 2.853410 0.000000 0.098500 
#    y 0.000000 3.210880 0.000000 
#    z 0.098500 0.000000 2.829820 
# 
# 
# High freq. dielectric constant tensor:
#      x y z
#    x 1.618560 0.000000 0.025570 
#    y 0.000000 1.643820 0.000000 
#    z 0.025570 0.000000 1.650020 
# 
# From -- ./inp_files/34059.got.cif
#   From: 2010.03.12/outbox.cif.g09.slc.cpg/sg14_18_cif.got.tgz:34059.got - 2010.03.31 13:35:05.
