data_PCOD8125109
_publ_section_title
;
Structure prediction by ZEFSAII (Michael W. Deem and Ramdas Pophale) SiO2 
 PCOD8125109
Probable space group: P 21/C
;
_chemical_formula_sum "Si O2"
_cell_formula_units_Z 32
_cell_length_a 13.148170
_cell_length_b 12.022084
_cell_length_c 13.134676
_cell_angle_alpha 90.000000
_cell_angle_beta 133.465678
_cell_angle_gamma 90.000000
_cell_volume 1506.861619
_symmetry_space_group_name_H-M "P 21/C"
_symmetry_group_IT_number 14
_symmetry_cell_setting 'monoclinic'
loop_
_space_group_symop_operation_xyz
x,y,z
-x,1/2+y,1/2-z
-x,-y,-z
x,1/2-y,1/2+z
loop_
_atom_site_type_symbol
_atom_site_label
_atom_site_fract_x
_atom_site_fract_y
_atom_site_fract_z
Si Si1 0.273014 0.553125 0.003041
Si Si2 0.176789 0.538206 0.705310
Si Si3 0.891473 0.889039 0.078436
Si Si4 0.698050 0.799621 0.472977
Si Si5 0.973484 0.305067 0.125372
Si Si6 0.758678 0.713781 0.252133
Si Si7 0.483614 0.762521 0.683669
Si Si8 0.230254 0.614453 0.530762
O O1 0.282003 0.427013 0.046650
O O2 0.421827 0.613492 0.126716
O O3 0.243948 0.562788 0.861721
O O4 0.154220 0.611848 0.992635
O O5 0.204307 0.411483 0.687494
O O6 0.247020 0.613964 0.665887
O O7 0.011117 0.566366 0.584798
O O8 0.969541 0.855697 0.232951
O O9 0.804121 0.780392 0.978872
O O10 0.783735 0.990597 0.024421
O O11 0.730191 0.784645 0.612153
O O12 0.540377 0.758608 0.337821
O O13 0.103341 0.292756 0.135448
O O14 0.908190 0.182666 0.098454
O O15 0.618498 0.760978 0.205952
O O16 0.365719 0.672236 0.574616
#
# Coordination Sequence:
#
# PCOD8125109 Si02
#       8
#     4   4   4   4   4   4   4   4
#     4   9  22  42  61  93 125 162 199 263 318 355
#     4  10  20  36  72  94 115 148 221 272 300 344
#     4  10  20  37  64  93 120 156 205 264 306 353
#     4  10  23  38  64  89 127 164 206 253 311 371
#     4   9  20  39  61  90 124 154 202 260 307 361
#     4  10  21  40  64  93 120 161 208 260 308 358
#     4  11  25  38  62  88 131 162 205 254 313 371
#     4  11  22  37  64  95 120 158 210 259 307 366
#
# _framework density 21.236190000000001
#
# number of rings (size 3 to 8) (size 9 to 14) (size 15 to 20)
#    0.000    2.000    1.250    1.125    8.750    1.000 
#    0.000    3.125    0.000    0.000    0.000    0.000 
#    0.000    0.000    0.000    0.000    0.000    0.000 
#
# Total GULP energy -396565.313833 kJ/mol
# GULP energy per Si atom -12392.666057 kJ/mol
# Density = 2.118786 g / cm^3
# Si number density = 21.236190 Si / 1000 Ang^3
#
#
#
# Elastic Constant Matrix: (Units=GPa)
#
#
# Indices 1 2 3 4 5 6 
#
# 1 116.8219 56.3728 28.4984 0.0000 33.5806 0.0000
# 2 56.3728 145.7644 52.2805 0.0000 10.4504 0.0000
# 3 28.4984 52.2805 78.4225 0.0000 24.0582 0.0000
# 4 0.0000 0.0000 0.0000 102.7986 0.0000 30.1502
# 5 33.5806 10.4504 24.0582 0.0000 28.6463 0.0000
# 6 0.0000 0.0000 0.0000 30.1502 0.0000 41.5771
#
#
#
# Elastic Compliance Matrix: (Units=1/GPa)
#
#
# Indices 1 2 3 4 5 6 
#
# 1 0.016710 -0.006703 0.004924 0.000000 -0.021278 0.000000
# 2 -0.006703 0.011826 -0.008803 0.000000 0.010936 0.000000
# 3 0.004924 -0.008803 0.023730 0.000000 -0.022490 0.000000
# 4 0.000000 0.000000 0.000000 0.012356 0.000000 -0.008960
# 5 -0.021278 0.010936 -0.022490 0.000000 0.074750 0.000000
# 6 0.000000 0.000000 0.000000 -0.008960 0.000000 0.030549
#
#
# Mechanical properties :
#
#
# Convention : Reuss Voigt Hill
#
# Bulk Modulus (GPa) = 32.15266 68.36801 50.26034
# Shear Modulus (GPa) = 24.81992 48.19486 36.50739
#
# Velocity S-wave (km/s) = 3.42242 4.76906 4.15072
# Velocity P-wave (km/s) = 5.54893 7.91134 6.83300
#
# Compressibility (1/GPa) = 0.03110162
#
# Stress axis : x y z
#
# Youngs Moduli (GPa) = 59.84556 84.56053 42.14071
#
# Poissons Ratio (x) = 0.56679 -0.20749
# Poissons Ratio (y) = 0.40113 0.37096
# Poissons Ratio (z) = -0.29466 0.74438
#
# Static dielectric constant tensor:
#      x y z
#    x 3.841440 0.000000 0.219490 
#    y 0.000000 4.071300 0.000000 
#    z 0.219490 0.000000 4.144960 
# 
# 
# High freq. dielectric constant tensor:
#      x y z
#    x 1.812090 0.000000 0.013620 
#    y 0.000000 1.833190 0.000000 
#    z 0.013620 0.000000 1.851910 
# 
# From -- ./inp_files/44657.got.cif
#   From: 2010.03.12/outbox.cif.g09.slc.cpg/sg14_23_cif.got.tgz:44657.got - 2010.03.31 13:35:05.
