data_PCOD8125214
_publ_section_title
;
Structure prediction by ZEFSAII (Michael W. Deem and Ramdas Pophale) SiO2 
 PCOD8125214
Probable space group: P 21/C
;
_chemical_formula_sum "Si O2"
_cell_formula_units_Z 28
_cell_length_a 16.042875
_cell_length_b 16.834644
_cell_length_c 7.306754
_cell_angle_alpha 90.000000
_cell_angle_beta 43.192485
_cell_angle_gamma 90.000000
_cell_volume 1350.682566
_symmetry_space_group_name_H-M "P 21/C"
_symmetry_group_IT_number 14
_symmetry_cell_setting 'monoclinic'
loop_
_space_group_symop_operation_xyz
x,y,z
-x,1/2+y,1/2-z
-x,-y,-z
x,1/2-y,1/2+z
loop_
_atom_site_type_symbol
_atom_site_label
_atom_site_fract_x
_atom_site_fract_y
_atom_site_fract_z
Si Si1 0.869721 0.930912 0.066589
Si Si2 0.614233 0.852418 0.993267
Si Si3 0.743468 0.005632 0.936557
Si Si4 0.664663 0.681195 0.997537
Si Si5 0.145781 0.936656 0.613826
Si Si6 0.594382 0.151855 0.188616
Si Si7 0.354607 0.822929 0.308645
O O1 0.786386 0.853016 0.211959
O O2 0.843569 0.983768 0.286025
O O3 0.841600 0.980548 0.929610
O O4 0.009133 0.902478 0.836745
O O5 0.660478 0.932459 0.009142
O O6 0.646163 0.854295 0.728014
O O7 0.677384 0.776529 0.988240
O O8 0.467645 0.845926 0.261319
O O9 0.818319 0.043147 0.650405
O O10 0.653738 0.071373 0.171751
O O11 0.551454 0.657712 0.043260
O O12 0.232036 0.868577 0.564052
O O13 0.664987 0.227794 0.159801
O O14 0.609758 0.148514 0.947539
#
# Coordination Sequence:
#
# PCOD8125214 Si02
#       7
#     4   4   4   4   4   4   4
#     4  11  23  39  62  86 119 162 198 242 298 359
#     4  10  20  37  62  89 123 155 196 261 303 355
#     4  11  22  39  64  90 120 156 206 252 306 349
#     4  10  20  38  58  90 126 156 200 246 306 361
#     4  10  23  42  59  84 123 158 200 246 289 363
#     4   9  21  35  61  90 120 156 194 257 306 354
#     4   9  20  38  59  85 123 154 198 247 305 354
#
# _framework density 20.730259
#
# number of rings (size 3 to 8) (size 9 to 14) (size 15 to 20)
#    0.000    2.000    1.429    1.286    4.000    3.429 
#    0.000    7.143    0.000    0.000    0.000    0.000 
#    0.000    0.000    0.000    0.000    0.000    0.000 
#
# Total GULP energy -347261.931268 kJ/mol
# GULP energy per Si atom -12402.211831 kJ/mol
# Density = 2.068308 g / cm^3
# Si number density = 20.730259 Si / 1000 Ang^3
#
#
#
# Elastic Constant Matrix: (Units=GPa)
#
#
# Indices 1 2 3 4 5 6 
#
# 1 66.9248 29.1585 29.7664 0.0000 -27.5201 0.0000
# 2 29.1585 120.5200 55.9091 0.0000 -40.1542 0.0000
# 3 29.7664 55.9091 97.4979 0.0000 -37.0553 0.0000
# 4 0.0000 0.0000 0.0000 29.2590 0.0000 -4.0676
# 5 -27.5201 -40.1542 -37.0553 0.0000 33.0634 0.0000
# 6 0.0000 0.0000 0.0000 -4.0676 0.0000 36.1306
#
#
#
# Elastic Compliance Matrix: (Units=1/GPa)
#
#
# Indices 1 2 3 4 5 6 
#
# 1 0.022851 0.001330 0.000180 0.000000 0.020837 0.000000
# 2 0.001330 0.014439 -0.002788 0.000000 0.015518 0.000000
# 3 0.000180 -0.002788 0.018414 0.000000 0.017401 0.000000
# 4 0.000000 0.000000 0.000000 0.034721 0.000000 0.003909
# 5 0.020837 0.015518 0.017401 0.000000 0.085937 0.000000
# 6 0.000000 0.000000 0.000000 0.003909 0.000000 0.028117
#
#
# Mechanical properties :
#
#
# Convention : Reuss Voigt Hill
#
# Bulk Modulus (GPa) = 18.81517 57.17897 37.99707
# Shear Modulus (GPa) = 22.24685 31.03120 26.63902
#
# Velocity S-wave (km/s) = 3.27946 3.87318 3.58862
# Velocity P-wave (km/s) = 4.84105 6.90248 5.96154
#
# Compressibility (1/GPa) = 0.05314861
#
# Stress axis : x y z
#
# Youngs Moduli (GPa) = 43.76204 69.25528 54.30669
#
# Poissons Ratio (x) = -0.09214 -0.00978
# Poissons Ratio (y) = -0.05822 0.15142
# Poissons Ratio (z) = -0.00788 0.19310
#
# Static dielectric constant tensor:
#      x y z
#    x 3.807720 0.000000 -0.088810 
#    y 0.000000 3.744880 0.000000 
#    z -0.088810 0.000000 3.751130 
# 
# 
# High freq. dielectric constant tensor:
#      x y z
#    x 1.810690 0.000000 0.007620 
#    y 0.000000 1.808990 0.000000 
#    z 0.007620 0.000000 1.805870 
# 
# From -- ./inp_files/13203.got.cif
#   From: 2010.03.12/outbox.cif.g09.slc.cpg/sg14_7_cif.got.tgz:13203.got - 2010.03.31 13:35:05.
