data_PCOD8125717
_publ_section_title
;
Structure prediction by ZEFSAII (Michael W. Deem and Ramdas Pophale) SiO2 
 PCOD8125717
Probable space group: P 21/C
;
_chemical_formula_sum "Si O2"
_cell_formula_units_Z 24
_cell_length_a 14.184063
_cell_length_b 8.793315
_cell_length_c 13.789367
_cell_angle_alpha 90.000000
_cell_angle_beta 139.239983
_cell_angle_gamma 90.000000
_cell_volume 1122.894836
_symmetry_space_group_name_H-M "P 21/C"
_symmetry_group_IT_number 14
_symmetry_cell_setting 'monoclinic'
loop_
_space_group_symop_operation_xyz
x,y,z
-x,1/2+y,1/2-z
-x,-y,-z
x,1/2-y,1/2+z
loop_
_atom_site_type_symbol
_atom_site_label
_atom_site_fract_x
_atom_site_fract_y
_atom_site_fract_z
Si Si1 0.609042 0.508492 0.220953
Si Si2 0.163639 0.608677 0.306854
Si Si3 0.689406 0.898075 0.582067
Si Si4 0.714816 0.330713 0.803522
Si Si5 0.100213 0.592783 0.868699
Si Si6 0.600693 0.914739 0.927695
O O1 0.697260 0.594162 0.205301
O O2 0.673273 0.342762 0.292216
O O3 0.620017 0.607497 0.327114
O O4 0.442268 0.500346 0.059652
O O5 0.187897 0.661435 0.216131
O O6 0.090593 0.744755 0.309422
O O7 0.318968 0.567251 0.474496
O O8 0.060464 0.461531 0.229687
O O9 0.675017 0.725105 0.539486
O O10 0.835176 0.968778 0.654303
O O11 0.568192 0.429160 0.676791
O O12 0.805410 0.400525 0.961137
#
# Coordination Sequence:
#
# PCOD8125717 Si02
#       6
#     4   4   4   4   4   4
#     4  10  20  41  68 103 130 174 219 272 338 383
#     4  12  26  44  66 101 134 180 223 278 335 393
#     4  10  22  40  68  99 135 174 216 278 327 395
#     4  11  23  43  72  98 135 175 226 275 331 400
#     4  12  24  45  67  95 140 178 225 273 333 401
#     4  11  23  41  71 104 133 170 226 279 330 398
#
# _framework density 21.373328000000001
#
# number of rings (size 3 to 8) (size 9 to 14) (size 15 to 20)
#    0.000    1.000    5.000    2.000    0.000    1.333 
#    0.000    6.667    0.000    0.000    0.000    0.000 
#    0.000    0.000    0.000    0.000    0.000    0.000 
#
# Total GULP energy -297744.079962 kJ/mol
# GULP energy per Si atom -12406.003332 kJ/mol
# Density = 2.132468 g / cm^3
# Si number density = 21.373328 Si / 1000 Ang^3
#
#
#
# Elastic Constant Matrix: (Units=GPa)
#
#
# Indices 1 2 3 4 5 6 
#
# 1 101.6865 33.5341 40.3638 0.0000 -3.8551 0.0000
# 2 33.5341 63.0267 24.5755 0.0000 8.5211 0.0000
# 3 40.3638 24.5755 60.1603 0.0000 10.0199 0.0000
# 4 0.0000 0.0000 0.0000 27.7454 0.0000 -1.3533
# 5 -3.8551 8.5211 10.0199 0.0000 32.8876 0.0000
# 6 0.0000 0.0000 0.0000 -1.3533 0.0000 37.9901
#
#
#
# Elastic Compliance Matrix: (Units=1/GPa)
#
#
# Indices 1 2 3 4 5 6 
#
# 1 0.015515 -0.005496 -0.009170 0.000000 0.006037 0.000000
# 2 -0.005496 0.021045 -0.004103 0.000000 -0.004847 0.000000
# 3 -0.009170 -0.004103 0.025760 0.000000 -0.007860 0.000000
# 4 0.000000 0.000000 0.000000 0.036105 0.000000 0.001286
# 5 0.006037 -0.004847 -0.007860 0.000000 0.034765 0.000000
# 6 0.000000 0.000000 0.000000 0.001286 0.000000 0.026368
#
#
# Mechanical properties :
#
#
# Convention : Reuss Voigt Hill
#
# Bulk Modulus (GPa) = 40.34889 46.86893 43.60891
# Shear Modulus (GPa) = 24.34786 28.15131 26.24959
#
# Velocity S-wave (km/s) = 3.37882 3.63316 3.50829
# Velocity P-wave (km/s) = 5.84303 6.29095 6.07113
#
# Compressibility (1/GPa) = 0.02478383
#
# Stress axis : x y z
#
# Youngs Moduli (GPa) = 64.45192 47.51672 38.81985
#
# Poissons Ratio (x) = 0.26113 0.35599
# Poissons Ratio (y) = 0.35420 0.15926
# Poissons Ratio (z) = 0.59105 0.19494
#
# Static dielectric constant tensor:
#      x y z
#    x 3.994030 0.000000 -0.069740 
#    y 0.000000 3.639300 0.000000 
#    z -0.069740 0.000000 3.751170 
# 
# 
# High freq. dielectric constant tensor:
#      x y z
#    x 1.852220 0.000000 -0.007890 
#    y 0.000000 1.832380 0.000000 
#    z -0.007890 0.000000 1.831990 
# 
# From -- ./inp_files/46363.got.cif
#   From: 2010.03.12/outbox.cif.g09.slc.cpg/sg14_24_cif.got.tgz:46363.got - 2010.03.31 13:35:05.
