data_PCOD8125145
_publ_section_title
;
Structure prediction by ZEFSAII (Michael W. Deem and Ramdas Pophale) SiO2 
 PCOD8125145
Probable space group: P 21/C
;
_chemical_formula_sum "Si O2"
_cell_formula_units_Z 24
_cell_length_a 11.275442
_cell_length_b 6.258796
_cell_length_c 16.859999
_cell_angle_alpha 90.000000
_cell_angle_beta 87.911193
_cell_angle_gamma 90.000000
_cell_volume 1189.031188
_symmetry_space_group_name_H-M "P 21/C"
_symmetry_group_IT_number 14
_symmetry_cell_setting 'monoclinic'
loop_
_space_group_symop_operation_xyz
x,y,z
-x,1/2+y,1/2-z
-x,-y,-z
x,1/2-y,1/2+z
loop_
_atom_site_type_symbol
_atom_site_label
_atom_site_fract_x
_atom_site_fract_y
_atom_site_fract_z
Si Si1 0.739785 0.439328 0.194885
Si Si2 0.322148 0.617117 0.046663
Si Si3 0.415774 0.180892 0.407068
Si Si4 0.161812 0.852621 0.688339
Si Si5 0.089086 0.179628 0.827708
Si Si6 0.254655 0.562097 0.426897
O O1 0.620051 0.572527 0.176978
O O2 0.741421 0.316930 0.278938
O O3 0.853429 0.591728 0.189409
O O4 0.754230 0.262983 0.128568
O O5 0.444654 0.672208 0.087206
O O6 0.227977 0.529502 0.113714
O O7 0.344975 0.437206 0.980153
O O8 0.265222 0.838492 0.014572
O O9 0.374055 0.426279 0.407242
O O10 0.050623 0.714547 0.660051
O O11 0.120298 0.024929 0.753623
O O12 0.139273 0.084147 0.910128
#
# Coordination Sequence:
#
# PCOD8125145 Si02
#       6
#     4   4   4   4   4   4
#     4   9  19  38  57  81 115 152 190 236 292 338
#     4  10  21  36  60  89 113 152 197 229 289 351
#     4   9  19  40  58  83 122 148 184 246 283 340
#     4  11  21  36  58  84 112 156 196 237 293 342
#     4  10  20  37  59  78 119 152 189 250 286 335
#     4   9  19  37  61  82 116 152 185 239 292 334
#
# _framework density 20.184501000000001
#
# number of rings (size 3 to 8) (size 9 to 14) (size 15 to 20)
#    0.000    2.333    1.667    0.500    0.000    2.000 
#    9.000    7.500    0.000    0.000    0.000    0.000 
#    0.000    0.000    0.000    0.000    0.000    0.000 
#
# Total GULP energy -297366.139956 kJ/mol
# GULP energy per Si atom -12390.255831 kJ/mol
# Density = 2.013856 g / cm^3
# Si number density = 20.184501 Si / 1000 Ang^3
#
#
#
# Elastic Constant Matrix: (Units=GPa)
#
#
# Indices 1 2 3 4 5 6 
#
# 1 109.8255 33.2477 59.3705 0.0000 8.7458 0.0000
# 2 33.2477 83.5072 18.8799 0.0000 5.3138 0.0000
# 3 59.3705 18.8799 48.5471 0.0000 0.2137 0.0000
# 4 0.0000 0.0000 0.0000 26.0292 0.0000 8.7403
# 5 8.7458 5.3138 0.2137 0.0000 32.2728 0.0000
# 6 0.0000 0.0000 0.0000 8.7403 0.0000 27.0319
#
#
#
# Elastic Compliance Matrix: (Units=1/GPa)
#
#
# Indices 1 2 3 4 5 6 
#
# 1 0.029443 -0.003434 -0.034641 0.000000 -0.007184 0.000000
# 2 -0.003434 0.013678 -0.001114 0.000000 -0.001314 0.000000
# 3 -0.034641 -0.001114 0.063355 0.000000 0.009151 0.000000
# 4 0.000000 0.000000 0.000000 0.043098 0.000000 -0.013935
# 5 -0.007184 -0.001314 0.009151 0.000000 0.033088 0.000000
# 6 0.000000 0.000000 0.000000 -0.013935 0.000000 0.041499
#
#
# Mechanical properties :
#
#
# Convention : Reuss Voigt Hill
#
# Bulk Modulus (GPa) = 35.58826 51.65287 43.62057
# Shear Modulus (GPa) = 16.03055 25.75890 20.89473
#
# Velocity S-wave (km/s) = 2.82121 3.57623 3.22092
# Velocity P-wave (km/s) = 5.31809 6.53441 5.95737
#
# Compressibility (1/GPa) = 0.02809915
#
# Stress axis : x y z
#
# Youngs Moduli (GPa) = 33.96362 73.11200 15.78402
#
# Poissons Ratio (x) = 0.25104 0.54677
# Poissons Ratio (y) = 0.11662 0.01759
# Poissons Ratio (z) = 1.17652 0.08146
#
# Static dielectric constant tensor:
#      x y z
#    x 3.663480 0.000000 0.673670 
#    y 0.000000 3.944080 0.000000 
#    z 0.673670 0.000000 3.840070 
# 
# 
# High freq. dielectric constant tensor:
#      x y z
#    x 1.778380 0.000000 0.044760 
#    y 0.000000 1.798530 0.000000 
#    z 0.044760 0.000000 1.772750 
# 
# From -- ./inp_files/49610.got.cif
#   From: 2010.03.12/outbox.cif.g09.slc.cpg/sg14_25_cif.got.tgz:49610.got - 2010.03.31 13:35:05.
