data_PCOD8125713
_publ_section_title
;
Structure prediction by ZEFSAII (Michael W. Deem and Ramdas Pophale) SiO2 
 PCOD8125713
Probable space group: P 21/C
;
_chemical_formula_sum "Si O2"
_cell_formula_units_Z 20
_cell_length_a 14.067504
_cell_length_b 15.079424
_cell_length_c 8.069117
_cell_angle_alpha 90.000000
_cell_angle_beta 32.729895
_cell_angle_gamma 90.000000
_cell_volume 925.481135
_symmetry_space_group_name_H-M "P 21/C"
_symmetry_group_IT_number 14
_symmetry_cell_setting 'monoclinic'
loop_
_space_group_symop_operation_xyz
x,y,z
-x,1/2+y,1/2-z
-x,-y,-z
x,1/2-y,1/2+z
loop_
_atom_site_type_symbol
_atom_site_label
_atom_site_fract_x
_atom_site_fract_y
_atom_site_fract_z
Si Si1 0.283237 0.055150 0.777213
Si Si2 0.349648 0.677134 0.757761
Si Si3 0.634684 0.930412 0.721371
Si Si4 0.922613 0.038277 0.444649
Si Si5 0.611858 0.365410 0.921611
O O1 0.360224 0.070395 0.482808
O O2 0.400527 0.117141 0.726781
O O3 0.300086 0.950600 0.794909
O O4 0.078731 0.077732 0.100920
O O5 0.552695 0.663508 0.398814
O O6 0.319100 0.781747 0.785010
O O7 0.215522 0.619984 0.839003
O O8 0.324575 0.645100 0.982767
O O9 0.829859 0.952126 0.498996
O O10 0.500000 0.000000 0.000000
O O11 0.000000 0.000000 0.500000
#
# Coordination Sequence:
#
# PCOD8125713 Si02
#       5
#     4   4   4   4   4
#     4  11  23  43  69  97 128 179 224 272 336 395
#     4  11  24  44  65  99 134 175 223 277 332 400
#     4  10  20  41  67  93 132 171 220 267 330 398
#     4  11  24  40  67  97 133 171 224 276 331 391
#     4  11  24  41  70  93 134 175 223 269 340 393
#
# _framework density 21.610382000000001
#
# number of rings (size 3 to 8) (size 9 to 14) (size 15 to 20)
#    0.000    1.200    4.000    3.000   11.200    0.000 
#    3.600    2.000    0.000    0.000    0.000    0.000 
#    0.000    0.000    0.000    0.000    0.000    0.000 
#
# Total GULP energy -247862.957145 kJ/mol
# GULP energy per Si atom -12393.147857 kJ/mol
# Density = 2.156120 g / cm^3
# Si number density = 21.610382 Si / 1000 Ang^3
#
#
#
# Elastic Constant Matrix: (Units=GPa)
#
#
# Indices 1 2 3 4 5 6 
#
# 1 121.3090 38.8064 22.4554 0.0000 -6.7230 0.0000
# 2 38.8064 114.9318 10.7518 0.0000 -4.5649 0.0000
# 3 22.4554 10.7518 90.5199 0.0000 -6.4336 0.0000
# 4 0.0000 0.0000 0.0000 19.2626 0.0000 2.9941
# 5 -6.7230 -4.5649 -6.4336 0.0000 36.8683 0.0000
# 6 0.0000 0.0000 0.0000 2.9941 0.0000 32.3229
#
#
#
# Elastic Compliance Matrix: (Units=1/GPa)
#
#
# Indices 1 2 3 4 5 6 
#
# 1 0.009632 -0.003028 -0.001956 0.000000 0.001040 0.000000
# 2 -0.003028 0.009781 -0.000368 0.000000 0.000595 0.000000
# 3 -0.001956 -0.000368 0.011693 0.000000 0.001638 0.000000
# 4 0.000000 0.000000 0.000000 0.052672 0.000000 -0.004879
# 5 0.001040 0.000595 0.001638 0.000000 0.027673 0.000000
# 6 0.000000 0.000000 0.000000 -0.004879 0.000000 0.031390
#
#
# Mechanical properties :
#
#
# Convention : Reuss Voigt Hill
#
# Bulk Modulus (GPa) = 49.01594 52.30976 50.66285
# Shear Modulus (GPa) = 31.18274 34.67390 32.92832
#
# Velocity S-wave (km/s) = 3.80274 4.00997 3.90773
# Velocity P-wave (km/s) = 6.48167 6.76004 6.62232
#
# Compressibility (1/GPa) = 0.02040153
#
# Stress axis : x y z
#
# Youngs Moduli (GPa) = 103.82395 102.23657 85.52383
#
# Poissons Ratio (x) = 0.30956 0.16727
# Poissons Ratio (y) = 0.31436 0.03151
# Poissons Ratio (z) = 0.20306 0.03767
#
# Static dielectric constant tensor:
#      x y z
#    x 3.977700 0.000000 -0.329900 
#    y 0.000000 4.131790 0.000000 
#    z -0.329900 0.000000 4.194580 
# 
# 
# High freq. dielectric constant tensor:
#      x y z
#    x 1.856920 0.000000 -0.000750 
#    y 0.000000 1.834010 0.000000 
#    z -0.000750 0.000000 1.841660 
# 
# From -- ./inp_files/16480.got.cif
#   From: 2010.03.12/outbox.cif.g09.slc.cpg/sg14_9_cif.got.tgz:16480.got - 2010.03.31 13:35:05.
