data_PCOD8125427
_publ_section_title
;
Structure prediction by ZEFSAII (Michael W. Deem and Ramdas Pophale) SiO2 
 PCOD8125427
Probable space group: P 21/C
;
_chemical_formula_sum "Si O2"
_cell_formula_units_Z 32
_cell_length_a 10.030397
_cell_length_b 9.586724
_cell_length_c 17.783520
_cell_angle_alpha 90.000000
_cell_angle_beta 90.414868
_cell_angle_gamma 90.000000
_cell_volume 1709.994406
_symmetry_space_group_name_H-M "P 21/C"
_symmetry_group_IT_number 14
_symmetry_cell_setting 'monoclinic'
loop_
_space_group_symop_operation_xyz
x,y,z
-x,1/2+y,1/2-z
-x,-y,-z
x,1/2-y,1/2+z
loop_
_atom_site_type_symbol
_atom_site_label
_atom_site_fract_x
_atom_site_fract_y
_atom_site_fract_z
Si Si1 0.837155 0.596445 0.451210
Si Si2 0.635154 0.213919 0.340368
Si Si3 0.618974 0.966782 0.659612
Si Si4 0.163104 0.136686 0.453568
Si Si5 0.134774 0.650332 0.442640
Si Si6 0.135441 0.888538 0.553024
Si Si7 0.361319 0.789735 0.834087
Si Si8 0.617532 0.535748 0.335429
O O1 0.810950 0.707569 0.517162
O O2 0.814917 0.447814 0.489955
O O3 0.737405 0.607775 0.381078
O O4 0.985514 0.609070 0.417113
O O5 0.516846 0.110897 0.365136
O O6 0.768655 0.172499 0.383789
O O7 0.667314 0.195767 0.253520
O O8 0.596717 0.373941 0.356932
O O9 0.735878 0.897972 0.612351
O O10 0.607429 0.130892 0.641438
O O11 0.648871 0.942693 0.747618
O O12 0.015888 0.117704 0.416819
O O13 0.179606 0.043265 0.528949
O O14 0.139947 0.805817 0.474585
O O15 0.230699 0.645412 0.371656
O O16 0.485147 0.883710 0.859684
#
# Coordination Sequence:
#
# PCOD8125427 Si02
#       8
#     4   4   4   4   4   4   4   4
#     4  10  22  37  59  86 113 148 187 234 280 333
#     4  10  22  39  59  83 114 150 189 234 281 333
#     4  10  22  40  58  82 115 150 189 232 280 335
#     4  10  22  37  59  86 113 148 187 234 280 333
#     4  10  20  39  59  82 114 145 187 234 281 331
#     4  10  20  39  59  82 114 145 187 234 281 331
#     4  10  22  39  59  83 114 150 189 234 281 333
#     4  10  22  40  58  82 115 150 189 232 280 335
#
# _framework density 18.713512999999999
#
# number of rings (size 3 to 8) (size 9 to 14) (size 15 to 20)
#    0.000    2.000    2.500    0.000    3.500    3.000 
#    0.000    0.000    0.000    0.000    0.000    0.000 
#    0.000    0.000    0.000    0.000    0.000    0.000 
#
# Total GULP energy -396847.545427 kJ/mol
# GULP energy per Si atom -12401.485795 kJ/mol
# Density = 1.867092 g / cm^3
# Si number density = 18.713513 Si / 1000 Ang^3
#
#
#
# Elastic Constant Matrix: (Units=GPa)
#
#
# Indices 1 2 3 4 5 6 
#
# 1 147.0565 63.5597 71.8795 0.0000 -15.6284 0.0000
# 2 63.5597 85.3837 31.7452 0.0000 -2.3382 0.0000
# 3 71.8795 31.7452 63.6547 0.0000 1.4604 0.0000
# 4 0.0000 0.0000 0.0000 21.5579 0.0000 1.3741
# 5 -15.6284 -2.3382 1.4604 0.0000 29.5202 0.0000
# 6 0.0000 0.0000 0.0000 1.3741 0.0000 31.1099
#
#
#
# Elastic Compliance Matrix: (Units=1/GPa)
#
#
# Indices 1 2 3 4 5 6 
#
# 1 0.021709 -0.008126 -0.020733 0.000000 0.011875 0.000000
# 2 -0.008126 0.017486 0.000523 0.000000 -0.002943 0.000000
# 3 -0.020733 0.000523 0.039156 0.000000 -0.012872 0.000000
# 4 0.000000 0.000000 0.000000 0.046518 0.000000 -0.002055
# 5 0.011875 -0.002943 -0.012872 0.000000 0.040565 0.000000
# 6 0.000000 0.000000 0.000000 -0.002055 0.000000 0.032235
#
#
# Mechanical properties :
#
#
# Convention : Reuss Voigt Hill
#
# Bulk Modulus (GPa) = 46.12897 70.05154 58.09025
# Shear Modulus (GPa) = 19.11554 25.03163 22.07359
#
# Velocity S-wave (km/s) = 3.19953 3.66132 3.43819
# Velocity P-wave (km/s) = 6.19298 7.44235 6.84622
#
# Compressibility (1/GPa) = 0.02167835
#
# Stress axis : x y z
#
# Youngs Moduli (GPa) = 46.06485 57.18934 25.53859
#
# Poissons Ratio (x) = 0.46473 0.52950
# Poissons Ratio (y) = 0.37433 -0.01336
# Poissons Ratio (z) = 0.95508 -0.02993
#
# Static dielectric constant tensor:
#      x y z
#    x 3.478100 0.000000 0.005950 
#    y 0.000000 3.669870 0.000000 
#    z 0.005950 0.000000 3.170070 
# 
# 
# High freq. dielectric constant tensor:
#      x y z
#    x 1.731410 0.000000 0.000530 
#    y 0.000000 1.744110 0.000000 
#    z 0.000530 0.000000 1.711320 
# 
# From -- ./inp_files/64854.got.cif
#   From: 2010.03.12/outbox.cif.g09.slc.cpg/sg14_33_cif.got.tgz:64854.got - 2010.03.31 13:35:05.
