data_PCOD8125425
_publ_section_title
;
Structure prediction by ZEFSAII (Michael W. Deem and Ramdas Pophale) SiO2 
 PCOD8125425
Probable space group: P 21/C
;
_chemical_formula_sum "Si O2"
_cell_formula_units_Z 24
_cell_length_a 10.901592
_cell_length_b 13.053453
_cell_length_c 19.880254
_cell_angle_alpha 90.000000
_cell_angle_beta 23.035119
_cell_angle_gamma 90.000000
_cell_volume 1106.985322
_symmetry_space_group_name_H-M "P 21/C"
_symmetry_group_IT_number 14
_symmetry_cell_setting 'monoclinic'
loop_
_space_group_symop_operation_xyz
x,y,z
-x,1/2+y,1/2-z
-x,-y,-z
x,1/2-y,1/2+z
loop_
_atom_site_type_symbol
_atom_site_label
_atom_site_fract_x
_atom_site_fract_y
_atom_site_fract_z
Si Si1 0.505061 0.230269 0.050014
Si Si2 0.952818 0.099627 0.288140
Si Si3 0.065358 0.850797 0.469248
Si Si4 0.189730 0.996597 0.299092
Si Si5 0.273239 0.327548 0.300845
Si Si6 0.130562 0.545475 0.584731
O O1 0.793654 0.152020 0.915182
O O2 0.632422 0.334922 0.952936
O O3 0.249749 0.175971 0.131369
O O4 0.348216 0.251655 0.201206
O O5 0.981399 0.030268 0.340684
O O6 0.931536 0.027305 0.234274
O O7 0.069372 0.887139 0.389039
O O8 0.414502 0.865174 0.321297
O O9 0.944575 0.734241 0.536008
O O10 0.831828 0.921669 0.629851
O O11 0.552793 0.987399 0.095506
O O12 0.084762 0.427979 0.370911
#
# Coordination Sequence:
#
# PCOD8125425 Si02
#       6
#     4   4   4   4   4   4
#     4  11  18  38  59  92 121 159 208 246 316 371
#     4  11  22  39  65  94 125 167 207 258 314 378
#     4  11  21  36  67  83 120 158 215 255 300 379
#     4  10  20  39  58  91 116 160 206 261 307 360
#     4  12  19  39  64  91 117 169 208 252 314 368
#     4  11  22  39  65  90 130 163 210 257 315 380
#
# _framework density 21.680503999999999
#
# number of rings (size 3 to 8) (size 9 to 14) (size 15 to 20)
#    0.000    1.000    8.333    2.000    0.000    1.333 
#    0.000    3.333    0.000    0.000    0.000    0.000 
#    0.000    0.000    0.000    0.000    0.000    0.000 
#
# Total GULP energy -297623.001570 kJ/mol
# GULP energy per Si atom -12400.958399 kJ/mol
# Density = 2.163116 g / cm^3
# Si number density = 21.680504 Si / 1000 Ang^3
#
#
#
# Elastic Constant Matrix: (Units=GPa)
#
#
# Indices 1 2 3 4 5 6 
#
# 1 57.2741 49.8884 32.6023 0.0000 6.2645 0.0000
# 2 49.8884 99.8412 52.9085 0.0000 19.9448 0.0000
# 3 32.6023 52.9085 72.5056 0.0000 15.3680 0.0000
# 4 0.0000 0.0000 0.0000 45.0294 0.0000 13.9027
# 5 6.2645 19.9448 15.3680 0.0000 32.2899 0.0000
# 6 0.0000 0.0000 0.0000 13.9027 0.0000 38.8806
#
#
#
# Elastic Compliance Matrix: (Units=1/GPa)
#
#
# Indices 1 2 3 4 5 6 
#
# 1 0.032462 -0.014563 -0.005051 0.000000 0.005101 0.000000
# 2 -0.014563 0.023596 -0.009097 0.000000 -0.007419 0.000000
# 3 -0.005051 -0.009097 0.023693 0.000000 -0.004677 0.000000
# 4 0.000000 0.000000 0.000000 0.024964 0.000000 -0.008926
# 5 0.005101 -0.007419 -0.004677 0.000000 0.036789 0.000000
# 6 0.000000 0.000000 0.000000 -0.008926 0.000000 0.028912
#
#
# Mechanical properties :
#
#
# Convention : Reuss Voigt Hill
#
# Bulk Modulus (GPa) = 44.78632 55.60215 50.19423
# Shear Modulus (GPa) = 21.25121 29.52143 25.38632
#
# Velocity S-wave (km/s) = 3.13421 3.69407 3.42560
# Velocity P-wave (km/s) = 5.81377 6.62546 6.23284
#
# Compressibility (1/GPa) = 0.02232825
#
# Stress axis : x y z
#
# Youngs Moduli (GPa) = 30.80505 42.38052 42.20630
#
# Poissons Ratio (x) = 0.61719 0.21319
# Poissons Ratio (y) = 0.44861 0.38396
# Poissons Ratio (z) = 0.15560 0.38555
#
# Static dielectric constant tensor:
#      x y z
#    x 3.592520 0.000000 0.049710 
#    y 0.000000 3.884900 0.000000 
#    z 0.049710 0.000000 3.981810 
# 
# 
# High freq. dielectric constant tensor:
#      x y z
#    x 1.812980 0.000000 -0.005340 
#    y 0.000000 1.843010 0.000000 
#    z -0.005340 0.000000 1.860300 
# 
# From -- ./inp_files/12516.got.cif
#   From: 2010.03.12/outbox.cif.g09.slc.cpg/sg14_7_cif.got.tgz:12516.got - 2010.03.31 13:35:05.
