data_PCOD8125361
_publ_section_title
;
Structure prediction by ZEFSAII (Michael W. Deem and Ramdas Pophale) SiO2 
 PCOD8125361
Probable space group: P 21/C
;
_chemical_formula_sum "Si O2"
_cell_formula_units_Z 32
_cell_length_a 9.556045
_cell_length_b 11.914478
_cell_length_c 30.697948
_cell_angle_alpha 90.000000
_cell_angle_beta 154.738893
_cell_angle_gamma 90.000000
_cell_volume 1491.523295
_symmetry_space_group_name_H-M "P 21/C"
_symmetry_group_IT_number 14
_symmetry_cell_setting 'monoclinic'
loop_
_space_group_symop_operation_xyz
x,y,z
-x,1/2+y,1/2-z
-x,-y,-z
x,1/2-y,1/2+z
loop_
_atom_site_type_symbol
_atom_site_label
_atom_site_fract_x
_atom_site_fract_y
_atom_site_fract_z
Si Si1 0.424156 0.520651 0.703754
Si Si2 0.769924 0.010640 0.170143
Si Si3 0.079247 0.959468 0.345882
Si Si4 0.831406 0.254626 0.399238
Si Si5 0.291682 0.168851 0.457541
Si Si6 0.201543 0.386604 0.716097
Si Si7 0.221401 0.392040 0.567685
Si Si8 0.451825 0.882644 0.010187
O O1 0.172309 0.621899 0.623711
O O2 0.395653 0.486641 0.746222
O O3 0.360827 0.407093 0.656285
O O4 0.783352 0.570673 0.795178
O O5 0.968994 0.955708 0.265157
O O6 0.525530 0.106009 0.119376
O O7 0.549825 0.908931 0.087678
O O8 0.027346 0.067009 0.209960
O O9 0.351767 0.863457 0.424261
O O10 0.205519 0.082170 0.395101
O O11 0.465196 0.207734 0.304317
O O12 0.029966 0.169742 0.423546
O O13 0.019525 0.277217 0.498875
O O14 0.298764 0.291405 0.438344
O O15 0.924684 0.342602 0.603561
O O16 0.000000 0.500000 0.500000
O O17 0.500000 0.000000 0.000000
#
# Coordination Sequence:
#
# PCOD8125361 Si02
#       8
#     4   4   4   4   4   4   4   4
#     4  10  20  40  62  90 128 164 212 265 324 384
#     4  10  21  42  64  93 128 163 220 274 311 382
#     4  10  23  44  65  92 132 177 218 261 331 408
#     4  11  20  36  65  92 126 167 212 263 320 387
#     4  11  22  42  66  92 131 180 213 266 341 396
#     4  11  21  37  63  95 124 164 214 262 326 379
#     4   9  19  37  61  89 124 159 204 265 315 369
#     4  10  20  38  62  93 121 159 213 272 319 375
#
# _framework density 21.454578000000001
#
# number of rings (size 3 to 8) (size 9 to 14) (size 15 to 20)
#    0.000    1.750    1.250    5.250    0.000    0.000 
#   18.000    0.625    0.000    0.000    0.000    0.000 
#    0.000    0.000    0.000    0.000    0.000    0.000 
#
# Total GULP energy -396543.159869 kJ/mol
# GULP energy per Si atom -12391.973746 kJ/mol
# Density = 2.140575 g / cm^3
# Si number density = 21.454578 Si / 1000 Ang^3
#
#
#
# Elastic Constant Matrix: (Units=GPa)
#
#
# Indices 1 2 3 4 5 6 
#
# 1 117.6886 23.8226 37.1425 0.0000 15.4540 0.0000
# 2 23.8226 71.9644 21.2297 0.0000 1.0429 0.0000
# 3 37.1425 21.2297 116.5882 0.0000 4.4597 0.0000
# 4 0.0000 0.0000 0.0000 35.0429 0.0000 4.3833
# 5 15.4540 1.0429 4.4597 0.0000 30.4066 0.0000
# 6 0.0000 0.0000 0.0000 4.3833 0.0000 23.8737
#
#
#
# Elastic Compliance Matrix: (Units=1/GPa)
#
#
# Indices 1 2 3 4 5 6 
#
# 1 0.010513 -0.002617 -0.002687 0.000000 -0.004859 0.000000
# 2 -0.002617 0.015336 -0.002001 0.000000 0.001098 0.000000
# 3 -0.002687 -0.002001 0.009798 0.000000 -0.000003 0.000000
# 4 0.000000 0.000000 0.000000 0.029207 0.000000 -0.005363
# 5 -0.004859 0.001098 -0.000003 0.000000 0.035320 0.000000
# 6 0.000000 0.000000 0.000000 -0.005363 0.000000 0.042872
#
#
# Mechanical properties :
#
#
# Convention : Reuss Voigt Hill
#
# Bulk Modulus (GPa) = 47.53427 52.29234 49.91330
# Shear Modulus (GPa) = 30.36422 32.80107 31.58264
#
# Velocity S-wave (km/s) = 3.76610 3.91431 3.84092
# Velocity P-wave (km/s) = 6.41212 6.69742 6.55632
#
# Compressibility (1/GPa) = 0.02103745
#
# Stress axis : x y z
#
# Youngs Moduli (GPa) = 95.12257 65.20414 102.06601
#
# Poissons Ratio (x) = 0.17064 0.27422
# Poissons Ratio (y) = 0.24894 0.20422
# Poissons Ratio (z) = 0.25557 0.13047
#
# Static dielectric constant tensor:
#      x y z
#    x 3.883340 0.000000 -0.048030 
#    y 0.000000 3.670980 0.000000 
#    z -0.048030 0.000000 4.385010 
# 
# 
# High freq. dielectric constant tensor:
#      x y z
#    x 1.839090 0.000000 0.014370 
#    y 0.000000 1.810520 0.000000 
#    z 0.014370 0.000000 1.852640 
# 
# From -- ./inp_files/79644.got.cif
#   From: 2010.03.12/outbox.cif.g09.slc.cpg/sg14_40_cif.got.tgz:79644.got - 2010.03.31 13:35:05.
