data_PCOD8125115
_publ_section_title
;
Structure prediction by ZEFSAII (Michael W. Deem and Ramdas Pophale) SiO2 
 PCOD8125115
Probable space group: P 21/C
;
_chemical_formula_sum "Si O2"
_cell_formula_units_Z 32
_cell_length_a 7.983734
_cell_length_b 20.535331
_cell_length_c 9.069632
_cell_angle_alpha 90.000000
_cell_angle_beta 87.999183
_cell_angle_gamma 90.000000
_cell_volume 1486.047101
_symmetry_space_group_name_H-M "P 21/C"
_symmetry_group_IT_number 14
_symmetry_cell_setting 'monoclinic'
loop_
_space_group_symop_operation_xyz
x,y,z
-x,1/2+y,1/2-z
-x,-y,-z
x,1/2-y,1/2+z
loop_
_atom_site_type_symbol
_atom_site_label
_atom_site_fract_x
_atom_site_fract_y
_atom_site_fract_z
Si Si1 0.206253 0.449712 0.901464
Si Si2 0.470880 0.782595 0.603855
Si Si3 0.511394 0.404227 0.709724
Si Si4 0.892621 0.295434 0.895004
Si Si5 0.631027 0.645381 0.560376
Si Si6 0.893121 0.718464 0.387174
Si Si7 0.689028 0.655292 0.873494
Si Si8 0.168844 0.563888 0.116951
O O1 0.205834 0.387238 0.011681
O O2 0.241613 0.513867 0.996284
O O3 0.357872 0.446897 0.779568
O O4 0.022365 0.455553 0.828836
O O5 0.515603 0.829086 0.740368
O O6 0.281385 0.758294 0.624013
O O7 0.577475 0.717955 0.606278
O O8 0.512064 0.824391 0.453979
O O9 0.497205 0.399987 0.530341
O O10 0.694773 0.431489 0.752615
O O11 0.996106 0.246990 0.987980
O O12 0.843000 0.365901 0.963445
O O13 0.990180 0.311133 0.742015
O O14 0.793851 0.655648 0.452237
O O15 0.664842 0.613836 0.721474
O O16 0.784560 0.778216 0.328351
#
# Coordination Sequence:
#
# PCOD8125115 Si02
#       8
#     4   4   4   4   4   4   4   4
#     4  10  20  40  64  80 113 150 207 253 277 336
#     4   9  21  34  55  82 118 153 194 237 287 354
#     4  10  21  37  58  84 117 153 199 239 292 347
#     4  11  22  35  56  89 118 144 191 245 291 348
#     4  11  21  35  55  84 120 159 184 234 300 364
#     4  11  21  35  56  84 119 153 189 233 299 354
#     4  10  20  37  56  84 114 160 192 234 298 350
#     4  10  21  37  62  88 106 153 205 247 283 333
#
# _framework density 21.533638
#
# number of rings (size 3 to 8) (size 9 to 14) (size 15 to 20)
#    0.000    1.750    2.500    2.625    7.000    0.000 
#    0.000    0.625    0.000    8.250    0.000    0.000 
#    0.000    0.000    0.000    0.000    0.000    0.000 
#
# Total GULP energy -396501.576876 kJ/mol
# GULP energy per Si atom -12390.674277 kJ/mol
# Density = 2.148463 g / cm^3
# Si number density = 21.533638 Si / 1000 Ang^3
#
#
#
# Elastic Constant Matrix: (Units=GPa)
#
#
# Indices 1 2 3 4 5 6 
#
# 1 123.0048 -8.8955 36.4266 0.0000 -0.9545 0.0000
# 2 -8.8955 34.1228 -14.5289 0.0000 -6.6471 0.0000
# 3 36.4266 -14.5289 91.3983 0.0000 2.9922 0.0000
# 4 0.0000 0.0000 0.0000 12.9938 0.0000 2.5051
# 5 -0.9545 -6.6471 2.9922 0.0000 23.2165 0.0000
# 6 0.0000 0.0000 0.0000 2.5051 0.0000 20.5404
#
#
#
# Elastic Compliance Matrix: (Units=1/GPa)
#
#
# Indices 1 2 3 4 5 6 
#
# 1 0.009273 0.001131 -0.003554 0.000000 0.001163 0.000000
# 2 0.001131 0.033288 0.004547 0.000000 0.008991 0.000000
# 3 -0.003554 0.004547 0.013098 0.000000 -0.000532 0.000000
# 4 0.000000 0.000000 0.000000 0.078813 0.000000 -0.009612
# 5 0.001163 0.008991 -0.000532 0.000000 0.045764 0.000000
# 6 0.000000 0.000000 0.000000 -0.009612 0.000000 0.049857
#
#
# Mechanical properties :
#
#
# Convention : Reuss Voigt Hill
#
# Bulk Modulus (GPa) = 16.69306 30.50336 23.59821
# Shear Modulus (GPa) = 20.34057 27.05171 23.69614
#
# Velocity S-wave (km/s) = 3.07676 3.54821 3.32086
# Velocity P-wave (km/s) = 4.51562 5.56620 5.06821
#
# Compressibility (1/GPa) = 0.05990515
#
# Stress axis : x y z
#
# Youngs Moduli (GPa) = 107.83917 30.04084 76.34885
#
# Poissons Ratio (x) = -0.03397 0.27135
# Poissons Ratio (y) = -0.12193 -0.34712
# Poissons Ratio (z) = 0.38327 -0.13658
#
# Static dielectric constant tensor:
#      x y z
#    x 4.104740 0.000000 -0.001010 
#    y 0.000000 3.676460 0.000000 
#    z -0.001010 0.000000 3.792170 
# 
# 
# High freq. dielectric constant tensor:
#      x y z
#    x 1.856980 0.000000 0.006620 
#    y 0.000000 1.818330 0.000000 
#    z 0.006620 0.000000 1.825940 
# 
# From -- ./inp_files/10234.got.cif
#   From: 2010.03.12/outbox.cif.g09.slc.cpg/sg14_6_cif.got.tgz:10234.got - 2010.03.31 13:35:05.
