data_PCOD8125030
_publ_section_title
;
Structure prediction by ZEFSAII (Michael W. Deem and Ramdas Pophale) SiO2 
 PCOD8125030
Probable space group: P 21/C
;
_chemical_formula_sum "Si O2"
_cell_formula_units_Z 24
_cell_length_a 9.283053
_cell_length_b 9.431230
_cell_length_c 20.037516
_cell_angle_alpha 90.000000
_cell_angle_beta 48.367566
_cell_angle_gamma 90.000000
_cell_volume 1311.200191
_symmetry_space_group_name_H-M "P 21/C"
_symmetry_group_IT_number 14
_symmetry_cell_setting 'monoclinic'
loop_
_space_group_symop_operation_xyz
x,y,z
-x,1/2+y,1/2-z
-x,-y,-z
x,1/2-y,1/2+z
loop_
_atom_site_type_symbol
_atom_site_label
_atom_site_fract_x
_atom_site_fract_y
_atom_site_fract_z
Si Si1 0.146923 0.414497 0.909971
Si Si2 0.050617 0.876239 0.033773
Si Si3 0.454510 0.462957 0.217136
Si Si4 0.847428 0.910815 0.744475
Si Si5 0.055243 0.404451 0.287794
Si Si6 0.433757 0.654339 0.345448
O O1 0.365505 0.446316 0.867025
O O2 0.124749 0.464546 0.840126
O O3 0.108016 0.247115 0.926526
O O4 0.000000 0.500000 0.000000
O O5 0.048836 0.934594 0.109619
O O6 0.262771 0.817969 0.950415
O O7 0.000000 0.000000 0.000000
O O8 0.274955 0.463892 0.221065
O O9 0.378893 0.531437 0.309480
O O10 0.519449 0.299839 0.208938
O O11 0.953154 0.762406 0.724036
O O12 0.620439 0.894963 0.829696
O O13 0.937100 0.025527 0.765282
#
# Coordination Sequence:
#
# PCOD8125030 Si02
#       6
#     4   4   4   4   4   4
#     4  10  20  38  61  84 112 148 191 238 285 338
#     4  11  21  36  59  90 117 144 194 244 281 335
#     4  10  20  36  60  85 115 150 193 234 286 340
#     4   9  22  37  56  82 115 153 189 231 290 339
#     4  10  21  39  57  81 118 151 191 236 286 343
#     4  10  20  36  59  85 116 151 190 238 285 339
#
# _framework density 18.303840000000001
#
# number of rings (size 3 to 8) (size 9 to 14) (size 15 to 20)
#    0.000    2.000    3.333    1.000    0.000    4.667 
#    0.000    0.833    0.000    0.000    0.000    0.000 
#    0.000    0.000    0.000    0.000    0.000    0.000 
#
# Total GULP energy -297579.529635 kJ/mol
# GULP energy per Si atom -12399.147068 kJ/mol
# Density = 1.826218 g / cm^3
# Si number density = 18.303840 Si / 1000 Ang^3
#
#
#
# Elastic Constant Matrix: (Units=GPa)
#
#
# Indices 1 2 3 4 5 6 
#
# 1 71.0824 39.2149 29.9495 0.0000 -7.6179 0.0000
# 2 39.2149 71.6531 25.5579 0.0000 3.1207 0.0000
# 3 29.9495 25.5579 108.2003 0.0000 -15.4446 0.0000
# 4 0.0000 0.0000 0.0000 29.7479 0.0000 3.2087
# 5 -7.6179 3.1207 -15.4446 0.0000 23.9694 0.0000
# 6 0.0000 0.0000 0.0000 3.2087 0.0000 36.7145
#
#
#
# Elastic Compliance Matrix: (Units=1/GPa)
#
#
# Indices 1 2 3 4 5 6 
#
# 1 0.022250 -0.011624 -0.002409 0.000000 0.007032 0.000000
# 2 -0.011624 0.021818 -0.003160 0.000000 -0.008571 0.000000
# 3 -0.002409 -0.003160 0.011679 0.000000 0.007171 0.000000
# 4 0.000000 0.000000 0.000000 0.033936 0.000000 -0.002966
# 5 0.007032 -0.008571 0.007171 0.000000 0.049691 0.000000
# 6 0.000000 0.000000 0.000000 -0.002966 0.000000 0.027496
#
#
# Mechanical properties :
#
#
# Convention : Reuss Voigt Hill
#
# Bulk Modulus (GPa) = 46.81366 48.93115 47.87240
# Shear Modulus (GPa) = 23.99515 28.50059 26.24787
#
# Velocity S-wave (km/s) = 3.62461 3.95027 3.79094
# Velocity P-wave (km/s) = 6.56875 6.89905 6.73593
#
# Compressibility (1/GPa) = 0.02136129
#
# Stress axis : x y z
#
# Youngs Moduli (GPa) = 44.94471 45.83375 85.62479
#
# Poissons Ratio (x) = 0.53277 0.20628
# Poissons Ratio (y) = 0.52243 0.27054
# Poissons Ratio (z) = 0.10828 0.14481
#
# Static dielectric constant tensor:
#      x y z
#    x 3.234150 0.000000 -0.289500 
#    y 0.000000 3.439530 0.000000 
#    z -0.289500 0.000000 3.763990 
# 
# 
# High freq. dielectric constant tensor:
#      x y z
#    x 1.689250 0.000000 -0.021580 
#    y 0.000000 1.717910 0.000000 
#    z -0.021580 0.000000 1.715500 
# 
# From -- ./inp_files/38935.got.cif
#   From: 2010.03.12/outbox.cif.g09.slc.cpg/sg14_20_cif.got.tgz:38935.got - 2010.03.31 13:35:05.
