data_PCOD8125791
_publ_section_title
;
Structure prediction by ZEFSAII (Michael W. Deem and Ramdas Pophale) SiO2 
 PCOD8125791
Probable space group: P 21/C
;
_chemical_formula_sum "Si O2"
_cell_formula_units_Z 32
_cell_length_a 14.002403
_cell_length_b 9.363715
_cell_length_c 11.150401
_cell_angle_alpha 90.000000
_cell_angle_beta 96.169005
_cell_angle_gamma 90.000000
_cell_volume 1453.513406
_symmetry_space_group_name_H-M "P 21/C"
_symmetry_group_IT_number 14
_symmetry_cell_setting 'monoclinic'
loop_
_space_group_symop_operation_xyz
x,y,z
-x,1/2+y,1/2-z
-x,-y,-z
x,1/2-y,1/2+z
loop_
_atom_site_type_symbol
_atom_site_label
_atom_site_fract_x
_atom_site_fract_y
_atom_site_fract_z
Si Si1 0.778692 0.914981 0.429915
Si Si2 0.065030 0.430324 0.252261
Si Si3 0.373476 0.431485 0.385636
Si Si4 0.737835 0.273231 0.889020
Si Si5 0.889174 0.622259 0.186031
Si Si6 0.296336 0.313271 0.732771
Si Si7 0.206741 0.649074 0.353970
Si Si8 0.581625 0.461061 0.354946
O O1 0.818968 0.893343 0.565533
O O2 0.703992 0.789928 0.383945
O O3 0.871763 0.920454 0.357751
O O4 0.717617 0.060153 0.408290
O O5 0.053226 0.273271 0.309802
O O6 0.116508 0.541055 0.349591
O O7 0.959756 0.488301 0.205371
O O8 0.316463 0.284772 0.352406
O O9 0.306335 0.565193 0.346696
O O10 0.469468 0.433832 0.315680
O O11 0.404811 0.439210 0.527079
O O12 0.796223 0.251846 0.768790
O O13 0.637308 0.188962 0.870600
O O14 0.797161 0.225862 0.016961
O O15 0.811700 0.621156 0.283188
O O16 0.373462 0.440679 0.743301
#
# Coordination Sequence:
#
# PCOD8125791 Si02
#       8
#     4   4   4   4   4   4   4   4
#     4  10  22  41  64  86 132 172 203 267 327 377
#     4  10  23  42  62  90 125 169 212 264 325 379
#     4  10  20  44  62  86 134 168 206 266 337 376
#     4  10  22  39  66  94 129 168 217 263 324 385
#     4  11  23  40  63  91 124 167 214 260 322 384
#     4  11  22  40  64  94 126 164 213 269 323 382
#     4  10  21  43  64  93 131 174 211 272 327 382
#     4  10  24  37  67  94 122 171 218 262 319 395
#
# _framework density 22.015619000000001
#
# number of rings (size 3 to 8) (size 9 to 14) (size 15 to 20)
#    0.000    1.750    3.750    1.125    7.000    1.000 
#    2.250    2.500    0.000    5.250    0.000    0.000 
#    0.000    0.000    0.000    0.000    0.000    0.000 
#
# Total GULP energy -396540.253855 kJ/mol
# GULP energy per Si atom -12391.882933 kJ/mol
# Density = 2.196551 g / cm^3
# Si number density = 22.015619 Si / 1000 Ang^3
#
#
#
# Elastic Constant Matrix: (Units=GPa)
#
#
# Indices 1 2 3 4 5 6 
#
# 1 70.5142 19.9058 -5.0623 0.0000 1.7530 0.0000
# 2 19.9058 76.3511 9.0585 0.0000 -5.6400 0.0000
# 3 -5.0623 9.0585 80.8779 0.0000 8.8485 0.0000
# 4 0.0000 0.0000 0.0000 31.8033 0.0000 1.0075
# 5 1.7530 -5.6400 8.8485 0.0000 23.7901 0.0000
# 6 0.0000 0.0000 0.0000 1.0075 0.0000 34.5491
#
#
#
# Elastic Compliance Matrix: (Units=1/GPa)
#
#
# Indices 1 2 3 4 5 6 
#
# 1 0.015656 -0.004509 0.001801 0.000000 -0.002893 0.000000
# 2 -0.004509 0.014921 -0.002478 0.000000 0.004791 0.000000
# 3 0.001801 -0.002478 0.013378 0.000000 -0.005696 0.000000
# 4 0.000000 0.000000 0.000000 0.031472 0.000000 -0.000918
# 5 -0.002893 0.004791 -0.005696 0.000000 0.045502 0.000000
# 6 0.000000 0.000000 0.000000 -0.000918 0.000000 0.028971
#
#
# Mechanical properties :
#
#
# Convention : Reuss Voigt Hill
#
# Bulk Modulus (GPa) = 29.77628 30.61636 30.19632
# Shear Modulus (GPa) = 29.16057 31.61792 30.38925
#
# Velocity S-wave (km/s) = 3.64337 3.79378 3.71934
# Velocity P-wave (km/s) = 5.59047 5.75562 5.67365
#
# Compressibility (1/GPa) = 0.03358377
#
# Stress axis : x y z
#
# Youngs Moduli (GPa) = 63.87463 67.02044 74.75123
#
# Poissons Ratio (x) = 0.30220 -0.13466
# Poissons Ratio (y) = 0.28801 0.18520
# Poissons Ratio (z) = -0.11506 0.16605
#
# Static dielectric constant tensor:
#      x y z
#    x 3.873380 0.000000 0.074000 
#    y 0.000000 4.100660 0.000000 
#    z 0.074000 0.000000 4.046170 
# 
# 
# High freq. dielectric constant tensor:
#      x y z
#    x 1.852130 0.000000 0.008240 
#    y 0.000000 1.870840 0.000000 
#    z 0.008240 0.000000 1.858110 
# 
# From -- ./inp_files/31836.got.cif
#   From: 2010.03.12/outbox.cif.g09.slc.cpg/sg14_16_cif.got.tgz:31836.got - 2010.03.31 13:35:05.
