data_PCOD8125612
_publ_section_title
;
Structure prediction by ZEFSAII (Michael W. Deem and Ramdas Pophale) SiO2 
 PCOD8125612
Probable space group: P 21/C
;
_chemical_formula_sum "Si O2"
_cell_formula_units_Z 32
_cell_length_a 12.441896
_cell_length_b 5.187923
_cell_length_c 22.845255
_cell_angle_alpha 90.000000
_cell_angle_beta 113.819224
_cell_angle_gamma 90.000000
_cell_volume 1349.005597
_symmetry_space_group_name_H-M "P 21/C"
_symmetry_group_IT_number 14
_symmetry_cell_setting 'monoclinic'
loop_
_space_group_symop_operation_xyz
x,y,z
-x,1/2+y,1/2-z
-x,-y,-z
x,1/2-y,1/2+z
loop_
_atom_site_type_symbol
_atom_site_label
_atom_site_fract_x
_atom_site_fract_y
_atom_site_fract_z
Si Si1 0.399747 0.878578 0.651708
Si Si2 0.717964 0.579002 0.074389
Si Si3 0.208310 0.926981 0.054902
Si Si4 0.864089 0.084662 0.082768
Si Si5 0.871331 0.610656 0.341915
Si Si6 0.397972 0.090719 0.860192
Si Si7 0.258045 0.607802 0.227916
Si Si8 0.580408 0.743980 0.441477
O O1 0.267937 0.819101 0.598294
O O2 0.497377 0.660143 0.662255
O O3 0.378473 0.915878 0.716094
O O4 0.441243 0.130331 0.626920
O O5 0.781507 0.303416 0.093798
O O6 0.652861 0.650484 0.120886
O O7 0.813058 0.801063 0.082688
O O8 0.615073 0.562218 0.001767
O O9 0.150795 0.099703 0.092963
O O10 0.309981 0.056692 0.039207
O O11 0.117038 0.854236 0.982967
O O12 0.990968 0.087067 0.141049
O O13 0.800589 0.388817 0.291452
O O14 0.833092 0.888316 0.310717
O O15 0.295648 0.938660 0.803381
O O16 0.457133 0.910900 0.924413
#
# Coordination Sequence:
#
# PCOD8125612 Si02
#       8
#     4   4   4   4   4   4   4   4
#     4  10  21  38  64  95 134 169 210 271 336 405
#     4  11  25  44  65 101 135 174 228 276 326 413
#     4   9  19  38  61 103 133 166 209 278 344 407
#     4  11  23  42  69  96 133 175 225 281 338 390
#     4  11  23  43  68  96 132 174 225 283 339 389
#     4  11  27  40  67  94 135 187 219 270 338 400
#     4  11  26  43  65  99 134 172 230 279 327 409
#     4  10  20  40  64  98 136 169 214 272 340 401
#
# _framework density 23.721177000000001
#
# number of rings (size 3 to 8) (size 9 to 14) (size 15 to 20)
#    0.000    1.500    2.500    1.500    5.250    0.500 
#    0.000    6.250    0.000    0.000    0.000    0.000 
#    0.000    0.000    0.000    0.000    0.000    0.000 
#
# Total GULP energy -396635.150026 kJ/mol
# GULP energy per Si atom -12394.848438 kJ/mol
# Density = 2.366719 g / cm^3
# Si number density = 23.721177 Si / 1000 Ang^3
#
#
#
# Elastic Constant Matrix: (Units=GPa)
#
#
# Indices 1 2 3 4 5 6 
#
# 1 77.9268 -0.7824 27.0557 0.0000 15.2689 0.0000
# 2 -0.7824 58.7589 1.3953 0.0000 7.3483 0.0000
# 3 27.0557 1.3953 81.8991 0.0000 5.5164 0.0000
# 4 0.0000 0.0000 0.0000 19.8942 0.0000 -5.2782
# 5 15.2689 7.3483 5.5164 0.0000 23.7587 0.0000
# 6 0.0000 0.0000 0.0000 -5.2782 0.0000 30.2610
#
#
#
# Elastic Compliance Matrix: (Units=1/GPa)
#
#
# Indices 1 2 3 4 5 6 
#
# 1 0.016464 0.001578 -0.004795 0.000000 -0.009956 0.000000
# 2 0.001578 0.017855 -0.000391 0.000000 -0.006446 0.000000
# 3 -0.004795 -0.000391 0.013801 0.000000 -0.000002 0.000000
# 4 0.000000 0.000000 0.000000 0.052705 0.000000 0.009193
# 5 -0.009956 -0.006446 -0.000002 0.000000 0.050482 0.000000
# 6 0.000000 0.000000 0.000000 0.009193 0.000000 0.034649
#
#
# Mechanical properties :
#
#
# Convention : Reuss Voigt Hill
#
# Bulk Modulus (GPa) = 24.44805 30.43580 27.44192
# Shear Modulus (GPa) = 24.17706 27.51053 25.84380
#
# Velocity S-wave (km/s) = 3.19598 3.40920 3.30431
# Velocity P-wave (km/s) = 4.89366 5.32497 5.11386
#
# Compressibility (1/GPa) = 0.04090306
#
# Stress axis : x y z
#
# Youngs Moduli (GPa) = 60.73871 56.00642 72.45823
#
# Poissons Ratio (x) = -0.08838 0.34746
# Poissons Ratio (y) = -0.09585 0.02836
# Poissons Ratio (z) = 0.29126 0.02192
#
# Static dielectric constant tensor:
#      x y z
#    x 4.106870 0.000000 0.027030 
#    y 0.000000 4.075570 0.000000 
#    z 0.027030 0.000000 4.304460 
# 
# 
# High freq. dielectric constant tensor:
#      x y z
#    x 1.928100 0.000000 0.004390 
#    y 0.000000 1.937920 0.000000 
#    z 0.004390 0.000000 1.933290 
# 
# From -- ./inp_files/72785.got.cif
#   From: 2010.03.12/outbox.cif.g09.slc.cpg/sg14_37_cif.got.tgz:72785.got - 2010.03.31 13:35:05.
