data_PCOD8125646
_publ_section_title
;
Structure prediction by ZEFSAII (Michael W. Deem and Ramdas Pophale) SiO2 
 PCOD8125646
Probable space group: P 21/C
;
_chemical_formula_sum "Si O2"
_cell_formula_units_Z 16
_cell_length_a 12.504393
_cell_length_b 11.911394
_cell_length_c 14.511326
_cell_angle_alpha 90.000000
_cell_angle_beta 160.583522
_cell_angle_gamma 90.000000
_cell_volume 718.514652
_symmetry_space_group_name_H-M "P 21/C"
_symmetry_group_IT_number 14
_symmetry_cell_setting 'monoclinic'
loop_
_space_group_symop_operation_xyz
x,y,z
-x,1/2+y,1/2-z
-x,-y,-z
x,1/2-y,1/2+z
loop_
_atom_site_type_symbol
_atom_site_label
_atom_site_fract_x
_atom_site_fract_y
_atom_site_fract_z
Si Si1 0.192921 0.385052 0.653464
Si Si2 0.659773 0.993164 0.413824
Si Si3 0.385934 0.045873 0.004358
Si Si4 0.533806 0.301484 0.111716
O O1 0.462876 0.398902 0.793788
O O2 0.000000 0.500000 0.500000
O O3 0.922557 0.290446 0.411617
O O4 0.369952 0.362786 0.892871
O O5 0.619938 0.992957 0.271309
O O6 0.533562 0.875599 0.352182
O O7 0.030578 0.005547 0.740653
O O8 0.388201 0.179742 0.007050
O O9 0.500000 0.000000 0.000000
#
# Coordination Sequence:
#
# PCOD8125646 Si02
#       4
#     4   4   4   4
#     4  10  20  40  67  96 121 157 216 267 305 371
#     4  11  23  43  66  93 124 170 218 255 308 386
#     4  12  27  43  61  96 135 167 209 261 317 379
#     4  11  23  42  67  95 127 166 209 267 322 364
#
# _framework density 22.268162
#
# number of rings (size 3 to 8) (size 9 to 14) (size 15 to 20)
#    0.000    1.000    0.000    9.750    0.000    6.000 
#    0.000    0.000    0.000    0.000    0.000    0.000 
#    0.000    0.000    0.000    0.000    0.000    0.000 
#
# Total GULP energy -198447.109931 kJ/mol
# GULP energy per Si atom -12402.944371 kJ/mol
# Density = 2.221748 g / cm^3
# Si number density = 22.268162 Si / 1000 Ang^3
#
#
#
# Elastic Constant Matrix: (Units=GPa)
#
#
# Indices 1 2 3 4 5 6 
#
# 1 124.1534 49.7360 20.4993 0.0000 -21.3028 0.0000
# 2 49.7360 108.9960 18.1884 0.0000 -1.5812 0.0000
# 3 20.4993 18.1884 89.3042 0.0000 -0.1384 0.0000
# 4 0.0000 0.0000 0.0000 18.1789 0.0000 -1.4765
# 5 -21.3028 -1.5812 -0.1384 0.0000 53.6437 0.0000
# 6 0.0000 0.0000 0.0000 -1.4765 0.0000 24.3675
#
#
#
# Elastic Compliance Matrix: (Units=1/GPa)
#
#
# Indices 1 2 3 4 5 6 
#
# 1 0.010891 -0.004651 -0.001546 0.000000 0.004184 0.000000
# 2 -0.004651 0.011488 -0.001274 0.000000 -0.001512 0.000000
# 3 -0.001546 -0.001274 0.011811 0.000000 -0.000621 0.000000
# 4 0.000000 0.000000 0.000000 0.055281 0.000000 0.003350
# 5 0.004184 -0.001512 -0.000621 0.000000 0.020257 0.000000
# 6 0.000000 0.000000 0.000000 0.003350 0.000000 0.041241
#
#
# Mechanical properties :
#
#
# Convention : Reuss Voigt Hill
#
# Bulk Modulus (GPa) = 51.95710 55.47788 53.71749
# Shear Modulus (GPa) = 29.01458 34.84003 31.92731
#
# Velocity S-wave (km/s) = 3.61357 3.95975 3.79062
# Velocity P-wave (km/s) = 6.38699 6.77302 6.58284
#
# Compressibility (1/GPa) = 0.01924665
#
# Stress axis : x y z
#
# Youngs Moduli (GPa) = 91.81982 87.05012 84.66542
#
# Poissons Ratio (x) = 0.40486 0.13091
# Poissons Ratio (y) = 0.42705 0.10790
# Poissons Ratio (z) = 0.14197 0.11094
#
# Static dielectric constant tensor:
#      x y z
#    x 4.086330 0.000000 0.151360 
#    y 0.000000 4.042200 0.000000 
#    z 0.151360 0.000000 4.885910 
# 
# 
# High freq. dielectric constant tensor:
#      x y z
#    x 1.881330 0.000000 -0.003460 
#    y 0.000000 1.860530 0.000000 
#    z -0.003460 0.000000 1.902970 
# 
# From -- ./inp_files/20466.got.cif
#   From: 2010.03.12/outbox.cif.g09.slc.cpg/sg14_11_cif.got.tgz:20466.got - 2010.03.31 13:35:05.
