data_PCOD8125563
_publ_section_title
;
Structure prediction by ZEFSAII (Michael W. Deem and Ramdas Pophale) SiO2 
 PCOD8125563
Probable space group: P 21/C
;
_chemical_formula_sum "Si O2"
_cell_formula_units_Z 28
_cell_length_a 12.110532
_cell_length_b 8.818546
_cell_length_c 27.246852
_cell_angle_alpha 90.000000
_cell_angle_beta 152.726741
_cell_angle_gamma 90.000000
_cell_volume 1333.412675
_symmetry_space_group_name_H-M "P 21/C"
_symmetry_group_IT_number 14
_symmetry_cell_setting 'monoclinic'
loop_
_space_group_symop_operation_xyz
x,y,z
-x,1/2+y,1/2-z
-x,-y,-z
x,1/2-y,1/2+z
loop_
_atom_site_type_symbol
_atom_site_label
_atom_site_fract_x
_atom_site_fract_y
_atom_site_fract_z
Si Si1 0.673438 0.488589 0.501512
Si Si2 0.042380 0.818557 0.208514
Si Si3 0.173753 0.383379 0.092880
Si Si4 0.685989 0.443808 0.266278
Si Si5 0.129572 0.475240 0.267763
Si Si6 0.059960 0.252315 0.150948
Si Si7 0.097960 0.107771 0.997900
O O1 0.387595 0.485331 0.398322
O O2 0.807356 0.620021 0.585884
O O3 0.799447 0.323744 0.560510
O O4 0.695449 0.526362 0.452295
O O5 0.291319 0.858659 0.277625
O O6 0.028062 0.637988 0.210999
O O7 0.054727 0.903787 0.265723
O O8 0.441074 0.450858 0.200290
O O9 0.058042 0.344656 0.099430
O O10 0.000000 0.500000 0.000000
O O11 0.211623 0.248826 0.069707
O O12 0.749446 0.618545 0.281474
O O13 0.875480 0.351999 0.374598
O O14 0.144374 0.363611 0.227249
O O15 0.000000 0.000000 0.000000
#
# Coordination Sequence:
#
# PCOD8125563 Si02
#       7
#     4   4   4   4   4   4   4
#     4  10  23  44  69  93 134 172 218 261 337 383
#     4  10  23  45  66 101 120 174 222 264 328 399
#     4  12  26  36  65  98 130 164 224 259 320 384
#     4  10  24  42  64  89 137 166 216 264 320 382
#     4  12  24  44  73  90 137 168 216 281 329 379
#     4  10  25  42  62 101 127 175 221 258 327 401
#     4  10  20  40  60  89 129 174 202 255 319 382
#
# _framework density 20.998750999999999
#
# number of rings (size 3 to 8) (size 9 to 14) (size 15 to 20)
#    0.000    1.714    2.857    3.000   10.000    0.000 
#    0.000    1.429    0.000    0.000    0.000    0.000 
#    0.000    0.000    0.000    0.000    0.000    0.000 
#
# Total GULP energy -347001.572443 kJ/mol
# GULP energy per Si atom -12392.913302 kJ/mol
# Density = 2.095096 g / cm^3
# Si number density = 20.998751 Si / 1000 Ang^3
#
#
#
# Elastic Constant Matrix: (Units=GPa)
#
#
# Indices 1 2 3 4 5 6 
#
# 1 88.7782 28.3491 24.4037 0.0000 -6.6598 0.0000
# 2 28.3491 99.0039 28.9367 0.0000 -14.6769 0.0000
# 3 24.4037 28.9367 78.3595 0.0000 3.5436 0.0000
# 4 0.0000 0.0000 0.0000 31.6019 0.0000 -10.8892
# 5 -6.6598 -14.6769 3.5436 0.0000 33.9137 0.0000
# 6 0.0000 0.0000 0.0000 -10.8892 0.0000 32.5475
#
#
#
# Elastic Compliance Matrix: (Units=1/GPa)
#
#
# Indices 1 2 3 4 5 6 
#
# 1 0.013097 -0.002540 -0.003223 0.000000 0.001809 0.000000
# 2 -0.002540 0.012877 -0.004214 0.000000 0.005514 0.000000
# 3 -0.003223 -0.004214 0.015506 0.000000 -0.004076 0.000000
# 4 0.000000 0.000000 0.000000 0.035767 0.000000 0.011966
# 5 0.001809 0.005514 -0.004076 0.000000 0.032654 0.000000
# 6 0.000000 0.000000 0.000000 0.011966 0.000000 0.034728
#
#
# Mechanical properties :
#
#
# Convention : Reuss Voigt Hill
#
# Bulk Modulus (GPa) = 46.45332 47.72450 47.08891
# Shear Modulus (GPa) = 29.11102 31.90942 30.51022
#
# Velocity S-wave (km/s) = 3.72737 3.90242 3.81590
# Velocity P-wave (km/s) = 6.37921 6.56367 6.47210
#
# Compressibility (1/GPa) = 0.02152699
#
# Stress axis : x y z
#
# Youngs Moduli (GPa) = 76.35518 77.65832 64.49272
#
# Poissons Ratio (x) = 0.19726 0.20783
# Poissons Ratio (y) = 0.19395 0.27174
# Poissons Ratio (z) = 0.24606 0.32721
#
# Static dielectric constant tensor:
#      x y z
#    x 2.683180 0.000000 -0.227940 
#    y 0.000000 3.720430 0.000000 
#    z -0.227940 0.000000 4.186100 
# 
# 
# High freq. dielectric constant tensor:
#      x y z
#    x 1.847090 0.000000 -0.010240 
#    y 0.000000 1.822630 0.000000 
#    z -0.010240 0.000000 1.800480 
# 
# From -- ./inp_files/77153.got.cif
#   From: 2010.03.12/outbox.cif.g09.slc.cpg/sg14_39_cif.got.tgz:77153.got - 2010.03.31 13:35:05.
