data_PCOD8125040
_publ_section_title
;
Structure prediction by ZEFSAII (Michael W. Deem and Ramdas Pophale) SiO2 
 PCOD8125040
Probable space group: P 21/C
;
_chemical_formula_sum "Si O2"
_cell_formula_units_Z 28
_cell_length_a 13.204018
_cell_length_b 5.152782
_cell_length_c 22.056963
_cell_angle_alpha 90.000000
_cell_angle_beta 68.493153
_cell_angle_gamma 90.000000
_cell_volume 1396.210971
_symmetry_space_group_name_H-M "P 21/C"
_symmetry_group_IT_number 14
_symmetry_cell_setting 'monoclinic'
loop_
_space_group_symop_operation_xyz
x,y,z
-x,1/2+y,1/2-z
-x,-y,-z
x,1/2-y,1/2+z
loop_
_atom_site_type_symbol
_atom_site_label
_atom_site_fract_x
_atom_site_fract_y
_atom_site_fract_z
Si Si1 0.669540 0.445088 0.496977
Si Si2 0.601159 0.540004 0.079540
Si Si3 0.367751 0.634659 0.102938
Si Si4 0.428997 0.077133 0.276264
Si Si5 0.253804 0.533982 0.721503
Si Si6 0.979519 0.152672 0.715146
Si Si7 0.809460 0.744286 0.386648
O O1 0.619353 0.685669 0.543495
O O2 0.601634 0.369863 0.450467
O O3 0.788542 0.531893 0.444218
O O4 0.676845 0.195745 0.539743
O O5 0.474856 0.464146 0.093676
O O6 0.622430 0.577136 0.145730
O O7 0.321868 0.729244 0.177539
O O8 0.276523 0.477177 0.084860
O O9 0.484442 0.803160 0.250729
O O10 0.329690 0.120793 0.251523
O O11 0.213908 0.351520 0.676258
O O12 0.145178 0.629715 0.780774
O O13 0.063000 0.176985 0.639677
O O14 0.981643 0.402879 0.756916
#
# Coordination Sequence:
#
# PCOD8125040 Si02
#       7
#     4   4   4   4   4   4   4
#     4  11  24  37  57  87 117 158 197 241 298 347
#     4  12  24  37  57  85 121 158 200 233 288 363
#     4  11  20  37  60  86 123 150 193 249 299 353
#     4  12  25  42  61  85 123 165 199 240 290 359
#     4  10  22  37  61  91 121 157 197 247 303 356
#     4  10  20  36  59  90 119 151 193 250 311 353
#     4  10  21  37  62  89 121 150 195 254 304 351
#
# _framework density 20.054273999999999
#
# number of rings (size 3 to 8) (size 9 to 14) (size 15 to 20)
#    0.000    1.143    4.286    2.571    4.000    0.000 
#    0.000    0.000    0.000    1.714    0.000    0.000 
#    0.000    0.000    0.000    0.000    0.000    0.000 
#
# Total GULP energy -347015.961466 kJ/mol
# GULP energy per Si atom -12393.427195 kJ/mol
# Density = 2.000863 g / cm^3
# Si number density = 20.054274 Si / 1000 Ang^3
#
#
#
# Elastic Constant Matrix: (Units=GPa)
#
#
# Indices 1 2 3 4 5 6 
#
# 1 76.0166 26.9436 40.6410 0.0000 -10.0153 0.0000
# 2 26.9436 118.3610 24.6465 0.0000 -12.0892 0.0000
# 3 40.6410 24.6465 126.6589 0.0000 -6.4348 0.0000
# 4 0.0000 0.0000 0.0000 34.0296 0.0000 -4.5762
# 5 -10.0153 -12.0892 -6.4348 0.0000 19.1674 0.0000
# 6 0.0000 0.0000 0.0000 -4.5762 0.0000 16.1871
#
#
#
# Elastic Compliance Matrix: (Units=1/GPa)
#
#
# Indices 1 2 3 4 5 6 
#
# 1 0.017339 -0.002336 -0.004806 0.000000 0.005973 0.000000
# 2 -0.002336 0.009632 -0.000893 0.000000 0.004554 0.000000
# 3 -0.004806 -0.000893 0.009619 0.000000 0.000155 0.000000
# 4 0.000000 0.000000 0.000000 0.030548 0.000000 0.008636
# 5 0.005973 0.004554 0.000155 0.000000 0.058217 0.000000
# 6 0.000000 0.000000 0.000000 0.008636 0.000000 0.064219
#
#
# Mechanical properties :
#
#
# Convention : Reuss Voigt Hill
#
# Bulk Modulus (GPa) = 48.73366 56.16652 52.45009
# Shear Modulus (GPa) = 23.53118 29.13051 26.33084
#
# Velocity S-wave (km/s) = 3.42917 3.81541 3.62744
# Velocity P-wave (km/s) = 6.32713 6.89042 6.61477
#
# Compressibility (1/GPa) = 0.02051970
#
# Stress axis : x y z
#
# Youngs Moduli (GPa) = 57.67230 103.82356 103.96243
#
# Poissons Ratio (x) = 0.24257 0.49960
# Poissons Ratio (y) = 0.13474 0.09286
# Poissons Ratio (z) = 0.27715 0.09273
#
# Static dielectric constant tensor:
#      x y z
#    x 3.547580 0.000000 -0.383640 
#    y 0.000000 3.726240 0.000000 
#    z -0.383640 0.000000 3.913540 
# 
# 
# High freq. dielectric constant tensor:
#      x y z
#    x 1.737410 0.000000 -0.030720 
#    y 0.000000 1.797110 0.000000 
#    z -0.030720 0.000000 1.784940 
# 
# From -- ./inp_files/66449.got.cif
#   From: 2010.03.12/outbox.cif.g09.slc.cpg/sg14_34_cif.got.tgz:66449.got - 2010.03.31 13:35:05.
