data_PCOD8125024
_publ_section_title
;
Structure prediction by ZEFSAII (Michael W. Deem and Ramdas Pophale) SiO2 
 PCOD8125024
Probable space group: P 21/C
;
_chemical_formula_sum "Si O2"
_cell_formula_units_Z 28
_cell_length_a 11.356729
_cell_length_b 15.524979
_cell_length_c 8.917614
_cell_angle_alpha 90.000000
_cell_angle_beta 116.258106
_cell_angle_gamma 90.000000
_cell_volume 1410.046624
_symmetry_space_group_name_H-M "P 21/C"
_symmetry_group_IT_number 14
_symmetry_cell_setting 'monoclinic'
loop_
_space_group_symop_operation_xyz
x,y,z
-x,1/2+y,1/2-z
-x,-y,-z
x,1/2-y,1/2+z
loop_
_atom_site_type_symbol
_atom_site_label
_atom_site_fract_x
_atom_site_fract_y
_atom_site_fract_z
Si Si1 0.345092 0.689562 0.339857
Si Si2 0.475681 0.265510 0.808355
Si Si3 0.706064 0.715229 0.043472
Si Si4 0.875898 0.616855 0.669878
Si Si5 0.897200 0.197896 0.883521
Si Si6 0.150655 0.570655 0.366198
Si Si7 0.057164 0.133812 0.466571
O O1 0.445599 0.708408 0.529480
O O2 0.423600 0.674063 0.227773
O O3 0.240178 0.768334 0.263888
O O4 0.278018 0.599801 0.344555
O O5 0.402923 0.204786 0.647156
O O6 0.361140 0.314390 0.837356
O O7 0.761126 0.813481 0.080517
O O8 0.824715 0.651705 0.081280
O O9 0.833577 0.527019 0.564880
O O10 0.018857 0.645639 0.691329
O O11 0.887973 0.591784 0.851691
O O12 0.983417 0.279750 0.981370
O O13 0.871875 0.138188 0.012610
O O14 0.032257 0.570709 0.180264
#
# Coordination Sequence:
#
# PCOD8125024 Si02
#       7
#     4   4   4   4   4   4   4
#     4  10  20  37  62  82 110 144 201 226 267 332
#     4  10  20  36  60  83 102 153 194 238 256 318
#     4  10  20  37  62  82 110 144 201 226 267 332
#     4  11  22  36  57  88 118 143 175 238 295 327
#     4  10  20  36  59  84 110 147 190 226 272 339
#     4  11  22  36  57  88 118 143 175 238 295 327
#     4  10  20  36  59  84 110 147 190 226 272 339
#
# _framework density 19.857499000000001
#
# number of rings (size 3 to 8) (size 9 to 14) (size 15 to 20)
#    0.000    1.714    2.857    3.429    4.000    0.000 
#    0.000    2.857    0.000    1.714    0.000    0.000 
#    0.000    0.000    0.000    0.000    0.000    0.000 
#
# Total GULP energy -347040.952293 kJ/mol
# GULP energy per Si atom -12394.319725 kJ/mol
# Density = 1.981230 g / cm^3
# Si number density = 19.857499 Si / 1000 Ang^3
#
#
#
# Elastic Constant Matrix: (Units=GPa)
#
#
# Indices 1 2 3 4 5 6 
#
# 1 157.8194 36.2174 27.7514 0.0000 -16.9836 0.0000
# 2 36.2174 78.3103 7.6881 0.0000 -4.2812 0.0000
# 3 27.7514 7.6881 85.1197 0.0000 -2.0933 0.0000
# 4 0.0000 0.0000 0.0000 17.1118 0.0000 -2.9539
# 5 -16.9836 -4.2812 -2.0933 0.0000 34.6236 0.0000
# 6 0.0000 0.0000 0.0000 -2.9539 0.0000 -0.2973
#
#
#
# Elastic Compliance Matrix: (Units=1/GPa)
#
#
# Indices 1 2 3 4 5 6 
#
# 1 0.007813 -0.003219 -0.002175 0.000000 0.003303 0.000000
# 2 -0.003219 0.014291 -0.000237 0.000000 0.000174 0.000000
# 3 -0.002175 -0.000237 0.012470 0.000000 -0.000342 0.000000
# 4 0.000000 0.000000 0.000000 0.021525 0.000000 -0.213839
# 5 0.003303 0.000174 -0.000342 0.000000 0.030503 0.000000
# 6 0.000000 0.000000 0.000000 -0.213839 0.000000 -1.238742
#
#
# Mechanical properties :
#
#
# Convention : Reuss Voigt Hill
#
# Bulk Modulus (GPa) = 42.89693 51.61813 47.25753
# Shear Modulus (GPa) = -4.41265 26.92713 11.25724
#
# Velocity S-wave (km/s) = -1.49231 3.68641 2.38355
# Velocity P-wave (km/s) = 4.32203 6.64607 5.60581
#
# Compressibility (1/GPa) = 0.02331169
#
# Stress axis : x y z
#
# Youngs Moduli (GPa) = 127.99032 69.97234 80.19025
#
# Poissons Ratio (x) = 0.22526 0.17444
# Poissons Ratio (y) = 0.41204 0.01900
# Poissons Ratio (z) = 0.27842 0.01658
#
# Static dielectric constant tensor:
#      x y z
#    x 4.119860 0.000000 -0.081790 
#    y 0.000000 3.185940 0.000000 
#    z -0.081790 0.000000 3.629660 
# 
# 
# High freq. dielectric constant tensor:
#      x y z
#    x 1.796160 0.000000 -0.005980 
#    y 0.000000 1.727250 0.000000 
#    z -0.005980 0.000000 1.782960 
# 
# From -- ./inp_files/12982.got.cif
#   From: 2010.03.12/outbox.cif.g09.slc.cpg/sg14_7_cif.got.tgz:12982.got - 2010.03.31 13:35:05.
