data_PCOD8125206
_publ_section_title
;
Structure prediction by ZEFSAII (Michael W. Deem and Ramdas Pophale) SiO2 
 PCOD8125206
Probable space group: P 21/C
;
_chemical_formula_sum "Si O2"
_cell_formula_units_Z 32
_cell_length_a 20.570434
_cell_length_b 12.183245
_cell_length_c 9.982241
_cell_angle_alpha 90.000000
_cell_angle_beta 35.660464
_cell_angle_gamma 90.000000
_cell_volume 1458.440333
_symmetry_space_group_name_H-M "P 21/C"
_symmetry_group_IT_number 14
_symmetry_cell_setting 'monoclinic'
loop_
_space_group_symop_operation_xyz
x,y,z
-x,1/2+y,1/2-z
-x,-y,-z
x,1/2-y,1/2+z
loop_
_atom_site_type_symbol
_atom_site_label
_atom_site_fract_x
_atom_site_fract_y
_atom_site_fract_z
Si Si1 0.715357 0.756732 0.833916
Si Si2 0.102597 0.734711 0.396136
Si Si3 0.464551 0.446622 0.358027
Si Si4 0.369483 0.620169 0.688500
Si Si5 0.861972 0.709120 0.838878
Si Si6 0.237010 0.826717 0.933326
Si Si7 0.660940 0.517799 0.873686
Si Si8 0.824639 0.475598 0.843715
O O1 0.765014 0.739510 0.898087
O O2 0.817286 0.780613 0.563990
O O3 0.653393 0.649791 0.874024
O O4 0.632108 0.857467 0.995604
O O5 0.152077 0.710907 0.459396
O O6 0.091230 0.621763 0.332417
O O7 0.975849 0.779660 0.627811
O O8 0.179490 0.816020 0.176746
O O9 0.417696 0.568808 0.470667
O O10 0.542261 0.402482 0.344503
O O11 0.537738 0.465035 0.101438
O O12 0.346497 0.750542 0.727972
O O13 0.251071 0.559566 0.904227
O O14 0.895685 0.581932 0.762259
O O15 0.279752 0.953339 0.849502
O O16 0.738185 0.494618 0.870054
#
# Coordination Sequence:
#
# PCOD8125206 Si02
#       8
#     4   4   4   4   4   4   4   4
#     4  11  24  40  59  89 124 156 196 246 295 352
#     4  10  20  37  64  87 117 159 200 244 299 343
#     4  10  20  37  62  85 114 160 200 235 293 352
#     4   9  18  35  63  85 110 150 203 242 280 350
#     4  11  21  39  60  88 122 156 201 246 294 349
#     4  10  21  40  60  89 120 153 200 246 291 352
#     4   9  21  37  56  85 125 153 188 243 299 352
#     4   8  16  35  59  86 109 151 203 248 270 342
#
# _framework density 21.941247000000001
#
# number of rings (size 3 to 8) (size 9 to 14) (size 15 to 20)
#    0.000    2.250    1.250    1.875    3.500    0.000 
#    2.250    1.875    0.000    0.000    0.000    0.000 
#    0.000    0.000    0.000    0.000    0.000    0.000 
#
# Total GULP energy -396469.847906 kJ/mol
# GULP energy per Si atom -12389.682747 kJ/mol
# Density = 2.189131 g / cm^3
# Si number density = 21.941247 Si / 1000 Ang^3
#
#
#
# Elastic Constant Matrix: (Units=GPa)
#
#
# Indices 1 2 3 4 5 6 
#
# 1 19.1009 -18.4357 3.3969 0.0000 -0.7860 0.0000
# 2 -18.4357 38.8329 -3.6398 0.0000 -8.6733 0.0000
# 3 3.3969 -3.6398 103.6115 0.0000 -5.0924 0.0000
# 4 0.0000 0.0000 0.0000 21.7028 0.0000 2.6077
# 5 -0.7860 -8.6733 -5.0924 0.0000 25.5687 0.0000
# 6 0.0000 0.0000 0.0000 2.6077 0.0000 19.9372
#
#
#
# Elastic Compliance Matrix: (Units=1/GPa)
#
#
# Indices 1 2 3 4 5 6 
#
# 1 0.107190 0.055786 -0.000467 0.000000 0.022125 0.000000
# 2 0.055786 0.057115 0.001226 0.000000 0.021333 0.000000
# 3 -0.000467 0.001226 0.009826 0.000000 0.002358 0.000000
# 4 0.000000 0.000000 0.000000 0.046813 0.000000 -0.006123
# 5 0.022125 0.021333 0.002358 0.000000 0.047497 0.000000
# 6 0.000000 0.000000 0.000000 -0.006123 0.000000 0.050958
#
#
# Mechanical properties :
#
#
# Convention : Reuss Voigt Hill
#
# Bulk Modulus (GPa) = 3.48165 13.79867 8.64016
# Shear Modulus (GPa) = 16.55359 25.45667 21.00513
#
# Velocity S-wave (km/s) = 2.74971 3.40990 3.09744
# Velocity P-wave (km/s) = 3.41635 4.66966 4.09128
#
# Compressibility (1/GPa) = 0.28722048
#
# Stress axis : x y z
#
# Youngs Moduli (GPa) = 9.32922 17.50851 101.77357
#
# Poissons Ratio (x) = -0.97673 0.04753
# Poissons Ratio (y) = -0.52044 -0.12477
# Poissons Ratio (z) = 0.00436 -0.02147
#
# Static dielectric constant tensor:
#      x y z
#    x 3.583180 0.000000 0.047940 
#    y 0.000000 4.119270 0.000000 
#    z 0.047940 0.000000 4.077850 
# 
# 
# High freq. dielectric constant tensor:
#      x y z
#    x 1.837110 0.000000 -0.000920 
#    y 0.000000 1.853910 0.000000 
#    z -0.000920 0.000000 1.872750 
# 
# From -- ./inp_files/33964.got.cif
#   From: 2010.03.12/outbox.cif.g09.slc.cpg/sg14_17_cif.got.tgz:33964.got - 2010.03.31 13:35:05.
