data_PCOD8125742
_publ_section_title
;
Structure prediction by ZEFSAII (Michael W. Deem and Ramdas Pophale) SiO2 
 PCOD8125742
Probable space group: P 21/C
;
_chemical_formula_sum "Si O2"
_cell_formula_units_Z 28
_cell_length_a 18.179651
_cell_length_b 10.907594
_cell_length_c 21.058692
_cell_angle_alpha 90.000000
_cell_angle_beta 160.618639
_cell_angle_gamma 90.000000
_cell_volume 1385.776884
_symmetry_space_group_name_H-M "P 21/C"
_symmetry_group_IT_number 14
_symmetry_cell_setting 'monoclinic'
loop_
_space_group_symop_operation_xyz
x,y,z
-x,1/2+y,1/2-z
-x,-y,-z
x,1/2-y,1/2+z
loop_
_atom_site_type_symbol
_atom_site_label
_atom_site_fract_x
_atom_site_fract_y
_atom_site_fract_z
Si Si1 0.773157 0.607342 0.718104
Si Si2 0.312304 0.212633 0.978334
Si Si3 0.294140 0.829769 0.828230
Si Si4 0.815692 0.505764 0.403827
Si Si5 0.399368 0.478485 0.989002
Si Si6 0.789301 0.263761 0.878058
Si Si7 0.006052 0.660046 0.667217
O O1 0.771450 0.610447 0.639970
O O2 0.758655 0.469646 0.731526
O O3 0.552637 0.682892 0.560175
O O4 0.999363 0.657529 0.931280
O O5 0.340242 0.339311 0.961111
O O6 0.133583 0.210457 0.887919
O O7 0.551914 0.175912 0.204366
O O8 0.232136 0.747783 0.716057
O O9 0.141816 0.781489 0.760209
O O10 0.812926 0.368513 0.431141
O O11 0.000000 0.500000 0.500000
O O12 0.849774 0.610581 0.483793
O O13 0.578164 0.537101 0.181404
O O14 0.173594 0.550412 0.818050
O O15 0.500000 0.500000 0.000000
#
# Coordination Sequence:
#
# PCOD8125742 Si02
#       7
#     4   4   4   4   4   4   4
#     4  10  21  40  64  86 121 168 204 252 321 373
#     4  10  25  40  59  94 131 162 209 263 323 381
#     4  10  22  37  62  93 120 157 213 256 305 385
#     4  11  21  37  65  95 117 159 219 263 308 371
#     4  11  22  42  71  95 122 169 221 269 315 383
#     4  10  20  42  63  86 120 162 209 262 302 378
#     4  12  24  39  61  94 132 161 206 268 320 378
#
# _framework density 20.205272000000001
#
# number of rings (size 3 to 8) (size 9 to 14) (size 15 to 20)
#    0.000    1.429    2.857    3.000    4.000    1.143 
#    2.571    0.000    0.000    0.000    0.000    0.000 
#    0.000    0.000    0.000    0.000    0.000    0.000 
#
# Total GULP energy -346933.827956 kJ/mol
# GULP energy per Si atom -12390.493856 kJ/mol
# Density = 2.015928 g / cm^3
# Si number density = 20.205272 Si / 1000 Ang^3
#
#
#
# Elastic Constant Matrix: (Units=GPa)
#
#
# Indices 1 2 3 4 5 6 
#
# 1 124.3169 36.7294 40.0761 0.0000 30.3738 0.0000
# 2 36.7294 71.0851 37.6939 0.0000 1.6925 0.0000
# 3 40.0761 37.6939 152.0919 0.0000 11.0090 0.0000
# 4 0.0000 0.0000 0.0000 25.9434 0.0000 0.7756
# 5 30.3738 1.6925 11.0090 0.0000 29.4411 0.0000
# 6 0.0000 0.0000 0.0000 0.7756 0.0000 28.1095
#
#
#
# Elastic Compliance Matrix: (Units=1/GPa)
#
#
# Indices 1 2 3 4 5 6 
#
# 1 0.013353 -0.006014 -0.001085 0.000000 -0.013024 0.000000
# 2 -0.006014 0.018914 -0.003570 0.000000 0.006452 0.000000
# 3 -0.001085 -0.003570 0.007863 0.000000 -0.001615 0.000000
# 4 0.000000 0.000000 0.000000 0.038577 0.000000 -0.001064
# 5 -0.013024 0.006452 -0.001615 0.000000 0.047636 0.000000
# 6 0.000000 0.000000 0.000000 -0.001064 0.000000 0.035605
#
#
# Mechanical properties :
#
#
# Convention : Reuss Voigt Hill
#
# Bulk Modulus (GPa) = 53.21520 64.05473 58.63497
# Shear Modulus (GPa) = 26.37832 32.23177 29.30505
#
# Velocity S-wave (km/s) = 3.61711 3.99835 3.81250
# Velocity P-wave (km/s) = 6.62111 7.28605 6.96153
#
# Compressibility (1/GPa) = 0.01879162
#
# Stress axis : x y z
#
# Youngs Moduli (GPa) = 74.89107 52.86979 127.18359
#
# Poissons Ratio (x) = 0.31794 0.13803
# Poissons Ratio (y) = 0.45037 0.45405
# Poissons Ratio (z) = 0.08128 0.18875
#
# Static dielectric constant tensor:
#      x y z
#    x 3.420240 0.000000 0.080920 
#    y 0.000000 3.711310 0.000000 
#    z 0.080920 0.000000 4.040440 
# 
# 
# High freq. dielectric constant tensor:
#      x y z
#    x 1.760880 0.000000 0.007120 
#    y 0.000000 1.789290 0.000000 
#    z 0.007120 0.000000 1.812440 
# 
# From -- ./inp_files/69315.got.cif
#   From: 2010.03.12/outbox.cif.g09.slc.cpg/sg14_35_cif.got.tgz:69315.got - 2010.03.31 13:35:05.
