data_PCOD8125690
_publ_section_title
;
Structure prediction by ZEFSAII (Michael W. Deem and Ramdas Pophale) SiO2 
 PCOD8125690
Probable space group: P 21/C
;
_chemical_formula_sum "Si O2"
_cell_formula_units_Z 20
_cell_length_a 12.281999
_cell_length_b 18.092121
_cell_length_c 7.860665
_cell_angle_alpha 90.000000
_cell_angle_beta 147.706148
_cell_angle_gamma 90.000000
_cell_volume 933.193765
_symmetry_space_group_name_H-M "P 21/C"
_symmetry_group_IT_number 14
_symmetry_cell_setting 'monoclinic'
loop_
_space_group_symop_operation_xyz
x,y,z
-x,1/2+y,1/2-z
-x,-y,-z
x,1/2-y,1/2+z
loop_
_atom_site_type_symbol
_atom_site_label
_atom_site_fract_x
_atom_site_fract_y
_atom_site_fract_z
Si Si1 0.588243 0.097508 0.282900
Si Si2 0.807425 0.368018 0.401861
Si Si3 0.476622 0.253172 0.497526
Si Si4 0.270895 0.153603 0.448077
Si Si5 0.614118 0.451850 0.448614
O O1 0.753310 0.091892 0.652583
O O2 0.400300 0.040966 0.070528
O O3 0.499957 0.180607 0.167035
O O4 0.689645 0.077082 0.233735
O O5 0.766585 0.423523 0.504818
O O6 0.045647 0.350325 0.720756
O O7 0.689664 0.290968 0.268535
O O8 0.293072 0.194397 0.295115
O O9 0.420915 0.292067 0.249546
O O10 0.381052 0.074204 0.599286
#
# Coordination Sequence:
#
# PCOD8125690 Si02
#       5
#     4   4   4   4   4
#     4  10  20  41  65  83 125 163 191 251 300 348
#     4  11  22  39  63  87 120 163 196 249 302 347
#     4  10  21  39  56  88 121 155 202 248 295 357
#     4  10  22  37  59  89 118 154 207 246 295 361
#     4   9  22  42  60  90 122 156 203 244 296 364
#
# _framework density 21.431777
#
# number of rings (size 3 to 8) (size 9 to 14) (size 15 to 20)
#    0.000    2.000    2.000    0.600    2.800    0.800 
#    0.000   11.000    0.000    0.000    0.000    0.000 
#    0.000    0.000    0.000    0.000    0.000    0.000 
#
# Total GULP energy -247867.588092 kJ/mol
# GULP energy per Si atom -12393.379405 kJ/mol
# Density = 2.138300 g / cm^3
# Si number density = 21.431777 Si / 1000 Ang^3
#
#
#
# Elastic Constant Matrix: (Units=GPa)
#
#
# Indices 1 2 3 4 5 6 
#
# 1 84.2512 27.3344 36.6728 0.0000 7.0119 0.0000
# 2 27.3344 89.3464 18.3701 0.0000 6.6562 0.0000
# 3 36.6728 18.3701 61.1016 0.0000 23.4306 0.0000
# 4 0.0000 0.0000 0.0000 18.0699 0.0000 -6.3599
# 5 7.0119 6.6562 23.4306 0.0000 47.0487 0.0000
# 6 0.0000 0.0000 0.0000 -6.3599 0.0000 30.7724
#
#
#
# Elastic Compliance Matrix: (Units=1/GPa)
#
#
# Indices 1 2 3 4 5 6 
#
# 1 0.017304 -0.003352 -0.010594 0.000000 0.003171 0.000000
# 2 -0.003352 0.012580 -0.001581 0.000000 -0.000493 0.000000
# 3 -0.010594 -0.001581 0.027822 0.000000 -0.012053 0.000000
# 4 0.000000 0.000000 0.000000 0.059682 0.000000 0.012335
# 5 0.003171 -0.000493 -0.012053 0.000000 0.026854 0.000000
# 6 0.000000 0.000000 0.000000 0.012335 0.000000 0.035046
#
#
# Mechanical properties :
#
#
# Convention : Reuss Voigt Hill
#
# Bulk Modulus (GPa) = 37.52200 44.38376 40.95288
# Shear Modulus (GPa) = 22.80741 29.33301 26.07021
#
# Velocity S-wave (km/s) = 3.26573 3.70357 3.49152
# Velocity P-wave (km/s) = 5.63610 6.24843 5.95014
#
# Compressibility (1/GPa) = 0.02665103
#
# Stress axis : x y z
#
# Youngs Moduli (GPa) = 57.78897 79.49296 35.94256
#
# Poissons Ratio (x) = 0.26646 0.38079
# Poissons Ratio (y) = 0.19371 0.05683
# Poissons Ratio (z) = 0.61223 0.12570
#
# Static dielectric constant tensor:
#      x y z
#    x 3.917260 0.000000 -0.353350 
#    y 0.000000 4.101540 0.000000 
#    z -0.353350 0.000000 3.429190 
# 
# 
# High freq. dielectric constant tensor:
#      x y z
#    x 1.849340 0.000000 -0.024230 
#    y 0.000000 1.860560 0.000000 
#    z -0.024230 0.000000 1.798370 
# 
# From -- ./inp_files/5434.got.cif
#   From: 2010.03.12/outbox.cif.g09.slc.cpg/sg14_3_cif.got.tgz:5434.got - 2010.03.31 13:35:05.
