data_PCOD8125433
_publ_section_title
;
Structure prediction by ZEFSAII (Michael W. Deem and Ramdas Pophale) SiO2 
 PCOD8125433
Probable space group: P 21/C
;
_chemical_formula_sum "Si O2"
_cell_formula_units_Z 32
_cell_length_a 17.991086
_cell_length_b 11.497795
_cell_length_c 14.426557
_cell_angle_alpha 90.000000
_cell_angle_beta 145.657349
_cell_angle_gamma 90.000000
_cell_volume 1683.535110
_symmetry_space_group_name_H-M "P 21/C"
_symmetry_group_IT_number 14
_symmetry_cell_setting 'monoclinic'
loop_
_space_group_symop_operation_xyz
x,y,z
-x,1/2+y,1/2-z
-x,-y,-z
x,1/2-y,1/2+z
loop_
_atom_site_type_symbol
_atom_site_label
_atom_site_fract_x
_atom_site_fract_y
_atom_site_fract_z
Si Si1 0.183486 0.772763 0.030063
Si Si2 0.216570 0.749749 0.351456
Si Si3 0.130541 0.927309 0.615633
Si Si4 0.395566 0.398365 0.877256
Si Si5 0.527319 0.760047 0.195993
Si Si6 0.391708 0.008853 0.812098
Si Si7 0.525723 0.262233 0.656774
Si Si8 0.142375 0.549483 0.633844
O O1 0.155577 0.752561 0.892379
O O2 0.121642 0.662794 0.020826
O O3 0.336788 0.805700 0.206359
O O4 0.124378 0.888480 0.015221
O O5 0.161458 0.637382 0.243098
O O6 0.373522 0.741042 0.513804
O O7 0.176538 0.864708 0.254115
O O8 0.248495 0.015039 0.712203
O O9 0.000000 0.000000 0.500000
O O10 0.403709 0.351006 0.780796
O O11 0.249129 0.445028 0.744983
O O12 0.500000 0.500000 0.000000
O O13 0.432511 0.284081 0.977988
O O14 0.556306 0.755295 0.334516
O O15 0.595710 0.878915 0.237444
O O16 0.419772 0.893868 0.782034
O O17 0.500000 0.000000 0.000000
O O18 0.000000 0.500000 0.500000
#
# Coordination Sequence:
#
# PCOD8125433 Si02
#       8
#     4   4   4   4   4   4   4   4
#     4   9  20  39  60  85 116 156 202 237 305 371
#     4  10  20  39  60  83 119 159 193 247 310 356
#     4  10  21  37  61  83 115 158 194 239 296 358
#     4  12  21  39  62  87 121 155 202 247 301 355
#     4  11  22  36  64  94 118 153 202 258 302 350
#     4  11  20  39  60  86 121 151 198 244 294 352
#     4  10  22  37  62  94 117 155 200 252 305 353
#     4  11  24  40  59  88 123 161 200 248 303 366
#
# _framework density 19.007622999999999
#
# number of rings (size 3 to 8) (size 9 to 14) (size 15 to 20)
#    0.000    1.500    5.000    0.750    1.750    4.000 
#    0.000    1.250    0.000    0.000    0.000    0.000 
#    0.000    0.000    0.000    0.000    0.000    0.000 
#
# Total GULP energy -396577.178489 kJ/mol
# GULP energy per Si atom -12393.036828 kJ/mol
# Density = 1.896436 g / cm^3
# Si number density = 19.007623 Si / 1000 Ang^3
#
#
#
# Elastic Constant Matrix: (Units=GPa)
#
#
# Indices 1 2 3 4 5 6 
#
# 1 155.4528 62.9184 55.7815 0.0000 3.0333 0.0000
# 2 62.9184 83.1493 30.5218 0.0000 16.3036 0.0000
# 3 55.7815 30.5218 74.0806 0.0000 19.0275 0.0000
# 4 0.0000 0.0000 0.0000 22.9929 0.0000 10.1676
# 5 3.0333 16.3036 19.0275 0.0000 36.8579 0.0000
# 6 0.0000 0.0000 0.0000 10.1676 0.0000 32.6389
#
#
#
# Elastic Compliance Matrix: (Units=1/GPa)
#
#
# Indices 1 2 3 4 5 6 
#
# 1 0.012122 -0.007615 -0.007608 0.000000 0.006298 0.000000
# 2 -0.007615 0.019418 -0.000255 0.000000 -0.007831 0.000000
# 3 -0.007608 -0.000255 0.022069 0.000000 -0.010654 0.000000
# 4 0.000000 0.000000 0.000000 0.050440 0.000000 -0.015713
# 5 0.006298 -0.007831 -0.010654 0.000000 0.035577 0.000000
# 6 0.000000 0.000000 0.000000 -0.015713 0.000000 0.035533
#
#
# Mechanical properties :
#
#
# Convention : Reuss Voigt Hill
#
# Bulk Modulus (GPa) = 44.14436 67.90290 56.02363
# Shear Modulus (GPa) = 23.40107 29.39532 26.39820
#
# Velocity S-wave (km/s) = 3.51257 3.93682 3.73073
# Velocity P-wave (km/s) = 6.30284 7.51441 6.93514
#
# Compressibility (1/GPa) = 0.02265295
#
# Stress axis : x y z
#
# Youngs Moduli (GPa) = 82.49491 51.49931 45.31240
#
# Poissons Ratio (x) = 0.39216 0.34473
# Poissons Ratio (y) = 0.62819 0.01156
# Poissons Ratio (z) = 0.62762 0.01314
#
# Static dielectric constant tensor:
#      x y z
#    x 3.691120 0.000000 -0.070310 
#    y 0.000000 3.778910 0.000000 
#    z -0.070310 0.000000 3.289560 
# 
# 
# High freq. dielectric constant tensor:
#      x y z
#    x 1.752020 0.000000 -0.004390 
#    y 0.000000 1.745070 0.000000 
#    z -0.004390 0.000000 1.715290 
# 
# From -- ./inp_files/49052.got.cif
#   From: 2010.03.12/outbox.cif.g09.slc.cpg/sg14_25_cif.got.tgz:49052.got - 2010.03.31 13:35:05.
