data_PCOD8125124
_publ_section_title
;
Structure prediction by ZEFSAII (Michael W. Deem and Ramdas Pophale) SiO2 
 PCOD8125124
Probable space group: P 21/C
;
_chemical_formula_sum "Si O2"
_cell_formula_units_Z 24
_cell_length_a 17.495267
_cell_length_b 11.076235
_cell_length_c 7.719168
_cell_angle_alpha 90.000000
_cell_angle_beta 125.726249
_cell_angle_gamma 90.000000
_cell_volume 1214.341650
_symmetry_space_group_name_H-M "P 21/C"
_symmetry_group_IT_number 14
_symmetry_cell_setting 'monoclinic'
loop_
_space_group_symop_operation_xyz
x,y,z
-x,1/2+y,1/2-z
-x,-y,-z
x,1/2-y,1/2+z
loop_
_atom_site_type_symbol
_atom_site_label
_atom_site_fract_x
_atom_site_fract_y
_atom_site_fract_z
Si Si1 0.663695 0.907866 0.976461
Si Si2 0.937682 0.144229 0.558771
Si Si3 0.538761 0.398510 0.427214
Si Si4 0.082077 0.595203 0.591607
Si Si5 0.441691 0.201913 0.476175
Si Si6 0.862967 0.984970 0.165157
O O1 0.605709 0.885220 0.724871
O O2 0.639779 0.047229 0.002315
O O3 0.634142 0.806082 0.075908
O O4 0.775475 0.899424 0.097246
O O5 0.880638 0.122348 0.664579
O O6 0.956374 0.284200 0.549289
O O7 0.873807 0.089618 0.322503
O O8 0.041888 0.090974 0.708481
O O9 0.500000 0.500000 0.500000
O O10 0.536290 0.269583 0.524897
O O11 0.469733 0.382684 0.171845
O O12 0.157571 0.540228 0.554535
O O13 0.000000 0.500000 0.500000
#
# Coordination Sequence:
#
# PCOD8125124 Si02
#       6
#     4   4   4   4   4   4
#     4  10  20  37  57  89 114 144 197 234 282 345
#     4  10  20  39  59  78 122 154 194 239 292 348
#     4   9  18  36  59  81 115 148 183 229 294 347
#     4  10  20  37  59  81 109 158 194 232 296 347
#     4   9  19  37  59  83 115 151 183 237 287 347
#     4  10  22  38  57  88 113 156 198 243 286 337
#
# _framework density 19.763795999999999
#
# number of rings (size 3 to 8) (size 9 to 14) (size 15 to 20)
#    0.000    2.333    1.667    0.500    0.000    2.667 
#   12.000    0.000    0.000    0.000    0.000    0.000 
#    0.000    0.000    0.000    0.000    0.000    0.000 
#
# Total GULP energy -297318.491735 kJ/mol
# GULP energy per Si atom -12388.270489 kJ/mol
# Density = 1.971881 g / cm^3
# Si number density = 19.763796 Si / 1000 Ang^3
#
#
#
# Elastic Constant Matrix: (Units=GPa)
#
#
# Indices 1 2 3 4 5 6 
#
# 1 98.4153 32.1576 39.6439 0.0000 -16.4935 0.0000
# 2 32.1576 83.4083 21.4906 0.0000 -5.9171 0.0000
# 3 39.6439 21.4906 51.4820 0.0000 -19.3083 0.0000
# 4 0.0000 0.0000 0.0000 23.5894 0.0000 -6.9895
# 5 -16.4935 -5.9171 -19.3083 0.0000 34.4081 0.0000
# 6 0.0000 0.0000 0.0000 -6.9895 0.0000 27.1956
#
#
#
# Elastic Compliance Matrix: (Units=1/GPa)
#
#
# Indices 1 2 3 4 5 6 
#
# 1 0.015515 -0.003287 -0.010129 0.000000 0.001187 0.000000
# 2 -0.003287 0.014161 -0.003873 0.000000 -0.001314 0.000000
# 3 -0.010129 -0.003873 0.033906 0.000000 0.013505 0.000000
# 4 0.000000 0.000000 0.000000 0.045886 0.000000 0.011793
# 5 0.001187 -0.001314 0.013505 0.000000 0.036985 0.000000
# 6 0.000000 0.000000 0.000000 0.011793 0.000000 0.039802
#
#
# Mechanical properties :
#
#
# Convention : Reuss Voigt Hill
#
# Bulk Modulus (GPa) = 34.47926 46.65443 40.56684
# Shear Modulus (GPa) = 21.69188 26.37286 24.03237
#
# Velocity S-wave (km/s) = 3.31653 3.65691 3.49087
# Velocity P-wave (km/s) = 5.67004 6.44111 6.06784
#
# Compressibility (1/GPa) = 0.02900294
#
# Stress axis : x y z
#
# Youngs Moduli (GPa) = 64.45571 70.61506 29.49320
#
# Poissons Ratio (x) = 0.23214 0.29875
# Poissons Ratio (y) = 0.21189 0.11422
# Poissons Ratio (z) = 0.65290 0.27347
#
# Static dielectric constant tensor:
#      x y z
#    x 4.049710 0.000000 -0.586580 
#    y 0.000000 3.843720 0.000000 
#    z -0.586580 0.000000 3.482970 
# 
# 
# High freq. dielectric constant tensor:
#      x y z
#    x 1.769980 0.000000 -0.043580 
#    y 0.000000 1.777630 0.000000 
#    z -0.043580 0.000000 1.746430 
# 
# From -- ./inp_files/17786.got.cif
#   From: 2010.03.12/outbox.cif.g09.slc.cpg/sg14_9_cif.got.tgz:17786.got - 2010.03.31 13:35:05.
