data_PCOD8125122
_publ_section_title
;
Structure prediction by ZEFSAII (Michael W. Deem and Ramdas Pophale) SiO2 
 PCOD8125122
Probable space group: P 21/C
;
_chemical_formula_sum "Si O2"
_cell_formula_units_Z 32
_cell_length_a 22.383019
_cell_length_b 8.618899
_cell_length_c 23.010412
_cell_angle_alpha 90.000000
_cell_angle_beta 159.572991
_cell_angle_gamma 90.000000
_cell_volume 1549.307054
_symmetry_space_group_name_H-M "P 21/C"
_symmetry_group_IT_number 14
_symmetry_cell_setting 'monoclinic'
loop_
_space_group_symop_operation_xyz
x,y,z
-x,1/2+y,1/2-z
-x,-y,-z
x,1/2-y,1/2+z
loop_
_atom_site_type_symbol
_atom_site_label
_atom_site_fract_x
_atom_site_fract_y
_atom_site_fract_z
Si Si1 0.661661 0.673916 0.407280
Si Si2 0.906158 0.336834 0.035646
Si Si3 0.630418 0.009237 0.207099
Si Si4 0.438569 0.857747 0.125941
Si Si5 0.093758 0.439572 0.866039
Si Si6 0.836137 0.263262 0.707472
Si Si7 0.272046 0.044668 0.829025
Si Si8 0.935496 0.996323 0.099505
O O1 0.488980 0.757268 0.227786
O O2 0.621971 0.534846 0.415727
O O3 0.765084 0.819001 0.530324
O O4 0.761640 0.604491 0.442381
O O5 0.842161 0.408287 0.039469
O O6 0.896543 0.152902 0.031553
O O7 0.105597 0.370391 0.202543
O O8 0.775423 0.376089 0.864324
O O9 0.596665 0.878550 0.225306
O O10 0.707469 0.923785 0.220633
O O11 0.447934 0.092692 0.023570
O O12 0.294900 0.752210 0.965394
O O13 0.997288 0.356158 0.830534
O O14 0.976781 0.489201 0.705972
O O15 0.753052 0.357214 0.685382
O O16 0.906272 0.092374 0.788533
#
# Coordination Sequence:
#
# PCOD8125122 Si02
#       8
#     4   4   4   4   4   4   4   4
#     4  11  24  36  56  88 125 155 198 249 300 377
#     4  11  21  39  65  92 119 165 205 251 315 365
#     4  10  21  40  66  91 115 159 216 256 307 372
#     4  11  23  38  58  88 120 159 197 250 310 368
#     4  10  20  37  57  84 119 157 199 243 294 377
#     4   9  20  38  57  82 116 157 198 244 310 353
#     4   9  21  41  67  86 119 157 212 269 302 362
#     4  11  23  37  59  88 126 164 198 250 308 375
#
# _framework density 20.654394
#
# number of rings (size 3 to 8) (size 9 to 14) (size 15 to 20)
#    0.000    1.750    2.500    1.875    7.000    0.000 
#    2.250    0.625    0.000    2.250    0.000    0.000 
#    0.000    0.000    0.000    0.000    0.000    0.000 
#
# Total GULP energy -396417.682475 kJ/mol
# GULP energy per Si atom -12388.052577 kJ/mol
# Density = 2.060738 g / cm^3
# Si number density = 20.654394 Si / 1000 Ang^3
#
#
#
# Elastic Constant Matrix: (Units=GPa)
#
#
# Indices 1 2 3 4 5 6 
#
# 1 57.1378 5.8174 10.9664 0.0000 4.9704 0.0000
# 2 5.8174 84.5456 23.2890 0.0000 8.4551 0.0000
# 3 10.9664 23.2890 88.7915 0.0000 2.6511 0.0000
# 4 0.0000 0.0000 0.0000 29.5631 0.0000 -0.6260
# 5 4.9704 8.4551 2.6511 0.0000 22.5667 0.0000
# 6 0.0000 0.0000 0.0000 -0.6260 0.0000 15.4446
#
#
#
# Elastic Compliance Matrix: (Units=1/GPa)
#
#
# Indices 1 2 3 4 5 6 
#
# 1 0.018248 -0.000322 -0.002060 0.000000 -0.003656 0.000000
# 2 -0.000322 0.013205 -0.003290 0.000000 -0.004490 0.000000
# 3 -0.002060 -0.003290 0.012373 0.000000 0.000233 0.000000
# 4 0.000000 0.000000 0.000000 0.033855 0.000000 0.001372
# 5 -0.003656 -0.004490 0.000233 0.000000 0.046773 0.000000
# 6 0.000000 0.000000 0.000000 0.001372 0.000000 0.064803
#
#
# Mechanical properties :
#
#
# Convention : Reuss Voigt Hill
#
# Bulk Modulus (GPa) = 30.78680 34.51338 32.65009
# Shear Modulus (GPa) = 23.64861 26.20836 24.92848
#
# Velocity S-wave (km/s) = 3.38741 3.56603 3.47786
# Velocity P-wave (km/s) = 5.49886 5.80531 5.65416
#
# Compressibility (1/GPa) = 0.03248145
#
# Stress axis : x y z
#
# Youngs Moduli (GPa) = 54.80105 75.72680 80.82332
#
# Poissons Ratio (x) = 0.02442 0.16649
# Poissons Ratio (y) = 0.01767 0.26589
# Poissons Ratio (z) = 0.11289 0.24912
#
# Static dielectric constant tensor:
#      x y z
#    x 3.589700 0.000000 0.215250 
#    y 0.000000 3.789980 0.000000 
#    z 0.215250 0.000000 3.885840 
# 
# 
# High freq. dielectric constant tensor:
#      x y z
#    x 1.780310 0.000000 0.012070 
#    y 0.000000 1.789180 0.000000 
#    z 0.012070 0.000000 1.823120 
# 
# From -- ./inp_files/71980.got.cif
#   From: 2010.03.12/outbox.cif.g09.slc.cpg/sg14_36_cif.got.tgz:71980.got - 2010.03.31 13:35:05.
