data_PCOD8125463
_publ_section_title
;
Structure prediction by ZEFSAII (Michael W. Deem and Ramdas Pophale) SiO2 
 PCOD8125463
Probable space group: P 21/C
;
_chemical_formula_sum "Si O2"
_cell_formula_units_Z 28
_cell_length_a 14.380239
_cell_length_b 10.884785
_cell_length_c 11.917315
_cell_angle_alpha 90.000000
_cell_angle_beta 45.033051
_cell_angle_gamma 90.000000
_cell_volume 1319.774576
_symmetry_space_group_name_H-M "P 21/C"
_symmetry_group_IT_number 14
_symmetry_cell_setting 'monoclinic'
loop_
_space_group_symop_operation_xyz
x,y,z
-x,1/2+y,1/2-z
-x,-y,-z
x,1/2-y,1/2+z
loop_
_atom_site_type_symbol
_atom_site_label
_atom_site_fract_x
_atom_site_fract_y
_atom_site_fract_z
Si Si1 0.041019 0.902079 0.753873
Si Si2 0.854604 0.895720 0.479582
Si Si3 0.359198 0.928484 0.246319
Si Si4 0.219775 0.724685 0.485740
Si Si5 0.797355 0.786973 0.856861
Si Si6 0.976390 0.792397 0.027536
Si Si7 0.367185 0.978915 0.991620
O O1 0.164212 0.807956 0.635327
O O2 0.989776 0.904224 0.926187
O O3 0.930534 0.862516 0.760882
O O4 0.076319 0.039422 0.686244
O O5 0.763411 0.793015 0.496543
O O6 0.967380 0.833201 0.459996
O O7 0.769875 0.988633 0.625025
O O8 0.339764 0.798488 0.325066
O O9 0.376156 0.902478 0.099388
O O10 0.487442 0.000062 0.184076
O O11 0.105536 0.702082 0.493084
O O12 0.275744 0.594431 0.482067
O O13 0.836176 0.703058 0.714549
O O14 0.682104 0.883721 0.935134
#
# Coordination Sequence:
#
# PCOD8125463 Si02
#       7
#     4   4   4   4   4   4   4
#     4   9  21  35  61  89 122 160 196 251 313 366
#     4  10  21  40  60  91 123 159 204 248 307 364
#     4  10  23  41  66  85 121 170 201 255 292 360
#     4  10  22  38  64  90 121 157 208 252 301 365
#     4  10  22  34  61  90 124 157 198 253 302 366
#     4  10  20  39  61  94 122 159 194 258 311 355
#     4  11  23  41  63  90 121 165 213 240 304 365
#
# _framework density 21.215743
#
# number of rings (size 3 to 8) (size 9 to 14) (size 15 to 20)
#    0.000    2.000    1.429    0.857   10.000    2.286 
#    2.571    0.000    0.000    2.571    0.000    0.000 
#    0.000    0.000    0.000    0.000    0.000    0.000 
#
# Total GULP energy -347017.524048 kJ/mol
# GULP energy per Si atom -12393.483002 kJ/mol
# Density = 2.116746 g / cm^3
# Si number density = 21.215743 Si / 1000 Ang^3
#
#
#
# Elastic Constant Matrix: (Units=GPa)
#
#
# Indices 1 2 3 4 5 6 
#
# 1 87.0782 24.7568 30.1981 0.0000 6.8182 0.0000
# 2 24.7568 34.5073 21.0880 0.0000 8.0537 0.0000
# 3 30.1981 21.0880 83.9747 0.0000 8.4619 0.0000
# 4 0.0000 0.0000 0.0000 33.6549 0.0000 1.7325
# 5 6.8182 8.0537 8.4619 0.0000 28.4877 0.0000
# 6 0.0000 0.0000 0.0000 1.7325 0.0000 28.8131
#
#
#
# Elastic Compliance Matrix: (Units=1/GPa)
#
#
# Indices 1 2 3 4 5 6 
#
# 1 0.015124 -0.008858 -0.003198 0.000000 -0.000166 0.000000
# 2 -0.008858 0.040979 -0.006342 0.000000 -0.007581 0.000000
# 3 -0.003198 -0.006342 0.014837 0.000000 -0.001849 0.000000
# 4 0.000000 0.000000 0.000000 0.029806 0.000000 -0.001792
# 5 -0.000166 -0.007581 -0.001849 0.000000 0.037835 0.000000
# 6 0.000000 0.000000 0.000000 -0.001792 0.000000 0.034814
#
#
# Mechanical properties :
#
#
# Convention : Reuss Voigt Hill
#
# Bulk Modulus (GPa) = 29.28563 39.73844 34.51204
# Shear Modulus (GPa) = 22.56609 26.82564 24.69586
#
# Velocity S-wave (km/s) = 3.26490 3.55973 3.41550
# Velocity P-wave (km/s) = 5.29589 5.97217 5.64417
#
# Compressibility (1/GPa) = 0.03414644
#
# Stress axis : x y z
#
# Youngs Moduli (GPa) = 66.11941 24.40263 67.39872
#
# Poissons Ratio (x) = 0.21615 0.21552
# Poissons Ratio (y) = 0.58567 0.42741
# Poissons Ratio (z) = 0.21143 0.15475
#
# Static dielectric constant tensor:
#      x y z
#    x 3.546740 0.000000 0.129620 
#    y 0.000000 3.812820 0.000000 
#    z 0.129620 0.000000 4.103050 
# 
# 
# High freq. dielectric constant tensor:
#      x y z
#    x 1.807520 0.000000 0.014270 
#    y 0.000000 1.826310 0.000000 
#    z 0.014270 0.000000 1.834880 
# 
# From -- ./inp_files/32168.got.cif
#   From: 2010.03.12/outbox.cif.g09.slc.cpg/sg14_17_cif.got.tgz:32168.got - 2010.03.31 13:35:05.
