data_PCOD8125488
_publ_section_title
;
Structure prediction by ZEFSAII (Michael W. Deem and Ramdas Pophale) SiO2 
 PCOD8125488
Probable space group: P 21/C
;
_chemical_formula_sum "Si O2"
_cell_formula_units_Z 32
_cell_length_a 16.649254
_cell_length_b 11.182634
_cell_length_c 15.840246
_cell_angle_alpha 90.000000
_cell_angle_beta 150.687852
_cell_angle_gamma 90.000000
_cell_volume 1443.820649
_symmetry_space_group_name_H-M "P 21/C"
_symmetry_group_IT_number 14
_symmetry_cell_setting 'monoclinic'
loop_
_space_group_symop_operation_xyz
x,y,z
-x,1/2+y,1/2-z
-x,-y,-z
x,1/2-y,1/2+z
loop_
_atom_site_type_symbol
_atom_site_label
_atom_site_fract_x
_atom_site_fract_y
_atom_site_fract_z
Si Si1 0.147929 0.073644 0.416654
Si Si2 0.695814 0.812831 0.987848
Si Si3 0.410193 0.893427 0.620311
Si Si4 0.353675 0.731845 0.906437
Si Si5 0.995271 0.204569 0.417080
Si Si6 0.665298 0.001229 0.724955
Si Si7 0.075820 0.043172 0.912277
Si Si8 0.704966 0.744923 0.689702
O O1 0.249127 0.194859 0.509714
O O2 0.020432 0.092706 0.376441
O O3 0.272260 0.965007 0.545301
O O4 0.058695 0.048949 0.245685
O O5 0.804736 0.923838 0.056074
O O6 0.719129 0.797156 0.107551
O O7 0.509372 0.830985 0.786875
O O8 0.325539 0.797035 0.480123
O O9 0.523503 0.976151 0.663880
O O10 0.195411 0.805240 0.725997
O O11 0.382814 0.610933 0.878244
O O12 0.526703 0.804452 0.059095
O O13 0.997589 0.335826 0.376979
O O14 0.136979 0.190667 0.617384
O O15 0.703696 0.887695 0.700721
O O16 0.830729 0.029343 0.928664
#
# Coordination Sequence:
#
# PCOD8125488 Si02
#       8
#     4   4   4   4   4   4   4   4
#     4  11  20  40  62  86 127 164 197 266 317 349
#     4  10  22  40  60  93 122 164 208 252 311 374
#     4  10  20  39  63  89 125 157 210 257 303 377
#     4  11  19  37  61  93 121 153 204 261 320 361
#     4  10  23  38  59  91 122 161 206 250 310 379
#     4   9  19  34  62  97 116 153 200 263 329 360
#     4   9  20  38  59  92 123 153 205 257 303 379
#     4  10  21  39  59  86 130 159 199 262 310 362
#
# _framework density 22.163418
#
# number of rings (size 3 to 8) (size 9 to 14) (size 15 to 20)
#    0.000    2.000    1.250    5.250    1.750    1.000 
#   13.500    1.250    0.000    0.000    0.000    0.000 
#    0.000    0.000    0.000    0.000    0.000    0.000 
#
# Total GULP energy -396538.913513 kJ/mol
# GULP energy per Si atom -12391.841047 kJ/mol
# Density = 2.211297 g / cm^3
# Si number density = 22.163418 Si / 1000 Ang^3
#
#
#
# Elastic Constant Matrix: (Units=GPa)
#
#
# Indices 1 2 3 4 5 6 
#
# 1 57.6589 2.8100 33.2244 0.0000 -0.9452 0.0000
# 2 2.8100 20.7812 23.2463 0.0000 -2.9600 0.0000
# 3 33.2244 23.2463 189.7361 0.0000 5.8288 0.0000
# 4 0.0000 0.0000 0.0000 26.0381 0.0000 1.3450
# 5 -0.9452 -2.9600 5.8288 0.0000 42.7830 0.0000
# 6 0.0000 0.0000 0.0000 1.3450 0.0000 23.5165
#
#
#
# Elastic Compliance Matrix: (Units=1/GPa)
#
#
# Indices 1 2 3 4 5 6 
#
# 1 0.019367 0.001572 -0.003616 0.000000 0.001029 0.000000
# 2 0.001572 0.056893 -0.007399 0.000000 0.004979 0.000000
# 3 -0.003616 -0.007399 0.006857 0.000000 -0.001526 0.000000
# 4 0.000000 0.000000 0.000000 0.038519 0.000000 -0.002203
# 5 0.001029 0.004979 -0.001526 0.000000 0.023949 0.000000
# 6 0.000000 0.000000 0.000000 -0.002203 0.000000 0.042649
#
#
# Mechanical properties :
#
#
# Convention : Reuss Voigt Hill
#
# Bulk Modulus (GPa) = 15.56828 42.97084 29.26956
# Shear Modulus (GPa) = 21.87897 32.39388 27.13643
#
# Velocity S-wave (km/s) = 3.14533 3.82723 3.50291
# Velocity P-wave (km/s) = 4.49782 6.24183 5.44017
#
# Compressibility (1/GPa) = 0.06423318
#
# Stress axis : x y z
#
# Youngs Moduli (GPa) = 51.63417 17.57674 145.83697
#
# Poissons Ratio (x) = -0.02764 0.52729
# Poissons Ratio (y) = -0.08118 1.07902
# Poissons Ratio (z) = 0.18669 0.13005
#
# Static dielectric constant tensor:
#      x y z
#    x 3.952750 0.000000 0.194550 
#    y 0.000000 3.510880 0.000000 
#    z 0.194550 0.000000 4.402480 
# 
# 
# High freq. dielectric constant tensor:
#      x y z
#    x 1.857800 0.000000 0.009570 
#    y 0.000000 1.820040 0.000000 
#    z 0.009570 0.000000 1.903850 
# 
# From -- ./inp_files/49030.got.cif
#   From: 2010.03.12/outbox.cif.g09.slc.cpg/sg14_25_cif.got.tgz:49030.got - 2010.03.31 13:35:05.
