data_PCOD8125942
_publ_section_title
;
Structure prediction by ZEFSAII (Michael W. Deem and Ramdas Pophale) SiO2 
 PCOD8125942
Probable space group: P 21/C
;
_chemical_formula_sum "Si O2"
_cell_formula_units_Z 32
_cell_length_a 8.404847
_cell_length_b 18.843152
_cell_length_c 20.380401
_cell_angle_alpha 90.000000
_cell_angle_beta 148.849795
_cell_angle_gamma 90.000000
_cell_volume 1669.646970
_symmetry_space_group_name_H-M "P 21/C"
_symmetry_group_IT_number 14
_symmetry_cell_setting 'monoclinic'
loop_
_space_group_symop_operation_xyz
x,y,z
-x,1/2+y,1/2-z
-x,-y,-z
x,1/2-y,1/2+z
loop_
_atom_site_type_symbol
_atom_site_label
_atom_site_fract_x
_atom_site_fract_y
_atom_site_fract_z
Si Si1 0.321479 0.556668 0.289652
Si Si2 0.617007 0.885898 0.771562
Si Si3 0.344680 0.451959 0.893920
Si Si4 0.724138 0.171518 0.986190
Si Si5 0.276905 0.836174 0.522167
Si Si6 0.371630 0.401796 0.245806
Si Si7 0.264205 0.968148 0.237561
Si Si8 0.610880 0.577435 0.523029
O O1 0.384138 0.608600 0.250796
O O2 0.321502 0.474677 0.267723
O O3 0.567881 0.584415 0.429692
O O4 0.004315 0.567518 0.215437
O O5 0.387937 0.860048 0.633752
O O6 0.797231 0.961756 0.828481
O O7 0.904744 0.833542 0.882579
O O8 0.503983 0.375796 0.951414
O O9 0.423812 0.496324 0.856436
O O10 0.500000 0.500000 0.000000
O O11 0.658822 0.254343 0.967345
O O12 0.588644 0.144703 0.869359
O O13 0.561679 0.134654 0.992051
O O14 0.933165 0.859515 0.381747
O O15 0.524366 0.414907 0.228879
O O16 0.977015 0.922061 0.162401
O O17 0.500000 0.500000 0.500000
#
# Coordination Sequence:
#
# PCOD8125942 Si02
#       8
#     4   4   4   4   4   4   4   4
#     4  11  21  37  66  94 120 153 209 264 307 351
#     4  10  22  40  63  89 122 162 203 256 306 368
#     4  11  21  37  61  92 122 155 203 254 306 369
#     4  12  23  42  63  86 129 170 206 252 315 377
#     4  11  25  41  61  89 126 171 203 249 321 377
#     4  11  22  38  64  93 118 162 210 257 305 367
#     4  10  21  36  63  92 119 148 207 263 299 349
#     4  12  19  37  64  97 122 156 208 260 304 363
#
# _framework density 19.165728000000001
#
# number of rings (size 3 to 8) (size 9 to 14) (size 15 to 20)
#    0.000    1.000    5.000    2.250    1.750    3.500 
#    0.000    3.750    2.750    0.000    0.000    0.000 
#    0.000    0.000    0.000    0.000    0.000    0.000 
#
# Total GULP energy -396425.313426 kJ/mol
# GULP energy per Si atom -12388.291045 kJ/mol
# Density = 1.912211 g / cm^3
# Si number density = 19.165728 Si / 1000 Ang^3
#
#
#
# Elastic Constant Matrix: (Units=GPa)
#
#
# Indices 1 2 3 4 5 6 
#
# 1 112.4618 56.4877 28.2066 0.0000 -7.1321 0.0000
# 2 56.4877 120.3597 34.4014 0.0000 -6.2383 0.0000
# 3 28.2066 34.4014 96.8142 0.0000 -8.7329 0.0000
# 4 0.0000 0.0000 0.0000 22.9597 0.0000 1.6237
# 5 -7.1321 -6.2383 -8.7329 0.0000 26.1815 0.0000
# 6 0.0000 0.0000 0.0000 1.6237 0.0000 22.1988
#
#
#
# Elastic Compliance Matrix: (Units=1/GPa)
#
#
# Indices 1 2 3 4 5 6 
#
# 1 0.011924 -0.005079 -0.001531 0.000000 0.001527 0.000000
# 2 -0.005079 0.011445 -0.002542 0.000000 0.000495 0.000000
# 3 -0.001531 -0.002542 0.011946 0.000000 0.002962 0.000000
# 4 0.000000 0.000000 0.000000 0.043781 0.000000 -0.003202
# 5 0.001527 0.000495 0.002962 0.000000 0.039717 0.000000
# 6 0.000000 0.000000 0.000000 -0.003202 0.000000 0.045282
#
#
# Mechanical properties :
#
#
# Convention : Reuss Voigt Hill
#
# Bulk Modulus (GPa) = 58.79405 63.09191 60.94298
# Shear Modulus (GPa) = 26.58590 28.30398 27.44494
#
# Velocity S-wave (km/s) = 3.72850 3.84709 3.78826
# Velocity P-wave (km/s) = 7.01989 7.26113 7.14153
#
# Compressibility (1/GPa) = 0.01700852
#
# Stress axis : x y z
#
# Youngs Moduli (GPa) = 83.86330 87.37757 83.71227
#
# Poissons Ratio (x) = 0.44383 0.12820
# Poissons Ratio (y) = 0.42598 0.21280
# Poissons Ratio (z) = 0.12843 0.22212
#
# Static dielectric constant tensor:
#      x y z
#    x 8.610770 0.000000 -1.047090 
#    y 0.000000 3.403430 0.000000 
#    z -1.047090 0.000000 2.660090 
# 
# 
# High freq. dielectric constant tensor:
#      x y z
#    x 1.756330 0.000000 -0.004530 
#    y 0.000000 1.725280 0.000000 
#    z -0.004530 0.000000 1.756200 
# 
# From -- ./inp_files/66040.got.cif
#   From: 2010.03.12/outbox.cif.g09.slc.cpg/sg14_34_cif.got.tgz:66040.got - 2010.03.31 13:35:05.
