data_PCOD8125856
_publ_section_title
;
Structure prediction by ZEFSAII (Michael W. Deem and Ramdas Pophale) SiO2 
 PCOD8125856
Probable space group: P 21/C
;
_chemical_formula_sum "Si O2"
_cell_formula_units_Z 24
_cell_length_a 5.145693
_cell_length_b 12.250230
_cell_length_c 22.822988
_cell_angle_alpha 90.000000
_cell_angle_beta 44.749724
_cell_angle_gamma 90.000000
_cell_volume 1012.838610
_symmetry_space_group_name_H-M "P 21/C"
_symmetry_group_IT_number 14
_symmetry_cell_setting 'monoclinic'
loop_
_space_group_symop_operation_xyz
x,y,z
-x,1/2+y,1/2-z
-x,-y,-z
x,1/2-y,1/2+z
loop_
_atom_site_type_symbol
_atom_site_label
_atom_site_fract_x
_atom_site_fract_y
_atom_site_fract_z
Si Si1 0.348851 0.378255 0.813113
Si Si2 0.527231 0.278691 0.086115
Si Si3 0.053055 0.752602 0.724361
Si Si4 0.828297 0.068419 0.975697
Si Si5 0.940866 0.098261 0.615572
Si Si6 0.749272 0.571519 0.706519
O O1 0.528083 0.288826 0.827784
O O2 0.099709 0.467432 0.888535
O O3 0.699669 0.442629 0.727670
O O4 0.086810 0.324315 0.807695
O O5 0.691791 0.184849 0.019507
O O6 0.852134 0.336438 0.070495
O O7 0.219116 0.227300 0.177679
O O8 0.345434 0.369710 0.072829
O O9 0.050613 0.625791 0.702895
O O10 0.143571 0.090576 0.877427
O O11 0.500000 0.000000 0.000000
O O12 0.000000 0.000000 0.000000
O O13 0.643993 0.131906 0.715014
#
# Coordination Sequence:
#
# PCOD8125856 Si02
#       6
#     4   4   4   4   4   4
#     4  10  21  35  60  87 119 150 218 257 299 359
#     4  11  20  37  59  86 122 163 200 247 317 369
#     4  11  20  35  61  88 114 164 206 254 307 362
#     4  12  25  39  61  94 135 162 196 259 336 390
#     4   9  21  37  59  82 120 160 210 253 287 368
#     4   9  23  39  60  93 127 160 206 262 313 382
#
# _framework density 23.695779000000002
#
# number of rings (size 3 to 8) (size 9 to 14) (size 15 to 20)
#    1.000    0.667    0.000    6.000    0.000    4.000 
#    0.000    0.000    0.000    6.000    0.000    0.000 
#    0.000    0.000    0.000    0.000    0.000    0.000 
#
# Total GULP energy -297495.128695 kJ/mol
# GULP energy per Si atom -12395.630362 kJ/mol
# Density = 2.364185 g / cm^3
# Si number density = 23.695779 Si / 1000 Ang^3
#
#
#
# Elastic Constant Matrix: (Units=GPa)
#
#
# Indices 1 2 3 4 5 6 
#
# 1 127.4984 19.6742 8.7550 0.0000 17.0331 0.0000
# 2 19.6742 33.8155 -9.9542 0.0000 -2.8633 0.0000
# 3 8.7550 -9.9542 60.2680 0.0000 11.6073 0.0000
# 4 0.0000 0.0000 0.0000 38.4608 0.0000 6.1474
# 5 17.0331 -2.8633 11.6073 0.0000 18.2091 0.0000
# 6 0.0000 0.0000 0.0000 6.1474 0.0000 56.1959
#
#
#
# Elastic Compliance Matrix: (Units=1/GPa)
#
#
# Indices 1 2 3 4 5 6 
#
# 1 0.010377 -0.007118 -0.000682 0.000000 -0.010391 0.000000
# 2 -0.007118 0.036020 0.005255 0.000000 0.008972 0.000000
# 3 -0.000682 0.005255 0.019696 0.000000 -0.011091 0.000000
# 4 0.000000 0.000000 0.000000 0.026463 0.000000 -0.002895
# 5 -0.010391 0.008972 -0.011091 0.000000 0.073118 0.000000
# 6 0.000000 0.000000 0.000000 -0.002895 0.000000 0.018112
#
#
# Mechanical properties :
#
#
# Convention : Reuss Voigt Hill
#
# Bulk Modulus (GPa) = 16.39236 28.72578 22.55907
# Shear Modulus (GPa) = 23.89963 36.11361 30.00662
#
# Velocity S-wave (km/s) = 3.17930 3.90815 3.56241
# Velocity P-wave (km/s) = 4.51775 5.70209 5.14412
#
# Compressibility (1/GPa) = 0.06100402
#
# Stress axis : x y z
#
# Youngs Moduli (GPa) = 96.37092 27.76225 50.77270
#
# Poissons Ratio (x) = 0.19760 0.03461
# Poissons Ratio (y) = 0.68594 -0.26683
# Poissons Ratio (z) = 0.06570 -0.14590
#
# Static dielectric constant tensor:
#      x y z
#    x 4.171280 0.000000 0.120710 
#    y 0.000000 4.313720 0.000000 
#    z 0.120710 0.000000 4.000000 
# 
# 
# High freq. dielectric constant tensor:
#      x y z
#    x 1.942820 0.000000 0.012330 
#    y 0.000000 1.947750 0.000000 
#    z 0.012330 0.000000 1.909830 
# 
# From -- ./inp_files/63655.got.cif
#   From: 2010.03.12/outbox.cif.g09.slc.cpg/sg14_32_cif.got.tgz:63655.got - 2010.03.31 13:35:05.
