data_PCOD8125764
_publ_section_title
;
Structure prediction by ZEFSAII (Michael W. Deem and Ramdas Pophale) SiO2 
 PCOD8125764
Probable space group: P 21/C
;
_chemical_formula_sum "Si O2"
_cell_formula_units_Z 32
_cell_length_a 16.802806
_cell_length_b 7.850577
_cell_length_c 27.194980
_cell_angle_alpha 90.000000
_cell_angle_beta 154.213217
_cell_angle_gamma 90.000000
_cell_volume 1560.575394
_symmetry_space_group_name_H-M "P 21/C"
_symmetry_group_IT_number 14
_symmetry_cell_setting 'monoclinic'
loop_
_space_group_symop_operation_xyz
x,y,z
-x,1/2+y,1/2-z
-x,-y,-z
x,1/2-y,1/2+z
loop_
_atom_site_type_symbol
_atom_site_label
_atom_site_fract_x
_atom_site_fract_y
_atom_site_fract_z
Si Si1 0.767266 0.391395 0.600871
Si Si2 0.456059 0.192229 0.483086
Si Si3 0.453144 0.360176 0.580867
Si Si4 0.699451 0.797414 0.823446
Si Si5 0.563739 0.326277 0.241409
Si Si6 0.053197 0.826476 0.555749
Si Si7 0.083606 0.160874 0.746363
Si Si8 0.800437 0.942462 0.289719
O O1 0.579962 0.321653 0.520427
O O2 0.727233 0.527222 0.534039
O O3 0.887296 0.482322 0.709827
O O4 0.884461 0.233899 0.647254
O O5 0.483159 0.218887 0.556208
O O6 0.245776 0.212301 0.351065
O O7 0.500000 0.000000 0.500000
O O8 0.457367 0.265930 0.636581
O O9 0.608578 0.500555 0.661476
O O10 0.558197 0.688541 0.777629
O O11 0.756284 0.695938 0.806744
O O12 0.607068 0.974859 0.756051
O O13 0.890214 0.813536 0.960931
O O14 0.757717 0.241223 0.361688
O O15 0.092386 0.885949 0.633296
O O16 0.000000 0.000000 0.500000
O O17 0.076966 0.140163 0.684022
#
# Coordination Sequence:
#
# PCOD8125764 Si02
#       8
#     4   4   4   4   4   4   4   4
#     4  11  22  43  64  92 134 166 216 267 322 379
#     4  11  22  40  66  92 132 165 211 267 324 381
#     4  10  21  42  64  93 124 168 212 263 316 379
#     4  11  23  43  64  94 130 168 209 267 320 376
#     4  11  23  42  68  93 128 167 216 260 318 388
#     4   9  20  41  63  91 125 165 203 261 316 369
#     4  11  22  42  64  94 127 174 211 264 323 387
#     4  10  20  42  67  89 127 165 210 261 324 377
#
# _framework density 20.505255999999999
#
# number of rings (size 3 to 8) (size 9 to 14) (size 15 to 20)
#    0.000    1.500    2.500    4.125    1.750    0.000 
#   20.250    0.000    0.000    0.000    0.000    0.000 
#    0.000    0.000    0.000    0.000    0.000    0.000 
#
# Total GULP energy -396557.158782 kJ/mol
# GULP energy per Si atom -12392.411212 kJ/mol
# Density = 2.045859 g / cm^3
# Si number density = 20.505256 Si / 1000 Ang^3
#
#
#
# Elastic Constant Matrix: (Units=GPa)
#
#
# Indices 1 2 3 4 5 6 
#
# 1 77.8519 17.4220 38.1548 0.0000 -5.3153 0.0000
# 2 17.4220 82.6407 24.7366 0.0000 -6.9774 0.0000
# 3 38.1548 24.7366 85.2097 0.0000 -0.2950 0.0000
# 4 0.0000 0.0000 0.0000 34.6600 0.0000 11.9770
# 5 -5.3153 -6.9774 -0.2950 0.0000 26.9736 0.0000
# 6 0.0000 0.0000 0.0000 11.9770 0.0000 23.8477
#
#
#
# Elastic Compliance Matrix: (Units=1/GPa)
#
#
# Indices 1 2 3 4 5 6 
#
# 1 0.016827 -0.001146 -0.007192 0.000000 0.002941 0.000000
# 2 -0.001146 0.013647 -0.003437 0.000000 0.003267 0.000000
# 3 -0.007192 -0.003437 0.015946 0.000000 -0.002132 0.000000
# 4 0.000000 0.000000 0.000000 0.034910 0.000000 -0.017533
# 5 0.002941 0.003267 -0.002132 0.000000 0.038474 0.000000
# 6 0.000000 0.000000 0.000000 -0.017533 0.000000 0.050738
#
#
# Mechanical properties :
#
#
# Convention : Reuss Voigt Hill
#
# Bulk Modulus (GPa) = 43.72577 45.14767 44.43672
# Shear Modulus (GPa) = 24.78723 28.12220 26.45471
#
# Velocity S-wave (km/s) = 3.48059 3.70734 3.59575
# Velocity P-wave (km/s) = 6.12561 6.35541 6.24157
#
# Compressibility (1/GPa) = 0.02286981
#
# Stress axis : x y z
#
# Youngs Moduli (GPa) = 59.42895 73.27692 62.71012
#
# Poissons Ratio (x) = 0.08401 0.45099
# Poissons Ratio (y) = 0.06813 0.21554
# Poissons Ratio (z) = 0.42739 0.25186
#
# Static dielectric constant tensor:
#      x y z
#    x 3.881330 0.000000 -0.291520 
#    y 0.000000 3.700160 0.000000 
#    z -0.291520 0.000000 4.552010 
# 
# 
# High freq. dielectric constant tensor:
#      x y z
#    x 1.792050 0.000000 -0.003000 
#    y 0.000000 1.803430 0.000000 
#    z -0.003000 0.000000 1.812010 
# 
# From -- ./inp_files/73866.got.cif
#   From: 2010.03.12/outbox.cif.g09.slc.cpg/sg14_37_cif.got.tgz:73866.got - 2010.03.31 13:35:05.
