data_PCOD8125519
_publ_section_title
;
Structure prediction by ZEFSAII (Michael W. Deem and Ramdas Pophale) SiO2 
 PCOD8125519
Probable space group: P 21/C
;
_chemical_formula_sum "Si O2"
_cell_formula_units_Z 28
_cell_length_a 16.556812
_cell_length_b 16.206195
_cell_length_c 5.155608
_cell_angle_alpha 90.000000
_cell_angle_beta 122.505449
_cell_angle_gamma 90.000000
_cell_volume 1166.649886
_symmetry_space_group_name_H-M "P 21/C"
_symmetry_group_IT_number 14
_symmetry_cell_setting 'monoclinic'
loop_
_space_group_symop_operation_xyz
x,y,z
-x,1/2+y,1/2-z
-x,-y,-z
x,1/2-y,1/2+z
loop_
_atom_site_type_symbol
_atom_site_label
_atom_site_fract_x
_atom_site_fract_y
_atom_site_fract_z
Si Si1 0.713865 0.713828 0.203749
Si Si2 0.555840 0.062390 0.915716
Si Si3 0.363345 0.044269 0.363755
Si Si4 0.077740 0.219837 0.589936
Si Si5 0.104862 0.033348 0.726414
Si Si6 0.210677 0.531347 0.917523
Si Si7 0.695973 0.193590 0.340186
O O1 0.662923 0.770691 0.338284
O O2 0.711993 0.619275 0.300743
O O3 0.823572 0.740450 0.354503
O O4 0.467902 0.086815 0.570380
O O5 0.638774 0.017791 0.885913
O O6 0.596516 0.143269 0.128041
O O7 0.500000 0.000000 0.000000
O O8 0.322574 0.994078 0.546710
O O9 0.022031 0.224872 0.215497
O O10 0.093408 0.130606 0.739021
O O11 0.170910 0.018620 0.590810
O O12 0.000000 0.000000 0.500000
O O13 0.148609 0.988383 0.054319
O O14 0.215116 0.628597 0.999116
O O15 0.701694 0.240757 0.620850
#
# Coordination Sequence:
#
# PCOD8125519 Si02
#       7
#     4   4   4   4   4   4   4
#     4  10  21  35  58  96 134 172 222 281 346 424
#     4  11  25  45  68 103 147 190 244 305 364 433
#     4  11  24  41  71 102 141 193 248 288 372 451
#     4  10  20  39  64  99 143 175 215 287 365 421
#     4  12  26  46  75 111 144 190 245 303 376 450
#     4  12  24  47  76 101 140 194 247 298 358 458
#     4  12  27  48  72 103 146 197 253 310 359 420
#
# _framework density 24.000346
#
# number of rings (size 3 to 8) (size 9 to 14) (size 15 to 20)
#    0.000    0.857    1.429    7.286    4.000    1.143 
#    0.000    4.286    0.000    0.000    0.000    0.000 
#    0.000    0.000    0.000    0.000    0.000    0.000 
#
# Total GULP energy -346896.380080 kJ/mol
# GULP energy per Si atom -12389.156431 kJ/mol
# Density = 2.394572 g / cm^3
# Si number density = 24.000346 Si / 1000 Ang^3
#
#
#
# Elastic Constant Matrix: (Units=GPa)
#
#
# Indices 1 2 3 4 5 6 
#
# 1 53.3572 13.9786 23.7444 0.0000 -9.3331 0.0000
# 2 13.9786 118.6717 18.8899 0.0000 3.2239 0.0000
# 3 23.7444 18.8899 98.9002 0.0000 -18.2371 0.0000
# 4 0.0000 0.0000 0.0000 45.5109 0.0000 -17.3521
# 5 -9.3331 3.2239 -18.2371 0.0000 44.4894 0.0000
# 6 0.0000 0.0000 0.0000 -17.3521 0.0000 29.3235
#
#
#
# Elastic Compliance Matrix: (Units=1/GPa)
#
#
# Indices 1 2 3 4 5 6 
#
# 1 0.021674 -0.001950 -0.004291 0.000000 0.002929 0.000000
# 2 -0.001950 0.008950 -0.001554 0.000000 -0.001694 0.000000
# 3 -0.004291 -0.001554 0.012216 0.000000 0.004220 0.000000
# 4 0.000000 0.000000 0.000000 0.028375 0.000000 0.016791
# 5 0.002929 -0.001694 0.004220 0.000000 0.024944 0.000000
# 6 0.000000 0.000000 0.000000 0.016791 0.000000 0.044038
#
#
# Mechanical properties :
#
#
# Convention : Reuss Voigt Hill
#
# Bulk Modulus (GPa) = 36.69549 42.68387 39.68968
# Shear Modulus (GPa) = 30.32687 38.15249 34.23968
#
# Velocity S-wave (km/s) = 3.55857 3.99138 3.78118
# Velocity P-wave (km/s) = 5.67515 6.25019 5.96960
#
# Compressibility (1/GPa) = 0.02725131
#
# Stress axis : x y z
#
# Youngs Moduli (GPa) = 46.13759 111.73665 81.85715
#
# Poissons Ratio (x) = 0.21784 0.35126
# Poissons Ratio (y) = 0.08995 0.12719
# Poissons Ratio (z) = 0.19798 0.17361
#
# Static dielectric constant tensor:
#      x y z
#    x 3.932280 0.000000 0.188200 
#    y 0.000000 4.191280 0.000000 
#    z 0.188200 0.000000 5.669230 
# 
# 
# High freq. dielectric constant tensor:
#      x y z
#    x 1.934550 0.000000 -0.023250 
#    y 0.000000 1.951730 0.000000 
#    z -0.023250 0.000000 1.980540 
# 
# From -- ./inp_files/4166.got.cif
#   From: 2010.03.12/outbox.cif.g09.slc.cpg/sg14_3_cif.got.tgz:4166.got - 2010.03.31 13:35:05.
