data_PCOD8125544
_publ_section_title
;
Structure prediction by ZEFSAII (Michael W. Deem and Ramdas Pophale) SiO2 
 PCOD8125544
Probable space group: P 21/C
;
_chemical_formula_sum "Si O2"
_cell_formula_units_Z 28
_cell_length_a 9.759598
_cell_length_b 13.805230
_cell_length_c 10.947374
_cell_angle_alpha 90.000000
_cell_angle_beta 109.997221
_cell_angle_gamma 90.000000
_cell_volume 1386.050373
_symmetry_space_group_name_H-M "P 21/C"
_symmetry_group_IT_number 14
_symmetry_cell_setting 'monoclinic'
loop_
_space_group_symop_operation_xyz
x,y,z
-x,1/2+y,1/2-z
-x,-y,-z
x,1/2-y,1/2+z
loop_
_atom_site_type_symbol
_atom_site_label
_atom_site_fract_x
_atom_site_fract_y
_atom_site_fract_z
Si Si1 0.631464 0.472070 0.704770
Si Si2 0.877019 0.501157 0.195728
Si Si3 0.752646 0.174243 0.058346
Si Si4 0.213852 0.863464 0.541756
Si Si5 0.847516 0.903945 0.122884
Si Si6 0.704001 0.492290 0.372794
Si Si7 0.995909 0.800986 0.679102
O O1 0.642431 0.379970 0.616822
O O2 0.682627 0.436530 0.853301
O O3 0.730055 0.562101 0.689349
O O4 0.468208 0.509041 0.659915
O O5 0.734766 0.497755 0.238180
O O6 0.888388 0.607596 0.142576
O O7 0.016610 0.476480 0.321405
O O8 0.870888 0.424562 0.085178
O O9 0.907734 0.195104 0.169184
O O10 0.691103 0.278774 0.995320
O O11 0.773334 0.106740 0.946119
O O12 0.097995 0.806847 0.591200
O O13 0.894423 0.793267 0.151325
O O14 0.777270 0.917724 0.967184
#
# Coordination Sequence:
#
# PCOD8125544 Si02
#       7
#     4   4   4   4   4   4   4
#     4  10  24  46  63  93 132 182 207 263 322 385
#     4  12  23  39  64 100 130 163 210 280 323 368
#     4  10  20  39  69  89 122 167 220 253 322 380
#     4  11  23  41  66  95 133 165 214 269 328 380
#     4  11  21  41  69  91 128 168 222 267 315 378
#     4  11  24  43  65  94 132 173 216 259 318 395
#     4  11  23  37  64 103 122 166 214 273 327 367
#
# _framework density 20.201287000000001
#
# number of rings (size 3 to 8) (size 9 to 14) (size 15 to 20)
#    0.000    1.143    5.714    3.429    4.000    0.571 
#    5.143    0.000    0.000    0.000    0.000    0.000 
#    0.000    0.000    0.000    0.000    0.000    0.000 
#
# Total GULP energy -347188.928673 kJ/mol
# GULP energy per Si atom -12399.604595 kJ/mol
# Density = 2.015531 g / cm^3
# Si number density = 20.201287 Si / 1000 Ang^3
#
#
#
# Elastic Constant Matrix: (Units=GPa)
#
#
# Indices 1 2 3 4 5 6 
#
# 1 102.0707 57.1578 38.5127 0.0000 2.3300 0.0000
# 2 57.1578 152.4281 42.9601 0.0000 3.1114 0.0000
# 3 38.5127 42.9601 87.7497 0.0000 -1.2333 0.0000
# 4 0.0000 0.0000 0.0000 24.6093 0.0000 -0.6198
# 5 2.3300 3.1114 -1.2333 0.0000 21.1389 0.0000
# 6 0.0000 0.0000 0.0000 -0.6198 0.0000 15.0081
#
#
#
# Elastic Compliance Matrix: (Units=1/GPa)
#
#
# Indices 1 2 3 4 5 6 
#
# 1 0.013541 -0.003915 -0.004043 0.000000 -0.001152 0.000000
# 2 -0.003915 0.008780 -0.002595 0.000000 -0.001012 0.000000
# 3 -0.004043 -0.002595 0.014464 0.000000 0.001671 0.000000
# 4 0.000000 0.000000 0.000000 0.040677 0.000000 0.001680
# 5 -0.001152 -0.001012 0.001671 0.000000 0.047680 0.000000
# 6 0.000000 0.000000 0.000000 0.001680 0.000000 0.066700
#
#
# Mechanical properties :
#
#
# Convention : Reuss Voigt Hill
#
# Bulk Modulus (GPa) = 63.77049 68.83442 66.30245
# Shear Modulus (GPa) = 22.91747 25.72577 24.32162
#
# Velocity S-wave (km/s) = 3.37182 3.57245 3.47358
# Velocity P-wave (km/s) = 6.84069 7.15295 6.99856
#
# Compressibility (1/GPa) = 0.01568123
#
# Stress axis : x y z
#
# Youngs Moduli (GPa) = 73.84993 113.89022 69.13632
#
# Poissons Ratio (x) = 0.44585 0.27950
# Poissons Ratio (y) = 0.28910 0.17939
# Poissons Ratio (z) = 0.29855 0.29552
#
# Static dielectric constant tensor:
#      x y z
#    x 3.398020 0.000000 -0.086050 
#    y 0.000000 3.768270 0.000000 
#    z -0.086050 0.000000 3.814800 
# 
# 
# High freq. dielectric constant tensor:
#      x y z
#    x 1.764300 0.000000 -0.010410 
#    y 0.000000 1.795010 0.000000 
#    z -0.010410 0.000000 1.795040 
# 
# From -- ./inp_files/25311.got.cif
#   From: 2010.03.12/outbox.cif.g09.slc.cpg/sg14_13_cif.got.tgz:25311.got - 2010.03.31 13:35:05.
