data_PCOD8125509
_publ_section_title
;
Structure prediction by ZEFSAII (Michael W. Deem and Ramdas Pophale) SiO2 
 PCOD8125509
Probable space group: P 21/C
;
_chemical_formula_sum "Si O2"
_cell_formula_units_Z 28
_cell_length_a 9.046850
_cell_length_b 9.156771
_cell_length_c 27.964045
_cell_angle_alpha 90.000000
_cell_angle_beta 142.459278
_cell_angle_gamma 90.000000
_cell_volume 1411.525831
_symmetry_space_group_name_H-M "P 21/C"
_symmetry_group_IT_number 14
_symmetry_cell_setting 'monoclinic'
loop_
_space_group_symop_operation_xyz
x,y,z
-x,1/2+y,1/2-z
-x,-y,-z
x,1/2-y,1/2+z
loop_
_atom_site_type_symbol
_atom_site_label
_atom_site_fract_x
_atom_site_fract_y
_atom_site_fract_z
Si Si1 0.872866 0.780327 0.989014
Si Si2 0.824773 0.453364 0.878090
Si Si3 0.546431 0.115037 0.657047
Si Si4 0.936968 0.264280 0.821392
Si Si5 0.589159 0.939140 0.574145
Si Si6 0.872699 0.261728 0.036075
Si Si7 0.229386 0.477014 0.449405
O O1 0.648237 0.741543 0.897877
O O2 0.074221 0.819376 0.001082
O O3 0.785754 0.907380 0.001547
O O4 0.971842 0.634451 0.040218
O O5 0.568901 0.483657 0.839727
O O6 0.771970 0.354795 0.817385
O O7 0.951211 0.609233 0.900689
O O8 0.776337 0.197227 0.738185
O O9 0.604205 0.063060 0.618247
O O10 0.140262 0.376605 0.856540
O O11 0.069489 0.122448 0.875026
O O12 0.403318 0.813600 0.541290
O O13 0.500000 0.000000 0.500000
O O14 0.889998 0.137179 0.080797
O O15 0.500000 0.500000 0.500000
#
# Coordination Sequence:
#
# PCOD8125509 Si02
#       7
#     4   4   4   4   4   4   4
#     4  10  20  39  64  91 119 170 223 262 311 393
#     4  10  20  42  68  89 119 172 221 253 320 409
#     4  11  23  40  66  95 131 162 218 278 329 386
#     4  11  25  41  61  98 131 167 208 277 339 382
#     4  12  21  42  69  94 126 181 227 262 320 414
#     4  11  19  37  67  91 116 170 226 262 307 382
#     4  11  23  36  61  92 129 162 217 271 318 382
#
# _framework density 19.836690000000001
#
# number of rings (size 3 to 8) (size 9 to 14) (size 15 to 20)
#    0.000    1.143    5.714    2.143    0.000    3.429 
#    0.000    1.429    0.000    0.000    0.000    0.000 
#    0.000    0.000    0.000    0.000    0.000    0.000 
#
# Total GULP energy -346908.993687 kJ/mol
# GULP energy per Si atom -12389.606917 kJ/mol
# Density = 1.979154 g / cm^3
# Si number density = 19.836690 Si / 1000 Ang^3
#
#
#
# Elastic Constant Matrix: (Units=GPa)
#
#
# Indices 1 2 3 4 5 6 
#
# 1 128.6580 50.5749 56.7712 0.0000 -3.0544 0.0000
# 2 50.5749 102.5741 42.4529 0.0000 -1.3662 0.0000
# 3 56.7712 42.4529 108.5251 0.0000 -4.9109 0.0000
# 4 0.0000 0.0000 0.0000 32.3387 0.0000 1.1240
# 5 -3.0544 -1.3662 -4.9109 0.0000 23.9698 0.0000
# 6 0.0000 0.0000 0.0000 1.1240 0.0000 32.5001
#
#
#
# Elastic Compliance Matrix: (Units=1/GPa)
#
#
# Indices 1 2 3 4 5 6 
#
# 1 0.011163 -0.003686 -0.004384 0.000000 0.000314 0.000000
# 2 -0.003686 0.012851 -0.003116 0.000000 -0.000376 0.000000
# 3 -0.004384 -0.003116 0.012812 0.000000 0.001889 0.000000
# 4 0.000000 0.000000 0.000000 0.030960 0.000000 -0.001071
# 5 0.000314 -0.000376 0.001889 0.000000 0.042125 0.000000
# 6 0.000000 0.000000 0.000000 -0.001071 0.000000 0.030806
#
#
# Mechanical properties :
#
#
# Convention : Reuss Voigt Hill
#
# Bulk Modulus (GPa) = 69.17785 71.03947 70.10866
# Shear Modulus (GPa) = 29.77860 30.42560 30.10210
#
# Velocity S-wave (km/s) = 3.87872 3.92063 3.89973
# Velocity P-wave (km/s) = 7.41678 7.50900 7.46303
#
# Compressibility (1/GPa) = 0.01445549
#
# Stress axis : x y z
#
# Youngs Moduli (GPa) = 89.58079 77.81555 78.05180
#
# Poissons Ratio (x) = 0.28680 0.34215
# Poissons Ratio (y) = 0.33016 0.24321
# Poissons Ratio (z) = 0.39269 0.24248
#
# Static dielectric constant tensor:
#      x y z
#    x 5.376950 0.000000 1.562470 
#    y 0.000000 3.725550 0.000000 
#    z 1.562470 0.000000 5.144080 
# 
# 
# High freq. dielectric constant tensor:
#      x y z
#    x 1.793060 0.000000 0.001540 
#    y 0.000000 1.779600 0.000000 
#    z 0.001540 0.000000 1.741300 
# 
# From -- ./inp_files/76389.got.cif
#   From: 2010.03.12/outbox.cif.g09.slc.cpg/sg14_39_cif.got.tgz:76389.got - 2010.03.31 13:35:05.
