data_PCOD8125059
_publ_section_title
;
Structure prediction by ZEFSAII (Michael W. Deem and Ramdas Pophale) SiO2 
 PCOD8125059
Probable space group: P 21/C
;
_chemical_formula_sum "Si O2"
_cell_formula_units_Z 24
_cell_length_a 9.946378
_cell_length_b 21.529236
_cell_length_c 5.525173
_cell_angle_alpha 90.000000
_cell_angle_beta 108.039197
_cell_angle_gamma 90.000000
_cell_volume 1124.991228
_symmetry_space_group_name_H-M "P 21/C"
_symmetry_group_IT_number 14
_symmetry_cell_setting 'monoclinic'
loop_
_space_group_symop_operation_xyz
x,y,z
-x,1/2+y,1/2-z
-x,-y,-z
x,1/2-y,1/2+z
loop_
_atom_site_type_symbol
_atom_site_label
_atom_site_fract_x
_atom_site_fract_y
_atom_site_fract_z
Si Si1 0.091263 0.422222 0.279175
Si Si2 0.486456 0.785099 0.036699
Si Si3 0.824059 0.480343 0.038002
Si Si4 0.816325 0.714183 0.714877
Si Si5 0.636544 0.972380 0.807487
Si Si6 0.615010 0.414496 0.626523
O O1 0.093086 0.348753 0.238574
O O2 0.214502 0.443786 0.523408
O O3 0.934292 0.445201 0.281595
O O4 0.104410 0.457968 0.031070
O O5 0.447698 0.750083 0.764377
O O6 0.390000 0.846427 0.990786
O O7 0.651238 0.802778 0.127057
O O8 0.674467 0.504943 0.060769
O O9 0.771108 0.427826 0.818999
O O10 0.855206 0.750740 0.488053
O O11 0.514890 0.920012 0.750187
O O12 0.582705 0.034278 0.907541
#
# Coordination Sequence:
#
# PCOD8125059 Si02
#       6
#     4   4   4   4   4   4
#     4  10  21  39  58  90 120 157 209 252 306 371
#     4  10  22  38  62  87 120 164 208 257 305 366
#     4  10  22  36  61  89 122 161 196 256 319 364
#     4  10  22  40  62  90 118 164 212 255 301 364
#     4  10  20  36  61  87 119 157 197 256 309 361
#     4  10  21  37  55  92 119 152 207 252 307 369
#
# _framework density 21.333500999999998
#
# number of rings (size 3 to 8) (size 9 to 14) (size 15 to 20)
#    0.000    2.000    1.667    1.000    4.667    1.333 
#    0.000    1.667    0.000    0.000    0.000    0.000 
#    0.000    0.000    0.000    0.000    0.000    0.000 
#
# Total GULP energy -297329.788721 kJ/mol
# GULP energy per Si atom -12388.741197 kJ/mol
# Density = 2.128494 g / cm^3
# Si number density = 21.333501 Si / 1000 Ang^3
#
#
#
# Elastic Constant Matrix: (Units=GPa)
#
#
# Indices 1 2 3 4 5 6 
#
# 1 42.8266 21.5582 13.9761 0.0000 4.2823 0.0000
# 2 21.5582 127.6728 43.3445 0.0000 7.9290 0.0000
# 3 13.9761 43.3445 94.7669 0.0000 -2.7660 0.0000
# 4 0.0000 0.0000 0.0000 23.3112 0.0000 6.5678
# 5 4.2823 7.9290 -2.7660 0.0000 30.4546 0.0000
# 6 0.0000 0.0000 0.0000 6.5678 0.0000 27.8020
#
#
#
# Elastic Compliance Matrix: (Units=1/GPa)
#
#
# Indices 1 2 3 4 5 6 
#
# 1 0.026149 -0.003421 -0.002379 0.000000 -0.003002 0.000000
# 2 -0.003421 0.009966 -0.004126 0.000000 -0.002488 0.000000
# 3 -0.002379 -0.004126 0.012866 0.000000 0.002577 0.000000
# 4 0.000000 0.000000 0.000000 0.045957 0.000000 -0.010857
# 5 -0.003002 -0.002488 0.002577 0.000000 0.034140 0.000000
# 6 0.000000 0.000000 0.000000 -0.010857 0.000000 0.038533
#
#
# Mechanical properties :
#
#
# Convention : Reuss Voigt Hill
#
# Bulk Modulus (GPa) = 34.33263 47.00265 40.66764
# Shear Modulus (GPa) = 25.35862 28.73939 27.04901
#
# Velocity S-wave (km/s) = 3.45146 3.67433 3.56464
# Velocity P-wave (km/s) = 5.65788 6.33097 6.00386
#
# Compressibility (1/GPa) = 0.02912681
#
# Stress axis : x y z
#
# Youngs Moduli (GPa) = 38.24271 100.34583 77.72714
#
# Poissons Ratio (x) = 0.34330 0.18493
# Poissons Ratio (y) = 0.13083 0.32071
# Poissons Ratio (z) = 0.09099 0.41404
#
# Static dielectric constant tensor:
#      x y z
#    x 4.049890 0.000000 0.017240 
#    y 0.000000 3.715090 0.000000 
#    z 0.017240 0.000000 3.821570 
# 
# 
# High freq. dielectric constant tensor:
#      x y z
#    x 1.827870 0.000000 0.005750 
#    y 0.000000 1.829000 0.000000 
#    z 0.005750 0.000000 1.831720 
# 
# From -- ./inp_files/2715.got.cif
#   From: 2010.03.12/outbox.cif.g09.slc.cpg/sg14_2_cif.got.tgz:2715.got - 2010.03.31 13:35:05.
