data_PCOD8125015
_publ_section_title
;
Structure prediction by ZEFSAII (Michael W. Deem and Ramdas Pophale) SiO2 
 PCOD8125015
Probable space group: P 21/C
;
_chemical_formula_sum "Si O2"
_cell_formula_units_Z 24
_cell_length_a 14.067887
_cell_length_b 10.424610
_cell_length_c 14.146955
_cell_angle_alpha 90.000000
_cell_angle_beta 33.788222
_cell_angle_gamma 90.000000
_cell_volume 1153.782397
_symmetry_space_group_name_H-M "P 21/C"
_symmetry_group_IT_number 14
_symmetry_cell_setting 'monoclinic'
loop_
_space_group_symop_operation_xyz
x,y,z
-x,1/2+y,1/2-z
-x,-y,-z
x,1/2-y,1/2+z
loop_
_atom_site_type_symbol
_atom_site_label
_atom_site_fract_x
_atom_site_fract_y
_atom_site_fract_z
Si Si1 0.095785 0.100187 0.857013
Si Si2 0.195990 0.781752 0.447325
Si Si3 0.272436 0.966005 0.546684
Si Si4 0.441267 0.208987 0.615871
Si Si5 0.530832 0.406464 0.701332
Si Si6 0.484768 0.897080 0.094582
O O1 0.269306 0.128811 0.770398
O O2 0.131766 0.039170 0.724677
O O3 0.987375 0.231522 0.935591
O O4 0.000000 0.000000 0.000000
O O5 0.171359 0.875575 0.556836
O O6 0.303917 0.656181 0.388543
O O7 0.290086 0.860346 0.285386
O O8 0.393329 0.881587 0.515052
O O9 0.388886 0.070688 0.397933
O O10 0.446888 0.314784 0.692783
O O11 0.430787 0.269137 0.518388
O O12 0.576854 0.544019 0.612383
O O13 0.500000 0.000000 0.000000
#
# Coordination Sequence:
#
# PCOD8125015 Si02
#       6
#     4   4   4   4   4   4
#     4  12  24  35  53  83 114 143 179 230 276 316
#     4  10  21  36  56  83 111 139 182 232 272 318
#     4  10  21  38  57  78 108 149 185 217 271 335
#     4  10  20  36  59  80 107 146 183 221 269 332
#     4   9  19  37  59  79 104 143 186 221 266 331
#     4   9  18  36  59  81 103 140 185 223 267 326
#
# _framework density 20.80115
#
# number of rings (size 3 to 8) (size 9 to 14) (size 15 to 20)
#    0.000    2.000    0.000    3.500    0.000    2.667 
#    0.000    7.500    0.000    0.000    0.000    0.000 
#    0.000    0.000    0.000    0.000    0.000    0.000 
#
# Total GULP energy -297502.086733 kJ/mol
# GULP energy per Si atom -12395.920281 kJ/mol
# Density = 2.075381 g / cm^3
# Si number density = 20.801150 Si / 1000 Ang^3
#
#
#
# Elastic Constant Matrix: (Units=GPa)
#
#
# Indices 1 2 3 4 5 6 
#
# 1 54.3777 22.6081 27.8025 0.0000 5.9254 0.0000
# 2 22.6081 71.8335 40.8573 0.0000 7.4803 0.0000
# 3 27.8025 40.8573 104.6297 0.0000 20.7841 0.0000
# 4 0.0000 0.0000 0.0000 53.2671 0.0000 6.5456
# 5 5.9254 7.4803 20.7841 0.0000 31.0281 0.0000
# 6 0.0000 0.0000 0.0000 6.5456 0.0000 34.6525
#
#
#
# Elastic Compliance Matrix: (Units=1/GPa)
#
#
# Indices 1 2 3 4 5 6 
#
# 1 0.022468 -0.004730 -0.004034 0.000000 -0.000448 0.000000
# 2 -0.004730 0.018896 -0.006225 0.000000 0.000517 0.000000
# 3 -0.004034 -0.006225 0.014544 0.000000 -0.007471 0.000000
# 4 0.000000 0.000000 0.000000 0.019219 0.000000 -0.003630
# 5 -0.000448 0.000517 -0.007471 0.000000 0.037194 0.000000
# 6 0.000000 0.000000 0.000000 -0.003630 0.000000 0.029544
#
#
# Mechanical properties :
#
#
# Convention : Reuss Voigt Hill
#
# Bulk Modulus (GPa) = 38.56453 45.93075 42.24764
# Shear Modulus (GPa) = 27.70267 33.09441 30.39854
#
# Velocity S-wave (km/s) = 3.65332 3.99305 3.82696
# Velocity P-wave (km/s) = 6.03121 6.58696 6.31520
#
# Compressibility (1/GPa) = 0.02593056
#
# Stress axis : x y z
#
# Youngs Moduli (GPa) = 44.50791 52.92003 68.75495
#
# Poissons Ratio (x) = 0.25032 0.27737
# Poissons Ratio (y) = 0.21053 0.42799
# Poissons Ratio (z) = 0.17955 0.32942
#
# Static dielectric constant tensor:
#      x y z
#    x 3.792630 0.000000 0.341300 
#    y 0.000000 4.152670 0.000000 
#    z 0.341300 0.000000 3.740220 
# 
# 
# High freq. dielectric constant tensor:
#      x y z
#    x 1.801210 0.000000 0.029050 
#    y 0.000000 1.832850 0.000000 
#    z 0.029050 0.000000 1.805990 
# 
# From -- ./inp_files/44577.got.cif
#   From: 2010.03.12/outbox.cif.g09.slc.cpg/sg14_23_cif.got.tgz:44577.got - 2010.03.31 13:35:05.
