data_PCOD8125645
_publ_section_title
;
Structure prediction by ZEFSAII (Michael W. Deem and Ramdas Pophale) SiO2 
 PCOD8125645
Probable space group: P 21/C
;
_chemical_formula_sum "Si O2"
_cell_formula_units_Z 32
_cell_length_a 21.116750
_cell_length_b 13.706921
_cell_length_c 14.949358
_cell_angle_alpha 90.000000
_cell_angle_beta 18.656851
_cell_angle_gamma 90.000000
_cell_volume 1384.213809
_symmetry_space_group_name_H-M "P 21/C"
_symmetry_group_IT_number 14
_symmetry_cell_setting 'monoclinic'
loop_
_space_group_symop_operation_xyz
x,y,z
-x,1/2+y,1/2-z
-x,-y,-z
x,1/2-y,1/2+z
loop_
_atom_site_type_symbol
_atom_site_label
_atom_site_fract_x
_atom_site_fract_y
_atom_site_fract_z
Si Si1 0.283762 0.972771 0.063510
Si Si2 0.777602 0.319672 0.071710
Si Si3 0.819392 0.514215 0.589015
Si Si4 0.306363 0.730619 0.621208
Si Si5 0.493114 0.081405 0.633189
Si Si6 0.332834 0.133984 0.139508
Si Si7 0.984855 0.790959 0.916530
Si Si8 0.059567 0.025423 0.612558
O O1 0.362034 0.879218 0.015166
O O2 0.246496 0.064943 0.177201
O O3 0.080796 0.946051 0.283719
O O4 0.448765 0.005291 0.771425
O O5 0.734297 0.257759 0.218240
O O6 0.566725 0.354784 0.314304
O O7 0.896777 0.261133 0.834162
O O8 0.912706 0.409434 0.922112
O O9 0.671946 0.575560 0.722210
O O10 0.952462 0.593060 0.462490
O O11 0.958135 0.444227 0.342156
O O12 0.707580 0.446989 0.808458
O O13 0.487221 0.806278 0.358427
O O14 0.111766 0.764937 0.832116
O O15 0.226024 0.238433 0.287804
O O16 0.269478 0.080085 0.317707
#
# Coordination Sequence:
#
# PCOD8125645 Si02
#       8
#     4   4   4   4   4   4   4   4
#     4  11  23  41  67 100 138 178 233 283 346 404
#     4  11  25  42  68 101 136 176 235 279 343 414
#     4   9  22  44  65  97 135 183 233 270 346 404
#     4  12  24  42  67 100 136 176 230 285 340 410
#     4  10  23  42  70  96 137 186 225 285 337 412
#     4  12  22  41  69  99 134 179 223 286 344 399
#     4  11  25  43  68 100 141 179 224 285 342 414
#     4  10  20  40  67  94 131 182 222 285 337 400
#
# _framework density 23.117816000000001
#
# number of rings (size 3 to 8) (size 9 to 14) (size 15 to 20)
#    0.000    1.250    2.500    3.000    1.750    3.500 
#    0.000    2.500    0.000    0.000    0.000    0.000 
#    0.000    0.000    0.000    0.000    0.000    0.000 
#
# Total GULP energy -396722.547427 kJ/mol
# GULP energy per Si atom -12397.579607 kJ/mol
# Density = 2.306520 g / cm^3
# Si number density = 23.117816 Si / 1000 Ang^3
#
#
#
# Elastic Constant Matrix: (Units=GPa)
#
#
# Indices 1 2 3 4 5 6 
#
# 1 60.2282 25.4713 15.4923 0.0000 7.8310 0.0000
# 2 25.4713 68.3878 20.4234 0.0000 3.9155 0.0000
# 3 15.4923 20.4234 101.7673 0.0000 21.3659 0.0000
# 4 0.0000 0.0000 0.0000 41.1095 0.0000 -2.9812
# 5 7.8310 3.9155 21.3659 0.0000 26.3624 0.0000
# 6 0.0000 0.0000 0.0000 -2.9812 0.0000 28.0384
#
#
#
# Elastic Compliance Matrix: (Units=1/GPa)
#
#
# Indices 1 2 3 4 5 6 
#
# 1 0.020376 -0.007113 -0.000754 0.000000 -0.004385 0.000000
# 2 -0.007113 0.018039 -0.002914 0.000000 0.001796 0.000000
# 3 -0.000754 -0.002914 0.012518 0.000000 -0.009489 0.000000
# 4 0.000000 0.000000 0.000000 0.024514 0.000000 0.002606
# 5 -0.004385 0.001796 -0.009489 0.000000 0.046659 0.000000
# 6 0.000000 0.000000 0.000000 0.002606 0.000000 0.035943
#
#
# Mechanical properties :
#
#
# Convention : Reuss Voigt Hill
#
# Bulk Modulus (GPa) = 34.04705 39.23974 36.64340
# Shear Modulus (GPa) = 26.39897 30.36847 28.38372
#
# Velocity S-wave (km/s) = 3.38291 3.62835 3.50778
# Velocity P-wave (km/s) = 5.47891 5.87910 5.68253
#
# Compressibility (1/GPa) = 0.02937112
#
# Stress axis : x y z
#
# Youngs Moduli (GPa) = 49.07808 55.43465 79.88427
#
# Poissons Ratio (x) = 0.39430 0.06021
# Poissons Ratio (y) = 0.34909 0.23282
# Poissons Ratio (z) = 0.03699 0.16156
#
# Static dielectric constant tensor:
#      x y z
#    x 4.100770 0.000000 0.267620 
#    y 0.000000 4.087720 0.000000 
#    z 0.267620 0.000000 4.305090 
# 
# 
# High freq. dielectric constant tensor:
#      x y z
#    x 1.905800 0.000000 0.013010 
#    y 0.000000 1.910890 0.000000 
#    z 0.013010 0.000000 1.917670 
# 
# From -- ./inp_files/50670.got.cif
#   From: 2010.03.12/outbox.cif.g09.slc.cpg/sg14_26_cif.got.tgz:50670.got - 2010.03.31 13:35:05.
