data_PCOD8125932
_publ_section_title
;
Structure prediction by ZEFSAII (Michael W. Deem and Ramdas Pophale) SiO2 
 PCOD8125932
Probable space group: P 21/C
;
_chemical_formula_sum "Si O2"
_cell_formula_units_Z 20
_cell_length_a 16.243979
_cell_length_b 5.358216
_cell_length_c 10.085299
_cell_angle_alpha 90.000000
_cell_angle_beta 112.372919
_cell_angle_gamma 90.000000
_cell_volume 811.735433
_symmetry_space_group_name_H-M "P 21/C"
_symmetry_group_IT_number 14
_symmetry_cell_setting 'monoclinic'
loop_
_space_group_symop_operation_xyz
x,y,z
-x,1/2+y,1/2-z
-x,-y,-z
x,1/2-y,1/2+z
loop_
_atom_site_type_symbol
_atom_site_label
_atom_site_fract_x
_atom_site_fract_y
_atom_site_fract_z
Si Si1 0.061549 0.067084 0.415505
Si Si2 0.248779 0.851178 0.720658
Si Si3 0.105102 0.574012 0.351126
Si Si4 0.684676 0.841572 0.819995
Si Si5 0.600727 0.576799 0.543061
O O1 0.118906 0.325889 0.451099
O O2 0.000399 0.086876 0.246292
O O3 0.129025 0.828537 0.447335
O O4 0.000000 0.000000 0.500000
O O5 0.160767 0.920133 0.750008
O O6 0.249150 0.582027 0.647910
O O7 0.257328 0.087198 0.624959
O O8 0.334233 0.850663 0.872074
O O9 0.624794 0.817115 0.649681
O O10 0.617093 0.864037 0.899976
O O11 0.500000 0.500000 0.500000
#
# Coordination Sequence:
#
# PCOD8125932 Si02
#       5
#     4   4   4   4   4
#     4  10  21  36  62  88 125 165 210 259 315 380
#     4  10  24  40  66  93 133 170 221 270 329 389
#     4  10  21  39  58  92 123 163 213 257 318 379
#     4  10  25  43  67  97 129 176 217 271 329 389
#     4  10  26  44  70  95 136 170 223 272 329 396
#
# _framework density 24.638567999999999
#
# number of rings (size 3 to 8) (size 9 to 14) (size 15 to 20)
#    1.200    0.800    0.000    1.800    5.600    4.000 
#    0.000    0.000    0.000    0.000    0.000    0.000 
#    0.000    0.000    0.000    0.000    0.000    0.000 
#
# Total GULP energy -247798.126742 kJ/mol
# GULP energy per Si atom -12389.906337 kJ/mol
# Density = 2.458249 g / cm^3
# Si number density = 24.638568 Si / 1000 Ang^3
#
#
#
# Elastic Constant Matrix: (Units=GPa)
#
#
# Indices 1 2 3 4 5 6 
#
# 1 103.1686 82.0674 26.3083 0.0000 -36.0795 0.0000
# 2 82.0674 252.6309 52.6003 0.0000 -26.3232 0.0000
# 3 26.3083 52.6003 63.7053 0.0000 -37.2045 0.0000
# 4 0.0000 0.0000 0.0000 37.4961 0.0000 0.1385
# 5 -36.0795 -26.3232 -37.2045 0.0000 59.9261 0.0000
# 6 0.0000 0.0000 0.0000 0.1385 0.0000 33.1700
#
#
#
# Elastic Compliance Matrix: (Units=1/GPa)
#
#
# Indices 1 2 3 4 5 6 
#
# 1 0.016073 -0.004831 0.002767 0.000000 0.009273 0.000000
# 2 -0.004831 0.006244 -0.005110 0.000000 -0.003339 0.000000
# 3 0.002767 -0.005110 0.028922 0.000000 0.017377 0.000000
# 4 0.000000 0.000000 0.000000 0.026670 0.000000 -0.000111
# 5 0.009273 -0.003339 0.017377 0.000000 0.031592 0.000000
# 6 0.000000 0.000000 0.000000 -0.000111 0.000000 0.030148
#
#
# Mechanical properties :
#
#
# Convention : Reuss Voigt Hill
#
# Bulk Modulus (GPa) = 27.10747 82.38409 54.74578
# Shear Modulus (GPa) = 30.06692 43.35370 36.71031
#
# Velocity S-wave (km/s) = 3.49710 4.19929 3.86418
# Velocity P-wave (km/s) = 5.22802 7.55127 6.49438
#
# Compressibility (1/GPa) = 0.03689021
#
# Stress axis : x y z
#
# Youngs Moduli (GPa) = 62.21512 160.15656 34.57518
#
# Poissons Ratio (x) = 0.77376 -0.09566
# Poissons Ratio (y) = 0.30058 0.17668
# Poissons Ratio (z) = -0.17213 0.81841
#
# Static dielectric constant tensor:
#      x y z
#    x 4.116810 0.000000 0.094920 
#    y 0.000000 4.739250 0.000000 
#    z 0.094920 0.000000 4.388800 
# 
# 
# High freq. dielectric constant tensor:
#      x y z
#    x 1.973900 0.000000 0.007490 
#    y 0.000000 1.993670 0.000000 
#    z 0.007490 0.000000 1.978440 
# 
# From -- ./inp_files/31112.got.cif
#   From: 2010.03.12/outbox.cif.g09.slc.cpg/sg14_16_cif.got.tgz:31112.got - 2010.03.31 13:35:05.
