data_PCOD8125701
_publ_section_title
;
Structure prediction by ZEFSAII (Michael W. Deem and Ramdas Pophale) SiO2 
 PCOD8125701
Probable space group: P 21/C
;
_chemical_formula_sum "Si O2"
_cell_formula_units_Z 20
_cell_length_a 7.521523
_cell_length_b 16.092665
_cell_length_c 13.867965
_cell_angle_alpha 90.000000
_cell_angle_beta 143.827751
_cell_angle_gamma 90.000000
_cell_volume 990.732829
_symmetry_space_group_name_H-M "P 21/C"
_symmetry_group_IT_number 14
_symmetry_cell_setting 'monoclinic'
loop_
_space_group_symop_operation_xyz
x,y,z
-x,1/2+y,1/2-z
-x,-y,-z
x,1/2-y,1/2+z
loop_
_atom_site_type_symbol
_atom_site_label
_atom_site_fract_x
_atom_site_fract_y
_atom_site_fract_z
Si Si1 0.632991 0.069764 0.624815
Si Si2 0.727695 0.618124 0.651779
Si Si3 0.668496 0.517231 0.815728
Si Si4 0.239150 0.276930 0.933272
Si Si5 0.601750 0.358614 0.670858
O O1 0.550353 0.052762 0.699170
O O2 0.499934 0.156577 0.528653
O O3 0.990458 0.069221 0.770664
O O4 0.500000 0.000000 0.500000
O O5 0.669333 0.587746 0.733869
O O6 0.797846 0.718397 0.678454
O O7 0.438816 0.601081 0.454838
O O8 0.538234 0.429594 0.721304
O O9 0.000000 0.500000 0.000000
O O10 0.936027 0.322939 0.831492
O O11 0.353733 0.215626 0.070854
#
# Coordination Sequence:
#
# PCOD8125701 Si02
#       5
#     4   4   4   4   4
#     4  12  23  42  67  97 135 174 214 266 330 390
#     4  10  22  43  65  93 132 167 222 264 328 381
#     4  12  23  39  70  98 130 172 216 270 330 388
#     4  10  20  41  66  91 133 173 210 278 320 379
#     4  10  21  41  66  93 132 170 218 274 322 388
#
# _framework density 20.187076000000001
#
# number of rings (size 3 to 8) (size 9 to 14) (size 15 to 20)
#    1.200    0.000    6.000    0.600    0.000    0.800 
#    3.600    4.000    0.000    0.000    0.000    0.000 
#    0.000    0.000    0.000    0.000    0.000    0.000 
#
# Total GULP energy -247814.929998 kJ/mol
# GULP energy per Si atom -12390.746500 kJ/mol
# Density = 2.014113 g / cm^3
# Si number density = 20.187076 Si / 1000 Ang^3
#
#
#
# Elastic Constant Matrix: (Units=GPa)
#
#
# Indices 1 2 3 4 5 6 
#
# 1 112.6964 40.1443 30.9054 0.0000 -16.0048 0.0000
# 2 40.1443 135.3170 38.3763 0.0000 -13.9881 0.0000
# 3 30.9054 38.3763 87.3709 0.0000 -3.5723 0.0000
# 4 0.0000 0.0000 0.0000 50.5744 0.0000 1.7578
# 5 -16.0048 -13.9881 -3.5723 0.0000 29.9745 0.0000
# 6 0.0000 0.0000 0.0000 1.7578 0.0000 10.0387
#
#
#
# Elastic Compliance Matrix: (Units=1/GPa)
#
#
# Indices 1 2 3 4 5 6 
#
# 1 0.011014 -0.001986 -0.002835 0.000000 0.004616 0.000000
# 2 -0.001986 0.009185 -0.003216 0.000000 0.002843 0.000000
# 3 -0.002835 -0.003216 0.013805 0.000000 -0.001369 0.000000
# 4 0.000000 0.000000 0.000000 0.019894 0.000000 -0.003483
# 5 0.004616 0.002843 -0.001369 0.000000 0.036990 0.000000
# 6 0.000000 0.000000 0.000000 -0.003483 0.000000 0.100224
#
#
# Mechanical properties :
#
#
# Convention : Reuss Voigt Hill
#
# Bulk Modulus (GPa) = 55.77138 61.58181 58.67660
# Shear Modulus (GPa) = 23.45639 33.18142 28.31891
#
# Velocity S-wave (km/s) = 3.41244 4.05865 3.74949
# Velocity P-wave (km/s) = 6.57370 7.24812 6.91914
#
# Compressibility (1/GPa) = 0.01793034
#
# Stress axis : x y z
#
# Youngs Moduli (GPa) = 90.79434 108.87160 72.43981
#
# Poissons Ratio (x) = 0.21626 0.20534
# Poissons Ratio (y) = 0.18035 0.23293
# Poissons Ratio (z) = 0.25737 0.35008
#
# Static dielectric constant tensor:
#      x y z
#    x 3.356700 0.000000 0.105710 
#    y 0.000000 4.032750 0.000000 
#    z 0.105710 0.000000 3.756370 
# 
# 
# High freq. dielectric constant tensor:
#      x y z
#    x 1.748150 0.000000 0.013130 
#    y 0.000000 1.809970 0.000000 
#    z 0.013130 0.000000 1.797440 
# 
# From -- ./inp_files/40835.got.cif
#   From: 2010.03.12/outbox.cif.g09.slc.cpg/sg14_21_cif.got.tgz:40835.got - 2010.03.31 13:35:05.
