data_PCOD8125151
_publ_section_title
;
Structure prediction by ZEFSAII (Michael W. Deem and Ramdas Pophale) SiO2 
 PCOD8125151
Probable space group: P 21/C
;
_chemical_formula_sum "Si O2"
_cell_formula_units_Z 32
_cell_length_a 8.985018
_cell_length_b 9.080457
_cell_length_c 19.403282
_cell_angle_alpha 90.000000
_cell_angle_beta 97.033143
_cell_angle_gamma 90.000000
_cell_volume 1571.164448
_symmetry_space_group_name_H-M "P 21/C"
_symmetry_group_IT_number 14
_symmetry_cell_setting 'monoclinic'
loop_
_space_group_symop_operation_xyz
x,y,z
-x,1/2+y,1/2-z
-x,-y,-z
x,1/2-y,1/2+z
loop_
_atom_site_type_symbol
_atom_site_label
_atom_site_fract_x
_atom_site_fract_y
_atom_site_fract_z
Si Si1 0.105452 0.285250 0.832283
Si Si2 0.551056 0.740252 0.167342
Si Si3 0.099952 0.031934 0.727274
Si Si4 0.549091 0.823922 0.920467
Si Si5 0.643384 0.145399 0.964189
Si Si6 0.584591 0.057915 0.224275
Si Si7 0.065131 0.800345 0.536508
Si Si8 0.825726 0.613807 0.918889
O O1 0.283406 0.296715 0.849881
O O2 0.056341 0.146575 0.783874
O O3 0.046383 0.434271 0.793933
O O4 0.037324 0.266736 0.903721
O O5 0.445616 0.758344 0.096165
O O6 0.491240 0.605064 0.208740
O O7 0.546364 0.886898 0.212826
O O8 0.150215 0.120460 0.661793
O O9 0.235503 0.925344 0.759793
O O10 0.479262 0.842935 0.840931
O O11 0.666632 0.689229 0.927617
O O12 0.627481 0.971692 0.952222
O O13 0.411932 0.795474 0.964785
O O14 0.820277 0.167937 0.967708
O O15 0.961951 0.801078 0.463118
O O16 0.166077 0.947225 0.552039
#
# Coordination Sequence:
#
# PCOD8125151 Si02
#       8
#     4   4   4   4   4   4   4   4
#     4  10  21  37  58  84 115 151 189 233 285 340
#     4  10  20  37  59  83 114 150 188 235 286 336
#     4  10  22  38  57  84 116 148 189 234 281 339
#     4  10  21  38  59  85 114 147 191 238 285 337
#     4  10  22  38  58  85 115 149 191 237 285 338
#     4  10  21  37  59  84 113 147 189 237 283 336
#     4  10  22  39  59  84 116 153 191 231 281 340
#     4  10  21  40  59  83 117 150 190 235 280 338
#
# _framework density 20.367059999999999
#
# number of rings (size 3 to 8) (size 9 to 14) (size 15 to 20)
#    0.000    2.000    0.000    3.750    0.000    7.000 
#    0.000    6.250    0.000    0.000    0.000    0.000 
#    0.000    0.000    0.000    0.000    0.000    0.000 
#
# Total GULP energy -396881.715399 kJ/mol
# GULP energy per Si atom -12402.553606 kJ/mol
# Density = 2.032070 g / cm^3
# Si number density = 20.367060 Si / 1000 Ang^3
#
#
#
# Elastic Constant Matrix: (Units=GPa)
#
#
# Indices 1 2 3 4 5 6 
#
# 1 91.2990 47.7741 37.0244 0.0000 -15.7341 0.0000
# 2 47.7741 51.6597 35.4031 0.0000 -13.8335 0.0000
# 3 37.0244 35.4031 72.6590 0.0000 -0.5605 0.0000
# 4 0.0000 0.0000 0.0000 25.5746 0.0000 -4.7289
# 5 -15.7341 -13.8335 -0.5605 0.0000 29.9253 0.0000
# 6 0.0000 0.0000 0.0000 -4.7289 0.0000 39.9497
#
#
#
# Elastic Compliance Matrix: (Units=1/GPa)
#
#
# Indices 1 2 3 4 5 6 
#
# 1 0.021658 -0.017419 -0.002523 0.000000 0.003288 0.000000
# 2 -0.017419 0.049391 -0.015086 0.000000 0.013391 0.000000
# 3 -0.002523 -0.015086 0.022339 0.000000 -0.007882 0.000000
# 4 0.000000 0.000000 0.000000 0.039976 0.000000 0.004732
# 5 0.003288 0.013391 -0.007882 0.000000 0.041187 0.000000
# 6 0.000000 0.000000 0.000000 0.004732 0.000000 0.025592
#
#
# Mechanical properties :
#
#
# Convention : Reuss Voigt Hill
#
# Bulk Modulus (GPa) = 42.86306 50.66897 46.76602
# Shear Modulus (GPa) = 17.98710 25.45101 21.71905
#
# Velocity S-wave (km/s) = 2.97500 3.53883 3.26909
# Velocity P-wave (km/s) = 5.73514 6.45210 6.10416
#
# Compressibility (1/GPa) = 0.02333011
#
# Stress axis : x y z
#
# Youngs Moduli (GPa) = 46.17275 20.24654 44.76559
#
# Poissons Ratio (x) = 0.35268 0.11295
# Poissons Ratio (y) = 0.80430 0.67535
# Poissons Ratio (z) = 0.11650 0.30545
#
# Static dielectric constant tensor:
#      x y z
#    x 3.634470 0.000000 0.111860 
#    y 0.000000 3.552810 0.000000 
#    z 0.111860 0.000000 3.876140 
# 
# 
# High freq. dielectric constant tensor:
#      x y z
#    x 1.797570 0.000000 0.007140 
#    y 0.000000 1.786490 0.000000 
#    z 0.007140 0.000000 1.810780 
# 
# From -- ./inp_files/64864.got.cif
#   From: 2010.03.12/outbox.cif.g09.slc.cpg/sg14_33_cif.got.tgz:64864.got - 2010.03.31 13:35:05.
