data_PCOD8125249
_publ_section_title
;
Structure prediction by ZEFSAII (Michael W. Deem and Ramdas Pophale) SiO2 
 PCOD8125249
Probable space group: P 21/C
;
_chemical_formula_sum "Si O2"
_cell_formula_units_Z 28
_cell_length_a 9.344631
_cell_length_b 12.434814
_cell_length_c 13.925482
_cell_angle_alpha 90.000000
_cell_angle_beta 57.529801
_cell_angle_gamma 90.000000
_cell_volume 1365.163606
_symmetry_space_group_name_H-M "P 21/C"
_symmetry_group_IT_number 14
_symmetry_cell_setting 'monoclinic'
loop_
_space_group_symop_operation_xyz
x,y,z
-x,1/2+y,1/2-z
-x,-y,-z
x,1/2-y,1/2+z
loop_
_atom_site_type_symbol
_atom_site_label
_atom_site_fract_x
_atom_site_fract_y
_atom_site_fract_z
Si Si1 0.188421 0.023076 0.580011
Si Si2 0.094058 0.246647 0.161344
Si Si3 0.062071 0.622627 0.623112
Si Si4 0.351275 0.930246 0.330144
Si Si5 0.817164 0.537223 0.279055
Si Si6 0.188296 0.699451 0.378874
Si Si7 0.709048 0.993127 0.252139
O O1 0.199826 0.153668 0.579850
O O2 0.296842 0.980950 0.631758
O O3 0.259730 0.982550 0.454420
O O4 0.996571 0.981205 0.660393
O O5 0.961292 0.286432 0.288654
O O6 0.212183 0.159013 0.172781
O O7 0.988613 0.191208 0.114411
O O8 0.881231 0.568794 0.660640
O O9 0.189742 0.534895 0.622159
O O10 0.151029 0.679664 0.503036
O O11 0.276611 0.813839 0.333416
O O12 0.550677 0.919166 0.279079
O O13 0.326632 0.006141 0.245838
O O14 0.310150 0.606041 0.295861
#
# Coordination Sequence:
#
# PCOD8125249 Si02
#       7
#     4   4   4   4   4   4   4
#     4  10  21  40  61  93 122 169 209 250 300 379
#     4  10  20  37  65  93 116 161 216 254 293 359
#     4  10  22  40  66  87 119 166 217 249 294 379
#     4  12  24  39  64  97 128 158 204 267 314 356
#     4  10  20  38  61  92 123 155 220 254 291 374
#     4  12  22  40  69  87 120 177 206 245 319 364
#     4  10  24  42  60  92 132 159 205 259 312 372
#
# _framework density 20.510362000000001
#
# number of rings (size 3 to 8) (size 9 to 14) (size 15 to 20)
#    0.000    1.714    5.714    2.143    2.000    2.286 
#    0.000    0.714    3.143    0.000    0.000    0.000 
#    0.000    0.000    0.000    0.000    0.000    0.000 
#
# Total GULP energy -347160.207542 kJ/mol
# GULP energy per Si atom -12398.578841 kJ/mol
# Density = 2.046368 g / cm^3
# Si number density = 20.510362 Si / 1000 Ang^3
#
#
#
# Elastic Constant Matrix: (Units=GPa)
#
#
# Indices 1 2 3 4 5 6 
#
# 1 88.5853 -1.3066 18.1430 0.0000 9.6143 0.0000
# 2 -1.3066 76.1031 19.3611 0.0000 8.4258 0.0000
# 3 18.1430 19.3611 53.8138 0.0000 17.6451 0.0000
# 4 0.0000 0.0000 0.0000 31.4262 0.0000 11.1466
# 5 9.6143 8.4258 17.6451 0.0000 19.5951 0.0000
# 6 0.0000 0.0000 0.0000 11.1466 0.0000 28.4588
#
#
#
# Elastic Compliance Matrix: (Units=1/GPa)
#
#
# Indices 1 2 3 4 5 6 
#
# 1 0.012426 0.001514 -0.003578 0.000000 -0.003526 0.000000
# 2 0.001514 0.014714 -0.004947 0.000000 -0.002615 0.000000
# 3 -0.003578 -0.004947 0.028799 0.000000 -0.022050 0.000000
# 4 0.000000 0.000000 0.000000 0.036954 0.000000 -0.014474
# 5 -0.003526 -0.002615 -0.022050 0.000000 0.073744 0.000000
# 6 0.000000 0.000000 0.000000 -0.014474 0.000000 0.040808
#
#
# Mechanical properties :
#
#
# Convention : Reuss Voigt Hill
#
# Bulk Modulus (GPa) = 23.85624 32.32189 28.08907
# Shear Modulus (GPa) = 21.23692 28.04966 24.64329
#
# Velocity S-wave (km/s) = 3.22129 3.70210 3.47003
# Velocity P-wave (km/s) = 5.04898 5.83670 5.45707
#
# Compressibility (1/GPa) = 0.04191775
#
# Stress axis : x y z
#
# Youngs Moduli (GPa) = 80.47385 67.96199 34.72382
#
# Poissons Ratio (x) = -0.10290 0.12424
# Poissons Ratio (y) = -0.12184 0.17177
# Poissons Ratio (z) = 0.28794 0.33619
#
# Static dielectric constant tensor:
#      x y z
#    x 3.651980 0.000000 0.324720 
#    y 0.000000 3.869430 0.000000 
#    z 0.324720 0.000000 3.474700 
# 
# 
# High freq. dielectric constant tensor:
#      x y z
#    x 1.793300 0.000000 0.033160 
#    y 0.000000 1.812150 0.000000 
#    z 0.033160 0.000000 1.781270 
# 
# From -- ./inp_files/39936.got.cif
#   From: 2010.03.12/outbox.cif.g09.slc.cpg/sg14_20_cif.got.tgz:39936.got - 2010.03.31 13:35:05.
