data_PCOD8125897
_publ_section_title
;
Structure prediction by ZEFSAII (Michael W. Deem and Ramdas Pophale) SiO2 
 PCOD8125897
Probable space group: P 21/C
;
_chemical_formula_sum "Si O2"
_cell_formula_units_Z 24
_cell_length_a 5.178820
_cell_length_b 20.354635
_cell_length_c 11.600107
_cell_angle_alpha 90.000000
_cell_angle_beta 71.253764
_cell_angle_gamma 90.000000
_cell_volume 1157.933850
_symmetry_space_group_name_H-M "P 21/C"
_symmetry_group_IT_number 14
_symmetry_cell_setting 'monoclinic'
loop_
_space_group_symop_operation_xyz
x,y,z
-x,1/2+y,1/2-z
-x,-y,-z
x,1/2-y,1/2+z
loop_
_atom_site_type_symbol
_atom_site_label
_atom_site_fract_x
_atom_site_fract_y
_atom_site_fract_z
Si Si1 0.947710 0.027825 0.135254
Si Si2 0.921223 0.809330 0.364912
Si Si3 0.480905 0.334636 0.278415
Si Si4 0.578776 0.690669 0.135087
Si Si5 0.980903 0.834637 0.778414
Si Si6 0.552291 0.472175 0.364746
O O1 0.026773 0.104228 0.132814
O O2 0.627341 0.013307 0.203227
O O3 0.127341 0.986693 0.203227
O O4 0.000000 0.000000 0.000000
O O5 0.768068 0.838414 0.275486
O O6 0.749999 0.831477 0.499998
O O7 0.228244 0.836919 0.329216
O O8 0.945394 0.730451 0.359271
O O9 0.445397 0.269549 0.359273
O O10 0.473230 0.395772 0.367186
O O11 0.271754 0.663080 0.170783
O O12 0.731931 0.661585 0.224511
O O13 0.500000 0.500000 0.500000
#
# Coordination Sequence:
#
# PCOD8125897 Si02
#       6
#     4   4   4   4   4   4
#     4  10  21  36  57  88 116 157 185 249 302 343
#     4  10  21  37  61  85 118 165 189 251 293 348
#     4  10  21  38  57  90 122 148 206 242 296 353
#     4  10  21  37  61  85 118 165 189 251 293 348
#     4  10  21  38  57  90 122 148 206 242 296 353
#     4  10  21  36  57  88 116 157 185 249 302 343
#
# _framework density 20.726572999999998
#
# number of rings (size 3 to 8) (size 9 to 14) (size 15 to 20)
#    0.000    2.000    0.000    3.000    4.667    0.000 
#   12.000    0.000    0.000   20.000    0.000    0.000 
#    0.000    0.000    0.000    0.000    0.000    0.000 
#
# Total GULP energy -297439.999255 kJ/mol
# GULP energy per Si atom -12393.333302 kJ/mol
# Density = 2.067940 g / cm^3
# Si number density = 20.726573 Si / 1000 Ang^3
#
#
#
# Elastic Constant Matrix: (Units=GPa)
#
#
# Indices 1 2 3 4 5 6 
#
# 1 162.2572 41.2020 3.3346 0.0000 3.3866 0.0000
# 2 41.2020 129.1785 25.1746 0.0000 20.0936 0.0000
# 3 3.3346 25.1746 56.7113 0.0000 -7.2661 0.0000
# 4 0.0000 0.0000 0.0000 27.6850 0.0000 8.1195
# 5 3.3866 20.0936 -7.2661 0.0000 24.6726 0.0000
# 6 0.0000 0.0000 0.0000 8.1195 0.0000 31.9642
#
#
#
# Elastic Compliance Matrix: (Units=1/GPa)
#
#
# Indices 1 2 3 4 5 6 
#
# 1 0.006764 -0.002559 0.000921 0.000000 0.001427 0.000000
# 2 -0.002559 0.011483 -0.006340 0.000000 -0.010868 0.000000
# 3 0.000921 -0.006340 0.021863 0.000000 0.011475 0.000000
# 4 0.000000 0.000000 0.000000 0.039028 0.000000 -0.009914
# 5 0.001427 -0.010868 0.011475 0.000000 0.052565 0.000000
# 6 0.000000 0.000000 0.000000 -0.009914 0.000000 0.033803
#
#
# Mechanical properties :
#
#
# Convention : Reuss Voigt Hill
#
# Bulk Modulus (GPa) = 41.39744 54.17439 47.78592
# Shear Modulus (GPa) = 26.38321 35.42676 30.90499
#
# Velocity S-wave (km/s) = 3.57167 4.13879 3.86564
# Velocity P-wave (km/s) = 6.08486 7.00241 6.55970
#
# Compressibility (1/GPa) = 0.02415608
#
# Stress axis : x y z
#
# Youngs Moduli (GPa) = 147.83894 87.08276 45.73842
#
# Poissons Ratio (x) = 0.22283 -0.04212
# Poissons Ratio (y) = 0.37830 0.28996
# Poissons Ratio (z) = -0.13616 0.55206
#
# Static dielectric constant tensor:
#      x y z
#    x -0.248890 0.000000 0.688530 
#    y 0.000000 3.680050 0.000000 
#    z 0.688530 0.000000 3.043080 
# 
# 
# High freq. dielectric constant tensor:
#      x y z
#    x 1.852490 0.000000 -0.004210 
#    y 0.000000 1.801490 0.000000 
#    z -0.004210 0.000000 1.760590 
# 
# From -- ./inp_files/21155.got.cif
#   From: 2010.03.12/outbox.cif.g09.slc.cpg/sg14_11_cif.got.tgz:21155.got - 2010.03.31 13:35:05.
