data_PCOD8125297
_publ_section_title
;
Structure prediction by ZEFSAII (Michael W. Deem and Ramdas Pophale) SiO2 
 PCOD8125297
Probable space group: P 21/C
;
_chemical_formula_sum "Si O2"
_cell_formula_units_Z 20
_cell_length_a 12.610580
_cell_length_b 10.731626
_cell_length_c 8.867652
_cell_angle_alpha 90.000000
_cell_angle_beta 134.151545
_cell_angle_gamma 90.000000
_cell_volume 861.055417
_symmetry_space_group_name_H-M "P 21/C"
_symmetry_group_IT_number 14
_symmetry_cell_setting 'monoclinic'
loop_
_space_group_symop_operation_xyz
x,y,z
-x,1/2+y,1/2-z
-x,-y,-z
x,1/2-y,1/2+z
loop_
_atom_site_type_symbol
_atom_site_label
_atom_site_fract_x
_atom_site_fract_y
_atom_site_fract_z
Si Si1 0.199467 0.970069 0.588870
Si Si2 0.118251 0.056494 0.820756
Si Si3 0.444531 0.862340 0.644649
Si Si4 0.697355 0.805667 0.484844
Si Si5 0.312873 0.505203 0.763902
O O1 0.167357 0.963893 0.734569
O O2 0.229752 0.113188 0.574582
O O3 0.341572 0.886645 0.687954
O O4 0.057137 0.921159 0.354887
O O5 0.200808 0.186975 0.886525
O O6 0.160456 0.986391 0.019354
O O7 0.556491 0.979850 0.729184
O O8 0.340742 0.868493 0.389535
O O9 0.533688 0.735912 0.763938
O O10 0.688094 0.883221 0.629616
#
# Coordination Sequence:
#
# PCOD8125297 Si02
#       5
#     4   4   4   4   4
#     4  10  22  39  60  87 121 154 191 244 296 344
#     4  10  20  38  61  87 119 154 195 241 292 349
#     4   9  19  37  58  84 115 149 191 237 290 345
#     4  10  20  38  60  83 118 157 192 241 295 341
#     4   9  19  36  61  86 113 152 197 240 289 348
#
# _framework density 23.227307
#
# number of rings (size 3 to 8) (size 9 to 14) (size 15 to 20)
#    0.000    2.400    0.000    2.400    0.000    6.400 
#    0.000   22.000    0.000    0.000    0.000    0.000 
#    0.000    0.000    0.000    0.000    0.000    0.000 
#
# Total GULP energy -247845.059294 kJ/mol
# GULP energy per Si atom -12392.252965 kJ/mol
# Density = 2.317444 g / cm^3
# Si number density = 23.227307 Si / 1000 Ang^3
#
#
#
# Elastic Constant Matrix: (Units=GPa)
#
#
# Indices 1 2 3 4 5 6 
#
# 1 90.1609 29.1796 28.1042 0.0000 6.8292 0.0000
# 2 29.1796 53.2582 69.4937 0.0000 9.4818 0.0000
# 3 28.1042 69.4937 166.6432 0.0000 -4.9742 0.0000
# 4 0.0000 0.0000 0.0000 27.4247 0.0000 5.1370
# 5 6.8292 9.4818 -4.9742 0.0000 28.7837 0.0000
# 6 0.0000 0.0000 0.0000 5.1370 0.0000 19.2063
#
#
#
# Elastic Compliance Matrix: (Units=1/GPa)
#
#
# Indices 1 2 3 4 5 6 
#
# 1 0.013727 -0.010054 0.001889 0.000000 0.000381 0.000000
# 2 -0.010054 0.058347 -0.023259 0.000000 -0.020854 0.000000
# 3 0.001889 -0.023259 0.015678 0.000000 0.009923 0.000000
# 4 0.000000 0.000000 0.000000 0.038387 0.000000 -0.010267
# 5 0.000381 -0.020854 0.009923 0.000000 0.043236 0.000000
# 6 0.000000 0.000000 0.000000 -0.010267 0.000000 0.054812
#
#
# Mechanical properties :
#
#
# Convention : Reuss Voigt Hill
#
# Bulk Modulus (GPa) = 40.15282 62.62413 51.38848
# Shear Modulus (GPa) = 16.92990 27.30194 22.11592
#
# Velocity S-wave (km/s) = 2.70271 3.43217 3.08904
# Velocity P-wave (km/s) = 5.20230 6.53654 5.90721
#
# Compressibility (1/GPa) = 0.02490485
#
# Stress axis : x y z
#
# Youngs Moduli (GPa) = 72.84715 17.13894 63.78414
#
# Poissons Ratio (x) = 0.17231 -0.12048
# Poissons Ratio (y) = 0.73238 1.48354
# Poissons Ratio (z) = -0.13760 0.39863
#
# Static dielectric constant tensor:
#      x y z
#    x 4.189040 0.000000 0.010540 
#    y 0.000000 3.818030 0.000000 
#    z 0.010540 0.000000 4.529780 
# 
# 
# High freq. dielectric constant tensor:
#      x y z
#    x 1.923100 0.000000 -0.000260 
#    y 0.000000 1.881950 0.000000 
#    z -0.000260 0.000000 1.925680 
# 
# From -- ./inp_files/12541.got.cif
#   From: 2010.03.12/outbox.cif.g09.slc.cpg/sg14_7_cif.got.tgz:12541.got - 2010.03.31 13:35:05.
