data_PCOD8125352
_publ_section_title
;
Structure prediction by ZEFSAII (Michael W. Deem and Ramdas Pophale) SiO2 
 PCOD8125352
Probable space group: P 21/C
;
_chemical_formula_sum "Si O2"
_cell_formula_units_Z 28
_cell_length_a 7.966382
_cell_length_b 13.513986
_cell_length_c 13.228612
_cell_angle_alpha 90.000000
_cell_angle_beta 112.037006
_cell_angle_gamma 90.000000
_cell_volume 1320.113573
_symmetry_space_group_name_H-M "P 21/C"
_symmetry_group_IT_number 14
_symmetry_cell_setting 'monoclinic'
loop_
_space_group_symop_operation_xyz
x,y,z
-x,1/2+y,1/2-z
-x,-y,-z
x,1/2-y,1/2+z
loop_
_atom_site_type_symbol
_atom_site_label
_atom_site_fract_x
_atom_site_fract_y
_atom_site_fract_z
Si Si1 0.899876 0.676865 0.431461
Si Si2 0.598410 0.131580 0.417481
Si Si3 0.764876 0.813425 0.561409
Si Si4 0.988924 0.702872 0.763822
Si Si5 0.646476 0.979280 0.774220
Si Si6 0.137233 0.981694 0.378342
Si Si7 0.764088 0.323081 0.359603
O O1 0.777794 0.763732 0.454464
O O2 0.002439 0.717796 0.356324
O O3 0.764349 0.589096 0.374180
O O4 0.052781 0.639323 0.543449
O O5 0.435640 0.146423 0.461310
O O6 0.539733 0.073959 0.301289
O O7 0.754434 0.071065 0.507210
O O8 0.670611 0.237489 0.400882
O O9 0.814399 0.731331 0.657465
O O10 0.910239 0.906397 0.594954
O O11 0.971975 0.591005 0.807421
O O12 0.172848 0.711550 0.738381
O O13 0.745448 0.001138 0.693176
O O14 0.621671 0.085476 0.823258
#
# Coordination Sequence:
#
# PCOD8125352 Si02
#       7
#     4   4   4   4   4   4   4
#     4  11  20  40  63  85 118 159 200 246 289 355
#     4  11  21  39  59  90 119 155 201 243 298 356
#     4  10  22  38  60  90 118 154 202 247 296 351
#     4  10  20  40  59  89 115 158 198 244 286 353
#     4  10  21  38  63  85 120 163 192 240 309 350
#     4  10  20  38  62  85 119 159 200 239 304 351
#     4  10  23  39  62  89 119 159 200 243 298 353
#
# _framework density 21.210294999999999
#
# number of rings (size 3 to 8) (size 9 to 14) (size 15 to 20)
#    0.000    1.714    4.286    2.143    0.000    4.000 
#    0.000    0.714    0.000    0.000    0.000    0.000 
#    0.000    0.000    0.000    0.000    0.000    0.000 
#
# Total GULP energy -346943.879650 kJ/mol
# GULP energy per Si atom -12390.852845 kJ/mol
# Density = 2.116202 g / cm^3
# Si number density = 21.210295 Si / 1000 Ang^3
#
#
#
# Elastic Constant Matrix: (Units=GPa)
#
#
# Indices 1 2 3 4 5 6 
#
# 1 25.5871 19.8214 12.8989 0.0000 -4.2255 0.0000
# 2 19.8214 125.9692 60.7461 0.0000 -8.0041 0.0000
# 3 12.8989 60.7461 98.5705 0.0000 6.4149 0.0000
# 4 0.0000 0.0000 0.0000 86.7808 0.0000 -21.3833
# 5 -4.2255 -8.0041 6.4149 0.0000 18.2726 0.0000
# 6 0.0000 0.0000 0.0000 -21.3833 0.0000 26.0309
#
#
#
# Elastic Compliance Matrix: (Units=1/GPa)
#
#
# Indices 1 2 3 4 5 6 
#
# 1 0.046362 -0.004882 -0.003701 0.000000 0.009882 0.000000
# 2 -0.004882 0.012933 -0.007805 0.000000 0.007276 0.000000
# 3 -0.003701 -0.007805 0.016085 0.000000 -0.009921 0.000000
# 4 0.000000 0.000000 0.000000 0.014448 0.000000 0.011868
# 5 0.009882 0.007276 -0.009921 0.000000 0.063682 0.000000
# 6 0.000000 0.000000 0.000000 0.011868 0.000000 0.048165
#
#
# Mechanical properties :
#
#
# Convention : Reuss Voigt Hill
#
# Bulk Modulus (GPa) = 23.47239 48.56217 36.01728
# Shear Modulus (GPa) = 20.10846 36.66090 28.38468
#
# Velocity S-wave (km/s) = 3.08239 4.16197 3.66218
# Velocity P-wave (km/s) = 4.87429 6.78537 5.90762
#
# Compressibility (1/GPa) = 0.04260325
#
# Stress axis : x y z
#
# Youngs Moduli (GPa) = 21.56932 77.32375 62.17066
#
# Poissons Ratio (x) = 0.37753 0.23010
# Poissons Ratio (y) = 0.10531 0.48522
# Poissons Ratio (z) = 0.07983 0.60348
#
# Static dielectric constant tensor:
#      x y z
#    x 3.443070 0.000000 -0.008620 
#    y 0.000000 4.603350 0.000000 
#    z -0.008620 0.000000 4.238760 
# 
# 
# High freq. dielectric constant tensor:
#      x y z
#    x 1.785270 0.000000 -0.011390 
#    y 0.000000 1.847160 0.000000 
#    z -0.011390 0.000000 1.843030 
# 
# From -- ./inp_files/40176.got.cif
#   From: 2010.03.12/outbox.cif.g09.slc.cpg/sg14_21_cif.got.tgz:40176.got - 2010.03.31 13:35:05.
