data_PCOD8125929
_publ_section_title
;
Structure prediction by ZEFSAII (Michael W. Deem and Ramdas Pophale) SiO2 
 PCOD8125929
Probable space group: P 21/C
;
_chemical_formula_sum "Si O2"
_cell_formula_units_Z 32
_cell_length_a 9.350549
_cell_length_b 26.199438
_cell_length_c 5.506504
_cell_angle_alpha 90.000000
_cell_angle_beta 90.166835
_cell_angle_gamma 90.000000
_cell_volume 1348.972834
_symmetry_space_group_name_H-M "P 21/C"
_symmetry_group_IT_number 14
_symmetry_cell_setting 'monoclinic'
loop_
_space_group_symop_operation_xyz
x,y,z
-x,1/2+y,1/2-z
-x,-y,-z
x,1/2-y,1/2+z
loop_
_atom_site_type_symbol
_atom_site_label
_atom_site_fract_x
_atom_site_fract_y
_atom_site_fract_z
Si Si1 0.172152 0.108696 0.718444
Si Si2 0.303732 0.959905 0.688794
Si Si3 0.578043 0.553918 0.568321
Si Si4 0.076673 0.553409 0.571446
Si Si5 0.806933 0.958849 0.686979
Si Si6 0.921800 0.721493 0.766939
Si Si7 0.257770 0.778653 0.268607
Si Si8 0.327830 0.607386 0.780764
O O1 0.335593 0.089745 0.740013
O O2 0.117037 0.088441 0.453319
O O3 0.164695 0.169032 0.736405
O O4 0.080237 0.080608 0.934120
O O5 0.383734 0.914523 0.541502
O O6 0.421952 0.992889 0.848676
O O7 0.240259 0.001335 0.511665
O O8 0.168187 0.937473 0.830602
O O9 0.665006 0.559945 0.320940
O O10 0.419760 0.580292 0.563202
O O11 0.076760 0.491769 0.647807
O O12 0.164289 0.587442 0.768700
O O13 0.877793 0.750115 0.517018
O O14 0.089748 0.710508 0.767732
O O15 0.302034 0.749938 0.518676
O O16 0.341615 0.832017 0.267939
#
# Coordination Sequence:
#
# PCOD8125929 Si02
#       8
#     4   4   4   4   4   4   4   4
#     4  11  22  39  61  89 124 171 205 265 326 386
#     4   9  21  37  61  92 128 167 215 261 314 387
#     4  10  23  39  58  90 133 169 210 257 321 396
#     4  10  21  36  61  93 120 165 216 259 313 388
#     4   9  21  38  56  90 132 165 206 257 315 385
#     4  10  23  42  68  96 125 161 221 280 335 388
#     4  10  23  44  67  98 126 161 218 288 334 381
#     4  11  22  39  64  91 121 171 213 268 326 387
#
# _framework density 23.721753
#
# number of rings (size 3 to 8) (size 9 to 14) (size 15 to 20)
#    0.000    2.000    1.250    0.750    3.500   14.000 
#    0.000    1.250    0.000    0.000    0.000    0.000 
#    0.000    0.000    0.000    0.000    0.000    0.000 
#
# Total GULP energy -396706.572051 kJ/mol
# GULP energy per Si atom -12397.080377 kJ/mol
# Density = 2.366776 g / cm^3
# Si number density = 23.721753 Si / 1000 Ang^3
#
#
#
# Elastic Constant Matrix: (Units=GPa)
#
#
# Indices 1 2 3 4 5 6 
#
# 1 83.5264 34.8035 17.6791 0.0000 -7.6044 0.0000
# 2 34.8035 202.5714 66.6288 0.0000 -5.3320 0.0000
# 3 17.6791 66.6288 133.5357 0.0000 -6.0069 0.0000
# 4 0.0000 0.0000 0.0000 40.9097 0.0000 -2.2820
# 5 -7.6044 -5.3320 -6.0069 0.0000 33.0115 0.0000
# 6 0.0000 0.0000 0.0000 -2.2820 0.0000 24.5509
#
#
#
# Elastic Compliance Matrix: (Units=1/GPa)
#
#
# Indices 1 2 3 4 5 6 
#
# 1 0.013171 -0.001985 -0.000636 0.000000 0.002597 0.000000
# 2 -0.001985 0.006211 -0.002835 0.000000 0.000030 0.000000
# 3 -0.000636 -0.002835 0.009034 0.000000 0.001039 0.000000
# 4 0.000000 0.000000 0.000000 0.024571 0.000000 0.002284
# 5 0.002597 0.000030 0.001039 0.000000 0.031085 0.000000
# 6 0.000000 0.000000 0.000000 0.002284 0.000000 0.040944
#
#
# Mechanical properties :
#
#
# Convention : Reuss Voigt Hill
#
# Bulk Modulus (GPa) = 57.13320 73.09515 65.11418
# Shear Modulus (GPa) = 35.27026 39.72922 37.49974
#
# Velocity S-wave (km/s) = 3.86013 4.09687 3.98026
# Velocity P-wave (km/s) = 6.63359 7.29792 6.97367
#
# Compressibility (1/GPa) = 0.01750296
#
# Stress axis : x y z
#
# Youngs Moduli (GPa) = 75.92674 161.01030 110.69215
#
# Poissons Ratio (x) = 0.31963 0.07044
# Poissons Ratio (y) = 0.15073 0.31379
# Poissons Ratio (z) = 0.04831 0.45642
#
# Static dielectric constant tensor:
#      x y z
#    x 4.929350 0.000000 1.247380 
#    y 0.000000 4.312740 0.000000 
#    z 1.247380 0.000000 5.970930 
# 
# 
# High freq. dielectric constant tensor:
#      x y z
#    x 1.937230 0.000000 0.017250 
#    y 0.000000 1.922550 0.000000 
#    z 0.017250 0.000000 1.969550 
# 
# From -- ./inp_files/3145.got.cif
#   From: 2010.03.12/outbox.cif.g09.slc.cpg/sg14_2_cif.got.tgz:3145.got - 2010.03.31 13:35:05.
