data_PCOD8125749
_publ_section_title
;
Structure prediction by ZEFSAII (Michael W. Deem and Ramdas Pophale) SiO2 
 PCOD8125749
Probable space group: P 21/C
;
_chemical_formula_sum "Si O2"
_cell_formula_units_Z 24
_cell_length_a 5.483811
_cell_length_b 12.098995
_cell_length_c 17.716853
_cell_angle_alpha 90.000000
_cell_angle_beta 74.151527
_cell_angle_gamma 90.000000
_cell_volume 1130.804933
_symmetry_space_group_name_H-M "P 21/C"
_symmetry_group_IT_number 14
_symmetry_cell_setting 'monoclinic'
loop_
_space_group_symop_operation_xyz
x,y,z
-x,1/2+y,1/2-z
-x,-y,-z
x,1/2-y,1/2+z
loop_
_atom_site_type_symbol
_atom_site_label
_atom_site_fract_x
_atom_site_fract_y
_atom_site_fract_z
Si Si1 0.529026 0.676055 0.998583
Si Si2 0.985373 0.732342 0.385992
Si Si3 0.895955 0.060518 0.706169
Si Si4 0.480207 0.001847 0.624502
Si Si5 0.280999 0.600255 0.479733
Si Si6 0.235485 0.485437 0.622438
O O1 0.493170 0.614997 0.080890
O O2 0.421549 0.600683 0.938517
O O3 0.403276 0.795591 0.013991
O O4 0.828282 0.690958 0.956991
O O5 0.128118 0.810673 0.314778
O O6 0.161402 0.650143 0.415760
O O7 0.814402 0.643980 0.354451
O O8 0.681502 0.994361 0.676485
O O9 0.186177 0.017894 0.673778
O O10 0.821411 0.057639 0.799831
O O11 0.098792 0.539242 0.558132
O O12 0.472620 0.508228 0.429339
#
# Coordination Sequence:
#
# PCOD8125749 Si02
#       6
#     4   4   4   4   4   4
#     4   9  20  37  63  95 122 170 213 257 318 387
#     4  10  21  40  65  90 126 172 211 268 320 380
#     4  11  24  42  63  96 132 167 211 273 327 373
#     4  10  22  39  65  94 133 164 209 266 324 377
#     4  10  20  42  64  88 126 171 222 255 319 388
#     4  10  24  40  62  93 124 173 216 266 317 392
#
# _framework density 21.223821000000001
#
# number of rings (size 3 to 8) (size 9 to 14) (size 15 to 20)
#    0.000    2.000    1.667    0.500    4.667    3.333 
#    0.000    0.000    0.000    0.000    0.000    0.000 
#    0.000    0.000    0.000    0.000    0.000    0.000 
#
# Total GULP energy -297332.571847 kJ/mol
# GULP energy per Si atom -12388.857160 kJ/mol
# Density = 2.117551 g / cm^3
# Si number density = 21.223821 Si / 1000 Ang^3
#
#
#
# Elastic Constant Matrix: (Units=GPa)
#
#
# Indices 1 2 3 4 5 6 
#
# 1 78.9436 4.4304 36.5235 0.0000 -2.3180 0.0000
# 2 4.4304 98.7994 55.7900 0.0000 -14.6158 0.0000
# 3 36.5235 55.7900 157.8879 0.0000 -0.8425 0.0000
# 4 0.0000 0.0000 0.0000 36.0337 0.0000 -1.2668
# 5 -2.3180 -14.6158 -0.8425 0.0000 19.6457 0.0000
# 6 0.0000 0.0000 0.0000 -1.2668 0.0000 22.3862
#
#
#
# Elastic Compliance Matrix: (Units=1/GPa)
#
#
# Indices 1 2 3 4 5 6 
#
# 1 0.014534 0.002122 -0.004095 0.000000 0.003118 0.000000
# 2 0.002122 0.014877 -0.005689 0.000000 0.011074 0.000000
# 3 -0.004095 -0.005689 0.009268 0.000000 -0.004318 0.000000
# 4 0.000000 0.000000 0.000000 0.027807 0.000000 0.001574
# 5 0.003118 0.011074 -0.004318 0.000000 0.059324 0.000000
# 6 0.000000 0.000000 0.000000 0.001574 0.000000 0.044759
#
#
# Mechanical properties :
#
#
# Convention : Reuss Voigt Hill
#
# Bulk Modulus (GPa) = 42.81628 58.79098 50.80363
# Shear Modulus (GPa) = 25.81600 31.53892 28.67746
#
# Velocity S-wave (km/s) = 3.49143 3.85907 3.67984
# Velocity P-wave (km/s) = 6.03912 6.90052 6.48414
#
# Compressibility (1/GPa) = 0.02335560
#
# Stress axis : x y z
#
# Youngs Moduli (GPa) = 68.80186 67.21850 107.89805
#
# Poissons Ratio (x) = -0.14264 0.44189
# Poissons Ratio (y) = -0.14600 0.61379
# Poissons Ratio (z) = 0.28177 0.38238
#
# Static dielectric constant tensor:
#      x y z
#    x 3.898900 0.000000 -0.061520 
#    y 0.000000 4.187150 0.000000 
#    z -0.061520 0.000000 3.674440 
# 
# 
# High freq. dielectric constant tensor:
#      x y z
#    x 1.824480 0.000000 0.001430 
#    y 0.000000 1.843040 0.000000 
#    z 0.001430 0.000000 1.816270 
# 
# From -- ./inp_files/52937.got.cif
#   From: 2010.03.12/outbox.cif.g09.slc.cpg/sg14_27_cif.got.tgz:52937.got - 2010.03.31 13:35:05.
