data_PCOD8125054
_publ_section_title
;
Structure prediction by ZEFSAII (Michael W. Deem and Ramdas Pophale) SiO2 
 PCOD8125054
Probable space group: P 21/C
;
_chemical_formula_sum "Si O2"
_cell_formula_units_Z 32
_cell_length_a 8.903945
_cell_length_b 15.455935
_cell_length_c 11.802759
_cell_angle_alpha 90.000000
_cell_angle_beta 79.219653
_cell_angle_gamma 90.000000
_cell_volume 1595.615287
_symmetry_space_group_name_H-M "P 21/C"
_symmetry_group_IT_number 14
_symmetry_cell_setting 'monoclinic'
loop_
_space_group_symop_operation_xyz
x,y,z
-x,1/2+y,1/2-z
-x,-y,-z
x,1/2-y,1/2+z
loop_
_atom_site_type_symbol
_atom_site_label
_atom_site_fract_x
_atom_site_fract_y
_atom_site_fract_z
Si Si1 0.103118 0.366132 0.822087
Si Si2 0.419827 0.694151 0.748984
Si Si3 0.297719 0.255424 0.163823
Si Si4 0.852603 0.181300 0.181825
Si Si5 0.958836 0.656508 0.911580
Si Si6 0.806084 0.049760 0.754105
Si Si7 0.285205 0.944922 0.979158
Si Si8 0.594350 0.874347 0.020637
O O1 0.209003 0.281386 0.787411
O O2 0.205594 0.448574 0.771488
O O3 0.946934 0.359578 0.771952
O O4 0.055359 0.375928 0.958656
O O5 0.528289 0.715137 0.840038
O O6 0.298319 0.771307 0.747771
O O7 0.337335 0.601664 0.780086
O O8 0.532009 0.688721 0.626389
O O9 0.207061 0.335618 0.122839
O O10 0.290453 0.178938 0.073122
O O11 0.810708 0.103448 0.103466
O O12 0.952383 0.252062 0.100790
O O13 0.039863 0.584975 0.823138
O O14 0.804664 0.065434 0.889416
O O15 0.307490 0.045667 0.942661
O O16 0.454571 0.905977 0.962577
#
# Coordination Sequence:
#
# PCOD8125054 Si02
#       8
#     4   4   4   4   4   4   4   4
#     4  11  23  41  60  88 128 159 205 252 308 364
#     4  10  22  37  62  88 121 155 205 250 307 365
#     4  11  21  40  58  91 119 163 205 253 306 361
#     4  10  23  38  64  92 117 165 205 251 302 367
#     4  10  24  39  60  87 125 163 201 255 305 358
#     4  10  22  41  61  89 122 164 202 251 305 366
#     4  10  20  38  63  89 122 154 206 250 303 358
#     4  10  20  36  60  90 122 155 195 261 299 354
#
# _framework density 20.054957999999999
#
# number of rings (size 3 to 8) (size 9 to 14) (size 15 to 20)
#    0.000    1.750    2.500    1.125    7.000    1.500 
#    0.000    0.625    0.000    0.000    0.000    0.000 
#    0.000    0.000    0.000    0.000    0.000    0.000 
#
# Total GULP energy -396824.854470 kJ/mol
# GULP energy per Si atom -12400.776702 kJ/mol
# Density = 2.000931 g / cm^3
# Si number density = 20.054958 Si / 1000 Ang^3
#
#
#
# Elastic Constant Matrix: (Units=GPa)
#
#
# Indices 1 2 3 4 5 6 
#
# 1 98.2965 41.9981 37.2274 0.0000 10.6337 0.0000
# 2 41.9981 78.5719 42.3640 0.0000 9.5477 0.0000
# 3 37.2274 42.3640 94.8218 0.0000 -11.3308 0.0000
# 4 0.0000 0.0000 0.0000 28.6103 0.0000 -3.6596
# 5 10.6337 9.5477 -11.3308 0.0000 30.6738 0.0000
# 6 0.0000 0.0000 0.0000 -3.6596 0.0000 30.0681
#
#
#
# Elastic Compliance Matrix: (Units=1/GPa)
#
#
# Indices 1 2 3 4 5 6 
#
# 1 0.014319 -0.004881 -0.004030 0.000000 -0.004933 0.000000
# 2 -0.004881 0.020761 -0.008295 0.000000 -0.007834 0.000000
# 3 -0.004030 -0.008295 0.017063 0.000000 0.010282 0.000000
# 4 0.000000 0.000000 0.000000 0.035505 0.000000 0.004321
# 5 -0.004933 -0.007834 0.010282 0.000000 0.040548 0.000000
# 6 0.000000 0.000000 0.000000 0.004321 0.000000 0.033784
#
#
# Mechanical properties :
#
#
# Convention : Reuss Voigt Hill
#
# Bulk Modulus (GPa) = 56.40334 57.20768 56.80551
# Shear Modulus (GPa) = 24.71536 27.87716 26.29626
#
# Velocity S-wave (km/s) = 3.51434 3.73237 3.62499
# Velocity P-wave (km/s) = 6.68228 6.86742 6.77548
#
# Compressibility (1/GPa) = 0.01772945
#
# Stress axis : x y z
#
# Youngs Moduli (GPa) = 69.83757 48.16779 58.60558
#
# Poissons Ratio (x) = 0.23511 0.23621
# Poissons Ratio (y) = 0.34089 0.48614
# Poissons Ratio (z) = 0.28148 0.39956
#
# Static dielectric constant tensor:
#      x y z
#    x 3.696360 0.000000 -0.113350 
#    y 0.000000 3.730690 0.000000 
#    z -0.113350 0.000000 3.468000 
# 
# 
# High freq. dielectric constant tensor:
#      x y z
#    x 1.785690 0.000000 -0.013380 
#    y 0.000000 1.782340 0.000000 
#    z -0.013380 0.000000 1.772560 
# 
# From -- ./inp_files/25257.got.cif
#   From: 2010.03.12/outbox.cif.g09.slc.cpg/sg14_13_cif.got.tgz:25257.got - 2010.03.31 13:35:05.
