data_PCOD8125288
_publ_section_title
;
Structure prediction by ZEFSAII (Michael W. Deem and Ramdas Pophale) SiO2 
 PCOD8125288
Probable space group: P 21/C
;
_chemical_formula_sum "Si O2"
_cell_formula_units_Z 32
_cell_length_a 7.060420
_cell_length_b 23.080168
_cell_length_c 10.482542
_cell_angle_alpha 90.000000
_cell_angle_beta 65.893589
_cell_angle_gamma 90.000000
_cell_volume 1559.215936
_symmetry_space_group_name_H-M "P 21/C"
_symmetry_group_IT_number 14
_symmetry_cell_setting 'monoclinic'
loop_
_space_group_symop_operation_xyz
x,y,z
-x,1/2+y,1/2-z
-x,-y,-z
x,1/2-y,1/2+z
loop_
_atom_site_type_symbol
_atom_site_label
_atom_site_fract_x
_atom_site_fract_y
_atom_site_fract_z
Si Si1 0.651900 0.588549 0.186965
Si Si2 0.094203 0.633901 0.043122
Si Si3 0.678563 0.204227 0.740216
Si Si4 0.525004 0.932719 0.994808
Si Si5 0.678639 0.618120 0.693180
Si Si6 0.392872 0.532153 0.916043
Si Si7 0.269430 0.663695 0.260313
Si Si8 0.143731 0.858034 0.079935
O O1 0.620664 0.597469 0.345306
O O2 0.669647 0.519085 0.163768
O O3 0.453288 0.618533 0.174827
O O4 0.851571 0.623567 0.084086
O O5 0.120651 0.660886 0.177748
O O6 0.176627 0.677867 0.912033
O O7 0.193163 0.569788 0.007810
O O8 0.449010 0.177504 0.790213
O O9 0.643348 0.272363 0.738241
O O10 0.780085 0.195302 0.852863
O O11 0.689370 0.915425 0.056895
O O12 0.291458 0.910223 0.085994
O O13 0.500000 0.000000 0.000000
O O14 0.566411 0.576068 0.821379
O O15 0.907127 0.629789 0.683338
O O16 0.500000 0.500000 0.000000
O O17 0.152211 0.648980 0.424638
#
# Coordination Sequence:
#
# PCOD8125288 Si02
#       8
#     4   4   4   4   4   4   4   4
#     4  11  23  40  63  92 124 164 199 252 313 366
#     4  11  24  40  65  93 123 164 206 252 314 368
#     4  10  24  41  62  88 121 159 207 261 300 361
#     4  10  20  38  59  92 124 156 199 246 299 365
#     4  10  22  41  62  90 123 161 199 251 311 362
#     4  11  22  39  61  94 129 158 201 251 307 375
#     4  11  23  43  60  89 123 156 213 257 297 364
#     4  10  23  40  62  89 121 159 205 247 305 364
#
# _framework density 20.523137999999999
#
# number of rings (size 3 to 8) (size 9 to 14) (size 15 to 20)
#    0.000    1.500    2.500    1.875    1.750    3.500 
#    0.000    0.000    0.000    0.000    0.000    0.000 
#    0.000    0.000    0.000    0.000    0.000    0.000 
#
# Total GULP energy -396687.235517 kJ/mol
# GULP energy per Si atom -12396.476110 kJ/mol
# Density = 2.047643 g / cm^3
# Si number density = 20.523138 Si / 1000 Ang^3
#
#
#
# Elastic Constant Matrix: (Units=GPa)
#
#
# Indices 1 2 3 4 5 6 
#
# 1 86.3508 15.1016 22.6028 0.0000 -11.3768 0.0000
# 2 15.1016 108.4051 3.0100 0.0000 -10.2004 0.0000
# 3 22.6028 3.0100 68.9002 0.0000 0.2379 0.0000
# 4 0.0000 0.0000 0.0000 24.8689 0.0000 5.7127
# 5 -11.3768 -10.2004 0.2379 0.0000 32.8368 0.0000
# 6 0.0000 0.0000 0.0000 5.7127 0.0000 17.7506
#
#
#
# Elastic Compliance Matrix: (Units=1/GPa)
#
#
# Indices 1 2 3 4 5 6 
#
# 1 0.013535 -0.001359 -0.004396 0.000000 0.004299 0.000000
# 2 -0.001359 0.009651 0.000015 0.000000 0.002527 0.000000
# 3 -0.004396 0.000015 0.015961 0.000000 -0.001634 0.000000
# 4 0.000000 0.000000 0.000000 0.043421 0.000000 -0.013974
# 5 0.004299 0.002527 -0.001634 0.000000 0.032740 0.000000
# 6 0.000000 0.000000 0.000000 -0.013974 0.000000 0.060833
#
#
# Mechanical properties :
#
#
# Convention : Reuss Voigt Hill
#
# Bulk Modulus (GPa) = 36.14169 38.34276 37.24223
# Shear Modulus (GPa) = 25.40089 29.95405 27.67747
#
# Velocity S-wave (km/s) = 3.52187 3.82452 3.67631
# Velocity P-wave (km/s) = 5.84693 6.18271 6.01716
#
# Compressibility (1/GPa) = 0.02766888
#
# Stress axis : x y z
#
# Youngs Moduli (GPa) = 73.88044 103.61263 62.65365
#
# Poissons Ratio (x) = 0.14081 0.27541
# Poissons Ratio (y) = 0.10040 -0.00097
# Poissons Ratio (z) = 0.32476 -0.00160
#
# Static dielectric constant tensor:
#      x y z
#    x 3.488990 0.000000 0.133840 
#    y 0.000000 3.946450 0.000000 
#    z 0.133840 0.000000 3.987010 
# 
# 
# High freq. dielectric constant tensor:
#      x y z
#    x 1.796720 0.000000 0.010240 
#    y 0.000000 1.804170 0.000000 
#    z 0.010240 0.000000 1.813460 
# 
# From -- ./inp_files/22177.got.cif
#   From: 2010.03.12/outbox.cif.g09.slc.cpg/sg14_12_cif.got.tgz:22177.got - 2010.03.31 13:35:05.
