data_PCOD8125944
_publ_section_title
;
Structure prediction by ZEFSAII (Michael W. Deem and Ramdas Pophale) SiO2 
 PCOD8125944
Probable space group: P 21/C
;
_chemical_formula_sum "Si O2"
_cell_formula_units_Z 24
_cell_length_a 5.362386
_cell_length_b 14.631396
_cell_length_c 13.159288
_cell_angle_alpha 90.000000
_cell_angle_beta 79.897823
_cell_angle_gamma 90.000000
_cell_volume 1016.460280
_symmetry_space_group_name_H-M "P 21/C"
_symmetry_group_IT_number 14
_symmetry_cell_setting 'monoclinic'
loop_
_space_group_symop_operation_xyz
x,y,z
-x,1/2+y,1/2-z
-x,-y,-z
x,1/2-y,1/2+z
loop_
_atom_site_type_symbol
_atom_site_label
_atom_site_fract_x
_atom_site_fract_y
_atom_site_fract_z
Si Si1 0.215671 0.193841 0.452537
Si Si2 0.239554 0.094843 0.259917
Si Si3 0.401126 0.234298 0.643098
Si Si4 0.484693 0.149231 0.836299
Si Si5 0.801956 0.343628 0.490590
Si Si6 0.799190 0.476741 0.661848
O O1 0.974089 0.257426 0.456976
O O2 0.196644 0.102299 0.385697
O O3 0.258779 0.171365 0.569114
O O4 0.450027 0.252326 0.391795
O O5 0.208819 0.199076 0.218770
O O6 0.513533 0.050032 0.218614
O O7 0.006542 0.034381 0.235524
O O8 0.545603 0.166709 0.712339
O O9 0.572718 0.306870 0.574649
O O10 0.232819 0.084821 0.863888
O O11 0.714183 0.109114 0.889170
O O12 0.908879 0.424226 0.555100
#
# Coordination Sequence:
#
# PCOD8125944 Si02
#       6
#     4   4   4   4   4   4
#     4  10  21  38  63  88 115 163 208 251 290 365
#     4  10  23  39  62  86 126 161 203 245 305 359
#     4   9  20  40  57  90 114 165 203 251 291 368
#     4  10  23  37  62  87 125 157 203 250 311 356
#     4  10  21  36  64  87 121 155 208 251 299 357
#     4  11  23  42  59  95 126 160 193 257 309 357
#
# _framework density 23.611353000000001
#
# number of rings (size 3 to 8) (size 9 to 14) (size 15 to 20)
#    0.000    2.000    1.667    0.500   11.667    0.667 
#    0.000    1.667    0.000    0.000    0.000    0.000 
#    0.000    0.000    0.000    0.000    0.000    0.000 
#
# Total GULP energy -297320.950204 kJ/mol
# GULP energy per Si atom -12388.372925 kJ/mol
# Density = 2.355761 g / cm^3
# Si number density = 23.611353 Si / 1000 Ang^3
#
#
#
# Elastic Constant Matrix: (Units=GPa)
#
#
# Indices 1 2 3 4 5 6 
#
# 1 65.1936 -8.8644 19.1580 0.0000 8.1520 0.0000
# 2 -8.8644 37.0815 15.6917 0.0000 2.5183 0.0000
# 3 19.1580 15.6917 138.6575 0.0000 25.8389 0.0000
# 4 0.0000 0.0000 0.0000 16.8372 0.0000 -5.7134
# 5 8.1520 2.5183 25.8389 0.0000 20.4068 0.0000
# 6 0.0000 0.0000 0.0000 -5.7134 0.0000 26.0245
#
#
#
# Elastic Compliance Matrix: (Units=1/GPa)
#
#
# Indices 1 2 3 4 5 6 
#
# 1 0.017293 0.005347 -0.002073 0.000000 -0.004943 0.000000
# 2 0.005347 0.029986 -0.003985 0.000000 -0.000791 0.000000
# 3 -0.002073 -0.003985 0.010083 0.000000 -0.011446 0.000000
# 4 0.000000 0.000000 0.000000 0.064173 0.000000 0.014088
# 5 -0.004943 -0.000791 -0.011446 0.000000 0.065569 0.000000
# 6 0.000000 0.000000 0.000000 0.014088 0.000000 0.041518
#
#
# Mechanical properties :
#
#
# Convention : Reuss Voigt Hill
#
# Bulk Modulus (GPa) = 17.87655 32.54481 25.21068
# Shear Modulus (GPa) = 20.10532 26.98352 23.54442
#
# Velocity S-wave (km/s) = 2.92123 3.38423 3.16122
# Velocity P-wave (km/s) = 4.35497 5.39297 4.90152
#
# Compressibility (1/GPa) = 0.05593920
#
# Stress axis : x y z
#
# Youngs Moduli (GPa) = 57.82576 33.34907 99.18172
#
# Poissons Ratio (x) = -0.17832 0.20564
# Poissons Ratio (y) = -0.30920 0.39523
# Poissons Ratio (z) = 0.11990 0.13289
#
# Static dielectric constant tensor:
#      x y z
#    x 4.057400 0.000000 0.266610 
#    y 0.000000 4.077600 0.000000 
#    z 0.266610 0.000000 4.888440 
# 
# 
# High freq. dielectric constant tensor:
#      x y z
#    x 1.923370 0.000000 0.014210 
#    y 0.000000 1.903090 0.000000 
#    z 0.014210 0.000000 1.948200 
# 
# From -- ./inp_files/21214.got.cif
#   From: 2010.03.12/outbox.cif.g09.slc.cpg/sg14_11_cif.got.tgz:21214.got - 2010.03.31 13:35:05.
