data_PCOD8125293
_publ_section_title
;
Structure prediction by ZEFSAII (Michael W. Deem and Ramdas Pophale) SiO2 
 PCOD8125293
Probable space group: P 21/C
;
_chemical_formula_sum "Si O2"
_cell_formula_units_Z 24
_cell_length_a 10.114679
_cell_length_b 16.222008
_cell_length_c 16.596194
_cell_angle_alpha 90.000000
_cell_angle_beta 28.400231
_cell_angle_gamma 90.000000
_cell_volume 1295.186798
_symmetry_space_group_name_H-M "P 21/C"
_symmetry_group_IT_number 14
_symmetry_cell_setting 'monoclinic'
loop_
_space_group_symop_operation_xyz
x,y,z
-x,1/2+y,1/2-z
-x,-y,-z
x,1/2-y,1/2+z
loop_
_atom_site_type_symbol
_atom_site_label
_atom_site_fract_x
_atom_site_fract_y
_atom_site_fract_z
Si Si1 0.458714 0.921493 0.857762
Si Si2 0.228886 0.749512 0.445619
Si Si3 0.753168 0.664463 0.608392
Si Si4 0.968373 0.407167 0.864740
Si Si5 0.422648 0.494408 0.209396
Si Si6 0.938210 0.940907 0.868682
O O1 0.351622 0.828457 0.927816
O O2 0.773692 0.931437 0.717715
O O3 0.448804 0.941266 0.768279
O O4 0.266984 0.981715 0.012833
O O5 0.456582 0.791228 0.265697
O O6 0.129776 0.813999 0.566223
O O7 0.977549 0.727900 0.521549
O O8 0.750221 0.584805 0.668003
O O9 0.823409 0.636820 0.480476
O O10 0.055994 0.412335 0.725674
O O11 0.725122 0.472024 0.014081
O O12 0.248197 0.536347 0.231659
#
# Coordination Sequence:
#
# PCOD8125293 Si02
#       6
#     4   4   4   4   4   4
#     4  11  20  39  62  81 117 157 193 233 281 344
#     4  11  20  38  60  81 114 159 192 230 283 347
#     4  10  20  38  60  82 110 157 196 229 280 352
#     4  11  24  36  58  92 121 143 191 243 294 330
#     4  10  20  38  65  82 110 156 197 226 282 352
#     4  11  21  40  59  88 116 150 192 241 289 333
#
# _framework density 18.530145999999998
#
# number of rings (size 3 to 8) (size 9 to 14) (size 15 to 20)
#    0.000    1.333    5.000    2.500    0.000    0.000 
#    3.000    1.667    0.000    0.000    0.000    0.000 
#    0.000    0.000    0.000    0.000    0.000    0.000 
#
# Total GULP energy -297734.114772 kJ/mol
# GULP energy per Si atom -12405.588116 kJ/mol
# Density = 1.848797 g / cm^3
# Si number density = 18.530146 Si / 1000 Ang^3
#
#
#
# Elastic Constant Matrix: (Units=GPa)
#
#
# Indices 1 2 3 4 5 6 
#
# 1 57.7375 28.9254 33.0089 0.0000 -10.2965 0.0000
# 2 28.9254 97.4225 45.8043 0.0000 2.5221 0.0000
# 3 33.0089 45.8043 103.3756 0.0000 -3.4309 0.0000
# 4 0.0000 0.0000 0.0000 26.8056 0.0000 -2.4952
# 5 -10.2965 2.5221 -3.4309 0.0000 34.5101 0.0000
# 6 0.0000 0.0000 0.0000 -2.4952 0.0000 21.3573
#
#
#
# Elastic Compliance Matrix: (Units=1/GPa)
#
#
# Indices 1 2 3 4 5 6 
#
# 1 0.024010 -0.004818 -0.005300 0.000000 0.006989 0.000000
# 2 -0.004818 0.014013 -0.004768 0.000000 -0.002936 0.000000
# 3 -0.005300 -0.004768 0.013482 0.000000 0.000108 0.000000
# 4 0.000000 0.000000 0.000000 0.037716 0.000000 0.004406
# 5 0.006989 -0.002936 0.000108 0.000000 0.031287 0.000000
# 6 0.000000 0.000000 0.000000 0.004406 0.000000 0.047337
#
#
# Mechanical properties :
#
#
# Convention : Reuss Voigt Hill
#
# Bulk Modulus (GPa) = 46.01258 52.66809 49.34033
# Shear Modulus (GPa) = 24.40690 26.58774 25.49732
#
# Velocity S-wave (km/s) = 3.63319 3.79203 3.71346
# Velocity P-wave (km/s) = 6.51807 6.90343 6.71351
#
# Compressibility (1/GPa) = 0.02173319
#
# Stress axis : x y z
#
# Youngs Moduli (GPa) = 41.64985 71.36407 74.17335
#
# Poissons Ratio (x) = 0.34381 0.39311
# Poissons Ratio (y) = 0.20066 0.35365
# Poissons Ratio (z) = 0.22074 0.34026
#
# Static dielectric constant tensor:
#      x y z
#    x 3.202000 0.000000 -0.184540 
#    y 0.000000 3.508320 0.000000 
#    z -0.184540 0.000000 3.530650 
# 
# 
# High freq. dielectric constant tensor:
#      x y z
#    x 1.708830 0.000000 -0.019630 
#    y 0.000000 1.723100 0.000000 
#    z -0.019630 0.000000 1.730400 
# 
# From -- ./inp_files/8445.got.cif
#   From: 2010.03.12/outbox.cif.g09.slc.cpg/sg14_5_cif.got.tgz:8445.got - 2010.03.31 13:35:05.
