data_PCOD8125700
_publ_section_title
;
Structure prediction by ZEFSAII (Michael W. Deem and Ramdas Pophale) SiO2 
 PCOD8125700
Probable space group: P 21/C
;
_chemical_formula_sum "Si O2"
_cell_formula_units_Z 20
_cell_length_a 8.173158
_cell_length_b 9.523942
_cell_length_c 10.994449
_cell_angle_alpha 90.000000
_cell_angle_beta 63.202023
_cell_angle_gamma 90.000000
_cell_volume 763.902328
_symmetry_space_group_name_H-M "P 21/C"
_symmetry_group_IT_number 14
_symmetry_cell_setting 'monoclinic'
loop_
_space_group_symop_operation_xyz
x,y,z
-x,1/2+y,1/2-z
-x,-y,-z
x,1/2-y,1/2+z
loop_
_atom_site_type_symbol
_atom_site_label
_atom_site_fract_x
_atom_site_fract_y
_atom_site_fract_z
Si Si1 0.297937 0.546343 0.450620
Si Si2 0.803788 0.828359 0.817779
Si Si3 0.185748 0.791920 0.781801
Si Si4 0.360221 0.519398 0.804914
Si Si5 0.470397 0.669933 0.993919
O O1 0.213455 0.467322 0.592873
O O2 0.146826 0.590987 0.399729
O O3 0.459294 0.451092 0.337586
O O4 0.612970 0.307518 0.540216
O O5 0.689770 0.698453 0.914016
O O6 0.017411 0.785846 0.743128
O O7 0.734890 0.871273 0.704147
O O8 0.209710 0.638610 0.830712
O O9 0.378319 0.842314 0.657202
O O10 0.415123 0.529063 0.931742
#
# Coordination Sequence:
#
# PCOD8125700 Si02
#       5
#     4   4   4   4   4
#     4  10  20  41  66  86 125 164 201 253 315 362
#     4  11  21  41  67  90 124 164 204 253 311 362
#     4  11  22  37  66  95 117 166 212 248 301 370
#     4  10  21  41  61  90 128 162 203 253 306 365
#     4  10  21  41  64  87 128 161 201 254 307 369
#
# _framework density 26.181356999999998
#
# number of rings (size 3 to 8) (size 9 to 14) (size 15 to 20)
#    0.000    1.600    4.000    1.800    0.000    3.200 
#    7.200    0.000    0.000    0.000    0.000    0.000 
#    0.000    0.000    0.000    0.000    0.000    0.000 
#
# Total GULP energy -247907.011834 kJ/mol
# GULP energy per Si atom -12395.350592 kJ/mol
# Density = 2.612177 g / cm^3
# Si number density = 26.181357 Si / 1000 Ang^3
#
#
#
# Elastic Constant Matrix: (Units=GPa)
#
#
# Indices 1 2 3 4 5 6 
#
# 1 96.8545 6.2062 -2.1392 0.0000 1.2918 0.0000
# 2 6.2062 57.5501 -2.4853 0.0000 -7.8697 0.0000
# 3 -2.1392 -2.4853 63.2793 0.0000 14.3759 0.0000
# 4 0.0000 0.0000 0.0000 31.5547 0.0000 -0.3575
# 5 1.2918 -7.8697 14.3759 0.0000 36.4271 0.0000
# 6 0.0000 0.0000 0.0000 -0.3575 0.0000 28.0072
#
#
#
# Elastic Compliance Matrix: (Units=1/GPa)
#
#
# Indices 1 2 3 4 5 6 
#
# 1 0.010425 -0.001216 0.000492 0.000000 -0.000827 0.000000
# 2 -0.001216 0.018049 -0.000250 0.000000 0.004041 0.000000
# 3 0.000492 -0.000250 0.017385 0.000000 -0.006932 0.000000
# 4 0.000000 0.000000 0.000000 0.031696 0.000000 0.000405
# 5 -0.000827 0.004041 -0.006932 0.000000 0.031090 0.000000
# 6 0.000000 0.000000 0.000000 0.000405 0.000000 0.035710
#
#
# Mechanical properties :
#
#
# Convention : Reuss Voigt Hill
#
# Bulk Modulus (GPa) = 22.77347 24.53859 23.65603
# Shear Modulus (GPa) = 31.06767 33.60463 32.33615
#
# Velocity S-wave (km/s) = 3.44849 3.58653 3.51819
# Velocity P-wave (km/s) = 4.95715 5.15207 5.05555
#
# Compressibility (1/GPa) = 0.04391074
#
# Stress axis : x y z
#
# Youngs Moduli (GPa) = 95.92709 55.40445 57.52190
#
# Poissons Ratio (x) = 0.06737 -0.02833
# Poissons Ratio (y) = 0.11664 0.01440
# Poissons Ratio (z) = -0.04724 0.01387
#
# Static dielectric constant tensor:
#      x y z
#    x 4.858600 0.000000 0.322680 
#    y 0.000000 4.846290 0.000000 
#    z 0.322680 0.000000 4.764160 
# 
# 
# High freq. dielectric constant tensor:
#      x y z
#    x 2.048060 0.000000 0.022020 
#    y 0.000000 2.057220 0.000000 
#    z 0.022020 0.000000 2.032180 
# 
# From -- ./inp_files/23426.got.cif
#   From: 2010.03.12/outbox.cif.g09.slc.cpg/sg14_12_cif.got.tgz:23426.got - 2010.03.31 13:35:05.
