data_PCOD8125601
_publ_section_title
;
Structure prediction by ZEFSAII (Michael W. Deem and Ramdas Pophale) SiO2 
 PCOD8125601
Probable space group: P 21/C
;
_chemical_formula_sum "Si O2"
_cell_formula_units_Z 28
_cell_length_a 11.304245
_cell_length_b 9.447678
_cell_length_c 14.920791
_cell_angle_alpha 90.000000
_cell_angle_beta 122.121479
_cell_angle_gamma 90.000000
_cell_volume 1349.591208
_symmetry_space_group_name_H-M "P 21/C"
_symmetry_group_IT_number 14
_symmetry_cell_setting 'monoclinic'
loop_
_space_group_symop_operation_xyz
x,y,z
-x,1/2+y,1/2-z
-x,-y,-z
x,1/2-y,1/2+z
loop_
_atom_site_type_symbol
_atom_site_label
_atom_site_fract_x
_atom_site_fract_y
_atom_site_fract_z
Si Si1 0.948164 0.341236 0.984201
Si Si2 0.910717 0.722200 0.126476
Si Si3 0.635688 0.196338 0.335879
Si Si4 0.085772 0.601430 0.833137
Si Si5 0.398704 0.627308 0.976399
Si Si6 0.505645 0.025273 0.848404
Si Si7 0.620385 0.651992 0.541250
O O1 0.798816 0.312656 0.876612
O O2 0.056267 0.251003 0.966274
O O3 0.943900 0.304573 0.088575
O O4 0.000000 0.500000 0.000000
O O5 0.954987 0.563036 0.170634
O O6 0.746895 0.740690 0.077717
O O7 0.992831 0.837704 0.216657
O O8 0.621624 0.125709 0.426131
O O9 0.546052 0.105478 0.230596
O O10 0.576806 0.357073 0.313083
O O11 0.247841 0.613102 0.868967
O O12 0.500000 0.500000 0.000000
O O13 0.472215 0.768225 0.969176
O O14 0.377301 0.090382 0.855851
O O15 0.622504 0.971034 0.967010
#
# Coordination Sequence:
#
# PCOD8125601 Si02
#       7
#     4   4   4   4   4   4   4
#     4   9  22  41  61  91 127 170 210 257 319 389
#     4  11  23  41  65  96 129 175 207 263 330 380
#     4  10  23  40  63  96 125 165 218 256 327 376
#     4  10  23  40  65  94 130 169 219 261 321 390
#     4  10  20  40  64  92 123 166 220 264 312 380
#     4  10  24  41  66  94 128 166 211 272 317 380
#     4  10  23  42  65  94 130 166 216 266 320 378
#
# _framework density 20.747024
#
# number of rings (size 3 to 8) (size 9 to 14) (size 15 to 20)
#    0.000    2.000    1.429    0.000    8.000    3.429 
#    2.571    1.429    0.000    0.000    0.000    0.000 
#    0.000    0.000    0.000    0.000    0.000    0.000 
#
# Total GULP energy -347072.610769 kJ/mol
# GULP energy per Si atom -12395.450385 kJ/mol
# Density = 2.069980 g / cm^3
# Si number density = 20.747024 Si / 1000 Ang^3
#
#
#
# Elastic Constant Matrix: (Units=GPa)
#
#
# Indices 1 2 3 4 5 6 
#
# 1 118.7713 36.2342 29.6474 0.0000 1.0253 0.0000
# 2 36.2342 94.5439 26.9610 0.0000 -6.8643 0.0000
# 3 29.6474 26.9610 46.4274 0.0000 -0.6453 0.0000
# 4 0.0000 0.0000 0.0000 41.4643 0.0000 -4.9174
# 5 1.0253 -6.8643 -0.6453 0.0000 20.7955 0.0000
# 6 0.0000 0.0000 0.0000 -4.9174 0.0000 32.0667
#
#
#
# Elastic Compliance Matrix: (Units=1/GPa)
#
#
# Indices 1 2 3 4 5 6 
#
# 1 0.010547 -0.002671 -0.005206 0.000000 -0.001563 0.000000
# 2 -0.002671 0.013687 -0.006180 0.000000 0.004458 0.000000
# 3 -0.005206 -0.006180 0.028440 0.000000 -0.000901 0.000000
# 4 0.000000 0.000000 0.000000 0.024564 0.000000 0.003767
# 5 -0.001563 0.004458 -0.000901 0.000000 0.049608 0.000000
# 6 0.000000 0.000000 0.000000 0.003767 0.000000 0.031763
#
#
# Mechanical properties :
#
#
# Convention : Reuss Voigt Hill
#
# Bulk Modulus (GPa) = 40.71793 49.49197 45.10495
# Shear Modulus (GPa) = 25.65284 29.99197 27.82241
#
# Velocity S-wave (km/s) = 3.52015 3.80623 3.66598
# Velocity P-wave (km/s) = 6.01585 6.57444 6.30134
#
# Compressibility (1/GPa) = 0.02455920
#
# Stress axis : x y z
#
# Youngs Moduli (GPa) = 94.80967 73.06193 35.16193
#
# Poissons Ratio (x) = 0.19517 0.18305
# Poissons Ratio (y) = 0.25327 0.21732
# Poissons Ratio (z) = 0.49356 0.45156
#
# Static dielectric constant tensor:
#      x y z
#    x 4.413430 0.000000 -0.067980 
#    y 0.000000 3.754730 0.000000 
#    z -0.067980 0.000000 3.758170 
# 
# 
# High freq. dielectric constant tensor:
#      x y z
#    x 1.823230 0.000000 -0.010820 
#    y 0.000000 1.807530 0.000000 
#    z -0.010820 0.000000 1.797430 
# 
# From -- ./inp_files/43803.got.cif
#   From: 2010.03.12/outbox.cif.g09.slc.cpg/sg14_22_cif.got.tgz:43803.got - 2010.03.31 13:35:05.
