data_PCOD8125831
_publ_section_title
;
Structure prediction by ZEFSAII (Michael W. Deem and Ramdas Pophale) SiO2 
 PCOD8125831
Probable space group: P 21/C
;
_chemical_formula_sum "Si O2"
_cell_formula_units_Z 32
_cell_length_a 17.512388
_cell_length_b 13.625234
_cell_length_c 19.711856
_cell_angle_alpha 90.000000
_cell_angle_beta 158.526844
_cell_angle_gamma 90.000000
_cell_volume 1721.770993
_symmetry_space_group_name_H-M "P 21/C"
_symmetry_group_IT_number 14
_symmetry_cell_setting 'monoclinic'
loop_
_space_group_symop_operation_xyz
x,y,z
-x,1/2+y,1/2-z
-x,-y,-z
x,1/2-y,1/2+z
loop_
_atom_site_type_symbol
_atom_site_label
_atom_site_fract_x
_atom_site_fract_y
_atom_site_fract_z
Si Si1 0.025590 0.887020 0.769521
Si Si2 0.974409 0.612979 0.730479
Si Si3 0.661597 0.383595 0.239068
Si Si4 0.654585 0.267551 0.939938
Si Si5 0.338404 0.116405 0.260932
Si Si6 0.058719 0.112494 0.146712
Si Si7 0.058718 0.887506 0.146711
Si Si8 0.345416 0.232450 0.560062
O O1 0.923310 0.870778 0.758984
O O2 0.854357 0.833691 0.579869
O O3 0.055313 0.999999 0.773869
O O4 0.252677 0.835561 0.954874
O O5 0.076689 0.629221 0.741015
O O6 0.747322 0.664438 0.545126
O O7 0.145642 0.666308 0.920131
O O8 0.609407 0.500000 0.202094
O O9 0.734808 0.351473 0.223430
O O10 0.457341 0.323215 0.090683
O O11 0.841718 0.344510 0.439144
O O12 0.542660 0.323216 0.909318
O O13 0.500000 0.250001 0.750000
O O14 0.265192 0.148526 0.276571
O O15 0.158283 0.155490 0.060857
O O16 0.041383 0.000000 0.112172
#
# Coordination Sequence:
#
# PCOD8125831 Si02
#       8
#     4   4   4   4   4   4   4   4
#     4  10  21  35  51  76 107 135 170 211 249 303
#     4  10  21  35  51  76 107 135 170 211 249 303
#     4   9  16  29  51  78 108 136 160 200 255 306
#     4  11  21  32  50  76 105 138 173 203 252 304
#     4   9  16  29  51  78 108 136 160 200 255 306
#     4   8  15  29  50  76 106 133 160 202 258 309
#     4   8  15  29  50  76 106 133 160 202 258 309
#     4  11  21  32  50  76 105 138 173 203 252 304
#
# _framework density 18.585514
#
# number of rings (size 3 to 8) (size 9 to 14) (size 15 to 20)
#    0.000    2.500    2.500    2.250    0.000    2.000 
#    0.000    3.750    0.000    0.000    0.000   19.250 
#    0.000    0.250    0.000    0.000    0.000    0.000 
#
# Total GULP energy -396419.723903 kJ/mol
# GULP energy per Si atom -12388.116372 kJ/mol
# Density = 1.854321 g / cm^3
# Si number density = 18.585514 Si / 1000 Ang^3
#
#
#
# Elastic Constant Matrix: (Units=GPa)
#
#
# Indices 1 2 3 4 5 6 
#
# 1 46.9292 17.3430 20.4402 0.0000 9.2737 0.0000
# 2 17.3430 112.7390 51.0282 0.0000 10.1322 0.0000
# 3 20.4402 51.0282 113.7050 0.0000 10.5522 0.0000
# 4 0.0000 0.0000 0.0000 32.7907 0.0000 12.1577
# 5 9.2737 10.1322 10.5522 0.0000 24.7508 0.0000
# 6 0.0000 0.0000 0.0000 12.1577 0.0000 20.1325
#
#
#
# Elastic Compliance Matrix: (Units=1/GPa)
#
#
# Indices 1 2 3 4 5 6 
#
# 1 0.024698 -0.001810 -0.002954 0.000000 -0.007253 0.000000
# 2 -0.001810 0.011418 -0.004610 0.000000 -0.002030 0.000000
# 3 -0.002954 -0.004610 0.011575 0.000000 -0.001941 0.000000
# 4 0.000000 0.000000 0.000000 0.039294 0.000000 -0.023729
# 5 -0.007253 -0.002030 -0.001941 0.000000 0.044779 0.000000
# 6 0.000000 0.000000 0.000000 -0.023729 0.000000 0.064001
#
#
# Mechanical properties :
#
#
# Convention : Reuss Voigt Hill
#
# Bulk Modulus (GPa) = 34.55332 50.11067 42.33200
# Shear Modulus (GPa) = 22.30548 27.83895 25.07222
#
# Velocity S-wave (km/s) = 3.46808 3.87445 3.67688
# Velocity P-wave (km/s) = 5.88801 6.85827 6.39158
#
# Compressibility (1/GPa) = 0.02894078
#
# Stress axis : x y z
#
# Youngs Moduli (GPa) = 40.48955 87.58376 86.39485
#
# Poissons Ratio (x) = 0.15855 0.25523
# Poissons Ratio (y) = 0.07330 0.39829
# Poissons Ratio (z) = 0.11962 0.40377
#
# Static dielectric constant tensor:
#      x y z
#    x 3.352400 0.000000 0.115750 
#    y 0.000000 3.298040 0.000000 
#    z 0.115750 0.000000 3.555960 
# 
# 
# High freq. dielectric constant tensor:
#      x y z
#    x 1.691830 0.000000 0.002990 
#    y 0.000000 1.688330 0.000000 
#    z 0.002990 0.000000 1.745960 
# 
# From -- ./inp_files/69440.got.cif
#   From: 2010.03.12/outbox.cif.g09.slc.cpg/sg14_35_cif.got.tgz:69440.got - 2010.03.31 13:35:05.
