data_PCOD8125416
_publ_section_title
;
Structure prediction by ZEFSAII (Michael W. Deem and Ramdas Pophale) SiO2 
 PCOD8125416
Probable space group: P 21/C
;
_chemical_formula_sum "Si O2"
_cell_formula_units_Z 28
_cell_length_a 20.824532
_cell_length_b 11.539894
_cell_length_c 8.533162
_cell_angle_alpha 90.000000
_cell_angle_beta 36.536743
_cell_angle_gamma 90.000000
_cell_volume 1220.817613
_symmetry_space_group_name_H-M "P 21/C"
_symmetry_group_IT_number 14
_symmetry_cell_setting 'monoclinic'
loop_
_space_group_symop_operation_xyz
x,y,z
-x,1/2+y,1/2-z
-x,-y,-z
x,1/2-y,1/2+z
loop_
_atom_site_type_symbol
_atom_site_label
_atom_site_fract_x
_atom_site_fract_y
_atom_site_fract_z
Si Si1 0.687850 0.905732 0.312109
Si Si2 0.479754 0.906096 0.281079
Si Si3 0.223122 0.688273 0.758071
Si Si4 0.297410 0.160716 0.076775
Si Si5 0.131926 0.558920 0.393339
Si Si6 0.376236 0.739244 0.721522
Si Si7 0.109600 0.476235 0.085106
O O1 0.683958 0.796862 0.435461
O O2 0.575129 0.974025 0.559103
O O3 0.786977 0.989526 0.155099
O O4 0.701573 0.862510 0.109224
O O5 0.459832 0.805213 0.447961
O O6 0.434637 0.864597 0.201209
O O7 0.609274 0.917094 0.021914
O O8 0.168189 0.808712 0.820164
O O9 0.276173 0.684289 0.825021
O O10 0.321340 0.665829 0.444417
O O11 0.134704 0.587506 0.926515
O O12 0.184232 0.128735 0.379879
O O13 0.130894 0.501267 0.225240
O O14 0.013960 0.556519 0.702207
#
# Coordination Sequence:
#
# PCOD8125416 Si02
#       7
#     4   4   4   4   4   4   4
#     4  12  25  49  68 103 151 184 238 295 350 425
#     4  11  23  45  71 106 141 186 231 295 347 428
#     4  11  20  43  68 103 131 179 233 294 348 423
#     4  12  28  45  72 106 145 190 234 287 365 419
#     4  11  25  47  70 101 140 184 236 299 353 416
#     4  10  20  38  72  98 134 174 233 278 348 412
#     4  11  26  45  71 102 139 186 238 293 356 426
#
# _framework density 22.935448000000001
#
# number of rings (size 3 to 8) (size 9 to 14) (size 15 to 20)
#    0.000    0.857    4.286    3.000    2.000    2.857 
#    0.000    2.857    0.000    0.000    0.000    0.000 
#    0.000    0.000    0.000    0.000    0.000    0.000 
#
# Total GULP energy -347279.065763 kJ/mol
# GULP energy per Si atom -12402.823777 kJ/mol
# Density = 2.288325 g / cm^3
# Si number density = 22.935448 Si / 1000 Ang^3
#
#
#
# Elastic Constant Matrix: (Units=GPa)
#
#
# Indices 1 2 3 4 5 6 
#
# 1 54.3669 3.0871 6.6053 0.0000 -6.6105 0.0000
# 2 3.0871 101.0273 20.4400 0.0000 -4.2365 0.0000
# 3 6.6053 20.4400 69.5535 0.0000 -24.8529 0.0000
# 4 0.0000 0.0000 0.0000 16.5171 0.0000 16.0968
# 5 -6.6105 -4.2365 -24.8529 0.0000 38.3048 0.0000
# 6 0.0000 0.0000 0.0000 16.0968 0.0000 8.8582
#
#
#
# Elastic Compliance Matrix: (Units=1/GPa)
#
#
# Indices 1 2 3 4 5 6 
#
# 1 0.018833 -0.000316 -0.000712 0.000000 0.002753 0.000000
# 2 -0.000316 0.010565 -0.003485 0.000000 -0.001147 0.000000
# 3 -0.000712 -0.003485 0.019901 0.000000 0.012404 0.000000
# 4 0.000000 0.000000 0.000000 -0.078533 0.000000 0.142708
# 5 0.002753 -0.001147 0.012404 0.000000 0.034503 0.000000
# 6 0.000000 0.000000 0.000000 0.142708 0.000000 -0.146434
#
#
# Mechanical properties :
#
#
# Convention : Reuss Voigt Hill
#
# Bulk Modulus (GPa) = 24.82984 31.69029 28.26006
# Shear Modulus (GPa) = -42.11716 25.72371 -8.19673
#
# Velocity S-wave (km/s) = -4.28990 3.35262 -1.89251
# Velocity P-wave (km/s) = 3.69975 5.36972 2.75189
#
# Compressibility (1/GPa) = 0.04027412
#
# Stress axis : x y z
#
# Youngs Moduli (GPa) = 53.09902 94.65327 50.24802
#
# Poissons Ratio (x) = 0.02991 0.03577
# Poissons Ratio (y) = 0.01678 0.17509
# Poissons Ratio (z) = 0.03780 0.32982
#
# Static dielectric constant tensor:
#      x y z
#    x 4.178240 0.000000 -0.009870 
#    y 0.000000 4.027430 0.000000 
#    z -0.009870 0.000000 4.351400 
# 
# 
# High freq. dielectric constant tensor:
#      x y z
#    x 1.909070 0.000000 0.004380 
#    y 0.000000 1.903760 0.000000 
#    z 0.004380 0.000000 1.919220 
# 
# From -- ./inp_files/18914.got.cif
#   From: 2010.03.12/outbox.cif.g09.slc.cpg/sg14_10_cif.got.tgz:18914.got - 2010.03.31 13:35:05.
