data_PCOD8125789
_publ_section_title
;
Structure prediction by ZEFSAII (Michael W. Deem and Ramdas Pophale) SiO2 
 PCOD8125789
Probable space group: P 21/C
;
_chemical_formula_sum "Si O2"
_cell_formula_units_Z 28
_cell_length_a 6.199370
_cell_length_b 7.479101
_cell_length_c 30.238970
_cell_angle_alpha 90.000000
_cell_angle_beta 123.435777
_cell_angle_gamma 90.000000
_cell_volume 1170.017492
_symmetry_space_group_name_H-M "P 21/C"
_symmetry_group_IT_number 14
_symmetry_cell_setting 'monoclinic'
loop_
_space_group_symop_operation_xyz
x,y,z
-x,1/2+y,1/2-z
-x,-y,-z
x,1/2-y,1/2+z
loop_
_atom_site_type_symbol
_atom_site_label
_atom_site_fract_x
_atom_site_fract_y
_atom_site_fract_z
Si Si1 0.803204 0.611873 0.591298
Si Si2 0.956508 0.867696 0.954202
Si Si3 0.750256 0.363708 0.847326
Si Si4 0.713642 0.846601 0.180757
Si Si5 0.992129 0.009584 0.703640
Si Si6 0.395126 0.868968 0.524275
Si Si7 0.485731 0.122542 0.614863
O O1 0.755505 0.559864 0.637701
O O2 0.533201 0.673375 0.538951
O O3 0.931244 0.448786 0.578843
O O4 0.969356 0.794890 0.605740
O O5 0.652157 0.811019 0.914736
O O6 0.096785 0.679231 0.981004
O O7 0.000000 0.000000 0.000000
O O8 0.581476 0.180274 0.835563
O O9 0.666673 0.549142 0.859954
O O10 0.774114 0.431326 0.799287
O O11 0.782500 0.640321 0.188290
O O12 0.891131 0.943533 0.236143
O O13 0.795252 0.159075 0.659321
O O14 0.500000 0.000000 0.500000
O O15 0.442644 0.960387 0.576222
#
# Coordination Sequence:
#
# PCOD8125789 Si02
#       7
#     4   4   4   4   4   4   4
#     4  11  23  44  67 103 146 177 232 311 347 410
#     4  12  27  42  72 108 141 184 245 296 355 409
#     4  10  20  43  70  94 138 188 231 283 350 428
#     4  10  23  43  70  98 142 182 232 287 364 422
#     4  10  23  43  71  98 137 182 235 281 359 427
#     4  12  23  46  73  94 140 195 232 285 358 424
#     4  11  23  45  69  99 140 186 236 286 351 439
#
# _framework density 23.931263000000001
#
# number of rings (size 3 to 8) (size 9 to 14) (size 15 to 20)
#    0.000    1.143    4.286    3.429    0.000    6.857 
#    0.000    1.429    0.000    0.000    0.000    0.000 
#    0.000    0.000    0.000    0.000    0.000    0.000 
#
# Total GULP energy -346911.324241 kJ/mol
# GULP energy per Si atom -12389.690151 kJ/mol
# Density = 2.387679 g / cm^3
# Si number density = 23.931263 Si / 1000 Ang^3
#
#
#
# Elastic Constant Matrix: (Units=GPa)
#
#
# Indices 1 2 3 4 5 6 
#
# 1 112.3148 25.1228 51.6885 0.0000 -14.5273 0.0000
# 2 25.1228 60.3877 31.7316 0.0000 -11.2580 0.0000
# 3 51.6885 31.7316 123.8021 0.0000 -19.9237 0.0000
# 4 0.0000 0.0000 0.0000 45.4933 0.0000 -1.5555
# 5 -14.5273 -11.2580 -19.9237 0.0000 26.5227 0.0000
# 6 0.0000 0.0000 0.0000 -1.5555 0.0000 46.9381
#
#
#
# Elastic Compliance Matrix: (Units=1/GPa)
#
#
# Indices 1 2 3 4 5 6 
#
# 1 0.011493 -0.002324 -0.003809 0.000000 0.002447 0.000000
# 2 -0.002324 0.020220 -0.003454 0.000000 0.004716 0.000000
# 3 -0.003809 -0.003454 0.011354 0.000000 0.004977 0.000000
# 4 0.000000 0.000000 0.000000 0.022006 0.000000 0.000729
# 5 0.002447 0.004716 0.004977 0.000000 0.044784 0.000000
# 6 0.000000 0.000000 0.000000 0.000729 0.000000 0.021329
#
#
# Mechanical properties :
#
#
# Convention : Reuss Voigt Hill
#
# Bulk Modulus (GPa) = 41.85049 57.06558 49.45804
# Shear Modulus (GPa) = 31.58104 36.32160 33.95132
#
# Velocity S-wave (km/s) = 3.63665 3.90005 3.77065
# Velocity P-wave (km/s) = 5.92953 6.64665 6.29831
#
# Compressibility (1/GPa) = 0.02389458
#
# Stress axis : x y z
#
# Youngs Moduli (GPa) = 87.01145 49.45549 88.07656
#
# Poissons Ratio (x) = 0.11491 0.33548
# Poissons Ratio (y) = 0.20217 0.30418
# Poissons Ratio (z) = 0.33142 0.17080
#
# Static dielectric constant tensor:
#      x y z
#    x 4.523360 0.000000 0.273790 
#    y 0.000000 4.168840 0.000000 
#    z 0.273790 0.000000 4.267500 
# 
# 
# High freq. dielectric constant tensor:
#      x y z
#    x 1.962820 0.000000 0.004690 
#    y 0.000000 1.934760 0.000000 
#    z 0.004690 0.000000 1.949250 
# 
# From -- ./inp_files/78740.got.cif
#   From: 2010.03.12/outbox.cif.g09.slc.cpg/sg14_40_cif.got.tgz:78740.got - 2010.03.31 13:35:05.
