data_PCOD8125900
_publ_section_title
;
Structure prediction by ZEFSAII (Michael W. Deem and Ramdas Pophale) SiO2 
 PCOD8125900
Probable space group: P 21/C
;
_chemical_formula_sum "Si O2"
_cell_formula_units_Z 32
_cell_length_a 11.153676
_cell_length_b 9.877194
_cell_length_c 20.886915
_cell_angle_alpha 90.000000
_cell_angle_beta 130.651195
_cell_angle_gamma 90.000000
_cell_volume 1745.781935
_symmetry_space_group_name_H-M "P 21/C"
_symmetry_group_IT_number 14
_symmetry_cell_setting 'monoclinic'
loop_
_space_group_symop_operation_xyz
x,y,z
-x,1/2+y,1/2-z
-x,-y,-z
x,1/2-y,1/2+z
loop_
_atom_site_type_symbol
_atom_site_label
_atom_site_fract_x
_atom_site_fract_y
_atom_site_fract_z
Si Si1 0.978384 0.645515 0.962695
Si Si2 0.355632 0.287857 0.216002
Si Si3 0.882874 0.200174 0.621303
Si Si4 0.775362 0.801798 0.196016
Si Si5 0.633579 0.473210 0.262637
Si Si6 0.033862 0.894497 0.066430
Si Si7 0.882750 0.501961 0.635903
Si Si8 0.223847 0.004831 0.318669
O O1 0.804021 0.676513 0.876747
O O2 0.103020 0.659996 0.948051
O O3 0.000000 0.500000 0.000000
O O4 0.019197 0.743987 0.035119
O O5 0.345024 0.326588 0.287432
O O6 0.490629 0.378080 0.232412
O O7 0.392182 0.127726 0.222707
O O8 0.812995 0.351988 0.600544
O O9 0.050837 0.198375 0.713811
O O10 0.765342 0.095735 0.616712
O O11 0.757503 0.919242 0.137059
O O12 0.740989 0.659432 0.148257
O O13 0.789888 0.413516 0.348014
O O14 0.648944 0.463353 0.191023
O O15 0.904538 0.918722 0.076892
O O16 0.000000 0.000000 0.000000
O O17 0.050990 0.496932 0.728306
#
# Coordination Sequence:
#
# PCOD8125900 Si02
#       8
#     4   4   4   4   4   4   4   4
#     4  11  23  35  54  84 112 141 181 225 269 319
#     4  10  21  38  55  82 112 140 181 224 265 322
#     4   9  16  30  48  75 106 132 173 224 261 311
#     4   8  16  30  49  73 103 135 173 220 261 308
#     4  10  21  36  58  80 109 146 179 221 271 319
#     4  11  19  37  56  78 110 144 175 220 273 317
#     4   9  16  28  51  75 100 136 177 217 263 315
#     4   8  16  30  47  74 104 134 173 219 265 305
#
# _framework density 18.329893999999999
#
# number of rings (size 3 to 8) (size 9 to 14) (size 15 to 20)
#    0.000    2.500    2.500    1.500    3.500    1.000 
#    4.500    0.000    0.000    3.000    0.000    0.000 
#    0.000    0.000    0.000    0.000    0.000    0.000 
#
# Total GULP energy -396662.000155 kJ/mol
# GULP energy per Si atom -12395.687505 kJ/mol
# Density = 1.828817 g / cm^3
# Si number density = 18.329894 Si / 1000 Ang^3
#
#
#
# Elastic Constant Matrix: (Units=GPa)
#
#
# Indices 1 2 3 4 5 6 
#
# 1 103.6344 76.4352 25.0527 0.0000 -20.5969 0.0000
# 2 76.4352 174.8812 39.9775 0.0000 -27.3644 0.0000
# 3 25.0527 39.9775 41.4102 0.0000 -16.7327 0.0000
# 4 0.0000 0.0000 0.0000 31.9484 0.0000 -8.5966
# 5 -20.5969 -27.3644 -16.7327 0.0000 27.7647 0.0000
# 6 0.0000 0.0000 0.0000 -8.5966 0.0000 38.2290
#
#
#
# Elastic Compliance Matrix: (Units=1/GPa)
#
#
# Indices 1 2 3 4 5 6 
#
# 1 0.015027 -0.005381 -0.002029 0.000000 0.004621 0.000000
# 2 -0.005381 0.009601 -0.005027 0.000000 0.002441 0.000000
# 3 -0.002029 -0.005027 0.036510 0.000000 0.015543 0.000000
# 4 0.000000 0.000000 0.000000 0.033316 0.000000 0.007492
# 5 0.004621 0.002441 0.015543 0.000000 0.051219 0.000000
# 6 0.000000 0.000000 0.000000 0.007492 0.000000 0.027843
#
#
# Mechanical properties :
#
#
# Convention : Reuss Voigt Hill
#
# Bulk Modulus (GPa) = 27.57555 66.98407 47.27981
# Shear Modulus (GPa) = 23.75543 31.48579 27.62061
#
# Velocity S-wave (km/s) = 3.60390 4.14905 3.88604
# Velocity P-wave (km/s) = 5.69158 7.71853 6.78122
#
# Compressibility (1/GPa) = 0.03626401
#
# Stress axis : x y z
#
# Youngs Moduli (GPa) = 66.54722 104.15394 27.38972
#
# Poissons Ratio (x) = 0.56043 0.05558
# Poissons Ratio (y) = 0.35808 0.13769
# Poissons Ratio (z) = 0.13503 0.52360
#
# Static dielectric constant tensor:
#      x y z
#    x 3.345400 0.000000 -0.248460 
#    y 0.000000 3.697840 0.000000 
#    z -0.248460 0.000000 2.843740 
# 
# 
# High freq. dielectric constant tensor:
#      x y z
#    x 1.704100 0.000000 -0.030370 
#    y 0.000000 1.725410 0.000000 
#    z -0.030370 0.000000 1.674860 
# 
# From -- ./inp_files/66881.got.cif
#   From: 2010.03.12/outbox.cif.g09.slc.cpg/sg14_34_cif.got.tgz:66881.got - 2010.03.31 13:35:05.
