data_PCOD8125308
_publ_section_title
;
Structure prediction by ZEFSAII (Michael W. Deem and Ramdas Pophale) SiO2 
 PCOD8125308
Probable space group: P 21/C
;
_chemical_formula_sum "Si O2"
_cell_formula_units_Z 32
_cell_length_a 19.256920
_cell_length_b 9.198876
_cell_length_c 8.785364
_cell_angle_alpha 90.000000
_cell_angle_beta 75.751231
_cell_angle_gamma 90.000000
_cell_volume 1508.380733
_symmetry_space_group_name_H-M "P 21/C"
_symmetry_group_IT_number 14
_symmetry_cell_setting 'monoclinic'
loop_
_space_group_symop_operation_xyz
x,y,z
-x,1/2+y,1/2-z
-x,-y,-z
x,1/2-y,1/2+z
loop_
_atom_site_type_symbol
_atom_site_label
_atom_site_fract_x
_atom_site_fract_y
_atom_site_fract_z
Si Si1 0.694689 0.411551 0.462869
Si Si2 0.168563 0.084175 0.719895
Si Si3 0.169006 0.084373 0.210343
Si Si4 0.693137 0.407161 0.827690
Si Si5 0.565564 0.909951 0.897808
Si Si6 0.064512 0.092022 0.026001
Si Si7 0.434624 0.089146 0.467972
Si Si8 0.931770 0.917076 0.480660
O O1 0.772861 0.468899 0.375509
O O2 0.684023 0.407281 0.650244
O O3 0.682699 0.253037 0.399260
O O4 0.638821 0.519429 0.415314
O O5 0.194794 0.248904 0.665323
O O6 0.142991 0.071203 0.906686
O O7 0.093425 0.043474 0.675892
O O8 0.230358 0.967456 0.659721
O O9 0.146437 0.059040 0.396795
O O10 0.088844 0.055072 0.183825
O O11 0.637035 0.513949 0.935464
O O12 0.562726 0.906905 0.716436
O O13 0.560920 0.749486 0.967047
O O14 0.500000 0.000000 0.000000
O O15 0.038975 0.255212 0.019785
O O16 0.000000 0.000000 0.000000
O O17 0.500000 0.000000 0.500000
O O18 0.000000 0.000000 0.500000
#
# Coordination Sequence:
#
# PCOD8125308 Si02
#       8
#     4   4   4   4   4   4   4   4
#     4  12  26  44  67  99 136 177 226 280 337 400
#     4  10  22  40  63  89 126 170 218 270 335 402
#     4  10  22  40  63  89 126 170 218 270 335 402
#     4  12  26  44  67  99 136 177 226 280 337 400
#     4  12  26  47  75 106 143 184 226 274 328 391
#     4  10  20  38  60  86 123 168 213 268 332 398
#     4  12  26  47  75 106 143 184 226 274 328 391
#     4  10  22  36  60  92 123 162 217 274 332 404
#
# _framework density 21.214801000000001
#
# number of rings (size 3 to 8) (size 9 to 14) (size 15 to 20)
#    0.000    1.000    1.250    5.250    3.500    2.000 
#    0.000    0.000    0.000    0.000    0.000    0.000 
#    0.000    0.000    0.000    0.000    0.000    0.000 
#
# Total GULP energy -396621.079867 kJ/mol
# GULP energy per Si atom -12394.408746 kJ/mol
# Density = 2.116652 g / cm^3
# Si number density = 21.214801 Si / 1000 Ang^3
#
#
#
# Elastic Constant Matrix: (Units=GPa)
#
#
# Indices 1 2 3 4 5 6 
#
# 1 118.8348 70.5499 37.2734 0.0000 6.7263 0.0000
# 2 70.5499 151.0084 53.4066 0.0000 8.8392 0.0000
# 3 37.2734 53.4066 126.0282 0.0000 13.9223 0.0000
# 4 0.0000 0.0000 0.0000 36.7490 0.0000 -0.8789
# 5 6.7263 8.8392 13.9223 0.0000 20.0183 0.0000
# 6 0.0000 0.0000 0.0000 -0.8789 0.0000 51.4108
#
#
#
# Elastic Compliance Matrix: (Units=1/GPa)
#
#
# Indices 1 2 3 4 5 6 
#
# 1 0.011854 -0.005036 -0.001275 0.000000 -0.000872 0.000000
# 2 -0.005036 0.009958 -0.002634 0.000000 -0.000873 0.000000
# 3 -0.001275 -0.002634 0.010022 0.000000 -0.005379 0.000000
# 4 0.000000 0.000000 0.000000 0.027223 0.000000 0.000465
# 5 -0.000872 -0.000873 -0.005379 0.000000 0.054374 0.000000
# 6 0.000000 0.000000 0.000000 0.000465 0.000000 0.019459
#
#
# Mechanical properties :
#
#
# Convention : Reuss Voigt Hill
#
# Bulk Modulus (GPa) = 71.71850 79.81457 75.76654
# Shear Modulus (GPa) = 32.16919 37.27839 34.72379
#
# Velocity S-wave (km/s) = 3.89827 4.19643 4.05009
# Velocity P-wave (km/s) = 7.35807 7.82201 7.59358
#
# Compressibility (1/GPa) = 0.01394340
#
# Stress axis : x y z
#
# Youngs Moduli (GPa) = 84.35761 100.42642 99.77779
#
# Poissons Ratio (x) = 0.50575 0.12726
# Poissons Ratio (y) = 0.42483 0.26280
# Poissons Ratio (z) = 0.10760 0.26450
#
# Static dielectric constant tensor:
#      x y z
#    x 3.885100 0.000000 0.169450 
#    y 0.000000 3.152500 0.000000 
#    z 0.169450 0.000000 4.309770 
# 
# 
# High freq. dielectric constant tensor:
#      x y z
#    x 1.840680 0.000000 0.005920 
#    y 0.000000 1.834450 0.000000 
#    z 0.005920 0.000000 1.858880 
# 
# From -- ./inp_files/18618.got.cif
#   From: 2010.03.12/outbox.cif.g09.slc.cpg/sg14_10_cif.got.tgz:18618.got - 2010.03.31 13:35:05.
