data_PCOD8125409
_publ_section_title
;
Structure prediction by ZEFSAII (Michael W. Deem and Ramdas Pophale) SiO2 
 PCOD8125409
Probable space group: P 21/C
;
_chemical_formula_sum "Si O2"
_cell_formula_units_Z 20
_cell_length_a 8.059687
_cell_length_b 16.910576
_cell_length_c 9.324939
_cell_angle_alpha 90.000000
_cell_angle_beta 130.253916
_cell_angle_gamma 90.000000
_cell_volume 969.961026
_symmetry_space_group_name_H-M "P 21/C"
_symmetry_group_IT_number 14
_symmetry_cell_setting 'monoclinic'
loop_
_space_group_symop_operation_xyz
x,y,z
-x,1/2+y,1/2-z
-x,-y,-z
x,1/2-y,1/2+z
loop_
_atom_site_type_symbol
_atom_site_label
_atom_site_fract_x
_atom_site_fract_y
_atom_site_fract_z
Si Si1 0.215132 0.897657 0.687986
Si Si2 0.773378 0.820253 0.406230
Si Si3 0.726509 0.502126 0.539554
Si Si4 0.549644 0.975499 0.367642
Si Si5 0.337716 0.326965 0.473465
O O1 0.125839 0.941531 0.785451
O O2 0.416836 0.840088 0.834625
O O3 0.022444 0.844996 0.517680
O O4 0.279487 0.963283 0.606230
O O5 0.645834 0.887776 0.421201
O O6 0.776076 0.741033 0.499880
O O7 0.657556 0.803236 0.190490
O O8 0.500000 0.500000 0.500000
O O9 0.678539 0.475130 0.349649
O O10 0.807504 0.592980 0.587320
O O11 0.500000 0.000000 0.500000
#
# Coordination Sequence:
#
# PCOD8125409 Si02
#       5
#     4   4   4   4   4
#     4  10  21  44  67  83 123 173 206 251 311 369
#     4  12  23  40  65  92 125 165 206 254 323 369
#     4   8  16  40  62  80 120 163 196 249 301 355
#     4  10  20  38  67  94 120 164 210 257 304 371
#     4  10  23  39  60  92 127 155 203 262 309 363
#
# _framework density 20.619384
#
# number of rings (size 3 to 8) (size 9 to 14) (size 15 to 20)
#    0.000    2.400    6.000    0.600    5.600    1.600 
#    0.000    1.000    0.000    0.000    0.000    0.000 
#    0.000    0.000    0.000    0.000    0.000    0.000 
#
# Total GULP energy -247902.599866 kJ/mol
# GULP energy per Si atom -12395.129993 kJ/mol
# Density = 2.057245 g / cm^3
# Si number density = 20.619384 Si / 1000 Ang^3
#
#
#
# Elastic Constant Matrix: (Units=GPa)
#
#
# Indices 1 2 3 4 5 6 
#
# 1 41.3050 36.2444 32.3082 0.0000 -16.5665 0.0000
# 2 36.2444 119.9066 30.7346 0.0000 0.5588 0.0000
# 3 32.3082 30.7346 91.4699 0.0000 -24.4538 0.0000
# 4 0.0000 0.0000 0.0000 27.9838 0.0000 -5.8414
# 5 -16.5665 0.5588 -24.4538 0.0000 31.1987 0.0000
# 6 0.0000 0.0000 0.0000 -5.8414 0.0000 35.9310
#
#
#
# Elastic Compliance Matrix: (Units=1/GPa)
#
#
# Indices 1 2 3 4 5 6 
#
# 1 0.050331 -0.013337 -0.007701 0.000000 0.020929 0.000000
# 2 -0.013337 0.012928 -0.002009 0.000000 -0.008888 0.000000
# 3 -0.007701 -0.002009 0.016755 0.000000 0.009080 0.000000
# 4 0.000000 0.000000 0.000000 0.036990 0.000000 0.006014
# 5 0.020929 -0.008888 0.009080 0.000000 0.050442 0.000000
# 6 0.000000 0.000000 0.000000 0.006014 0.000000 0.028809
#
#
# Mechanical properties :
#
#
# Convention : Reuss Voigt Hill
#
# Bulk Modulus (GPa) = 29.48208 50.13955 39.81081
# Shear Modulus (GPa) = 19.71178 29.24898 24.48038
#
# Velocity S-wave (km/s) = 3.09525 3.77041 3.44939
# Velocity P-wave (km/s) = 5.20609 6.58211 5.93412
#
# Compressibility (1/GPa) = 0.03391891
#
# Stress axis : x y z
#
# Youngs Moduli (GPa) = 19.86851 77.35309 59.68332
#
# Poissons Ratio (x) = 1.03168 0.45962
# Poissons Ratio (y) = 0.26499 0.11992
# Poissons Ratio (z) = 0.15301 0.15542
#
# Static dielectric constant tensor:
#      x y z
#    x 3.174610 0.000000 -0.128770 
#    y 0.000000 4.044050 0.000000 
#    z -0.128770 0.000000 4.331680 
# 
# 
# High freq. dielectric constant tensor:
#      x y z
#    x 1.755610 0.000000 -0.011170 
#    y 0.000000 1.809310 0.000000 
#    z -0.011170 0.000000 1.826740 
# 
# From -- ./inp_files/8981.got.cif
#   From: 2010.03.12/outbox.cif.g09.slc.cpg/sg14_5_cif.got.tgz:8981.got - 2010.03.31 13:35:05.
