data_PCOD8125528
_publ_section_title
;
Structure prediction by ZEFSAII (Michael W. Deem and Ramdas Pophale) SiO2 
 PCOD8125528
Probable space group: P 21/C
;
_chemical_formula_sum "Si O2"
_cell_formula_units_Z 28
_cell_length_a 8.973806
_cell_length_b 12.746724
_cell_length_c 12.353161
_cell_angle_alpha 90.000000
_cell_angle_beta 72.289743
_cell_angle_gamma 90.000000
_cell_volume 1346.068454
_symmetry_space_group_name_H-M "P 21/C"
_symmetry_group_IT_number 14
_symmetry_cell_setting 'monoclinic'
loop_
_space_group_symop_operation_xyz
x,y,z
-x,1/2+y,1/2-z
-x,-y,-z
x,1/2-y,1/2+z
loop_
_atom_site_type_symbol
_atom_site_label
_atom_site_fract_x
_atom_site_fract_y
_atom_site_fract_z
Si Si1 0.232378 0.885438 0.076750
Si Si2 0.262562 0.283492 0.011666
Si Si3 0.245325 0.607948 0.333191
Si Si4 0.950387 0.736566 0.128150
Si Si5 0.904428 0.896433 0.842663
Si Si6 0.699191 0.890082 0.278124
Si Si7 0.456261 0.784296 0.189436
O O1 0.377416 0.863957 0.122937
O O2 0.126369 0.780866 0.087754
O O3 0.135990 0.981248 0.149382
O O4 0.300433 0.915810 0.943693
O O5 0.107125 0.308360 0.975087
O O6 0.414012 0.283620 0.901962
O O7 0.238345 0.170643 0.075463
O O8 0.285927 0.372790 0.096562
O O9 0.290289 0.513391 0.244317
O O10 0.325321 0.711470 0.270359
O O11 0.058474 0.623779 0.380465
O O12 0.939210 0.639916 0.213101
O O13 0.838385 0.833032 0.184127
O O14 0.533229 0.848762 0.270739
#
# Coordination Sequence:
#
# PCOD8125528 Si02
#       7
#     4   4   4   4   4   4   4
#     4  12  22  39  67  96 124 163 214 263 312 372
#     4  10  22  43  63  90 133 173 206 260 319 372
#     4  12  23  40  68  94 126 169 214 261 317 373
#     4  10  20  39  65  94 125 164 211 257 316 372
#     4  11  22  39  69  96 123 167 213 264 314 377
#     4  10  23  41  64  92 128 171 212 257 314 379
#     4  11  25  40  63  98 133 165 209 265 315 375
#
# _framework density 20.801321000000002
#
# number of rings (size 3 to 8) (size 9 to 14) (size 15 to 20)
#    0.000    1.143    4.286    3.000    0.000    6.286 
#    0.000    2.143    0.000    0.000    0.000    0.000 
#    0.000    0.000    0.000    0.000    0.000    0.000 
#
# Total GULP energy -347335.080280 kJ/mol
# GULP energy per Si atom -12404.824296 kJ/mol
# Density = 2.075398 g / cm^3
# Si number density = 20.801321 Si / 1000 Ang^3
#
#
#
# Elastic Constant Matrix: (Units=GPa)
#
#
# Indices 1 2 3 4 5 6 
#
# 1 69.2181 19.1958 9.7643 0.0000 15.1567 0.0000
# 2 19.1958 77.0567 31.3196 0.0000 6.9908 0.0000
# 3 9.7643 31.3196 82.0409 0.0000 24.2891 0.0000
# 4 0.0000 0.0000 0.0000 28.8242 0.0000 2.5461
# 5 15.1567 6.9908 24.2891 0.0000 43.3795 0.0000
# 6 0.0000 0.0000 0.0000 2.5461 0.0000 25.8380
#
#
#
# Elastic Compliance Matrix: (Units=1/GPa)
#
#
# Indices 1 2 3 4 5 6 
#
# 1 0.016712 -0.004179 0.001361 0.000000 -0.005928 0.000000
# 2 -0.004179 0.016440 -0.006505 0.000000 0.002453 0.000000
# 3 0.001361 -0.006505 0.017190 0.000000 -0.009053 0.000000
# 4 0.000000 0.000000 0.000000 0.034998 0.000000 -0.003449
# 5 -0.005928 0.002453 -0.009053 0.000000 0.029797 0.000000
# 6 0.000000 0.000000 0.000000 -0.003449 0.000000 0.039042
#
#
# Mechanical properties :
#
#
# Convention : Reuss Voigt Hill
#
# Bulk Modulus (GPa) = 31.54810 38.76389 35.15600
# Shear Modulus (GPa) = 27.26435 30.81076 29.03755
#
# Velocity S-wave (km/s) = 3.62429 3.85280 3.74029
# Velocity P-wave (km/s) = 5.71955 6.20225 5.96578
#
# Compressibility (1/GPa) = 0.03169763
#
# Stress axis : x y z
#
# Youngs Moduli (GPa) = 59.83748 60.82818 58.17194
#
# Poissons Ratio (x) = 0.25418 -0.07919
# Poissons Ratio (y) = 0.25004 0.37840
# Poissons Ratio (z) = -0.08145 0.39568
#
# Static dielectric constant tensor:
#      x y z
#    x 3.916310 0.000000 0.237960 
#    y 0.000000 3.433810 0.000000 
#    z 0.237960 0.000000 3.746430 
# 
# 
# High freq. dielectric constant tensor:
#      x y z
#    x 1.822660 0.000000 0.013060 
#    y 0.000000 1.793620 0.000000 
#    z 0.013060 0.000000 1.816330 
# 
# From -- ./inp_files/25176.got.cif
#   From: 2010.03.12/outbox.cif.g09.slc.cpg/sg14_13_cif.got.tgz:25176.got - 2010.03.31 13:35:05.
