data_PCOD8125067
_publ_section_title
;
Structure prediction by ZEFSAII (Michael W. Deem and Ramdas Pophale) SiO2 
 PCOD8125067
Probable space group: P 21/C
;
_chemical_formula_sum "Si O2"
_cell_formula_units_Z 28
_cell_length_a 5.151576
_cell_length_b 15.956749
_cell_length_c 14.083803
_cell_angle_alpha 90.000000
_cell_angle_beta 113.714177
_cell_angle_gamma 90.000000
_cell_volume 1059.967994
_symmetry_space_group_name_H-M "P 21/C"
_symmetry_group_IT_number 14
_symmetry_cell_setting 'monoclinic'
loop_
_space_group_symop_operation_xyz
x,y,z
-x,1/2+y,1/2-z
-x,-y,-z
x,1/2-y,1/2+z
loop_
_atom_site_type_symbol
_atom_site_label
_atom_site_fract_x
_atom_site_fract_y
_atom_site_fract_z
Si Si1 0.922541 0.335924 0.760941
Si Si2 0.478642 0.094286 0.371497
Si Si3 0.238702 0.567745 0.908554
Si Si4 0.592599 0.668997 0.635302
Si Si5 0.974027 0.251621 0.446641
Si Si6 0.285228 0.492593 0.260177
Si Si7 0.531221 0.794648 0.341018
O O1 0.878700 0.429740 0.712995
O O2 0.734700 0.269025 0.676133
O O3 0.270595 0.325539 0.817994
O O4 0.836949 0.327266 0.863049
O O5 0.739010 0.114654 0.484188
O O6 0.310286 0.031640 0.420253
O O7 0.507885 0.041886 0.279711
O O8 0.430578 0.614129 0.858288
O O9 0.911656 0.572051 0.828552
O O10 0.868319 0.693417 0.612947
O O11 0.569496 0.566679 0.639544
O O12 0.617505 0.706427 0.744795
O O13 0.292068 0.699326 0.546483
O O14 0.192079 0.232851 0.560893
#
# Coordination Sequence:
#
# PCOD8125067 Si02
#       7
#     4   4   4   4   4   4   4
#     4  10  24  39  65  99 135 177 234 285 345 409
#     4  10  20  36  61  97 134 170 223 288 349 408
#     4  10  20  37  61  98 133 173 222 280 362 406
#     4  11  26  46  71 100 140 187 233 281 357 418
#     4  11  26  47  68 105 142 181 233 294 342 424
#     4  11  22  39  66  97 138 182 229 291 344 420
#     4  11  23  46  70 100 137 192 227 291 354 419
#
# _framework density 26.415891999999999
#
# number of rings (size 3 to 8) (size 9 to 14) (size 15 to 20)
#    0.000    1.429    2.857    2.143    6.000    4.571 
#    0.000    1.429    0.000    0.000    0.000    0.000 
#    0.000    0.000    0.000    0.000    0.000    0.000 
#
# Total GULP energy -346888.050198 kJ/mol
# GULP energy per Si atom -12388.858936 kJ/mol
# Density = 2.635577 g / cm^3
# Si number density = 26.415892 Si / 1000 Ang^3
#
#
#
# Elastic Constant Matrix: (Units=GPa)
#
#
# Indices 1 2 3 4 5 6 
#
# 1 68.5432 11.5920 13.5294 0.0000 19.3635 0.0000
# 2 11.5920 96.7075 25.7168 0.0000 21.9585 0.0000
# 3 13.5294 25.7168 74.4028 0.0000 25.6848 0.0000
# 4 0.0000 0.0000 0.0000 36.0211 0.0000 14.3950
# 5 19.3635 21.9585 25.6848 0.0000 52.6362 0.0000
# 6 0.0000 0.0000 0.0000 14.3950 0.0000 46.4537
#
#
#
# Elastic Compliance Matrix: (Units=1/GPa)
#
#
# Indices 1 2 3 4 5 6 
#
# 1 0.016373 -0.000493 -0.000960 0.000000 -0.005349 0.000000
# 2 -0.000493 0.011932 -0.002861 0.000000 -0.003401 0.000000
# 3 -0.000960 -0.002861 0.016920 0.000000 -0.006710 0.000000
# 4 0.000000 0.000000 0.000000 0.031685 0.000000 -0.009819
# 5 -0.005349 -0.003401 -0.006710 0.000000 0.025659 0.000000
# 6 0.000000 0.000000 0.000000 -0.009819 0.000000 0.024569
#
#
# Mechanical properties :
#
#
# Convention : Reuss Voigt Hill
#
# Bulk Modulus (GPa) = 27.32384 37.92555 32.62470
# Shear Modulus (GPa) = 33.79141 39.60989 36.70065
#
# Velocity S-wave (km/s) = 3.58048 3.87650 3.73143
# Velocity P-wave (km/s) = 5.24016 5.86725 5.56255
#
# Compressibility (1/GPa) = 0.03659807
#
# Stress axis : x y z
#
# Youngs Moduli (GPa) = 61.07485 83.80518 59.10136
#
# Poissons Ratio (x) = 0.04129 0.05676
# Poissons Ratio (y) = 0.03009 0.16908
# Poissons Ratio (z) = 0.05866 0.23975
#
# Static dielectric constant tensor:
#      x y z
#    x 4.970880 0.000000 0.282820 
#    y 0.000000 5.357790 0.000000 
#    z 0.282820 0.000000 4.652920 
# 
# 
# High freq. dielectric constant tensor:
#      x y z
#    x 2.079660 0.000000 0.011180 
#    y 0.000000 2.077650 0.000000 
#    z 0.011180 0.000000 2.028930 
# 
# From -- ./inp_files/37909.got.cif
#   From: 2010.03.12/outbox.cif.g09.slc.cpg/sg14_19_cif.got.tgz:37909.got - 2010.03.31 13:35:05.
