data_PCOD8125500
_publ_section_title
;
Structure prediction by ZEFSAII (Michael W. Deem and Ramdas Pophale) SiO2 
 PCOD8125500
Probable space group: P 21/C
;
_chemical_formula_sum "Si O2"
_cell_formula_units_Z 20
_cell_length_a 12.409028
_cell_length_b 9.717335
_cell_length_c 10.487535
_cell_angle_alpha 90.000000
_cell_angle_beta 46.247736
_cell_angle_gamma 90.000000
_cell_volume 913.477817
_symmetry_space_group_name_H-M "P 21/C"
_symmetry_group_IT_number 14
_symmetry_cell_setting 'monoclinic'
loop_
_space_group_symop_operation_xyz
x,y,z
-x,1/2+y,1/2-z
-x,-y,-z
x,1/2-y,1/2+z
loop_
_atom_site_type_symbol
_atom_site_label
_atom_site_fract_x
_atom_site_fract_y
_atom_site_fract_z
Si Si1 0.203884 0.058907 0.220431
Si Si2 0.336681 0.973322 0.355661
Si Si3 0.381290 0.208217 0.865227
Si Si4 0.052610 0.979886 0.750715
Si Si5 0.112127 0.185288 0.915820
O O1 0.299360 0.959454 0.234440
O O2 0.102182 0.151262 0.400373
O O3 0.092641 0.981394 0.215373
O O4 0.318091 0.160594 0.053864
O O5 0.394095 0.126222 0.346010
O O6 0.458564 0.859414 0.290096
O O7 0.190521 0.930749 0.553850
O O8 0.272643 0.148753 0.844707
O O9 0.094456 0.116892 0.792286
O O10 0.017572 0.858353 0.880142
#
# Coordination Sequence:
#
# PCOD8125500 Si02
#       5
#     4   4   4   4   4
#     4  10  20  41  65  89 124 163 207 264 308 367
#     4  11  22  41  61  95 124 172 203 260 305 374
#     4  10  22  41  62  88 133 164 209 246 317 367
#     4  10  20  39  64  89 121 158 212 252 319 363
#     4   9  20  40  62  88 123 164 196 270 312 361
#
# _framework density 21.894347
#
# number of rings (size 3 to 8) (size 9 to 14) (size 15 to 20)
#    0.000    2.000    2.000    1.200    0.000    0.800 
#   10.800    0.000    0.000    0.000    0.000    0.000 
#    0.000    0.000    0.000    0.000    0.000    0.000 
#
# Total GULP energy -247965.550065 kJ/mol
# GULP energy per Si atom -12398.277503 kJ/mol
# Density = 2.184451 g / cm^3
# Si number density = 21.894347 Si / 1000 Ang^3
#
#
#
# Elastic Constant Matrix: (Units=GPa)
#
#
# Indices 1 2 3 4 5 6 
#
# 1 116.9232 18.7181 29.1821 0.0000 4.4802 0.0000
# 2 18.7181 33.2816 9.2281 0.0000 -11.2379 0.0000
# 3 29.1821 9.2281 84.5521 0.0000 -8.0455 0.0000
# 4 0.0000 0.0000 0.0000 22.2206 0.0000 -0.2673
# 5 4.4802 -11.2379 -8.0455 0.0000 32.1517 0.0000
# 6 0.0000 0.0000 0.0000 -0.2673 0.0000 29.4517
#
#
#
# Elastic Compliance Matrix: (Units=1/GPa)
#
#
# Indices 1 2 3 4 5 6 
#
# 1 0.010634 -0.006608 -0.003391 0.000000 -0.004640 0.000000
# 2 -0.006608 0.038762 -0.000587 0.000000 0.014322 0.000000
# 3 -0.003391 -0.000587 0.013406 0.000000 0.003622 0.000000
# 4 0.000000 0.000000 0.000000 0.045008 0.000000 0.000409
# 5 -0.004640 0.014322 0.003622 0.000000 0.037661 0.000000
# 6 0.000000 0.000000 0.000000 0.000409 0.000000 0.033958
#
#
# Mechanical properties :
#
#
# Convention : Reuss Voigt Hill
#
# Bulk Modulus (GPa) = 24.02039 38.77927 31.39983
# Shear Modulus (GPa) = 23.31251 28.60672 25.95961
#
# Velocity S-wave (km/s) = 3.26663 3.61859 3.44710
# Velocity P-wave (km/s) = 5.02222 5.93375 5.49691
#
# Compressibility (1/GPa) = 0.04163130
#
# Stress axis : x y z
#
# Youngs Moduli (GPa) = 94.03393 25.79873 74.59347
#
# Poissons Ratio (x) = 0.17047 0.25292
# Poissons Ratio (y) = 0.62133 0.04380
# Poissons Ratio (z) = 0.31884 0.01515
#
# Static dielectric constant tensor:
#      x y z
#    x 4.235610 0.000000 0.204700 
#    y 0.000000 3.612180 0.000000 
#    z 0.204700 0.000000 3.948990 
# 
# 
# High freq. dielectric constant tensor:
#      x y z
#    x 1.875830 0.000000 0.013220 
#    y 0.000000 1.833260 0.000000 
#    z 0.013220 0.000000 1.861170 
# 
# From -- ./inp_files/23109.got.cif
#   From: 2010.03.12/outbox.cif.g09.slc.cpg/sg14_12_cif.got.tgz:23109.got - 2010.03.31 13:35:05.
