data_PCOD8125531
_publ_section_title
;
Structure prediction by ZEFSAII (Michael W. Deem and Ramdas Pophale) SiO2 
 PCOD8125531
Probable space group: P 21/C
;
_chemical_formula_sum "Si O2"
_cell_formula_units_Z 28
_cell_length_a 8.352331
_cell_length_b 9.311538
_cell_length_c 25.573033
_cell_angle_alpha 90.000000
_cell_angle_beta 44.286165
_cell_angle_gamma 90.000000
_cell_volume 1388.729317
_symmetry_space_group_name_H-M "P 21/C"
_symmetry_group_IT_number 14
_symmetry_cell_setting 'monoclinic'
loop_
_space_group_symop_operation_xyz
x,y,z
-x,1/2+y,1/2-z
-x,-y,-z
x,1/2-y,1/2+z
loop_
_atom_site_type_symbol
_atom_site_label
_atom_site_fract_x
_atom_site_fract_y
_atom_site_fract_z
Si Si1 0.863890 0.038585 0.247548
Si Si2 0.133869 0.766212 0.161343
Si Si3 0.778059 0.553870 0.580251
Si Si4 0.094041 0.825647 0.874031
Si Si5 0.751252 0.727691 0.166376
Si Si6 0.578578 0.888193 0.024943
Si Si7 0.573834 0.082009 0.695298
O O1 0.883288 0.136063 0.294199
O O2 0.888700 0.145646 0.192099
O O3 0.618622 0.952734 0.304180
O O4 0.067296 0.920525 0.202528
O O5 0.386318 0.765740 0.076193
O O6 0.969598 0.746266 0.151037
O O7 0.751278 0.452820 0.637198
O O8 0.805530 0.719207 0.594354
O O9 0.580473 0.539943 0.582707
O O10 0.000000 0.500000 0.500000
O O11 0.205858 0.679753 0.871229
O O12 0.826528 0.822637 0.953152
O O13 0.540532 0.829671 0.231218
O O14 0.677564 0.565874 0.189983
O O15 0.500000 0.000000 0.000000
#
# Coordination Sequence:
#
# PCOD8125531 Si02
#       7
#     4   4   4   4   4   4   4
#     4  11  23  40  63  98 132 168 223 277 332 389
#     4  11  24  39  64  97 133 169 219 270 343 385
#     4  10  20  39  66  88 122 171 220 263 321 405
#     4  11  22  43  63  98 125 173 226 270 324 402
#     4  11  21  40  63  95 123 176 221 273 324 396
#     4  11  22  41  67  95 131 171 217 272 331 404
#     4  11  22  39  66  88 133 163 227 269 321 383
#
# _framework density 20.162316000000001
#
# number of rings (size 3 to 8) (size 9 to 14) (size 15 to 20)
#    0.000    1.143    5.714    1.714    2.000    2.286 
#    0.000    7.143    0.000    0.000    0.000    0.000 
#    0.000    0.000    0.000    0.000    0.000    0.000 
#
# Total GULP energy -346880.513262 kJ/mol
# GULP energy per Si atom -12388.589759 kJ/mol
# Density = 2.011643 g / cm^3
# Si number density = 20.162316 Si / 1000 Ang^3
#
#
#
# Elastic Constant Matrix: (Units=GPa)
#
#
# Indices 1 2 3 4 5 6 
#
# 1 121.8741 46.4421 54.8934 0.0000 -1.6723 0.0000
# 2 46.4421 123.0574 42.7222 0.0000 -14.0094 0.0000
# 3 54.8934 42.7222 84.5939 0.0000 -21.2357 0.0000
# 4 0.0000 0.0000 0.0000 25.4453 0.0000 -4.6168
# 5 -1.6723 -14.0094 -21.2357 0.0000 38.3774 0.0000
# 6 0.0000 0.0000 0.0000 -4.6168 0.0000 43.6557
#
#
#
# Elastic Compliance Matrix: (Units=1/GPa)
#
#
# Indices 1 2 3 4 5 6 
#
# 1 0.012838 -0.002529 -0.008298 0.000000 -0.004955 0.000000
# 2 -0.002529 0.010384 -0.003112 0.000000 0.001959 0.000000
# 3 -0.008298 -0.003112 0.021369 0.000000 0.010327 0.000000
# 4 0.000000 0.000000 0.000000 0.040069 0.000000 0.004237
# 5 -0.004955 0.001959 0.010327 0.000000 0.032270 0.000000
# 6 0.000000 0.000000 0.000000 0.004237 0.000000 0.023355
#
#
# Mechanical properties :
#
#
# Convention : Reuss Voigt Hill
#
# Bulk Modulus (GPa) = 59.82380 68.62677 64.22528
# Shear Modulus (GPa) = 28.77988 33.86020 31.32004
#
# Velocity S-wave (km/s) = 3.78221 4.10247 3.94559
# Velocity P-wave (km/s) = 6.98634 7.52007 7.25811
#
# Compressibility (1/GPa) = 0.01671576
#
# Stress axis : x y z
#
# Youngs Moduli (GPa) = 77.89352 96.30375 46.79592
#
# Poissons Ratio (x) = 0.24351 0.38829
# Poissons Ratio (y) = 0.19695 0.14561
# Poissons Ratio (z) = 0.64633 0.29967
#
# Static dielectric constant tensor:
#      x y z
#    x 5.149770 0.000000 0.656610 
#    y 0.000000 3.887500 0.000000 
#    z 0.656610 0.000000 4.709230 
# 
# 
# High freq. dielectric constant tensor:
#      x y z
#    x 1.801450 0.000000 -0.011920 
#    y 0.000000 1.776840 0.000000 
#    z -0.011920 0.000000 1.780040 
# 
# From -- ./inp_files/76318.got.cif
#   From: 2010.03.12/outbox.cif.g09.slc.cpg/sg14_39_cif.got.tgz:76318.got - 2010.03.31 13:35:05.
