data_PCOD8125517
_publ_section_title
;
Structure prediction by ZEFSAII (Michael W. Deem and Ramdas Pophale) SiO2 
 PCOD8125517
Probable space group: P 21/C
;
_chemical_formula_sum "Si O2"
_cell_formula_units_Z 32
_cell_length_a 9.154506
_cell_length_b 17.488600
_cell_length_c 21.223808
_cell_angle_alpha 90.000000
_cell_angle_beta 26.921573
_cell_angle_gamma 90.000000
_cell_volume 1538.478204
_symmetry_space_group_name_H-M "P 21/C"
_symmetry_group_IT_number 14
_symmetry_cell_setting 'monoclinic'
loop_
_space_group_symop_operation_xyz
x,y,z
-x,1/2+y,1/2-z
-x,-y,-z
x,1/2-y,1/2+z
loop_
_atom_site_type_symbol
_atom_site_label
_atom_site_fract_x
_atom_site_fract_y
_atom_site_fract_z
Si Si1 0.958297 0.107029 0.246023
Si Si2 0.275280 0.737128 0.089765
Si Si3 0.980652 0.953283 0.304384
Si Si4 0.132178 0.284515 0.571304
Si Si5 0.304774 0.450514 0.950859
Si Si6 0.674592 0.833667 0.336986
Si Si7 0.673032 0.097139 0.639318
Si Si8 0.562518 0.338705 0.308721
O O1 0.936154 0.161297 0.315845
O O2 0.615518 0.098005 0.344550
O O3 0.159016 0.147910 0.113403
O O4 0.099183 0.026338 0.217666
O O5 0.034590 0.808999 0.178600
O O6 0.532251 0.738738 0.047948
O O7 0.487949 0.733211 0.945197
O O8 0.837132 0.980582 0.427280
O O9 0.704515 0.910074 0.368948
O O10 0.272177 0.894493 0.203421
O O11 0.206676 0.315639 0.472044
O O12 0.813038 0.232037 0.698303
O O13 0.395515 0.515258 0.865291
O O14 0.048888 0.394749 0.014299
O O15 0.444604 0.841537 0.365534
O O16 0.476363 0.113490 0.779106
#
# Coordination Sequence:
#
# PCOD8125517 Si02
#       8
#     4   4   4   4   4   4   4   4
#     4  12  21  35  69  98 121 161 217 266 313 366
#     4  12  21  38  62  96 123 163 206 270 311 370
#     4  11  20  36  67  97 122 158 215 268 310 362
#     4  12  22  41  66  92 125 168 218 258 315 379
#     4  10  20  39  64  96 123 168 210 255 318 383
#     4  12  22  40  63  93 132 157 212 268 318 365
#     4  10  23  39  63  89 132 161 208 263 312 375
#     4  11  24  43  64  90 129 176 212 256 315 386
#
# _framework density 20.799773999999999
#
# number of rings (size 3 to 8) (size 9 to 14) (size 15 to 20)
#    0.000    0.750    7.500    1.875    0.000    1.500 
#    0.000    0.625    0.000    0.000    0.000    0.000 
#    0.000    0.000    0.000    0.000    0.000    0.000 
#
# Total GULP energy -396418.572774 kJ/mol
# GULP energy per Si atom -12388.080399 kJ/mol
# Density = 2.075243 g / cm^3
# Si number density = 20.799774 Si / 1000 Ang^3
#
#
#
# Elastic Constant Matrix: (Units=GPa)
#
#
# Indices 1 2 3 4 5 6 
#
# 1 105.3771 26.9107 15.9088 0.0000 9.5427 0.0000
# 2 26.9107 83.7509 33.1493 0.0000 15.4847 0.0000
# 3 15.9088 33.1493 83.7317 0.0000 19.1837 0.0000
# 4 0.0000 0.0000 0.0000 26.8148 0.0000 11.9119
# 5 9.5427 15.4847 19.1837 0.0000 25.6003 0.0000
# 6 0.0000 0.0000 0.0000 11.9119 0.0000 24.1288
#
#
#
# Elastic Compliance Matrix: (Units=1/GPa)
#
#
# Indices 1 2 3 4 5 6 
#
# 1 0.010449 -0.002843 -0.000436 0.000000 -0.001848 0.000000
# 2 -0.002843 0.015546 -0.004471 0.000000 -0.004994 0.000000
# 3 -0.000436 -0.004471 0.015862 0.000000 -0.009020 0.000000
# 4 0.000000 0.000000 0.000000 0.047769 0.000000 -0.023583
# 5 -0.001848 -0.004994 -0.009020 0.000000 0.049530 0.000000
# 6 0.000000 0.000000 0.000000 -0.023583 0.000000 0.053086
#
#
# Mechanical properties :
#
#
# Convention : Reuss Voigt Hill
#
# Bulk Modulus (GPa) = 37.93921 47.19970 42.56946
# Shear Modulus (GPa) = 23.09158 28.43484 25.76321
#
# Velocity S-wave (km/s) = 3.33556 3.70141 3.52323
# Velocity P-wave (km/s) = 5.75451 6.40382 6.08783
#
# Compressibility (1/GPa) = 0.02635795
#
# Stress axis : x y z
#
# Youngs Moduli (GPa) = 95.70272 64.32326 63.04305
#
# Poissons Ratio (x) = 0.18287 0.02750
# Poissons Ratio (y) = 0.27209 0.28184
# Poissons Ratio (z) = 0.04175 0.28756
#
# Static dielectric constant tensor:
#      x y z
#    x 3.857220 0.000000 0.186620 
#    y 0.000000 3.849050 0.000000 
#    z 0.186620 0.000000 3.630060 
# 
# 
# High freq. dielectric constant tensor:
#      x y z
#    x 1.805920 0.000000 0.014070 
#    y 0.000000 1.811160 0.000000 
#    z 0.014070 0.000000 1.797760 
# 
# From -- ./inp_files/66026.got.cif
#   From: 2010.03.12/outbox.cif.g09.slc.cpg/sg14_34_cif.got.tgz:66026.got - 2010.03.31 13:35:05.
