data_PCOD8125661
_publ_section_title
;
Structure prediction by ZEFSAII (Michael W. Deem and Ramdas Pophale) SiO2 
 PCOD8125661
Probable space group: P 21/C
;
_chemical_formula_sum "Si O2"
_cell_formula_units_Z 28
_cell_length_a 9.009115
_cell_length_b 21.674949
_cell_length_c 12.823093
_cell_angle_alpha 90.000000
_cell_angle_beta 147.276566
_cell_angle_gamma 90.000000
_cell_volume 1353.619365
_symmetry_space_group_name_H-M "P 21/C"
_symmetry_group_IT_number 14
_symmetry_cell_setting 'monoclinic'
loop_
_space_group_symop_operation_xyz
x,y,z
-x,1/2+y,1/2-z
-x,-y,-z
x,1/2-y,1/2+z
loop_
_atom_site_type_symbol
_atom_site_label
_atom_site_fract_x
_atom_site_fract_y
_atom_site_fract_z
Si Si1 0.503093 0.833593 0.670767
Si Si2 0.776036 0.774869 0.457381
Si Si3 0.006304 0.108590 0.523296
Si Si4 0.704326 0.299674 0.178881
Si Si5 0.167736 0.995664 0.722356
Si Si6 0.234793 0.991596 0.991225
Si Si7 0.974900 0.405407 0.472808
O O1 0.635712 0.771459 0.793474
O O2 0.287776 0.861112 0.626586
O O3 0.343706 0.819653 0.468994
O O4 0.750677 0.882273 0.805078
O O5 0.587463 0.779432 0.447940
O O6 0.796288 0.838538 0.404693
O O7 0.072648 0.755148 0.678636
O O8 0.025711 0.050871 0.454808
O O9 0.112546 0.070493 0.687663
O O10 0.819705 0.354198 0.316731
O O11 0.116073 0.973385 0.808956
O O12 0.465937 0.980956 0.851675
O O13 0.233325 0.930524 0.062204
O O14 0.043435 0.042046 0.930810
#
# Coordination Sequence:
#
# PCOD8125661 Si02
#       7
#     4   4   4   4   4   4   4
#     4  11  24  44  65  94 129 173 214 271 323 377
#     4  11  25  45  64  96 129 168 220 269 315 392
#     4  11  22  43  62  95 131 163 220 268 312 393
#     4  11  25  42  67  94 125 174 216 263 335 374
#     4  10  22  38  67  93 125 170 212 263 333 372
#     4  10  20  41  60  96 125 170 208 266 326 383
#     4  10  22  41  64  92 135 162 217 268 318 396
#
# _framework density 20.685281
#
# number of rings (size 3 to 8) (size 9 to 14) (size 15 to 20)
#    0.000    1.429    2.857    1.714    4.000    0.000 
#    5.143    2.143    0.000    0.000    0.000    0.000 
#    0.000    0.000    0.000    0.000    0.000    0.000 
#
# Total GULP energy -347049.270111 kJ/mol
# GULP energy per Si atom -12394.616790 kJ/mol
# Density = 2.063820 g / cm^3
# Si number density = 20.685281 Si / 1000 Ang^3
#
#
#
# Elastic Constant Matrix: (Units=GPa)
#
#
# Indices 1 2 3 4 5 6 
#
# 1 108.5990 43.6022 35.9737 0.0000 -0.3311 0.0000
# 2 43.6022 95.9876 22.1855 0.0000 0.9390 0.0000
# 3 35.9737 22.1855 83.8661 0.0000 -11.3146 0.0000
# 4 0.0000 0.0000 0.0000 22.6333 0.0000 1.8298
# 5 -0.3311 0.9390 -11.3146 0.0000 23.3767 0.0000
# 6 0.0000 0.0000 0.0000 1.8298 0.0000 27.4455
#
#
#
# Elastic Compliance Matrix: (Units=1/GPa)
#
#
# Indices 1 2 3 4 5 6 
#
# 1 0.012523 -0.004660 -0.004376 0.000000 -0.001753 0.000000
# 2 -0.004660 0.012918 -0.001602 0.000000 -0.001360 0.000000
# 3 -0.004376 -0.001602 0.015218 0.000000 0.007368 0.000000
# 4 0.000000 0.000000 0.000000 0.044422 0.000000 -0.002962
# 5 -0.001753 -0.001360 0.007368 0.000000 0.046374 0.000000
# 6 0.000000 0.000000 0.000000 -0.002962 0.000000 0.036633
#
#
# Mechanical properties :
#
#
# Convention : Reuss Voigt Hill
#
# Bulk Modulus (GPa) = 51.58661 54.66395 53.12528
# Shear Modulus (GPa) = 25.53281 27.13719 26.33500
#
# Velocity S-wave (km/s) = 3.51714 3.62596 3.57196
# Velocity P-wave (km/s) = 6.44101 6.63430 6.53837
#
# Compressibility (1/GPa) = 0.01938487
#
# Stress axis : x y z
#
# Youngs Moduli (GPa) = 79.85106 77.40850 65.70969
#
# Poissons Ratio (x) = 0.36074 0.28751
# Poissons Ratio (y) = 0.37213 0.10526
# Poissons Ratio (z) = 0.34939 0.12400
#
# Static dielectric constant tensor:
#      x y z
#    x 3.764020 0.000000 0.017810 
#    y 0.000000 3.878660 0.000000 
#    z 0.017810 0.000000 3.722600 
# 
# 
# High freq. dielectric constant tensor:
#      x y z
#    x 1.816780 0.000000 0.001420 
#    y 0.000000 1.818380 0.000000 
#    z 0.001420 0.000000 1.804530 
# 
# From -- ./inp_files/26845.got.cif
#   From: 2010.03.12/outbox.cif.g09.slc.cpg/sg14_14_cif.got.tgz:26845.got - 2010.03.31 13:35:05.
