data_PCOD8125429
_publ_section_title
;
Structure prediction by ZEFSAII (Michael W. Deem and Ramdas Pophale) SiO2 
 PCOD8125429
Probable space group: P 21/C
;
_chemical_formula_sum "Si O2"
_cell_formula_units_Z 32
_cell_length_a 15.696984
_cell_length_b 14.694051
_cell_length_c 21.535558
_cell_angle_alpha 90.000000
_cell_angle_beta 161.055726
_cell_angle_gamma 90.000000
_cell_volume 1612.601789
_symmetry_space_group_name_H-M "P 21/C"
_symmetry_group_IT_number 14
_symmetry_cell_setting 'monoclinic'
loop_
_space_group_symop_operation_xyz
x,y,z
-x,1/2+y,1/2-z
-x,-y,-z
x,1/2-y,1/2+z
loop_
_atom_site_type_symbol
_atom_site_label
_atom_site_fract_x
_atom_site_fract_y
_atom_site_fract_z
Si Si1 0.490608 0.957463 0.589756
Si Si2 0.299195 0.821617 0.681904
Si Si3 0.664155 0.128287 0.643171
Si Si4 0.826945 0.100049 0.273274
Si Si5 0.811559 0.738299 0.482392
Si Si6 0.787990 0.787224 0.829338
Si Si7 0.624602 0.699905 0.595307
Si Si8 0.094146 0.580818 0.924288
O O1 0.340019 0.924249 0.424700
O O2 0.737800 0.892317 0.776250
O O3 0.279983 0.957657 0.499349
O O4 0.596387 0.059546 0.652520
O O5 0.264558 0.880929 0.719600
O O6 0.268658 0.887314 0.602183
O O7 0.097484 0.736570 0.541239
O O8 0.592707 0.781341 0.883340
O O9 0.453815 0.211093 0.499141
O O10 0.956113 0.164724 0.854598
O O11 0.079304 0.161039 0.430151
O O12 0.592543 0.122321 0.064136
O O13 0.897609 0.995504 0.314349
O O14 0.676267 0.732895 0.320950
O O15 0.629582 0.723219 0.672140
O O16 0.911865 0.663422 0.772798
#
# Coordination Sequence:
#
# PCOD8125429 Si02
#       8
#     4   4   4   4   4   4   4   4
#     4  10  20  39  59  86 120 151 206 251 299 357
#     4  10  21  38  59  84 124 157 201 243 303 364
#     4   9  21  39  59  86 121 155 198 256 298 356
#     4  10  22  37  59  87 119 151 203 252 291 359
#     4  10  20  39  59  86 114 163 194 237 309 359
#     4   9  19  38  59  83 116 156 193 247 294 357
#     4   9  20  39  59  82 118 157 192 250 302 347
#     4  11  21  37  61  86 117 160 198 249 304 362
#
# _framework density 19.843707999999999
#
# number of rings (size 3 to 8) (size 9 to 14) (size 15 to 20)
#    0.000    2.250    1.250    0.750    1.750    3.500 
#    6.750    1.250    0.000    0.000    0.000    0.000 
#    0.000    0.000    0.000    0.000    0.000    0.000 
#
# Total GULP energy -396806.894487 kJ/mol
# GULP energy per Si atom -12400.215453 kJ/mol
# Density = 1.979854 g / cm^3
# Si number density = 19.843708 Si / 1000 Ang^3
#
#
#
# Elastic Constant Matrix: (Units=GPa)
#
#
# Indices 1 2 3 4 5 6 
#
# 1 102.6729 36.1453 45.5727 0.0000 18.4834 0.0000
# 2 36.1453 77.1198 36.4616 0.0000 10.9723 0.0000
# 3 45.5727 36.4616 96.0337 0.0000 4.4499 0.0000
# 4 0.0000 0.0000 0.0000 24.3185 0.0000 2.6450
# 5 18.4834 10.9723 4.4499 0.0000 28.8912 0.0000
# 6 0.0000 0.0000 0.0000 2.6450 0.0000 24.9917
#
#
#
# Elastic Compliance Matrix: (Units=1/GPa)
#
#
# Indices 1 2 3 4 5 6 
#
# 1 0.014565 -0.003273 -0.005333 0.000000 -0.007254 0.000000
# 2 -0.003273 0.017327 -0.004852 0.000000 -0.003739 0.000000
# 3 -0.005333 -0.004852 0.014647 0.000000 0.002999 0.000000
# 4 0.000000 0.000000 0.000000 0.041600 0.000000 -0.004403
# 5 -0.007254 -0.003739 0.002999 0.000000 0.040211 0.000000
# 6 0.000000 0.000000 0.000000 -0.004403 0.000000 0.040479
#
#
# Mechanical properties :
#
#
# Convention : Reuss Voigt Hill
#
# Bulk Modulus (GPa) = 50.96162 56.90952 53.93557
# Shear Modulus (GPa) = 24.71745 26.15005 25.43375
#
# Velocity S-wave (km/s) = 3.53314 3.63409 3.58397
# Velocity P-wave (km/s) = 6.51010 6.80808 6.66076
#
# Compressibility (1/GPa) = 0.01962261
#
# Stress axis : x y z
#
# Youngs Moduli (GPa) = 68.65874 57.71370 68.27319
#
# Poissons Ratio (x) = 0.18890 0.36410
# Poissons Ratio (y) = 0.22472 0.33127
# Poissons Ratio (z) = 0.36615 0.28003
#
# Static dielectric constant tensor:
#      x y z
#    x 3.550030 0.000000 -0.210620 
#    y 0.000000 3.645600 0.000000 
#    z -0.210620 0.000000 3.644000 
# 
# 
# High freq. dielectric constant tensor:
#      x y z
#    x 1.769430 0.000000 -0.014320 
#    y 0.000000 1.772080 0.000000 
#    z -0.014320 0.000000 1.775470 
# 
# From -- ./inp_files/25251.got.cif
#   From: 2010.03.12/outbox.cif.g09.slc.cpg/sg14_13_cif.got.tgz:25251.got - 2010.03.31 13:35:05.
