data_PCOD8125751
_publ_section_title
;
Structure prediction by ZEFSAII (Michael W. Deem and Ramdas Pophale) SiO2 
 PCOD8125751
Probable space group: P 21/C
;
_chemical_formula_sum "Si O2"
_cell_formula_units_Z 32
_cell_length_a 11.662638
_cell_length_b 14.573362
_cell_length_c 18.119709
_cell_angle_alpha 90.000000
_cell_angle_beta 31.478148
_cell_angle_gamma 90.000000
_cell_volume 1608.134840
_symmetry_space_group_name_H-M "P 21/C"
_symmetry_group_IT_number 14
_symmetry_cell_setting 'monoclinic'
loop_
_space_group_symop_operation_xyz
x,y,z
-x,1/2+y,1/2-z
-x,-y,-z
x,1/2-y,1/2+z
loop_
_atom_site_type_symbol
_atom_site_label
_atom_site_fract_x
_atom_site_fract_y
_atom_site_fract_z
Si Si1 0.373831 0.725730 0.533551
Si Si2 0.555971 0.815242 0.216615
Si Si3 0.047123 0.436430 0.544369
Si Si4 0.796265 0.121582 0.479512
Si Si5 0.645578 0.193555 0.298504
Si Si6 0.972150 0.102648 0.840388
Si Si7 0.665944 0.548454 0.965262
Si Si8 0.803342 0.766470 0.711120
O O1 0.260086 0.810971 0.556267
O O2 0.332088 0.740612 0.642919
O O3 0.258413 0.632204 0.569469
O O4 0.631436 0.720893 0.372595
O O5 0.384678 0.874493 0.357562
O O6 0.422677 0.757813 0.230762
O O7 0.680180 0.742304 0.200892
O O8 0.718344 0.887731 0.090092
O O9 0.052393 0.501196 0.613271
O O10 0.000000 0.500000 0.500000
O O11 0.870515 0.356396 0.652971
O O12 0.037731 0.145188 0.378380
O O13 0.796924 0.020362 0.446010
O O14 0.462948 0.116795 0.411097
O O15 0.158034 0.106193 0.676375
O O16 0.048622 0.174793 0.860974
O O17 0.500000 0.500000 0.000000
#
# Coordination Sequence:
#
# PCOD8125751 Si02
#       8
#     4   4   4   4   4   4   4   4
#     4  10  22  39  67  92 129 165 210 264 322 374
#     4  11  24  40  63  94 131 166 207 259 323 385
#     4  12  24  40  65  96 127 165 217 263 312 381
#     4  10  21  41  65  90 123 170 212 259 316 386
#     4  12  25  39  65  96 129 164 213 263 316 384
#     4  11  22  39  68  96 121 166 219 266 315 378
#     4  12  20  41  66  94 120 162 219 267 309 374
#     4  10  20  42  64  91 127 169 211 259 328 378
#
# _framework density 19.898828999999999
#
# number of rings (size 3 to 8) (size 9 to 14) (size 15 to 20)
#    0.000    1.000    5.000    2.250    5.250    1.000 
#    0.000    3.125    0.000    0.000    0.000    0.000 
#    0.000    0.000    0.000    0.000    0.000    0.000 
#
# Total GULP energy -396930.512613 kJ/mol
# GULP energy per Si atom -12404.078519 kJ/mol
# Density = 1.985354 g / cm^3
# Si number density = 19.898829 Si / 1000 Ang^3
#
#
#
# Elastic Constant Matrix: (Units=GPa)
#
#
# Indices 1 2 3 4 5 6 
#
# 1 98.2030 43.4064 38.3354 0.0000 2.0413 0.0000
# 2 43.4064 77.2076 23.8642 0.0000 -6.0090 0.0000
# 3 38.3354 23.8642 95.7572 0.0000 -6.0751 0.0000
# 4 0.0000 0.0000 0.0000 34.7155 0.0000 -7.3286
# 5 2.0413 -6.0090 -6.0751 0.0000 30.5848 0.0000
# 6 0.0000 0.0000 0.0000 -7.3286 0.0000 36.7877
#
#
#
# Elastic Compliance Matrix: (Units=1/GPa)
#
#
# Indices 1 2 3 4 5 6 
#
# 1 0.015311 -0.007487 -0.004478 0.000000 -0.003382 0.000000
# 2 -0.007487 0.017827 -0.001207 0.000000 0.003762 0.000000
# 3 -0.004478 -0.001207 0.012701 0.000000 0.002585 0.000000
# 4 0.000000 0.000000 0.000000 0.030070 0.000000 0.005990
# 5 -0.003382 0.003762 0.002585 0.000000 0.034174 0.000000
# 6 0.000000 0.000000 0.000000 0.005990 0.000000 0.028376
#
#
# Mechanical properties :
#
#
# Convention : Reuss Voigt Hill
#
# Bulk Modulus (GPa) = 51.29608 53.59775 52.44692
# Shear Modulus (GPa) = 29.18836 31.45503 30.32170
#
# Velocity S-wave (km/s) = 3.83409 3.98018 3.90781
# Velocity P-wave (km/s) = 6.74053 6.93657 6.83925
#
# Compressibility (1/GPa) = 0.01949467
#
# Stress axis : x y z
#
# Youngs Moduli (GPa) = 65.31389 56.09457 78.73628
#
# Poissons Ratio (x) = 0.41997 0.35260
# Poissons Ratio (y) = 0.48899 0.09502
# Poissons Ratio (z) = 0.29249 0.06770
#
# Static dielectric constant tensor:
#      x y z
#    x 3.599760 0.000000 -0.036840 
#    y 0.000000 3.982080 0.000000 
#    z -0.036840 0.000000 3.881880 
# 
# 
# High freq. dielectric constant tensor:
#      x y z
#    x 1.765990 0.000000 0.003160 
#    y 0.000000 1.765370 0.000000 
#    z 0.003160 0.000000 1.793470 
# 
# From -- ./inp_files/34251.got.cif
#   From: 2010.03.12/outbox.cif.g09.slc.cpg/sg14_18_cif.got.tgz:34251.got - 2010.03.31 13:35:05.
