data_PCOD8125156
_publ_section_title
;
Structure prediction by ZEFSAII (Michael W. Deem and Ramdas Pophale) SiO2 
 PCOD8125156
Probable space group: P 21/C
;
_chemical_formula_sum "Si O2"
_cell_formula_units_Z 32
_cell_length_a 17.302304
_cell_length_b 9.480315
_cell_length_c 28.283451
_cell_angle_alpha 90.000000
_cell_angle_beta 19.999270
_cell_angle_gamma 90.000000
_cell_volume 1586.702794
_symmetry_space_group_name_H-M "P 21/C"
_symmetry_group_IT_number 14
_symmetry_cell_setting 'monoclinic'
loop_
_space_group_symop_operation_xyz
x,y,z
-x,1/2+y,1/2-z
-x,-y,-z
x,1/2-y,1/2+z
loop_
_atom_site_type_symbol
_atom_site_label
_atom_site_fract_x
_atom_site_fract_y
_atom_site_fract_z
Si Si1 0.145369 0.862644 0.410919
Si Si2 0.609356 0.313875 0.135923
Si Si3 0.294389 0.605150 0.112485
Si Si4 0.096098 0.929886 0.135777
Si Si5 0.588855 0.998464 0.122704
Si Si6 0.891243 0.381213 0.886616
Si Si7 0.269108 0.919317 0.139012
Si Si8 0.851613 0.893818 0.056220
O O1 0.209323 0.805431 0.425974
O O2 0.372017 0.896376 0.250449
O O3 0.987698 0.752228 0.474121
O O4 0.000000 0.000000 0.500000
O O5 0.387019 0.395241 0.279633
O O6 0.523776 0.157139 0.173950
O O7 0.714745 0.401651 0.031230
O O8 0.236985 0.610809 0.089717
O O9 0.334500 0.758047 0.114099
O O10 0.099440 0.543157 0.257666
O O11 0.500000 0.500000 0.000000
O O12 0.017901 0.779595 0.158581
O O13 0.133137 0.907775 0.169260
O O14 0.321328 0.995171 0.982624
O O15 0.799206 0.943940 0.033246
O O16 0.098303 0.494328 0.772287
O O17 0.500000 0.000000 0.000000
O O18 0.000000 0.000000 0.000000
#
# Coordination Sequence:
#
# PCOD8125156 Si02
#       8
#     4   4   4   4   4   4   4   4
#     4  11  22  39  61  85 119 156 196 249 301 356
#     4  10  21  39  63  86 115 158 203 243 296 359
#     4  10  20  37  60  86 118 152 187 239 297 342
#     4   9  20  39  59  82 114 151 192 242 288 339
#     4  10  21  39  61  87 118 155 199 248 296 358
#     4   9  20  39  61  82 112 152 198 239 279 349
#     4  10  20  37  59  85 115 154 194 234 286 350
#     4  11  22  39  60  87 117 153 198 246 303 354
#
# _framework density 20.167608999999999
#
# number of rings (size 3 to 8) (size 9 to 14) (size 15 to 20)
#    0.000    2.000    2.500    0.750    0.000    3.000 
#    9.000    0.000    0.000    0.000    0.000    0.000 
#    0.000    0.000    0.000    0.000    0.000    0.000 
#
# Total GULP energy -396619.265447 kJ/mol
# GULP energy per Si atom -12394.352045 kJ/mol
# Density = 2.012171 g / cm^3
# Si number density = 20.167609 Si / 1000 Ang^3
#
#
#
# Elastic Constant Matrix: (Units=GPa)
#
#
# Indices 1 2 3 4 5 6 
#
# 1 25.6914 4.9597 16.4622 0.0000 9.1115 0.0000
# 2 4.9597 118.6313 46.1341 0.0000 -0.3933 0.0000
# 3 16.4622 46.1341 98.4251 0.0000 7.1036 0.0000
# 4 0.0000 0.0000 0.0000 45.2831 0.0000 -7.7691
# 5 9.1115 -0.3933 7.1036 0.0000 34.3127 0.0000
# 6 0.0000 0.0000 0.0000 -7.7691 0.0000 30.7620
#
#
#
# Elastic Compliance Matrix: (Units=1/GPa)
#
#
# Indices 1 2 3 4 5 6 
#
# 1 0.047520 0.000927 -0.007586 0.000000 -0.011037 0.000000
# 2 0.000927 0.010370 -0.005083 0.000000 0.000925 0.000000
# 3 -0.007586 -0.005083 0.013877 0.000000 -0.000917 0.000000
# 4 0.000000 0.000000 0.000000 0.023084 0.000000 0.005830
# 5 -0.011037 0.000925 -0.000917 0.000000 0.032275 0.000000
# 6 0.000000 0.000000 0.000000 0.005830 0.000000 0.033980
#
#
# Mechanical properties :
#
#
# Convention : Reuss Voigt Hill
#
# Bulk Modulus (GPa) = 20.71074 41.98443 31.34759
# Shear Modulus (GPa) = 24.91480 33.75099 29.33290
#
# Velocity S-wave (km/s) = 3.51862 4.09531 3.81787
# Velocity P-wave (km/s) = 5.17679 6.57458 5.91710
#
# Compressibility (1/GPa) = 0.04828412
#
# Stress axis : x y z
#
# Youngs Moduli (GPa) = 21.04388 96.42874 72.06025
#
# Poissons Ratio (x) = -0.08936 0.54663
# Poissons Ratio (y) = -0.01950 0.36625
# Poissons Ratio (z) = 0.15963 0.49011
#
# Static dielectric constant tensor:
#      x y z
#    x 3.981100 0.000000 0.284800 
#    y 0.000000 4.043360 0.000000 
#    z 0.284800 0.000000 3.393950 
# 
# 
# High freq. dielectric constant tensor:
#      x y z
#    x 1.767580 0.000000 0.000290 
#    y 0.000000 1.798630 0.000000 
#    z 0.000290 0.000000 1.793710 
# 
# From -- ./inp_files/80402.got.cif
#   From: 2010.03.12/outbox.cif.g09.slc.cpg/sg14_41_cif.got.tgz:80402.got - 2010.03.31 13:35:05.
