data_PCOD8125845
_publ_section_title
;
Structure prediction by ZEFSAII (Michael W. Deem and Ramdas Pophale) SiO2 
 PCOD8125845
Probable space group: P 21/C
;
_chemical_formula_sum "Si O2"
_cell_formula_units_Z 24
_cell_length_a 12.014360
_cell_length_b 4.932864
_cell_length_c 25.724230
_cell_angle_alpha 90.000000
_cell_angle_beta 129.872361
_cell_angle_gamma 90.000000
_cell_volume 1170.054570
_symmetry_space_group_name_H-M "P 21/C"
_symmetry_group_IT_number 14
_symmetry_cell_setting 'monoclinic'
loop_
_space_group_symop_operation_xyz
x,y,z
-x,1/2+y,1/2-z
-x,-y,-z
x,1/2-y,1/2+z
loop_
_atom_site_type_symbol
_atom_site_label
_atom_site_fract_x
_atom_site_fract_y
_atom_site_fract_z
Si Si1 0.614096 0.779665 0.646428
Si Si2 0.086404 0.613043 0.912851
Si Si3 0.939654 0.730118 0.762388
Si Si4 0.101506 0.373769 0.487016
Si Si5 0.577602 0.684458 0.412652
Si Si6 0.632896 0.807465 0.537973
O O1 0.771423 0.819177 0.718598
O O2 0.517122 0.545697 0.644359
O O3 0.650529 0.669033 0.599176
O O4 0.513804 0.042457 0.620553
O O5 0.030657 0.398324 0.940294
O O6 0.231051 0.495940 0.932113
O O7 0.976919 0.647870 0.832312
O O8 0.119242 0.904978 0.947009
O O9 0.964207 0.479433 0.730257
O O10 0.257965 0.298136 0.560591
O O11 0.000000 0.500000 0.500000
O O12 0.605091 0.601710 0.481848
O O13 0.500000 0.000000 0.500000
#
# Coordination Sequence:
#
# PCOD8125845 Si02
#       6
#     4   4   4   4   4   4
#     4  11  21  35  55  84 126 161 193 232 293 367
#     4  11  23  38  59  92 122 158 206 245 303 368
#     4  12  24  38  58  86 131 174 200 232 290 381
#     4  11  23  42  66  88 116 153 207 273 316 344
#     4  10  21  35  56  86 115 156 200 248 302 352
#     4   9  18  32  51  83 119 153 182 235 288 359
#
# _framework density 20.511863000000002
#
# number of rings (size 3 to 8) (size 9 to 14) (size 15 to 20)
#    0.000    1.333    1.667    6.000    4.667    0.000 
#    0.000    0.000    0.000    4.000    0.000    0.000 
#    0.000    0.000    0.000    0.000    0.000    0.000 
#
# Total GULP energy -297337.518509 kJ/mol
# GULP energy per Si atom -12389.063271 kJ/mol
# Density = 2.046518 g / cm^3
# Si number density = 20.511863 Si / 1000 Ang^3
#
#
#
# Elastic Constant Matrix: (Units=GPa)
#
#
# Indices 1 2 3 4 5 6 
#
# 1 92.0987 19.4086 55.9136 0.0000 20.0198 0.0000
# 2 19.4086 112.2460 35.9832 0.0000 9.7188 0.0000
# 3 55.9136 35.9832 101.2861 0.0000 33.1057 0.0000
# 4 0.0000 0.0000 0.0000 24.3826 0.0000 7.0037
# 5 20.0198 9.7188 33.1057 0.0000 22.4611 0.0000
# 6 0.0000 0.0000 0.0000 7.0037 0.0000 36.0065
#
#
#
# Elastic Compliance Matrix: (Units=1/GPa)
#
#
# Indices 1 2 3 4 5 6 
#
# 1 0.016401 0.000025 -0.008261 0.000000 -0.002453 0.000000
# 2 0.000025 0.010090 -0.004176 0.000000 0.001767 0.000000
# 3 -0.008261 -0.004176 0.024930 0.000000 -0.027574 0.000000
# 4 0.000000 0.000000 0.000000 0.043440 0.000000 -0.008450
# 5 -0.002453 0.001767 -0.027574 0.000000 0.086586 0.000000
# 6 0.000000 0.000000 0.000000 -0.008450 0.000000 0.029416
#
#
# Mechanical properties :
#
#
# Convention : Reuss Voigt Hill
#
# Bulk Modulus (GPa) = 37.59824 58.69352 48.14588
# Shear Modulus (GPa) = 20.44543 29.52505 24.98524
#
# Velocity S-wave (km/s) = 3.16058 3.79808 3.49390
# Velocity P-wave (km/s) = 5.62928 6.92173 6.30869
#
# Compressibility (1/GPa) = 0.02659699
#
# Stress axis : x y z
#
# Youngs Moduli (GPa) = 60.97075 99.10370 40.11282
#
# Poissons Ratio (x) = -0.00245 0.33137
# Poissons Ratio (y) = -0.00151 0.16751
# Poissons Ratio (z) = 0.50368 0.41385
#
# Static dielectric constant tensor:
#      x y z
#    x 10.188940 0.000000 -2.208450 
#    y 0.000000 3.931160 0.000000 
#    z -2.208450 0.000000 4.767570 
# 
# 
# High freq. dielectric constant tensor:
#      x y z
#    x 1.785570 0.000000 0.031700 
#    y 0.000000 1.815690 0.000000 
#    z 0.031700 0.000000 1.783780 
# 
# From -- ./inp_files/66231.got.cif
#   From: 2010.03.12/outbox.cif.g09.slc.cpg/sg14_34_cif.got.tgz:66231.got - 2010.03.31 13:35:05.
