data_PCOD8125623
_publ_section_title
;
Structure prediction by ZEFSAII (Michael W. Deem and Ramdas Pophale) SiO2 
 PCOD8125623
Probable space group: P 21/C
;
_chemical_formula_sum "Si O2"
_cell_formula_units_Z 32
_cell_length_a 15.514601
_cell_length_b 5.272486
_cell_length_c 18.548646
_cell_angle_alpha 90.000000
_cell_angle_beta 61.621822
_cell_angle_gamma 90.000000
_cell_volume 1334.955708
_symmetry_space_group_name_H-M "P 21/C"
_symmetry_group_IT_number 14
_symmetry_cell_setting 'monoclinic'
loop_
_space_group_symop_operation_xyz
x,y,z
-x,1/2+y,1/2-z
-x,-y,-z
x,1/2-y,1/2+z
loop_
_atom_site_type_symbol
_atom_site_label
_atom_site_fract_x
_atom_site_fract_y
_atom_site_fract_z
Si Si1 0.192220 0.049061 0.805415
Si Si2 0.446793 0.710150 0.619727
Si Si3 0.357656 0.530909 0.444750
Si Si4 0.642281 0.202167 0.695790
Si Si5 0.664966 0.714465 0.870856
Si Si6 0.060801 0.863131 0.736439
Si Si7 0.227900 0.921179 0.560749
Si Si8 0.223274 0.173569 0.423281
O O1 0.259141 0.835373 0.814353
O O2 0.256491 0.215618 0.724961
O O3 0.101732 0.919932 0.800123
O O4 0.151315 0.229203 0.887582
O O5 0.560723 0.659549 0.553969
O O6 0.437833 0.687571 0.709849
O O7 0.415136 0.989757 0.606973
O O8 0.383261 0.490240 0.606926
O O9 0.405990 0.663398 0.354688
O O10 0.321793 0.735797 0.517614
O O11 0.257237 0.402534 0.459879
O O12 0.678122 0.926073 0.655555
O O13 0.726324 0.675459 0.920525
O O14 0.003163 0.110060 0.731314
O O15 0.146893 0.801828 0.645485
O O16 0.180856 0.973244 0.499253
#
# Coordination Sequence:
#
# PCOD8125623 Si02
#       8
#     4   4   4   4   4   4   4   4
#     4   9  20  41  67  95 131 172 221 263 334 399
#     4  11  23  37  60  95 132 178 241 272 310 368
#     4  10  24  36  61  94 135 183 222 280 323 381
#     4   9  20  36  61  91 129 180 224 266 317 375
#     4  10  23  39  63  90 132 186 225 277 315 387
#     4  11  27  47  77 104 126 164 219 278 334 415
#     4  10  25  44  66  93 137 174 219 270 353 397
#     4  10  20  40  65  92 132 182 214 266 332 391
#
# _framework density 23.970832000000001
#
# number of rings (size 3 to 8) (size 9 to 14) (size 15 to 20)
#    0.000    2.000    1.250    0.000   10.500    3.000 
#    0.000    1.250    0.000    0.000    0.000    0.000 
#    0.000    0.000    0.000    0.000    0.000    0.000 
#
# Total GULP energy -396580.365015 kJ/mol
# GULP energy per Si atom -12393.136407 kJ/mol
# Density = 2.391627 g / cm^3
# Si number density = 23.970832 Si / 1000 Ang^3
#
#
#
# Elastic Constant Matrix: (Units=GPa)
#
#
# Indices 1 2 3 4 5 6 
#
# 1 76.9204 7.0430 33.3795 0.0000 13.7088 0.0000
# 2 7.0430 69.9047 15.7866 0.0000 8.6185 0.0000
# 3 33.3795 15.7866 104.4826 0.0000 22.6566 0.0000
# 4 0.0000 0.0000 0.0000 25.2098 0.0000 7.3108
# 5 13.7088 8.6185 22.6566 0.0000 32.1710 0.0000
# 6 0.0000 0.0000 0.0000 7.3108 0.0000 34.7722
#
#
#
# Elastic Compliance Matrix: (Units=1/GPa)
#
#
# Indices 1 2 3 4 5 6 
#
# 1 0.015453 -0.000178 -0.004122 0.000000 -0.003634 0.000000
# 2 -0.000178 0.015033 -0.001602 0.000000 -0.002823 0.000000
# 3 -0.004122 -0.001602 0.012577 0.000000 -0.006671 0.000000
# 4 0.000000 0.000000 0.000000 0.042243 0.000000 -0.008881
# 5 -0.003634 -0.002823 -0.006671 0.000000 0.038087 0.000000
# 6 0.000000 0.000000 0.000000 -0.008881 0.000000 0.030626
#
#
# Mechanical properties :
#
#
# Convention : Reuss Voigt Hill
#
# Bulk Modulus (GPa) = 31.99153 40.41397 36.20275
# Shear Modulus (GPa) = 28.36998 31.43716 29.90357
#
# Velocity S-wave (km/s) = 3.44397 3.62536 3.53583
# Velocity P-wave (km/s) = 5.40273 5.86690 5.63960
#
# Compressibility (1/GPa) = 0.03125827
#
# Stress axis : x y z
#
# Youngs Moduli (GPa) = 64.71164 66.52021 79.51283
#
# Poissons Ratio (x) = 0.01184 0.32774
# Poissons Ratio (y) = 0.01152 0.12741
# Poissons Ratio (z) = 0.26673 0.10659
#
# Static dielectric constant tensor:
#      x y z
#    x 4.094530 0.000000 0.495040 
#    y 0.000000 4.305250 0.000000 
#    z 0.495040 0.000000 4.514470 
# 
# 
# High freq. dielectric constant tensor:
#      x y z
#    x 1.919680 0.000000 0.042770 
#    y 0.000000 1.956420 0.000000 
#    z 0.042770 0.000000 1.955670 
# 
# From -- ./inp_files/67832.got.cif
#   From: 2010.03.12/outbox.cif.g09.slc.cpg/sg14_34_cif.got.tgz:67832.got - 2010.03.31 13:35:05.
