data_PCOD8125739
_publ_section_title
;
Structure prediction by ZEFSAII (Michael W. Deem and Ramdas Pophale) SiO2 
 PCOD8125739
Probable space group: P 21/C
;
_chemical_formula_sum "Si O2"
_cell_formula_units_Z 32
_cell_length_a 23.507437
_cell_length_b 8.788995
_cell_length_c 13.728311
_cell_angle_alpha 90.000000
_cell_angle_beta 147.862477
_cell_angle_gamma 90.000000
_cell_volume 1508.811795
_symmetry_space_group_name_H-M "P 21/C"
_symmetry_group_IT_number 14
_symmetry_cell_setting 'monoclinic'
loop_
_space_group_symop_operation_xyz
x,y,z
-x,1/2+y,1/2-z
-x,-y,-z
x,1/2-y,1/2+z
loop_
_atom_site_type_symbol
_atom_site_label
_atom_site_fract_x
_atom_site_fract_y
_atom_site_fract_z
Si Si1 0.609013 0.075749 0.923676
Si Si2 0.934774 0.063961 0.037052
Si Si3 0.376596 0.030725 0.634569
Si Si4 0.695301 0.348624 0.150221
Si Si5 0.665719 0.268101 0.321551
Si Si6 0.878550 0.080892 0.167581
Si Si7 0.966963 0.741930 0.481667
Si Si8 0.755910 0.819450 0.090518
O O1 0.497831 0.090531 0.820152
O O2 0.593899 0.129895 0.789876
O O3 0.698274 0.183244 0.103687
O O4 0.655611 0.905328 0.994558
O O5 0.811546 0.079299 0.828363
O O6 0.999694 0.202052 0.081279
O O7 0.950402 0.067762 0.175255
O O8 0.984560 0.904757 0.074596
O O9 0.290547 0.165479 0.524715
O O10 0.370784 0.958943 0.517406
O O11 0.357664 0.910223 0.693988
O O12 0.639219 0.325853 0.174090
O O13 0.791788 0.286323 0.527193
O O14 0.958933 0.121120 0.371954
O O15 0.814300 0.924160 0.094184
O O16 0.842120 0.785803 0.300128
#
# Coordination Sequence:
#
# PCOD8125739 Si02
#       8
#     4   4   4   4   4   4   4   4
#     4  10  22  40  62  89 125 158 206 266 317 359
#     4  10  22  40  63  90 121 170 206 244 312 376
#     4  11  21  40  65  89 121 164 209 257 313 371
#     4  10  20  42  62  84 121 166 208 247 316 369
#     4   9  21  40  62  84 120 167 203 252 307 371
#     4  10  23  40  62  92 129 161 206 255 309 370
#     4  11  22  39  63  89 128 164 204 253 306 379
#     4  11  22  39  62  96 125 160 208 261 307 370
#
# _framework density 21.208742999999998
#
# number of rings (size 3 to 8) (size 9 to 14) (size 15 to 20)
#    0.000    1.750    1.250    4.125    3.500    1.000 
#    4.500    1.250    0.000    0.000    0.000    0.000 
#    0.000    0.000    0.000    0.000    0.000    0.000 
#
# Total GULP energy -396779.440977 kJ/mol
# GULP energy per Si atom -12399.357531 kJ/mol
# Density = 2.116047 g / cm^3
# Si number density = 21.208743 Si / 1000 Ang^3
#
#
#
# Elastic Constant Matrix: (Units=GPa)
#
#
# Indices 1 2 3 4 5 6 
#
# 1 109.2670 43.0653 25.3208 0.0000 -5.0873 0.0000
# 2 43.0653 102.8081 26.6194 0.0000 1.3368 0.0000
# 3 25.3208 26.6194 64.0307 0.0000 4.5516 0.0000
# 4 0.0000 0.0000 0.0000 27.5360 0.0000 8.0414
# 5 -5.0873 1.3368 4.5516 0.0000 30.2094 0.0000
# 6 0.0000 0.0000 0.0000 8.0414 0.0000 25.5272
#
#
#
# Elastic Compliance Matrix: (Units=1/GPa)
#
#
# Indices 1 2 3 4 5 6 
#
# 1 0.011599 -0.004098 -0.003068 0.000000 0.002597 0.000000
# 2 -0.004098 0.012349 -0.003463 0.000000 -0.000715 0.000000
# 3 -0.003068 -0.003463 0.018494 0.000000 -0.003150 0.000000
# 4 0.000000 0.000000 0.000000 0.039995 0.000000 -0.012599
# 5 0.002597 -0.000715 -0.003150 0.000000 0.034046 0.000000
# 6 0.000000 0.000000 0.000000 -0.012599 0.000000 0.043143
#
#
# Mechanical properties :
#
#
# Convention : Reuss Voigt Hill
#
# Bulk Modulus (GPa) = 47.20197 51.79075 49.49636
# Shear Modulus (GPa) = 26.60359 28.72789 27.66574
#
# Velocity S-wave (km/s) = 3.54555 3.68439 3.61563
# Velocity P-wave (km/s) = 6.25024 6.52473 6.38896
#
# Compressibility (1/GPa) = 0.02118556
#
# Stress axis : x y z
#
# Youngs Moduli (GPa) = 86.21540 80.97588 54.07169
#
# Poissons Ratio (x) = 0.33185 0.16587
# Poissons Ratio (y) = 0.35332 0.18723
# Poissons Ratio (z) = 0.26448 0.28038
#
# Static dielectric constant tensor:
#      x y z
#    x 3.859880 0.000000 -0.028940 
#    y 0.000000 3.829700 0.000000 
#    z -0.028940 0.000000 3.620680 
# 
# 
# High freq. dielectric constant tensor:
#      x y z
#    x 1.823350 0.000000 0.007290 
#    y 0.000000 1.835600 0.000000 
#    z 0.007290 0.000000 1.819080 
# 
# From -- ./inp_files/51864.got.cif
#   From: 2010.03.12/outbox.cif.g09.slc.cpg/sg14_26_cif.got.tgz:51864.got - 2010.03.31 13:35:05.
