data_PCOD8125507
_publ_section_title
;
Structure prediction by ZEFSAII (Michael W. Deem and Ramdas Pophale) SiO2 
 PCOD8125507
Probable space group: P 21/C
;
_chemical_formula_sum "Si O2"
_cell_formula_units_Z 28
_cell_length_a 23.169120
_cell_length_b 8.733765
_cell_length_c 14.208300
_cell_angle_alpha 90.000000
_cell_angle_beta 26.409160
_cell_angle_gamma 90.000000
_cell_volume 1278.782903
_symmetry_space_group_name_H-M "P 21/C"
_symmetry_group_IT_number 14
_symmetry_cell_setting 'monoclinic'
loop_
_space_group_symop_operation_xyz
x,y,z
-x,1/2+y,1/2-z
-x,-y,-z
x,1/2-y,1/2+z
loop_
_atom_site_type_symbol
_atom_site_label
_atom_site_fract_x
_atom_site_fract_y
_atom_site_fract_z
Si Si1 0.931535 0.218166 0.954921
Si Si2 0.357836 0.558018 0.388478
Si Si3 0.639676 0.988929 0.749650
Si Si4 0.093527 0.064362 0.573208
Si Si5 0.339747 0.813444 0.726109
Si Si6 0.531332 0.760745 0.776278
Si Si7 0.935433 0.145118 0.639423
O O1 0.944697 0.391128 0.896686
O O2 0.044801 0.110054 0.748794
O O3 0.795250 0.141312 0.124921
O O4 0.940327 0.217472 0.056152
O O5 0.385765 0.560346 0.234859
O O6 0.387761 0.385178 0.378881
O O7 0.448767 0.677139 0.310218
O O8 0.210767 0.601765 0.622204
O O9 0.749763 0.912607 0.657009
O O10 0.630050 0.894272 0.666528
O O11 0.684491 0.164137 0.670970
O O12 0.500000 0.000000 0.000000
O O13 0.020605 0.182448 0.608226
O O14 0.443623 0.787604 0.492941
O O15 0.000000 0.000000 0.500000
#
# Coordination Sequence:
#
# PCOD8125507 Si02
#       7
#     4   4   4   4   4   4   4
#     4  10  20  39  64  90 126 164 206 262 321 377
#     4  12  23  41  66  93 126 168 214 266 324 380
#     4   9  21  39  62  90 128 165 208 258 315 376
#     4  10  21  38  65  91 125 168 209 259 314 376
#     4  10  20  41  63  90 128 166 208 263 330 373
#     4  11  24  40  64  93 129 166 217 264 318 390
#     4  10  22  38  65  89 124 168 211 250 320 385
#
# _framework density 21.895820000000001
#
# number of rings (size 3 to 8) (size 9 to 14) (size 15 to 20)
#    0.000    1.714    2.857    1.286    6.000    0.000 
#    0.000    0.714    0.000    0.000    0.000    0.000 
#    0.000    0.000    0.000    0.000    0.000    0.000 
#
# Total GULP energy -346997.447769 kJ/mol
# GULP energy per Si atom -12392.765992 kJ/mol
# Density = 2.184598 g / cm^3
# Si number density = 21.895820 Si / 1000 Ang^3
#
#
#
# Elastic Constant Matrix: (Units=GPa)
#
#
# Indices 1 2 3 4 5 6 
#
# 1 126.8087 19.8143 42.1945 0.0000 -24.9828 0.0000
# 2 19.8143 37.4938 13.4603 0.0000 -8.8114 0.0000
# 3 42.1945 13.4603 90.0231 0.0000 -18.0968 0.0000
# 4 0.0000 0.0000 0.0000 22.2609 0.0000 4.9752
# 5 -24.9828 -8.8114 -18.0968 0.0000 42.8361 0.0000
# 6 0.0000 0.0000 0.0000 4.9752 0.0000 34.3394
#
#
#
# Elastic Compliance Matrix: (Units=1/GPa)
#
#
# Indices 1 2 3 4 5 6 
#
# 1 0.010350 -0.003278 -0.003588 0.000000 0.003846 0.000000
# 2 -0.003278 0.029998 -0.002287 0.000000 0.003293 0.000000
# 3 -0.003588 -0.002287 0.013788 0.000000 0.003262 0.000000
# 4 0.000000 0.000000 0.000000 0.046425 0.000000 -0.006726
# 5 0.003846 0.003293 0.003262 0.000000 0.027643 0.000000
# 6 0.000000 0.000000 0.000000 -0.006726 0.000000 0.030096
#
#
# Mechanical properties :
#
#
# Convention : Reuss Voigt Hill
#
# Bulk Modulus (GPa) = 27.90930 45.02933 36.46931
# Shear Modulus (GPa) = 26.51854 31.81104 29.16479
#
# Velocity S-wave (km/s) = 3.48390 3.81574 3.65359
# Velocity P-wave (km/s) = 5.38121 6.32638 5.87284
#
# Compressibility (1/GPa) = 0.03583036
#
# Stress axis : x y z
#
# Youngs Moduli (GPa) = 96.62279 33.33542 72.52935
#
# Poissons Ratio (x) = 0.10926 0.26021
# Poissons Ratio (y) = 0.31668 0.16589
# Poissons Ratio (z) = 0.34665 0.07624
#
# Static dielectric constant tensor:
#      x y z
#    x 4.722460 0.000000 0.013330 
#    y 0.000000 3.939400 0.000000 
#    z 0.013330 0.000000 3.733980 
# 
# 
# High freq. dielectric constant tensor:
#      x y z
#    x 1.874530 0.000000 -0.013570 
#    y 0.000000 1.837040 0.000000 
#    z -0.013570 0.000000 1.853010 
# 
# From -- ./inp_files/51114.got.cif
#   From: 2010.03.12/outbox.cif.g09.slc.cpg/sg14_26_cif.got.tgz:51114.got - 2010.03.31 13:35:05.
