data_PCOD8125044
_publ_section_title
;
Structure prediction by ZEFSAII (Michael W. Deem and Ramdas Pophale) SiO2 
 PCOD8125044
Probable space group: P 21/C
;
_chemical_formula_sum "Si O2"
_cell_formula_units_Z 24
_cell_length_a 13.056794
_cell_length_b 13.719202
_cell_length_c 8.942020
_cell_angle_alpha 90.000000
_cell_angle_beta 135.538046
_cell_angle_gamma 90.000000
_cell_volume 1121.938842
_symmetry_space_group_name_H-M "P 21/C"
_symmetry_group_IT_number 14
_symmetry_cell_setting 'monoclinic'
loop_
_space_group_symop_operation_xyz
x,y,z
-x,1/2+y,1/2-z
-x,-y,-z
x,1/2-y,1/2+z
loop_
_atom_site_type_symbol
_atom_site_label
_atom_site_fract_x
_atom_site_fract_y
_atom_site_fract_z
Si Si1 0.511834 0.377353 0.804471
Si Si2 0.785745 0.970024 0.976475
Si Si3 0.005894 0.626379 0.214398
Si Si4 0.094485 0.303492 0.198220
Si Si5 0.742324 0.535606 0.084455
Si Si6 0.595378 0.719721 0.013589
O O1 0.383755 0.457692 0.655068
O O2 0.511130 0.298974 0.671239
O O3 0.488365 0.314730 0.928066
O O4 0.665576 0.433051 0.967050
O O5 0.880733 0.884488 0.149635
O O6 0.839318 0.074481 0.092320
O O7 0.804610 0.963293 0.817897
O O8 0.991606 0.716482 0.311869
O O9 0.876417 0.548221 0.110400
O O10 0.004127 0.656679 0.039454
O O11 0.247722 0.268313 0.285410
O O12 0.627875 0.625215 0.943262
#
# Coordination Sequence:
#
# PCOD8125044 Si02
#       6
#     4   4   4   4   4   4
#     4  10  20  37  59  81 109 147 188 230 277 329
#     4  10  20  37  60  84 110 147 190 230 272 328
#     4  11  21  37  59  85 112 146 188 230 274 330
#     4  10  20  36  60  83 112 152 188 220 272 341
#     4  10  20  37  58  82 111 149 186 229 277 329
#     4   9  17  34  57  79 105 147 189 219 269 343
#
# _framework density 21.391541
#
# number of rings (size 3 to 8) (size 9 to 14) (size 15 to 20)
#    0.000    2.000    0.000    8.000    0.000    0.000 
#    0.000   15.833    0.000    0.000    0.000    0.000 
#    0.000    0.000    0.000    0.000    0.000    0.000 
#
# Total GULP energy -297617.284417 kJ/mol
# GULP energy per Si atom -12400.720184 kJ/mol
# Density = 2.134285 g / cm^3
# Si number density = 21.391541 Si / 1000 Ang^3
#
#
#
# Elastic Constant Matrix: (Units=GPa)
#
#
# Indices 1 2 3 4 5 6 
#
# 1 48.6875 39.1380 47.9963 0.0000 -3.9428 0.0000
# 2 39.1380 116.7722 74.5847 0.0000 -4.6114 0.0000
# 3 47.9963 74.5847 109.4299 0.0000 -14.3457 0.0000
# 4 0.0000 0.0000 0.0000 49.0849 0.0000 5.5295
# 5 -3.9428 -4.6114 -14.3457 0.0000 10.1990 0.0000
# 6 0.0000 0.0000 0.0000 5.5295 0.0000 17.6344
#
#
#
# Elastic Compliance Matrix: (Units=1/GPa)
#
#
# Indices 1 2 3 4 5 6 
#
# 1 0.037623 -0.002978 -0.015622 0.000000 -0.008776 0.000000
# 2 -0.002978 0.016178 -0.010927 0.000000 -0.009206 0.000000
# 3 -0.015622 -0.010927 0.026972 0.000000 0.026958 0.000000
# 4 0.000000 0.000000 0.000000 0.021119 0.000000 -0.006622
# 5 -0.008776 -0.009206 0.026958 0.000000 0.128412 0.000000
# 6 0.000000 0.000000 0.000000 -0.006622 0.000000 0.058784
#
#
# Mechanical properties :
#
#
# Convention : Reuss Voigt Hill
#
# Bulk Modulus (GPa) = 46.04531 66.48087 56.26309
# Shear Modulus (GPa) = 14.06943 22.92836 18.49890
#
# Velocity S-wave (km/s) = 2.56737 3.27745 2.94390
# Velocity P-wave (km/s) = 5.51001 6.74298 6.15744
#
# Compressibility (1/GPa) = 0.02171774
#
# Stress axis : x y z
#
# Youngs Moduli (GPa) = 26.57957 61.81420 37.07606
#
# Poissons Ratio (x) = 0.18411 0.57920
# Poissons Ratio (y) = 0.07916 0.40512
# Poissons Ratio (z) = 0.41523 0.67543
#
# Static dielectric constant tensor:
#      x y z
#    x 3.471660 0.000000 -0.057640 
#    y 0.000000 4.068910 0.000000 
#    z -0.057640 0.000000 3.815830 
# 
# 
# High freq. dielectric constant tensor:
#      x y z
#    x 1.810730 0.000000 -0.012280 
#    y 0.000000 1.850350 0.000000 
#    z -0.012280 0.000000 1.829160 
# 
# From -- ./inp_files/16325.got.cif
#   From: 2010.03.12/outbox.cif.g09.slc.cpg/sg14_9_cif.got.tgz:16325.got - 2010.03.31 13:35:05.
