data_PCOD8125586
_publ_section_title
;
Structure prediction by ZEFSAII (Michael W. Deem and Ramdas Pophale) SiO2 
 PCOD8125586
Probable space group: P 21/C
;
_chemical_formula_sum "Si O2"
_cell_formula_units_Z 28
_cell_length_a 18.788125
_cell_length_b 8.590870
_cell_length_c 9.105029
_cell_angle_alpha 90.000000
_cell_angle_beta 119.637809
_cell_angle_gamma 90.000000
_cell_volume 1277.338628
_symmetry_space_group_name_H-M "P 21/C"
_symmetry_group_IT_number 14
_symmetry_cell_setting 'monoclinic'
loop_
_space_group_symop_operation_xyz
x,y,z
-x,1/2+y,1/2-z
-x,-y,-z
x,1/2-y,1/2+z
loop_
_atom_site_type_symbol
_atom_site_label
_atom_site_fract_x
_atom_site_fract_y
_atom_site_fract_z
Si Si1 0.394074 0.660496 0.397229
Si Si2 0.378052 0.499358 0.922065
Si Si3 0.778118 0.850180 0.651620
Si Si4 0.474720 0.882560 0.271354
Si Si5 0.761577 0.559417 0.816975
Si Si6 0.930870 0.079016 0.836720
Si Si7 0.068582 0.893810 0.493309
O O1 0.359951 0.818710 0.439152
O O2 0.444012 0.711052 0.300079
O O3 0.457440 0.590134 0.581652
O O4 0.319339 0.543261 0.294234
O O5 0.291577 0.418351 0.813885
O O6 0.427183 0.484054 0.817575
O O7 0.428992 0.410410 0.102210
O O8 0.787081 0.671502 0.709053
O O9 0.747510 0.846559 0.452898
O O10 0.858090 0.953920 0.757990
O O11 0.840942 0.458450 0.922353
O O12 0.912215 0.235906 0.903104
O O13 0.961463 0.127671 0.705267
O O14 0.000000 0.000000 0.000000
O O15 0.000000 0.000000 0.500000
#
# Coordination Sequence:
#
# PCOD8125586 Si02
#       7
#     4   4   4   4   4   4   4
#     4  10  20  40  63  92 119 166 212 259 320 380
#     4   9  21  41  63  89 128 165 213 263 324 380
#     4  11  25  42  62  94 130 168 214 266 321 381
#     4   9  21  38  66  89 128 163 213 265 319 386
#     4  11  26  41  65  94 130 171 217 266 322 387
#     4  11  24  44  68  99 132 172 214 271 321 391
#     4  11  24  44  68  99 131 175 215 264 328 388
#
# _framework density 21.920579
#
# number of rings (size 3 to 8) (size 9 to 14) (size 15 to 20)
#    0.857    0.857    0.000    3.429    2.000    8.000 
#    0.000    2.143    0.000    0.000    0.000    0.000 
#    0.000    0.000    0.000    0.000    0.000    0.000 
#
# Total GULP energy -346943.390550 kJ/mol
# GULP energy per Si atom -12390.835377 kJ/mol
# Density = 2.187069 g / cm^3
# Si number density = 21.920579 Si / 1000 Ang^3
#
#
#
# Elastic Constant Matrix: (Units=GPa)
#
#
# Indices 1 2 3 4 5 6 
#
# 1 73.9990 23.7060 39.8554 0.0000 -2.2899 0.0000
# 2 23.7060 96.8194 48.7063 0.0000 -6.8223 0.0000
# 3 39.8554 48.7063 156.9114 0.0000 -10.2911 0.0000
# 4 0.0000 0.0000 0.0000 32.2137 0.0000 3.9738
# 5 -2.2899 -6.8223 -10.2911 0.0000 33.3540 0.0000
# 6 0.0000 0.0000 0.0000 3.9738 0.0000 31.9027
#
#
#
# Elastic Compliance Matrix: (Units=1/GPa)
#
#
# Indices 1 2 3 4 5 6 
#
# 1 0.016056 -0.002246 -0.003408 0.000000 -0.000409 0.000000
# 2 -0.002246 0.012615 -0.003252 0.000000 0.001423 0.000000
# 3 -0.003408 -0.003252 0.008358 0.000000 0.001680 0.000000
# 4 0.000000 0.000000 0.000000 0.031527 0.000000 -0.003927
# 5 -0.000409 0.001423 0.001680 0.000000 0.030763 0.000000
# 6 0.000000 0.000000 0.000000 -0.003927 0.000000 0.031834
#
#
# Mechanical properties :
#
#
# Convention : Reuss Voigt Hill
#
# Bulk Modulus (GPa) = 52.03541 61.36280 56.69911
# Shear Modulus (GPa) = 32.18127 33.85821 33.01974
#
# Velocity S-wave (km/s) = 3.83572 3.93439 3.88536
# Velocity P-wave (km/s) = 6.58837 6.97805 6.78601
#
# Compressibility (1/GPa) = 0.01921768
#
# Stress axis : x y z
#
# Youngs Moduli (GPa) = 62.28222 79.27364 119.64261
#
# Poissons Ratio (x) = 0.17802 0.40773
# Poissons Ratio (y) = 0.13986 0.38907
# Poissons Ratio (z) = 0.21225 0.25779
#
# Static dielectric constant tensor:
#      x y z
#    x 3.708730 0.000000 -0.147780 
#    y 0.000000 3.704290 0.000000 
#    z -0.147780 0.000000 3.870940 
# 
# 
# High freq. dielectric constant tensor:
#      x y z
#    x 1.858840 0.000000 0.000500 
#    y 0.000000 1.861030 0.000000 
#    z 0.000500 0.000000 1.873980 
# 
# From -- ./inp_files/18765.got.cif
#   From: 2010.03.12/outbox.cif.g09.slc.cpg/sg14_10_cif.got.tgz:18765.got - 2010.03.31 13:35:05.
