data_PCOD8125074
_publ_section_title
;
Structure prediction by ZEFSAII (Michael W. Deem and Ramdas Pophale) SiO2 
 PCOD8125074
Probable space group: P 21/C
;
_chemical_formula_sum "Si O2"
_cell_formula_units_Z 28
_cell_length_a 21.007304
_cell_length_b 4.977212
_cell_length_c 15.194858
_cell_angle_alpha 90.000000
_cell_angle_beta 129.781793
_cell_angle_gamma 90.000000
_cell_volume 1220.926642
_symmetry_space_group_name_H-M "P 21/C"
_symmetry_group_IT_number 14
_symmetry_cell_setting 'monoclinic'
loop_
_space_group_symop_operation_xyz
x,y,z
-x,1/2+y,1/2-z
-x,-y,-z
x,1/2-y,1/2+z
loop_
_atom_site_type_symbol
_atom_site_label
_atom_site_fract_x
_atom_site_fract_y
_atom_site_fract_z
Si Si1 0.980117 0.732117 0.677792
Si Si2 0.684949 0.189359 0.425265
Si Si3 0.880796 0.214362 0.334015
Si Si4 0.356562 0.190442 0.000531
Si Si5 0.168116 0.546962 0.538036
Si Si6 0.519715 0.195352 0.714502
Si Si7 0.221528 0.196992 0.251388
O O1 0.888045 0.625434 0.577429
O O2 0.027136 0.522569 0.783138
O O3 0.029299 0.760536 0.629717
O O4 0.659906 0.388040 0.482691
O O5 0.775243 0.252992 0.467960
O O6 0.616162 0.224183 0.285330
O O7 0.683480 0.887487 0.461243
O O8 0.889083 0.272312 0.446640
O O9 0.815326 0.428754 0.235082
O O10 0.844415 0.924042 0.281904
O O11 0.313007 0.236897 0.867805
O O12 0.455810 0.246017 0.077168
O O13 0.224995 0.345855 0.648249
O O14 0.513642 0.882291 0.734386
#
# Coordination Sequence:
#
# PCOD8125074 Si02
#       7
#     4   4   4   4   4   4   4
#     4  12  28  43  66  91 115 156 210 257 303 359
#     4  10  21  35  62  93 120 155 209 251 293 353
#     4  10  24  44  59  85 125 157 196 243 315 359
#     4  10  20  36  62  89 121 162 204 248 295 351
#     4  10  27  39  65  86 128 157 199 247 315 357
#     4   8  16  33  54  86 123 156 194 249 299 341
#     4  10  23  39  63  85 121 163 199 238 310 358
#
# _framework density 22.933402000000001
#
# number of rings (size 3 to 8) (size 9 to 14) (size 15 to 20)
#    0.857    1.143    0.000    2.143   10.000    0.571 
#    0.000    0.714    0.000    0.857    0.000    0.000 
#    0.000    0.000    0.000    0.000    0.000    0.000 
#
# Total GULP energy -347025.643075 kJ/mol
# GULP energy per Si atom -12393.772967 kJ/mol
# Density = 2.288120 g / cm^3
# Si number density = 22.933402 Si / 1000 Ang^3
#
#
#
# Elastic Constant Matrix: (Units=GPa)
#
#
# Indices 1 2 3 4 5 6 
#
# 1 32.6180 -6.1040 3.5804 0.0000 -0.5180 0.0000
# 2 -6.1040 82.5289 -14.6459 0.0000 -6.1607 0.0000
# 3 3.5804 -14.6459 96.9971 0.0000 5.8558 0.0000
# 4 0.0000 0.0000 0.0000 23.0882 0.0000 9.5545
# 5 -0.5180 -6.1607 5.8558 0.0000 21.2606 0.0000
# 6 0.0000 0.0000 0.0000 9.5545 0.0000 17.1817
#
#
#
# Elastic Compliance Matrix: (Units=1/GPa)
#
#
# Indices 1 2 3 4 5 6 
#
# 1 0.031209 0.002271 -0.000910 0.000000 0.001669 0.000000
# 2 0.002271 0.012826 0.001653 0.000000 0.003317 0.000000
# 3 -0.000910 0.001653 0.010744 0.000000 -0.002502 0.000000
# 4 0.000000 0.000000 0.000000 0.056258 0.000000 -0.031284
# 5 0.001669 0.003317 -0.002502 0.000000 0.048726 0.000000
# 6 0.000000 0.000000 0.000000 -0.031284 0.000000 0.075598
#
#
# Mechanical properties :
#
#
# Convention : Reuss Voigt Hill
#
# Bulk Modulus (GPa) = 16.44540 19.75611 18.10076
# Shear Modulus (GPa) = 20.03185 27.59368 23.81277
#
# Velocity S-wave (km/s) = 2.95867 3.47249 3.22583
# Velocity P-wave (km/s) = 4.34260 4.97100 4.66739
#
# Compressibility (1/GPa) = 0.06080726
#
# Stress axis : x y z
#
# Youngs Moduli (GPa) = 32.04171 77.96770 93.07715
#
# Poissons Ratio (x) = -0.17710 0.08468
# Poissons Ratio (y) = -0.07278 -0.15381
# Poissons Ratio (z) = 0.02915 -0.12884
#
# Static dielectric constant tensor:
#      x y z
#    x 3.516340 0.000000 0.197780 
#    y 0.000000 4.198790 0.000000 
#    z 0.197780 0.000000 4.211420 
# 
# 
# High freq. dielectric constant tensor:
#      x y z
#    x 1.850480 0.000000 0.021700 
#    y 0.000000 1.923510 0.000000 
#    z 0.021700 0.000000 1.908480 
# 
# From -- ./inp_files/61554.got.cif
#   From: 2010.03.12/outbox.cif.g09.slc.cpg/sg14_31_cif.got.tgz:61554.got - 2010.03.31 13:35:05.
