data_PCOD8125346
_publ_section_title
;
Structure prediction by ZEFSAII (Michael W. Deem and Ramdas Pophale) SiO2 
 PCOD8125346
Probable space group: P 21/C
;
_chemical_formula_sum "Si O2"
_cell_formula_units_Z 28
_cell_length_a 11.723236
_cell_length_b 12.849261
_cell_length_c 10.162791
_cell_angle_alpha 90.000000
_cell_angle_beta 108.864694
_cell_angle_gamma 90.000000
_cell_volume 1448.640116
_symmetry_space_group_name_H-M "P 21/C"
_symmetry_group_IT_number 14
_symmetry_cell_setting 'monoclinic'
loop_
_space_group_symop_operation_xyz
x,y,z
-x,1/2+y,1/2-z
-x,-y,-z
x,1/2-y,1/2+z
loop_
_atom_site_type_symbol
_atom_site_label
_atom_site_fract_x
_atom_site_fract_y
_atom_site_fract_z
Si Si1 0.171016 0.165619 0.935110
Si Si2 0.689572 0.153782 0.770391
Si Si3 0.433457 0.441843 0.798174
Si Si4 0.433717 0.393894 0.511969
Si Si5 0.595586 0.216512 0.469846
Si Si6 0.055828 0.954134 0.150453
Si Si7 0.183865 0.144702 0.251339
O O1 0.169597 0.273409 0.860085
O O2 0.050931 0.113856 0.827750
O O3 0.288723 0.098389 0.936432
O O4 0.166412 0.182619 0.092262
O O5 0.683143 0.211849 0.627886
O O6 0.671559 0.239577 0.876436
O O7 0.822928 0.108869 0.839872
O O8 0.582971 0.065304 0.737668
O O9 0.455795 0.375972 0.673993
O O10 0.546420 0.402774 0.929235
O O11 0.314139 0.403194 0.824126
O O12 0.500000 0.500000 0.500000
O O13 0.483980 0.294878 0.452358
O O14 0.089502 0.053028 0.252919
O O15 0.000000 0.000000 0.000000
#
# Coordination Sequence:
#
# PCOD8125346 Si02
#       7
#     4   4   4   4   4   4   4
#     4  10  20  38  62  84 112 157 197 244 288 357
#     4  11  24  38  61  88 123 161 198 249 303 363
#     4  10  20  39  57  87 123 162 196 245 304 369
#     4  11  21  36  61  90 118 156 199 245 306 365
#     4  12  22  37  60  91 122 153 202 248 306 357
#     4   9  21  41  60  82 116 161 201 238 296 358
#     4   9  19  36  60  83 114 153 201 237 300 354
#
# _framework density 19.328472000000001
#
# number of rings (size 3 to 8) (size 9 to 14) (size 15 to 20)
#    0.000    1.714    4.286    1.286    0.000    2.286 
#    0.000    0.714    0.000    0.000    0.000    0.000 
#    0.000    0.000    0.000    0.000    0.000    0.000 
#
# Total GULP energy -346902.471952 kJ/mol
# GULP energy per Si atom -12389.373998 kJ/mol
# Density = 1.928448 g / cm^3
# Si number density = 19.328472 Si / 1000 Ang^3
#
#
#
# Elastic Constant Matrix: (Units=GPa)
#
#
# Indices 1 2 3 4 5 6 
#
# 1 68.3413 13.2262 29.4571 0.0000 15.9462 0.0000
# 2 13.2262 62.5278 20.6550 0.0000 3.9002 0.0000
# 3 29.4571 20.6550 86.4131 0.0000 6.0409 0.0000
# 4 0.0000 0.0000 0.0000 34.5289 0.0000 0.5154
# 5 15.9462 3.9002 6.0409 0.0000 20.2924 0.0000
# 6 0.0000 0.0000 0.0000 0.5154 0.0000 30.6711
#
#
#
# Elastic Compliance Matrix: (Units=1/GPa)
#
#
# Indices 1 2 3 4 5 6 
#
# 1 0.020727 -0.001617 -0.005680 0.000000 -0.014286 0.000000
# 2 -0.001617 0.017582 -0.003578 0.000000 -0.001043 0.000000
# 3 -0.005680 -0.003578 0.014302 0.000000 0.000894 0.000000
# 4 0.000000 0.000000 0.000000 0.028968 0.000000 -0.000487
# 5 -0.014286 -0.001043 0.000894 0.000000 0.060440 0.000000
# 6 0.000000 0.000000 0.000000 -0.000487 0.000000 0.032612
#
#
# Mechanical properties :
#
#
# Convention : Reuss Voigt Hill
#
# Bulk Modulus (GPa) = 32.40513 38.21766 35.31140
# Shear Modulus (GPa) = 24.19322 27.36142 25.77732
#
# Velocity S-wave (km/s) = 3.54176 3.76653 3.65587
# Velocity P-wave (km/s) = 5.79028 6.22345 6.01077
#
# Compressibility (1/GPa) = 0.03085931
#
# Stress axis : x y z
#
# Youngs Moduli (GPa) = 48.24583 56.87618 69.92237
#
# Poissons Ratio (x) = 0.09196 0.39719
# Poissons Ratio (y) = 0.07800 0.25022
# Poissons Ratio (z) = 0.27406 0.20353
#
# Static dielectric constant tensor:
#      x y z
#    x 5.360360 0.000000 0.483100 
#    y 0.000000 3.652330 0.000000 
#    z 0.483100 0.000000 3.607390 
# 
# 
# High freq. dielectric constant tensor:
#      x y z
#    x 1.743970 0.000000 0.007380 
#    y 0.000000 1.753000 0.000000 
#    z 0.007380 0.000000 1.746600 
# 
# From -- ./inp_files/12984.got.cif
#   From: 2010.03.12/outbox.cif.g09.slc.cpg/sg14_7_cif.got.tgz:12984.got - 2010.03.31 13:35:05.
