data_PCOD8125477
_publ_section_title
;
Structure prediction by ZEFSAII (Michael W. Deem and Ramdas Pophale) SiO2 
 PCOD8125477
Probable space group: P 21/C
;
_chemical_formula_sum "Si O2"
_cell_formula_units_Z 24
_cell_length_a 23.061802
_cell_length_b 9.271073
_cell_length_c 10.842367
_cell_angle_alpha 90.000000
_cell_angle_beta 28.832516
_cell_angle_gamma 90.000000
_cell_volume 1117.944901
_symmetry_space_group_name_H-M "P 21/C"
_symmetry_group_IT_number 14
_symmetry_cell_setting 'monoclinic'
loop_
_space_group_symop_operation_xyz
x,y,z
-x,1/2+y,1/2-z
-x,-y,-z
x,1/2-y,1/2+z
loop_
_atom_site_type_symbol
_atom_site_label
_atom_site_fract_x
_atom_site_fract_y
_atom_site_fract_z
Si Si1 0.455146 0.858963 0.231149
Si Si2 0.244012 0.334743 0.600285
Si Si3 0.308736 0.439130 0.849118
Si Si4 0.463005 0.525402 0.208501
Si Si5 0.056899 0.078881 0.276792
Si Si6 0.076288 0.373949 0.136815
O O1 0.442133 0.690784 0.281720
O O2 0.352059 0.909073 0.326940
O O3 0.436934 0.950538 0.390918
O O4 0.590263 0.887496 0.933866
O O5 0.304560 0.180158 0.465124
O O6 0.338148 0.449198 0.474326
O O7 0.195767 0.396566 0.557107
O O8 0.139107 0.313252 0.896026
O O9 0.177385 0.455856 0.030974
O O10 0.500000 0.500000 0.000000
O O11 0.011815 0.242869 0.330922
O O12 0.000000 0.000000 0.500000
O O13 0.030328 0.984169 0.204097
#
# Coordination Sequence:
#
# PCOD8125477 Si02
#       6
#     4   4   4   4   4   4
#     4  11  24  37  60  93 127 168 213 254 304 379
#     4  10  20  39  62  92 123 167 205 257 317 373
#     4  10  21  39  62  87 125 167 208 253 317 368
#     4  12  24  39  62  93 131 167 214 258 311 373
#     4   9  21  39  63  92 120 161 212 259 316 376
#     4  10  20  40  66  88 125 163 202 264 318 372
#
# _framework density 21.467963000000001
#
# number of rings (size 3 to 8) (size 9 to 14) (size 15 to 20)
#    0.000    1.667    3.333    1.000    2.333    1.333 
#    0.000   12.500    0.000    0.000    0.000    0.000 
#    0.000    0.000    0.000    0.000    0.000    0.000 
#
# Total GULP energy -297394.187905 kJ/mol
# GULP energy per Si atom -12391.424496 kJ/mol
# Density = 2.141910 g / cm^3
# Si number density = 21.467963 Si / 1000 Ang^3
#
#
#
# Elastic Constant Matrix: (Units=GPa)
#
#
# Indices 1 2 3 4 5 6 
#
# 1 109.4962 62.4692 14.0436 0.0000 -8.9506 0.0000
# 2 62.4692 143.2842 18.8051 0.0000 -6.3687 0.0000
# 3 14.0436 18.8051 37.5919 0.0000 6.5511 0.0000
# 4 0.0000 0.0000 0.0000 29.4355 0.0000 -0.6833
# 5 -8.9506 -6.3687 6.5511 0.0000 29.0546 0.0000
# 6 0.0000 0.0000 0.0000 -0.6833 0.0000 45.3524
#
#
#
# Elastic Compliance Matrix: (Units=1/GPa)
#
#
# Indices 1 2 3 4 5 6 
#
# 1 0.012614 -0.004977 -0.002821 0.000000 0.003431 0.000000
# 2 -0.004977 0.009624 -0.003180 0.000000 0.001293 0.000000
# 3 -0.002821 -0.003180 0.030727 0.000000 -0.008494 0.000000
# 4 0.000000 0.000000 0.000000 0.033985 0.000000 0.000512
# 5 0.003431 0.001293 -0.008494 0.000000 0.037674 0.000000
# 6 0.000000 0.000000 0.000000 0.000512 0.000000 0.022057
#
#
# Mechanical properties :
#
#
# Convention : Reuss Voigt Hill
#
# Bulk Modulus (GPa) = 32.24911 53.44537 42.84724
# Shear Modulus (GPa) = 27.93723 33.77211 30.85467
#
# Velocity S-wave (km/s) = 3.61133 3.97059 3.79521
# Velocity P-wave (km/s) = 5.69592 6.78013 6.26154
#
# Compressibility (1/GPa) = 0.03100861
#
# Stress axis : x y z
#
# Youngs Moduli (GPa) = 79.27448 103.90807 32.54517
#
# Poissons Ratio (x) = 0.51714 0.09180
# Poissons Ratio (y) = 0.39454 0.10351
# Poissons Ratio (z) = 0.22361 0.33047
#
# Static dielectric constant tensor:
#      x y z
#    x 4.347900 0.000000 -0.130510 
#    y 0.000000 3.971390 0.000000 
#    z -0.130510 0.000000 3.555820 
# 
# 
# High freq. dielectric constant tensor:
#      x y z
#    x 1.871120 0.000000 -0.001440 
#    y 0.000000 1.840380 0.000000 
#    z -0.001440 0.000000 1.802020 
# 
# From -- ./inp_files/28202.got.cif
#   From: 2010.03.12/outbox.cif.g09.slc.cpg/sg14_15_cif.got.tgz:28202.got - 2010.03.31 13:35:05.
