data_PCOD8125556
_publ_section_title
;
Structure prediction by ZEFSAII (Michael W. Deem and Ramdas Pophale) SiO2 
 PCOD8125556
Probable space group: P 21/C
;
_chemical_formula_sum "Si O2"
_cell_formula_units_Z 28
_cell_length_a 17.362734
_cell_length_b 11.781611
_cell_length_c 20.502510
_cell_angle_alpha 90.000000
_cell_angle_beta 160.960823
_cell_angle_gamma 90.000000
_cell_volume 1368.148406
_symmetry_space_group_name_H-M "P 21/C"
_symmetry_group_IT_number 14
_symmetry_cell_setting 'monoclinic'
loop_
_space_group_symop_operation_xyz
x,y,z
-x,1/2+y,1/2-z
-x,-y,-z
x,1/2-y,1/2+z
loop_
_atom_site_type_symbol
_atom_site_label
_atom_site_fract_x
_atom_site_fract_y
_atom_site_fract_z
Si Si1 0.601792 0.918056 0.780417
Si Si2 0.859734 0.366519 0.293128
Si Si3 0.905162 0.897945 0.785573
Si Si4 0.308112 0.848933 0.200540
Si Si5 0.257105 0.221835 0.931979
Si Si6 0.715675 0.484681 0.503178
Si Si7 0.736591 0.254934 0.065004
O O1 0.396907 0.834227 0.593678
O O2 0.609652 0.019894 0.734141
O O3 0.548052 0.972876 0.808989
O O4 0.856077 0.854734 0.987436
O O5 0.785748 0.500901 0.231455
O O6 0.786087 0.315611 0.303435
O O7 0.715153 0.297418 0.122118
O O8 0.722116 0.799812 0.617155
O O9 0.024060 0.961688 0.818537
O O10 0.102579 0.830007 0.983775
O O11 0.519108 0.764866 0.346602
O O12 0.272303 0.086201 0.933645
O O13 0.012418 0.251340 0.770173
O O14 0.624264 0.371382 0.466504
#
# Coordination Sequence:
#
# PCOD8125556 Si02
#       7
#     4   4   4   4   4   4   4
#     4  10  21  37  60  88 118 150 199 244 295 339
#     4  10  20  40  59  91 117 147 197 244 292 347
#     4   9  19  36  57  87 115 150 194 238 291 338
#     4  10  22  36  63  88 120 147 193 249 288 343
#     4  11  21  36  56  87 117 151 194 234 293 344
#     4   9  21  36  53  86 116 148 195 240 280 349
#     4  11  22  37  60  86 118 156 193 241 296 347
#
# _framework density 20.465615
#
# number of rings (size 3 to 8) (size 9 to 14) (size 15 to 20)
#    0.000    2.286    2.857    2.571    8.000    3.429 
#    0.000    0.714    0.000    1.714    0.000    0.000 
#    0.000    0.000    0.000    0.000    0.000    0.000 
#
# Total GULP energy -346920.142833 kJ/mol
# GULP energy per Si atom -12390.005101 kJ/mol
# Density = 2.041903 g / cm^3
# Si number density = 20.465615 Si / 1000 Ang^3
#
#
#
# Elastic Constant Matrix: (Units=GPa)
#
#
# Indices 1 2 3 4 5 6 
#
# 1 42.9977 27.9959 24.7621 0.0000 -6.4457 0.0000
# 2 27.9959 123.7004 47.9647 0.0000 -16.1608 0.0000
# 3 24.7621 47.9647 78.5280 0.0000 -9.3847 0.0000
# 4 0.0000 0.0000 0.0000 36.3914 0.0000 -6.2782
# 5 -6.4457 -16.1608 -9.3847 0.0000 10.4615 0.0000
# 6 0.0000 0.0000 0.0000 -6.2782 0.0000 8.2758
#
#
#
# Elastic Compliance Matrix: (Units=1/GPa)
#
#
# Indices 1 2 3 4 5 6 
#
# 1 0.030382 -0.003296 -0.006652 0.000000 0.007661 0.000000
# 2 -0.003296 0.012441 -0.005046 0.000000 0.012661 0.000000
# 3 -0.006652 -0.005046 0.018473 0.000000 0.004678 0.000000
# 4 0.000000 0.000000 0.000000 0.031617 0.000000 0.023985
# 5 0.007661 0.012661 0.004678 0.000000 0.124064 0.000000
# 6 0.000000 0.000000 0.000000 0.023985 0.000000 0.139030
#
#
# Mechanical properties :
#
#
# Convention : Reuss Voigt Hill
#
# Bulk Modulus (GPa) = 31.94081 49.63018 40.78550
# Shear Modulus (GPa) = 12.61253 20.65928 16.63591
#
# Velocity S-wave (km/s) = 2.48519 3.18065 2.85418
# Velocity P-wave (km/s) = 4.88629 6.14751 5.55282
#
# Compressibility (1/GPa) = 0.03130791
#
# Stress axis : x y z
#
# Youngs Moduli (GPa) = 32.91402 80.38058 54.13276
#
# Poissons Ratio (x) = 0.26494 0.36007
# Poissons Ratio (y) = 0.10849 0.27318
# Poissons Ratio (z) = 0.21893 0.40563
#
# Static dielectric constant tensor:
#      x y z
#    x 3.478890 0.000000 -0.294340 
#    y 0.000000 4.018470 0.000000 
#    z -0.294340 0.000000 3.723780 
# 
# 
# High freq. dielectric constant tensor:
#      x y z
#    x 1.764530 0.000000 -0.022110 
#    y 0.000000 1.793020 0.000000 
#    z -0.022110 0.000000 1.798490 
# 
# From -- ./inp_files/69319.got.cif
#   From: 2010.03.12/outbox.cif.g09.slc.cpg/sg14_35_cif.got.tgz:69319.got - 2010.03.31 13:35:05.
