data_PCOD8125154
_publ_section_title
;
Structure prediction by ZEFSAII (Michael W. Deem and Ramdas Pophale) SiO2 
 PCOD8125154
Probable space group: P 21/C
;
_chemical_formula_sum "Si O2"
_cell_formula_units_Z 24
_cell_length_a 9.252900
_cell_length_b 8.981294
_cell_length_c 15.019160
_cell_angle_alpha 90.000000
_cell_angle_beta 90.091390
_cell_angle_gamma 90.000000
_cell_volume 1248.135895
_symmetry_space_group_name_H-M "P 21/C"
_symmetry_group_IT_number 14
_symmetry_cell_setting 'monoclinic'
loop_
_space_group_symop_operation_xyz
x,y,z
-x,1/2+y,1/2-z
-x,-y,-z
x,1/2-y,1/2+z
loop_
_atom_site_type_symbol
_atom_site_label
_atom_site_fract_x
_atom_site_fract_y
_atom_site_fract_z
Si Si1 0.682907 0.403845 0.924826
Si Si2 0.157520 0.608090 0.587953
Si Si3 0.652272 0.619287 0.077973
Si Si4 0.639009 0.075354 0.749075
Si Si5 0.650386 0.418804 0.726047
Si Si6 0.825417 0.919188 0.083836
O O1 0.784653 0.265239 0.948888
O O2 0.517431 0.350566 0.935038
O O3 0.711219 0.459178 0.824211
O O4 0.718277 0.538973 0.991109
O O5 0.233550 0.561727 0.679532
O O6 0.188625 0.481537 0.515587
O O7 0.988548 0.623490 0.607568
O O8 0.683954 0.517292 0.162970
O O9 0.728183 0.774734 0.092687
O O10 0.611843 0.244882 0.719786
O O11 0.493621 0.012928 0.793943
O O12 0.771839 0.457859 0.654170
#
# Coordination Sequence:
#
# PCOD8125154 Si02
#       6
#     4   4   4   4   4   4
#     4   9  20  39  59  83 110 141 185 231 275 325
#     4  10  23  39  54  79 114 151 186 223 271 327
#     4  10  21  37  61  86 109 143 184 230 280 326
#     4  10  21  37  60  85 110 142 183 231 276 324
#     4  10  20  37  59  84 111 141 183 229 273 326
#     4  11  23  37  55  81 114 150 185 223 273 329
#
# _framework density 19.228674999999999
#
# number of rings (size 3 to 8) (size 9 to 14) (size 15 to 20)
#    0.000    2.000    0.000    4.000    0.000   11.333 
#    0.000    3.333    0.000    0.000    0.000    0.000 
#    0.000    0.000    0.000    0.000    0.000    0.000 
#
# Total GULP energy -297710.723554 kJ/mol
# GULP energy per Si atom -12404.613481 kJ/mol
# Density = 1.918491 g / cm^3
# Si number density = 19.228675 Si / 1000 Ang^3
#
#
#
# Elastic Constant Matrix: (Units=GPa)
#
#
# Indices 1 2 3 4 5 6 
#
# 1 101.9668 57.4564 38.2358 0.0000 4.2710 0.0000
# 2 57.4564 111.8279 36.9001 0.0000 0.3083 0.0000
# 3 38.2358 36.9001 71.2922 0.0000 1.1795 0.0000
# 4 0.0000 0.0000 0.0000 29.7315 0.0000 1.2478
# 5 4.2710 0.3083 1.1795 0.0000 25.9712 0.0000
# 6 0.0000 0.0000 0.0000 1.2478 0.0000 22.5112
#
#
#
# Elastic Compliance Matrix: (Units=1/GPa)
#
#
# Indices 1 2 3 4 5 6 
#
# 1 0.015240 -0.006198 -0.004929 0.000000 -0.002209 0.000000
# 2 -0.006198 0.013305 -0.003579 0.000000 0.001024 0.000000
# 3 -0.004929 -0.003579 0.018523 0.000000 0.000012 0.000000
# 4 0.000000 0.000000 0.000000 0.033713 0.000000 -0.001869
# 5 -0.002209 0.001024 0.000012 0.000000 0.038855 0.000000
# 6 0.000000 0.000000 0.000000 -0.001869 0.000000 0.044526
#
#
# Mechanical properties :
#
#
# Convention : Reuss Voigt Hill
#
# Bulk Modulus (GPa) = 56.64043 61.14130 58.89086
# Shear Modulus (GPa) = 25.06768 25.80908 25.43838
#
# Velocity S-wave (km/s) = 3.61454 3.66760 3.64117
# Velocity P-wave (km/s) = 6.85128 7.05699 6.95489
#
# Compressibility (1/GPa) = 0.01765523
#
# Stress axis : x y z
#
# Youngs Moduli (GPa) = 65.61510 75.15983 53.98690
#
# Poissons Ratio (x) = 0.46582 0.26612
# Poissons Ratio (y) = 0.40667 0.19324
# Poissons Ratio (z) = 0.32344 0.26903
#
# Static dielectric constant tensor:
#      x y z
#    x 3.433190 0.000000 -0.048240 
#    y 0.000000 3.522310 0.000000 
#    z -0.048240 0.000000 3.649970 
# 
# 
# High freq. dielectric constant tensor:
#      x y z
#    x 1.738840 0.000000 -0.002630 
#    y 0.000000 1.754940 0.000000 
#    z -0.002630 0.000000 1.759820 
# 
# From -- ./inp_files/38982.got.cif
#   From: 2010.03.12/outbox.cif.g09.slc.cpg/sg14_20_cif.got.tgz:38982.got - 2010.03.31 13:35:05.
