data_PCOD8125846
_publ_section_title
;
Structure prediction by ZEFSAII (Michael W. Deem and Ramdas Pophale) SiO2 
 PCOD8125846
Probable space group: P 21/C
;
_chemical_formula_sum "Si O2"
_cell_formula_units_Z 24
_cell_length_a 18.538747
_cell_length_b 9.193378
_cell_length_c 14.801642
_cell_angle_alpha 90.000000
_cell_angle_beta 154.510334
_cell_angle_gamma 90.000000
_cell_volume 1085.639109
_symmetry_space_group_name_H-M "P 21/C"
_symmetry_group_IT_number 14
_symmetry_cell_setting 'monoclinic'
loop_
_space_group_symop_operation_xyz
x,y,z
-x,1/2+y,1/2-z
-x,-y,-z
x,1/2-y,1/2+z
loop_
_atom_site_type_symbol
_atom_site_label
_atom_site_fract_x
_atom_site_fract_y
_atom_site_fract_z
Si Si1 0.470860 0.402134 0.861016
Si Si2 0.193706 0.555516 0.319327
Si Si3 0.530236 0.842856 0.840243
Si Si4 0.293716 0.135060 0.332153
Si Si5 0.974822 0.279545 0.020634
Si Si6 0.766513 0.327664 0.446547
O O1 0.479028 0.312464 0.778020
O O2 0.390613 0.305676 0.851397
O O3 0.351651 0.541591 0.716772
O O4 0.656555 0.464163 0.098310
O O5 0.388367 0.500036 0.543777
O O6 0.145177 0.633393 0.358494
O O7 0.070435 0.421089 0.164937
O O8 0.174328 0.670317 0.215545
O O9 0.343004 0.821648 0.667868
O O10 0.649520 0.718465 0.013772
O O11 0.095494 0.167998 0.101376
O O12 0.906465 0.194195 0.029546
#
# Coordination Sequence:
#
# PCOD8125846 Si02
#       6
#     4   4   4   4   4   4
#     4   9  19  37  56  81 113 146 192 230 269 335
#     4   9  21  39  54  80 115 144 186 230 279 345
#     4   9  19  37  57  78 108 146 185 230 277 329
#     4   9  19  35  57  81 111 149 184 230 279 326
#     4  10  21  37  57  83 115 148 182 231 289 335
#     4  10  21  35  57  83 108 145 187 230 281 336
#
# _framework density 22.106795000000002
#
# number of rings (size 3 to 8) (size 9 to 14) (size 15 to 20)
#    0.000    2.667    0.000    0.000    0.000   10.667 
#    0.000   11.667    0.000    0.000    0.000    0.000 
#    0.000    0.000    0.000    0.000    0.000    0.000 
#
# Total GULP energy -297415.199930 kJ/mol
# GULP energy per Si atom -12392.299997 kJ/mol
# Density = 2.205648 g / cm^3
# Si number density = 22.106795 Si / 1000 Ang^3
#
#
#
# Elastic Constant Matrix: (Units=GPa)
#
#
# Indices 1 2 3 4 5 6 
#
# 1 137.8673 36.5900 28.6949 0.0000 -1.8543 0.0000
# 2 36.5900 46.2022 12.1429 0.0000 4.4382 0.0000
# 3 28.6949 12.1429 51.8807 0.0000 -7.2722 0.0000
# 4 0.0000 0.0000 0.0000 22.5023 0.0000 -1.8540
# 5 -1.8543 4.4382 -7.2722 0.0000 41.0547 0.0000
# 6 0.0000 0.0000 0.0000 -1.8540 0.0000 40.7079
#
#
#
# Elastic Compliance Matrix: (Units=1/GPa)
#
#
# Indices 1 2 3 4 5 6 
#
# 1 0.009871 -0.006875 -0.003778 0.000000 0.000520 0.000000
# 2 -0.006875 0.028362 -0.003394 0.000000 -0.003978 0.000000
# 3 -0.003778 -0.003394 0.022751 0.000000 0.004226 0.000000
# 4 0.000000 0.000000 0.000000 0.044607 0.000000 0.002032
# 5 0.000520 -0.003978 0.004226 0.000000 0.025560 0.000000
# 6 0.000000 0.000000 0.000000 0.002032 0.000000 0.024658
#
#
# Mechanical properties :
#
#
# Convention : Reuss Voigt Hill
#
# Bulk Modulus (GPa) = 30.40186 43.42286 36.91236
# Shear Modulus (GPa) = 25.65869 31.42114 28.53991
#
# Velocity S-wave (km/s) = 3.41056 3.77415 3.59695
# Velocity P-wave (km/s) = 5.41215 6.21910 5.82960
#
# Compressibility (1/GPa) = 0.03289273
#
# Stress axis : x y z
#
# Youngs Moduli (GPa) = 101.30561 35.25802 43.95379
#
# Poissons Ratio (x) = 0.24238 0.16605
# Poissons Ratio (y) = 0.69643 0.14916
# Poissons Ratio (z) = 0.38271 0.11965
#
# Static dielectric constant tensor:
#      x y z
#    x 4.144560 0.000000 -0.184520 
#    y 0.000000 3.889670 0.000000 
#    z -0.184520 0.000000 4.260910 
# 
# 
# High freq. dielectric constant tensor:
#      x y z
#    x 1.870220 0.000000 -0.020470 
#    y 0.000000 1.845940 0.000000 
#    z -0.020470 0.000000 1.872500 
# 
# From -- ./inp_files/48646.got.cif
#   From: 2010.03.12/outbox.cif.g09.slc.cpg/sg14_25_cif.got.tgz:48646.got - 2010.03.31 13:35:05.
