data_PCOD8125307
_publ_section_title
;
Structure prediction by ZEFSAII (Michael W. Deem and Ramdas Pophale) SiO2 
 PCOD8125307
Probable space group: P 21/C
;
_chemical_formula_sum "Si O2"
_cell_formula_units_Z 32
_cell_length_a 13.026842
_cell_length_b 8.331135
_cell_length_c 30.570574
_cell_angle_alpha 90.000000
_cell_angle_beta 27.147004
_cell_angle_gamma 90.000000
_cell_volume 1513.817925
_symmetry_space_group_name_H-M "P 21/C"
_symmetry_group_IT_number 14
_symmetry_cell_setting 'monoclinic'
loop_
_space_group_symop_operation_xyz
x,y,z
-x,1/2+y,1/2-z
-x,-y,-z
x,1/2-y,1/2+z
loop_
_atom_site_type_symbol
_atom_site_label
_atom_site_fract_x
_atom_site_fract_y
_atom_site_fract_z
Si Si1 0.448352 0.317765 0.285739
Si Si2 0.088403 0.280298 0.359041
Si Si3 0.973324 0.048917 0.727752
Si Si4 0.442741 0.346512 0.049134
Si Si5 0.621493 0.194019 0.573215
Si Si6 0.371157 0.018170 0.208872
Si Si7 0.262982 0.520070 0.887377
Si Si8 0.140119 0.807244 0.141580
O O1 0.252905 0.388801 0.327077
O O2 0.456396 0.410589 0.328705
O O3 0.685493 0.339401 0.168724
O O4 0.380993 0.136649 0.322680
O O5 0.215554 0.113803 0.301494
O O6 0.880593 0.228055 0.466924
O O7 0.013321 0.363390 0.341707
O O8 0.875704 0.063537 0.813891
O O9 0.174831 0.179692 0.645795
O O10 0.782410 0.092466 0.764700
O O11 0.057183 0.867290 0.689053
O O12 0.497339 0.384582 0.078998
O O13 0.500000 0.500000 0.000000
O O14 0.597893 0.199903 0.973221
O O15 0.508177 0.363609 0.625961
O O16 0.599328 0.070021 0.621465
O O17 0.000000 0.500000 0.000000
#
# Coordination Sequence:
#
# PCOD8125307 Si02
#       8
#     4   4   4   4   4   4   4   4
#     4  12  23  42  65  96 130 171 217 272 318 391
#     4  10  20  40  64  86 126 166 212 261 321 384
#     4  10  20  38  60  86 121 159 202 255 313 365
#     4   9  19  35  63  88 117 162 209 250 308 387
#     4  11  21  41  67  91 125 175 211 261 341 383
#     4  11  23  41  60  93 133 165 213 272 318 390
#     4  12  24  43  68  95 130 170 220 271 323 394
#     4   9  20  37  62  87 117 160 206 258 312 377
#
# _framework density 21.138605999999999
#
# number of rings (size 3 to 8) (size 9 to 14) (size 15 to 20)
#    0.000    1.500    3.750    2.250    0.000    2.500 
#    2.250    5.625    0.000    0.000    0.000    0.000 
#    0.000    0.000    0.000    0.000    0.000    0.000 
#
# Total GULP energy -396520.437542 kJ/mol
# GULP energy per Si atom -12391.263673 kJ/mol
# Density = 2.109049 g / cm^3
# Si number density = 21.138606 Si / 1000 Ang^3
#
#
#
# Elastic Constant Matrix: (Units=GPa)
#
#
# Indices 1 2 3 4 5 6 
#
# 1 202.7063 44.4559 74.2843 0.0000 -10.8495 0.0000
# 2 44.4559 48.7806 37.3705 0.0000 4.7851 0.0000
# 3 74.2843 37.3705 165.8025 0.0000 -12.2373 0.0000
# 4 0.0000 0.0000 0.0000 28.6126 0.0000 9.9701
# 5 -10.8495 4.7851 -12.2373 0.0000 43.0406 0.0000
# 6 0.0000 0.0000 0.0000 9.9701 0.0000 34.8313
#
#
#
# Elastic Compliance Matrix: (Units=1/GPa)
#
#
# Indices 1 2 3 4 5 6 
#
# 1 0.006772 -0.004978 -0.001783 0.000000 0.001754 0.000000
# 2 -0.004978 0.029296 -0.004807 0.000000 -0.005878 0.000000
# 3 -0.001783 -0.004807 0.008089 0.000000 0.002385 0.000000
# 4 0.000000 0.000000 0.000000 0.038822 0.000000 -0.011112
# 5 0.001754 -0.005878 0.002385 0.000000 0.025008 0.000000
# 6 0.000000 0.000000 0.000000 -0.011112 0.000000 0.031891
#
#
# Mechanical properties :
#
#
# Convention : Reuss Voigt Hill
#
# Bulk Modulus (GPa) = 47.56806 81.05676 64.31241
# Shear Modulus (GPa) = 29.40846 38.70880 34.05863
#
# Velocity S-wave (km/s) = 3.73395 4.28388 4.01834
# Velocity P-wave (km/s) = 6.41418 7.93079 7.21246
#
# Compressibility (1/GPa) = 0.02102251
#
# Stress axis : x y z
#
# Youngs Moduli (GPa) = 147.66372 34.13484 123.61956
#
# Poissons Ratio (x) = 0.16993 0.22037
# Poissons Ratio (y) = 0.73508 0.59418
# Poissons Ratio (z) = 0.26323 0.16407
#
# Static dielectric constant tensor:
#      x y z
#    x 4.038830 0.000000 -0.200440 
#    y 0.000000 3.338430 0.000000 
#    z -0.200440 0.000000 4.238730 
# 
# 
# High freq. dielectric constant tensor:
#      x y z
#    x 1.851300 0.000000 0.007710 
#    y 0.000000 1.778380 0.000000 
#    z 0.007710 0.000000 1.844220 
# 
# From -- ./inp_files/79983.got.cif
#   From: 2010.03.12/outbox.cif.g09.slc.cpg/sg14_40_cif.got.tgz:79983.got - 2010.03.31 13:35:05.
