data_PCOD8125443
_publ_section_title
;
Structure prediction by ZEFSAII (Michael W. Deem and Ramdas Pophale) SiO2 
 PCOD8125443
Probable space group: P 21/C
;
_chemical_formula_sum "Si O2"
_cell_formula_units_Z 28
_cell_length_a 21.601252
_cell_length_b 9.787958
_cell_length_c 16.116906
_cell_angle_alpha 90.000000
_cell_angle_beta 23.179498
_cell_angle_gamma 90.000000
_cell_volume 1341.288246
_symmetry_space_group_name_H-M "P 21/C"
_symmetry_group_IT_number 14
_symmetry_cell_setting 'monoclinic'
loop_
_space_group_symop_operation_xyz
x,y,z
-x,1/2+y,1/2-z
-x,-y,-z
x,1/2-y,1/2+z
loop_
_atom_site_type_symbol
_atom_site_label
_atom_site_fract_x
_atom_site_fract_y
_atom_site_fract_z
Si Si1 0.823843 0.549628 0.222337
Si Si2 0.166683 0.513394 0.612204
Si Si3 0.796407 0.984952 0.576112
Si Si4 0.672711 0.230849 0.201705
Si Si5 0.342901 0.245262 0.855675
Si Si6 0.663432 0.815955 0.449874
Si Si7 0.601781 0.082000 0.441475
O O1 0.755962 0.481392 0.390191
O O2 0.808890 0.715221 0.248992
O O3 0.738621 0.502366 0.243122
O O4 0.000000 0.500000 0.000000
O O5 0.254307 0.624863 0.451476
O O6 0.199736 0.363086 0.534662
O O7 0.981654 0.542565 0.840213
O O8 0.701385 0.860746 0.654821
O O9 0.753097 0.124906 0.584139
O O10 0.487460 0.242989 0.412972
O O11 0.708175 0.182858 0.253588
O O12 0.371275 0.316630 0.909300
O O13 0.499756 0.168231 0.632390
O O14 0.702159 0.970422 0.370732
O O15 0.500000 0.000000 0.500000
#
# Coordination Sequence:
#
# PCOD8125443 Si02
#       7
#     4   4   4   4   4   4   4
#     4   9  21  40  63  87 123 166 208 258 319 374
#     4  10  21  42  62  83 130 171 200 261 324 377
#     4  11  23  38  62  95 118 162 223 256 312 386
#     4  11  23  38  63  94 125 164 211 265 318 378
#     4  11  22  38  66  89 126 164 206 264 317 377
#     4  10  22  38  63  93 126 162 212 258 323 375
#     4  10  20  39  60  89 124 163 198 260 322 368
#
# _framework density 20.875451999999999
#
# number of rings (size 3 to 8) (size 9 to 14) (size 15 to 20)
#    0.000    1.714    2.857    2.571    2.000    3.429 
#    0.000    0.000    0.000    3.429    0.000    0.000 
#    0.000    0.000    0.000    0.000    0.000    0.000 
#
# Total GULP energy -347042.046469 kJ/mol
# GULP energy per Si atom -12394.358802 kJ/mol
# Density = 2.082794 g / cm^3
# Si number density = 20.875452 Si / 1000 Ang^3
#
#
#
# Elastic Constant Matrix: (Units=GPa)
#
#
# Indices 1 2 3 4 5 6 
#
# 1 104.0522 59.5365 33.6698 0.0000 22.9068 0.0000
# 2 59.5365 133.2061 48.4674 0.0000 9.9213 0.0000
# 3 33.6698 48.4674 80.4822 0.0000 15.5180 0.0000
# 4 0.0000 0.0000 0.0000 20.7082 0.0000 -5.1123
# 5 22.9068 9.9213 15.5180 0.0000 31.8723 0.0000
# 6 0.0000 0.0000 0.0000 -5.1123 0.0000 38.9660
#
#
#
# Elastic Compliance Matrix: (Units=1/GPa)
#
#
# Indices 1 2 3 4 5 6 
#
# 1 0.015137 -0.005666 -0.001283 0.000000 -0.008491 0.000000
# 2 -0.005666 0.011736 -0.005273 0.000000 0.002986 0.000000
# 3 -0.001283 -0.005273 0.017264 0.000000 -0.005842 0.000000
# 4 0.000000 0.000000 0.000000 0.049906 0.000000 0.006548
# 5 -0.008491 0.002986 -0.005842 0.000000 0.039392 0.000000
# 6 0.000000 0.000000 0.000000 0.006548 0.000000 0.026522
#
#
# Mechanical properties :
#
#
# Convention : Reuss Voigt Hill
#
# Bulk Modulus (GPa) = 50.78212 66.78755 58.78483
# Shear Modulus (GPa) = 26.18268 30.04708 28.11488
#
# Velocity S-wave (km/s) = 3.54536 3.79799 3.67385
# Velocity P-wave (km/s) = 6.41393 7.16211 6.79832
#
# Compressibility (1/GPa) = 0.01969197
#
# Stress axis : x y z
#
# Youngs Moduli (GPa) = 66.06300 85.20949 57.92510
#
# Poissons Ratio (x) = 0.48282 0.07433
# Poissons Ratio (y) = 0.37433 0.30543
# Poissons Ratio (z) = 0.08478 0.44929
#
# Static dielectric constant tensor:
#      x y z
#    x 4.133680 0.000000 0.472120 
#    y 0.000000 3.982000 0.000000 
#    z 0.472120 0.000000 3.815580 
# 
# 
# High freq. dielectric constant tensor:
#      x y z
#    x 1.815580 0.000000 0.031050 
#    y 0.000000 1.825370 0.000000 
#    z 0.031050 0.000000 1.804880 
# 
# From -- ./inp_files/50221.got.cif
#   From: 2010.03.12/outbox.cif.g09.slc.cpg/sg14_26_cif.got.tgz:50221.got - 2010.03.31 13:35:05.
