data_PCOD8125666
_publ_section_title
;
Structure prediction by ZEFSAII (Michael W. Deem and Ramdas Pophale) SiO2 
 PCOD8125666
Probable space group: P 21/C
;
_chemical_formula_sum "Si O2"
_cell_formula_units_Z 32
_cell_length_a 12.200069
_cell_length_b 9.356904
_cell_length_c 13.437221
_cell_angle_alpha 90.000000
_cell_angle_beta 90.057443
_cell_angle_gamma 90.000000
_cell_volume 1533.923505
_symmetry_space_group_name_H-M "P 21/C"
_symmetry_group_IT_number 14
_symmetry_cell_setting 'monoclinic'
loop_
_space_group_symop_operation_xyz
x,y,z
-x,1/2+y,1/2-z
-x,-y,-z
x,1/2-y,1/2+z
loop_
_atom_site_type_symbol
_atom_site_label
_atom_site_fract_x
_atom_site_fract_y
_atom_site_fract_z
Si Si1 0.759457 0.446147 0.990213
Si Si2 0.208494 0.449303 0.318708
Si Si3 0.753254 0.376930 0.302610
Si Si4 0.441440 0.765448 0.810433
Si Si5 0.298131 0.639015 0.476305
Si Si6 0.594941 0.501227 0.825802
Si Si7 0.170051 0.123173 0.328463
Si Si8 0.085241 0.883838 0.675363
O O1 0.640516 0.461759 0.935401
O O2 0.860223 0.471375 0.915381
O O3 0.768297 0.287554 0.035765
O O4 0.767432 0.562178 0.076025
O O5 0.226591 0.509798 0.429730
O O6 0.303424 0.509319 0.248576
O O7 0.214509 0.280652 0.312869
O O8 0.096854 0.518143 0.274545
O O9 0.667412 0.318869 0.222553
O O10 0.687575 0.396300 0.406849
O O11 0.801405 0.529063 0.268198
O O12 0.855557 0.269333 0.312876
O O13 0.413607 0.844189 0.916023
O O14 0.538644 0.654408 0.829715
O O15 0.481797 0.876453 0.723379
O O16 0.041381 0.135096 0.348262
#
# Coordination Sequence:
#
# PCOD8125666 Si02
#       8
#     4   4   4   4   4   4   4   4
#     4  10  20  41  62  91 128 160 214 262 318 384
#     4  10  22  41  59  92 137 155 211 274 309 372
#     4  11  22  42  66  91 131 171 212 262 320 385
#     4  11  21  43  67  91 126 168 213 260 326 381
#     4  10  20  42  65  86 130 171 199 261 324 376
#     4  10  23  41  66  91 124 167 206 268 319 380
#     4  12  23  36  65  96 123 171 217 259 314 384
#     4  10  20  42  64  87 125 175 209 263 322 369
#
# _framework density 20.861535
#
# number of rings (size 3 to 8) (size 9 to 14) (size 15 to 20)
#    0.000    1.500    6.250    1.125    1.750    2.500 
#    2.250    9.375    0.000    0.000    0.000    0.000 
#    0.000    0.000    0.000    0.000    0.000    0.000 
#
# Total GULP energy -396699.021598 kJ/mol
# GULP energy per Si atom -12396.844425 kJ/mol
# Density = 2.081405 g / cm^3
# Si number density = 20.861535 Si / 1000 Ang^3
#
#
#
# Elastic Constant Matrix: (Units=GPa)
#
#
# Indices 1 2 3 4 5 6 
#
# 1 46.1911 16.0967 25.1322 0.0000 6.4553 0.0000
# 2 16.0967 140.0302 47.9462 0.0000 10.6428 0.0000
# 3 25.1322 47.9462 107.3052 0.0000 5.0253 0.0000
# 4 0.0000 0.0000 0.0000 28.7207 0.0000 -1.4535
# 5 6.4553 10.6428 5.0253 0.0000 15.8394 0.0000
# 6 0.0000 0.0000 0.0000 -1.4535 0.0000 26.0755
#
#
#
# Elastic Compliance Matrix: (Units=1/GPa)
#
#
# Indices 1 2 3 4 5 6 
#
# 1 0.025985 -0.000462 -0.005480 0.000000 -0.008542 0.000000
# 2 -0.000462 0.008773 -0.003598 0.000000 -0.004565 0.000000
# 3 -0.005480 -0.003598 0.012173 0.000000 0.000789 0.000000
# 4 0.000000 0.000000 0.000000 0.034917 0.000000 0.001946
# 5 -0.008542 -0.004565 0.000789 0.000000 0.069432 0.000000
# 6 0.000000 0.000000 0.000000 0.001946 0.000000 0.038459
#
#
# Mechanical properties :
#
#
# Convention : Reuss Voigt Hill
#
# Bulk Modulus (GPa) = 35.90290 52.43073 44.16681
# Shear Modulus (GPa) = 22.92497 27.75056 25.33776
#
# Velocity S-wave (km/s) = 3.31858 3.65118 3.48885
# Velocity P-wave (km/s) = 5.65079 6.55455 6.11938
#
# Compressibility (1/GPa) = 0.02785291
#
# Stress axis : x y z
#
# Youngs Moduli (GPa) = 38.48340 113.98112 82.14588
#
# Poissons Ratio (x) = 0.05261 0.45014
# Poissons Ratio (y) = 0.01776 0.29558
# Poissons Ratio (z) = 0.21088 0.41013
#
# Static dielectric constant tensor:
#      x y z
#    x 3.484540 0.000000 0.049210 
#    y 0.000000 3.828820 0.000000 
#    z 0.049210 0.000000 3.959710 
# 
# 
# High freq. dielectric constant tensor:
#      x y z
#    x 1.789810 0.000000 0.001660 
#    y 0.000000 1.820790 0.000000 
#    z 0.001660 0.000000 1.823490 
# 
# From -- ./inp_files/43436.got.cif
#   From: 2010.03.12/outbox.cif.g09.slc.cpg/sg14_22_cif.got.tgz:43436.got - 2010.03.31 13:35:05.
