data_PCOD8125088
_publ_section_title
;
Structure prediction by ZEFSAII (Michael W. Deem and Ramdas Pophale) SiO2 
 PCOD8125088
Probable space group: P 21/C
;
_chemical_formula_sum "Si O2"
_cell_formula_units_Z 32
_cell_length_a 21.093483
_cell_length_b 9.936542
_cell_length_c 21.129257
_cell_angle_alpha 90.000000
_cell_angle_beta 158.700248
_cell_angle_gamma 90.000000
_cell_volume 1608.681502
_symmetry_space_group_name_H-M "P 21/C"
_symmetry_group_IT_number 14
_symmetry_cell_setting 'monoclinic'
loop_
_space_group_symop_operation_xyz
x,y,z
-x,1/2+y,1/2-z
-x,-y,-z
x,1/2-y,1/2+z
loop_
_atom_site_type_symbol
_atom_site_label
_atom_site_fract_x
_atom_site_fract_y
_atom_site_fract_z
Si Si1 0.935992 0.294428 0.255379
Si Si2 0.989644 0.482777 0.187741
Si Si3 0.671128 0.584429 0.570505
Si Si4 0.792551 0.374682 0.778973
Si Si5 0.311401 0.512026 0.188942
Si Si6 0.130885 0.267890 0.053899
Si Si7 0.312836 0.155486 0.332416
Si Si8 0.334623 0.873444 0.402937
O O1 0.979564 0.405324 0.244320
O O2 0.736854 0.316459 0.095952
O O3 0.964629 0.140695 0.258310
O O4 0.066565 0.324856 0.436008
O O5 0.144553 0.411632 0.293273
O O6 0.800273 0.461679 0.978675
O O7 0.666099 0.470469 0.620189
O O8 0.514790 0.556215 0.374468
O O9 0.635209 0.725918 0.571388
O O10 0.780886 0.404701 0.841458
O O11 0.741499 0.218519 0.723894
O O12 0.988607 0.388382 0.933457
O O13 0.305658 0.351438 0.198820
O O14 0.145305 0.189120 0.133388
O O15 0.457181 0.127187 0.411879
O O16 0.268031 0.025924 0.332493
#
# Coordination Sequence:
#
# PCOD8125088 Si02
#       8
#     4   4   4   4   4   4   4   4
#     4  10  24  45  61  82 125 171 209 260 300 361
#     4  11  25  45  60  91 123 170 220 253 302 371
#     4  12  21  37  68  96 120 163 203 261 311 382
#     4  11  18  36  60  94 123 152 204 252 323 372
#     4  11  20  36  64  93 124 159 206 259 308 369
#     4  10  20  36  63  91 124 164 198 261 319 375
#     4  11  22  36  62  99 129 158 202 257 337 376
#     4  10  22  40  58  89 136 160 196 270 313 371
#
# _framework density 19.892066
#
# number of rings (size 3 to 8) (size 9 to 14) (size 15 to 20)
#    0.000    1.250    6.250    2.250    1.750    2.000 
#    4.500    0.000    0.000    0.000    0.000    0.000 
#    0.000    0.000    0.000    0.000    0.000    0.000 
#
# Total GULP energy -396561.133910 kJ/mol
# GULP energy per Si atom -12392.535435 kJ/mol
# Density = 1.984679 g / cm^3
# Si number density = 19.892066 Si / 1000 Ang^3
#
#
#
# Elastic Constant Matrix: (Units=GPa)
#
#
# Indices 1 2 3 4 5 6 
#
# 1 82.3479 38.0243 26.6039 0.0000 -0.4224 0.0000
# 2 38.0243 122.5209 35.7937 0.0000 -4.0179 0.0000
# 3 26.6039 35.7937 83.8415 0.0000 -2.3650 0.0000
# 4 0.0000 0.0000 0.0000 14.8902 0.0000 0.0248
# 5 -0.4224 -4.0179 -2.3650 0.0000 21.3735 0.0000
# 6 0.0000 0.0000 0.0000 0.0248 0.0000 33.5692
#
#
#
# Elastic Compliance Matrix: (Units=1/GPa)
#
#
# Indices 1 2 3 4 5 6 
#
# 1 0.014876 -0.003720 -0.003153 0.000000 -0.000754 0.000000
# 2 -0.003720 0.010292 -0.003171 0.000000 0.001510 0.000000
# 3 -0.003153 -0.003171 0.014308 0.000000 0.000925 0.000000
# 4 0.000000 0.000000 0.000000 0.067158 0.000000 -0.000050
# 5 -0.000754 0.001510 0.000925 0.000000 0.047158 0.000000
# 6 0.000000 0.000000 0.000000 -0.000050 0.000000 0.029789
#
#
# Mechanical properties :
#
#
# Convention : Reuss Voigt Hill
#
# Bulk Modulus (GPa) = 51.58079 54.39490 52.98784
# Shear Modulus (GPa) = 23.79434 26.51914 25.15674
#
# Velocity S-wave (km/s) = 3.46232 3.65520 3.56007
# Velocity P-wave (km/s) = 6.47844 6.72446 6.60260
#
# Compressibility (1/GPa) = 0.01938706
#
# Stress axis : x y z
#
# Youngs Moduli (GPa) = 67.22061 97.15923 69.89238
#
# Poissons Ratio (x) = 0.36147 0.22040
# Poissons Ratio (y) = 0.25008 0.22162
# Poissons Ratio (z) = 0.21198 0.30808
#
# Static dielectric constant tensor:
#      x y z
#    x 3.421290 0.000000 0.101320 
#    y 0.000000 3.623930 0.000000 
#    z 0.101320 0.000000 3.770320 
# 
# 
# High freq. dielectric constant tensor:
#      x y z
#    x 1.749310 0.000000 0.008360 
#    y 0.000000 1.775540 0.000000 
#    z 0.008360 0.000000 1.777560 
# 
# From -- ./inp_files/74930.got.cif
#   From: 2010.03.12/outbox.cif.g09.slc.cpg/sg14_38_cif.got.tgz:74930.got - 2010.03.31 13:35:05.
