data_PCOD8125087
_publ_section_title
;
Structure prediction by ZEFSAII (Michael W. Deem and Ramdas Pophale) SiO2 
 PCOD8125087
Probable space group: P 21/C
;
_chemical_formula_sum "Si O2"
_cell_formula_units_Z 28
_cell_length_a 7.184185
_cell_length_b 16.161372
_cell_length_c 19.429208
_cell_angle_alpha 90.000000
_cell_angle_beta 155.778128
_cell_angle_gamma 90.000000
_cell_volume 925.511583
_symmetry_space_group_name_H-M "P 21/C"
_symmetry_group_IT_number 14
_symmetry_cell_setting 'monoclinic'
loop_
_space_group_symop_operation_xyz
x,y,z
-x,1/2+y,1/2-z
-x,-y,-z
x,1/2-y,1/2+z
loop_
_atom_site_type_symbol
_atom_site_label
_atom_site_fract_x
_atom_site_fract_y
_atom_site_fract_z
Si Si1 0.098290 0.714884 0.472396
Si Si2 0.276848 0.592224 0.902531
Si Si3 0.626640 0.018208 0.695569
Si Si4 0.731840 0.102250 0.232556
Si Si5 0.802440 0.365621 0.905766
Si Si6 0.067432 0.733274 0.308819
Si Si7 0.643430 0.064356 0.852314
O O1 0.949362 0.793688 0.467590
O O2 0.858191 0.706019 0.315197
O O3 0.059674 0.633758 0.507859
O O4 0.613613 0.732247 0.619085
O O5 0.049356 0.546169 0.758450
O O6 0.405378 0.688583 0.928243
O O7 0.884425 0.594188 0.828260
O O8 0.762836 0.557527 0.095657
O O9 0.797644 0.055087 0.825449
O O10 0.160346 0.061015 0.511213
O O11 0.589058 0.917888 0.684921
O O12 0.647196 0.158693 0.273938
O O13 0.687003 0.160071 0.150409
O O14 0.359785 0.025653 0.107228
#
# Coordination Sequence:
#
# PCOD8125087 Si02
#       7
#     4   4   4   4   4   4   4
#     4  11  23  40  61  91 128 159 209 251 316 366
#     4  10  20  36  63  91 123 160 205 266 295 366
#     4   9  19  35  62  94 118 154 214 247 308 358
#     4  10  21  38  62  88 124 162 209 251 310 363
#     4   9  19  36  60  92 120 156 201 265 298 362
#     4  11  23  38  60  93 120 166 208 249 313 373
#     4  10  22  37  62  93 124 164 203 254 308 378
#
# _framework density 30.253539
#
# number of rings (size 3 to 8) (size 9 to 14) (size 15 to 20)
#    0.000    2.000    1.429    3.000    4.000    0.571 
#    0.000    0.000    0.000    1.714    0.000    0.000 
#    0.000    0.000    0.000    0.000    0.000    0.000 
#
# Total GULP energy -347220.628970 kJ/mol
# GULP energy per Si atom -12400.736749 kJ/mol
# Density = 3.018468 g / cm^3
# Si number density = 30.253539 Si / 1000 Ang^3
#
#
#
# Elastic Constant Matrix: (Units=GPa)
#
#
# Indices 1 2 3 4 5 6 
#
# 1 138.8071 61.3742 44.1221 0.0000 -41.7054 0.0000
# 2 61.3742 187.8549 53.7030 0.0000 -32.7911 0.0000
# 3 44.1221 53.7030 110.0471 0.0000 -28.5372 0.0000
# 4 0.0000 0.0000 0.0000 44.8766 0.0000 -9.9059
# 5 -41.7054 -32.7911 -28.5372 0.0000 54.5833 0.0000
# 6 0.0000 0.0000 0.0000 -9.9059 0.0000 59.1850
#
#
#
# Elastic Compliance Matrix: (Units=1/GPa)
#
#
# Indices 1 2 3 4 5 6 
#
# 1 0.010340 -0.001861 -0.001710 0.000000 0.005888 0.000000
# 2 -0.001861 0.006824 -0.002186 0.000000 0.001535 0.000000
# 3 -0.001710 -0.002186 0.011754 0.000000 0.003525 0.000000
# 4 0.000000 0.000000 0.000000 0.023138 0.000000 0.003873
# 5 0.005888 0.001535 0.003525 0.000000 0.025584 0.000000
# 6 0.000000 0.000000 0.000000 0.003873 0.000000 0.017544
#
#
# Mechanical properties :
#
#
# Convention : Reuss Voigt Hill
#
# Bulk Modulus (GPa) = 57.46429 83.90085 70.68257
# Shear Modulus (GPa) = 44.44403 50.22962 47.33683
#
# Velocity S-wave (km/s) = 3.83698 4.07909 3.95988
# Velocity P-wave (km/s) = 6.21815 7.06951 6.65745
#
# Compressibility (1/GPa) = 0.01740211
#
# Stress axis : x y z
#
# Youngs Moduli (GPa) = 96.71117 146.53773 85.08011
#
# Poissons Ratio (x) = 0.27277 0.14553
# Poissons Ratio (y) = 0.18002 0.18598
# Poissons Ratio (z) = 0.16542 0.32032
#
# Static dielectric constant tensor:
#      x y z
#    x 6.055560 0.000000 0.192990 
#    y 0.000000 5.983750 0.000000 
#    z 0.192990 0.000000 5.427930 
# 
# 
# High freq. dielectric constant tensor:
#      x y z
#    x 2.259840 0.000000 0.008870 
#    y 0.000000 2.268200 0.000000 
#    z 0.008870 0.000000 2.246450 
# 
# From -- ./inp_files/66017.got.cif
#   From: 2010.03.12/outbox.cif.g09.slc.cpg/sg14_34_cif.got.tgz:66017.got - 2010.03.31 13:35:05.
