data_PCOD8125460
_publ_section_title
;
Structure prediction by ZEFSAII (Michael W. Deem and Ramdas Pophale) SiO2 
 PCOD8125460
Probable space group: P 21/C
;
_chemical_formula_sum "Si O2"
_cell_formula_units_Z 32
_cell_length_a 13.690653
_cell_length_b 21.534246
_cell_length_c 13.568873
_cell_angle_alpha 90.000000
_cell_angle_beta 21.897797
_cell_angle_gamma 90.000000
_cell_volume 1491.937658
_symmetry_space_group_name_H-M "P 21/C"
_symmetry_group_IT_number 14
_symmetry_cell_setting 'monoclinic'
loop_
_space_group_symop_operation_xyz
x,y,z
-x,1/2+y,1/2-z
-x,-y,-z
x,1/2-y,1/2+z
loop_
_atom_site_type_symbol
_atom_site_label
_atom_site_fract_x
_atom_site_fract_y
_atom_site_fract_z
Si Si1 0.315532 0.078867 0.894600
Si Si2 0.146011 0.554885 0.039539
Si Si3 0.481385 0.638413 0.477792
Si Si4 0.875623 0.619082 0.827013
Si Si5 0.248156 0.041536 0.747105
Si Si6 0.401382 0.676054 0.762540
Si Si7 0.960833 0.936239 0.456997
Si Si8 0.396863 0.690722 0.347762
O O1 0.567538 0.035609 0.686393
O O2 0.284716 0.086599 0.806762
O O3 0.356074 0.147694 0.901752
O O4 0.064059 0.045465 0.177122
O O5 0.066286 0.512885 0.016890
O O6 0.157364 0.627242 0.995603
O O7 0.487367 0.682800 0.567928
O O8 0.437338 0.684606 0.427520
O O9 0.252486 0.587492 0.703287
O O10 0.751270 0.599634 0.220891
O O11 0.784112 0.581639 0.819008
O O12 0.882860 0.575174 0.915465
O O13 0.159816 0.646822 0.536842
O O14 0.664708 0.673549 0.041881
O O15 0.500000 0.000000 0.500000
O O16 0.000000 0.000000 0.000000
O O17 0.316962 0.740093 0.891248
#
# Coordination Sequence:
#
# PCOD8125460 Si02
#       8
#     4   4   4   4   4   4   4   4
#     4  10  23  39  57  94 123 163 206 253 314 364
#     4  10  22  39  63  86 133 160 198 261 318 363
#     4  10  23  39  63  91 116 165 203 256 310 375
#     4  10  22  39  63  91 120 170 206 259 317 368
#     4  12  23  39  67  95 132 167 211 261 325 392
#     4  10  26  41  65  88 130 161 213 262 313 361
#     4  10  20  39  61  90 125 153 206 251 311 381
#     4  10  23  43  62  87 125 161 218 257 307 378
#
# _framework density 21.448618
#
# number of rings (size 3 to 8) (size 9 to 14) (size 15 to 20)
#    0.750    1.000    0.000    3.750    3.500    4.000 
#    2.250    0.000    0.000    0.000    0.000    0.000 
#    0.000    0.000    0.000    0.000    0.000    0.000 
#
# Total GULP energy -396775.765847 kJ/mol
# GULP energy per Si atom -12399.242683 kJ/mol
# Density = 2.139980 g / cm^3
# Si number density = 21.448618 Si / 1000 Ang^3
#
#
#
# Elastic Constant Matrix: (Units=GPa)
#
#
# Indices 1 2 3 4 5 6 
#
# 1 90.2260 14.9322 21.2681 0.0000 13.0868 0.0000
# 2 14.9322 85.2720 15.9673 0.0000 6.7061 0.0000
# 3 21.2681 15.9673 130.1211 0.0000 -1.5617 0.0000
# 4 0.0000 0.0000 0.0000 25.5554 0.0000 2.7994
# 5 13.0868 6.7061 -1.5617 0.0000 32.5924 0.0000
# 6 0.0000 0.0000 0.0000 2.7994 0.0000 29.6610
#
#
#
# Elastic Compliance Matrix: (Units=1/GPa)
#
#
# Indices 1 2 3 4 5 6 
#
# 1 0.012471 -0.001447 -0.001919 0.000000 -0.004802 0.000000
# 2 -0.001447 0.012385 -0.001308 0.000000 -0.002030 0.000000
# 3 -0.001919 -0.001308 0.008176 0.000000 0.001431 0.000000
# 4 0.000000 0.000000 0.000000 0.039539 0.000000 -0.003732
# 5 -0.004802 -0.002030 0.001431 0.000000 0.033096 0.000000
# 6 0.000000 0.000000 0.000000 -0.003732 0.000000 0.034067
#
#
# Mechanical properties :
#
#
# Convention : Reuss Voigt Hill
#
# Bulk Modulus (GPa) = 42.21802 45.55047 43.88424
# Shear Modulus (GPa) = 31.85179 34.45853 33.15516
#
# Velocity S-wave (km/s) = 3.85779 4.01254 3.93593
# Velocity P-wave (km/s) = 6.29042 6.53838 6.41560
#
# Compressibility (1/GPa) = 0.02368657
#
# Stress axis : x y z
#
# Youngs Moduli (GPa) = 80.18297 80.74232 122.30384
#
# Poissons Ratio (x) = 0.11684 0.23464
# Poissons Ratio (y) = 0.11603 0.15993
# Poissons Ratio (z) = 0.15383 0.10558
#
# Static dielectric constant tensor:
#      x y z
#    x 4.376300 0.000000 0.257050 
#    y 0.000000 3.563560 0.000000 
#    z 0.257050 0.000000 4.154720 
# 
# 
# High freq. dielectric constant tensor:
#      x y z
#    x 1.860460 0.000000 0.002200 
#    y 0.000000 1.815890 0.000000 
#    z 0.002200 0.000000 1.854680 
# 
# From -- ./inp_files/47652.got.cif
#   From: 2010.03.12/outbox.cif.g09.slc.cpg/sg14_24_cif.got.tgz:47652.got - 2010.03.31 13:35:05.
