data_PCOD8125450
_publ_section_title
;
Structure prediction by ZEFSAII (Michael W. Deem and Ramdas Pophale) SiO2 
 PCOD8125450
Probable space group: P 21/C
;
_chemical_formula_sum "Si O2"
_cell_formula_units_Z 28
_cell_length_a 18.047305
_cell_length_b 19.022422
_cell_length_c 8.854541
_cell_angle_alpha 90.000000
_cell_angle_beta 152.569117
_cell_angle_gamma 90.000000
_cell_volume 1400.367234
_symmetry_space_group_name_H-M "P 21/C"
_symmetry_group_IT_number 14
_symmetry_cell_setting 'monoclinic'
loop_
_space_group_symop_operation_xyz
x,y,z
-x,1/2+y,1/2-z
-x,-y,-z
x,1/2-y,1/2+z
loop_
_atom_site_type_symbol
_atom_site_label
_atom_site_fract_x
_atom_site_fract_y
_atom_site_fract_z
Si Si1 0.337042 0.929339 0.078512
Si Si2 0.950714 0.165543 0.415249
Si Si3 0.769600 0.921009 0.182430
Si Si4 0.119113 0.810149 0.058175
Si Si5 0.910431 0.564495 0.259257
Si Si6 0.411343 0.029860 0.694476
Si Si7 0.422388 0.889162 0.559538
O O1 0.465044 0.921577 0.174804
O O2 0.413434 0.893051 0.362619
O O3 0.175123 0.888908 0.741279
O O4 0.292580 0.011422 0.024031
O O5 0.938315 0.234463 0.493448
O O6 0.126263 0.128808 0.739473
O O7 0.917561 0.184587 0.183548
O O8 0.873351 0.947943 0.513897
O O9 0.609042 0.878303 0.945610
O O10 0.310712 0.826261 0.424604
O O11 0.018353 0.866402 0.972971
O O12 0.000000 0.500000 0.500000
O O13 0.741618 0.577073 0.039026
O O14 0.350940 0.962917 0.489497
O O15 0.500000 0.000000 0.000000
#
# Coordination Sequence:
#
# PCOD8125450 Si02
#       7
#     4   4   4   4   4   4   4
#     4  10  21  39  61  88 119 152 194 248 298 346
#     4  10  23  42  57  84 118 159 199 239 296 352
#     4  10  20  39  63  89 119 151 197 247 291 349
#     4  10  23  42  57  81 121 158 198 242 292 356
#     4  11  21  36  61  90 121 153 192 245 293 343
#     4  11  19  35  60  92 116 148 196 242 293 346
#     4  10  20  39  61  85 121 149 192 248 295 346
#
# _framework density 19.994754
#
# number of rings (size 3 to 8) (size 9 to 14) (size 15 to 20)
#    0.000    1.714    4.286    2.143    0.000    2.286 
#   10.286    2.857    0.000    0.000    0.000    0.000 
#    0.000    0.000    0.000    0.000    0.000    0.000 
#
# Total GULP energy -347098.674441 kJ/mol
# GULP energy per Si atom -12396.381230 kJ/mol
# Density = 1.994925 g / cm^3
# Si number density = 19.994754 Si / 1000 Ang^3
#
#
#
# Elastic Constant Matrix: (Units=GPa)
#
#
# Indices 1 2 3 4 5 6 
#
# 1 119.8234 50.2193 38.1203 0.0000 31.5981 0.0000
# 2 50.2193 88.5595 32.5189 0.0000 30.9142 0.0000
# 3 38.1203 32.5189 90.7094 0.0000 27.9436 0.0000
# 4 0.0000 0.0000 0.0000 21.6254 0.0000 6.2452
# 5 31.5981 30.9142 27.9436 0.0000 37.3146 0.0000
# 6 0.0000 0.0000 0.0000 6.2452 0.0000 42.8392
#
#
#
# Elastic Compliance Matrix: (Units=1/GPa)
#
#
# Indices 1 2 3 4 5 6 
#
# 1 0.012172 -0.004361 -0.001936 0.000000 -0.005245 0.000000
# 2 -0.004361 0.017772 -0.001482 0.000000 -0.009921 0.000000
# 3 -0.001936 -0.001482 0.014930 0.000000 -0.008313 0.000000
# 4 0.000000 0.000000 0.000000 0.048274 0.000000 -0.007038
# 5 -0.005245 -0.009921 -0.008313 0.000000 0.045685 0.000000
# 6 0.000000 0.000000 0.000000 -0.007038 0.000000 0.024369
#
#
# Mechanical properties :
#
#
# Convention : Reuss Voigt Hill
#
# Bulk Modulus (GPa) = 34.11147 60.08993 47.10070
# Shear Modulus (GPa) = 26.52042 32.23811 29.37927
#
# Velocity S-wave (km/s) = 3.64589 4.01974 3.83737
# Velocity P-wave (km/s) = 5.90089 7.18766 6.57583
#
# Compressibility (1/GPa) = 0.02931565
#
# Stress axis : x y z
#
# Youngs Moduli (GPa) = 82.15342 56.26762 66.97813
#
# Poissons Ratio (x) = 0.24536 0.12970
# Poissons Ratio (y) = 0.35824 0.09929
# Poissons Ratio (z) = 0.15908 0.08342
#
# Static dielectric constant tensor:
#      x y z
#    x 4.018450 0.000000 0.419780 
#    y 0.000000 3.473270 0.000000 
#    z 0.419780 0.000000 3.880250 
# 
# 
# High freq. dielectric constant tensor:
#      x y z
#    x 1.789480 0.000000 0.016280 
#    y 0.000000 1.746580 0.000000 
#    z 0.016280 0.000000 1.785130 
# 
# From -- ./inp_files/18183.got.cif
#   From: 2010.03.12/outbox.cif.g09.slc.cpg/sg14_10_cif.got.tgz:18183.got - 2010.03.31 13:35:05.
