data_PCOD8125217
_publ_section_title
;
Structure prediction by ZEFSAII (Michael W. Deem and Ramdas Pophale) SiO2 
 PCOD8125217
Probable space group: P 21/C
;
_chemical_formula_sum "Si O2"
_cell_formula_units_Z 32
_cell_length_a 23.102616
_cell_length_b 10.155576
_cell_length_c 17.689687
_cell_angle_alpha 90.000000
_cell_angle_beta 21.407255
_cell_angle_gamma 90.000000
_cell_volume 1514.859648
_symmetry_space_group_name_H-M "P 21/C"
_symmetry_group_IT_number 14
_symmetry_cell_setting 'monoclinic'
loop_
_space_group_symop_operation_xyz
x,y,z
-x,1/2+y,1/2-z
-x,-y,-z
x,1/2-y,1/2+z
loop_
_atom_site_type_symbol
_atom_site_label
_atom_site_fract_x
_atom_site_fract_y
_atom_site_fract_z
Si Si1 0.935064 0.570376 0.201931
Si Si2 0.803853 0.761602 0.237571
Si Si3 0.707921 0.106241 0.696852
Si Si4 0.046773 0.766715 0.320648
Si Si5 0.628103 0.170350 0.626849
Si Si6 0.409686 0.181091 0.134724
Si Si7 0.356996 0.384942 0.937533
Si Si8 0.800705 0.725431 0.491969
O O1 0.853655 0.643942 0.231902
O O2 0.934935 0.418898 0.180211
O O3 0.833157 0.594280 0.402943
O O4 0.111342 0.627695 0.999266
O O5 0.659475 0.705569 0.364003
O O6 0.737108 0.884043 0.367896
O O7 0.947528 0.805283 0.008086
O O8 0.671844 0.176952 0.661643
O O9 0.664387 0.953228 0.742260
O O10 0.599447 0.172953 0.894875
O O11 0.956513 0.757344 0.350890
O O12 0.215874 0.698800 0.111771
O O13 0.494783 0.275987 0.769436
O O14 0.568068 0.026858 0.672134
O O15 0.352248 0.291730 0.265546
O O16 0.229026 0.347657 0.028622
#
# Coordination Sequence:
#
# PCOD8125217 Si02
#       8
#     4   4   4   4   4   4   4   4
#     4  11  21  37  64  95 129 162 220 265 314 386
#     4  10  22  39  62  95 129 166 213 274 315 378
#     4  11  20  36  63  94 123 166 217 261 317 380
#     4  11  23  39  66  94 126 169 217 262 326 383
#     4  12  25  42  65  95 131 171 218 264 323 385
#     4  10  20  37  62  90 126 167 211 266 320 375
#     4  11  25  43  64  93 133 169 215 266 324 378
#     4  10  21  39  61  91 126 166 204 266 324 375
#
# _framework density 21.124068999999999
#
# number of rings (size 3 to 8) (size 9 to 14) (size 15 to 20)
#    0.000    1.250    6.250    0.375    3.500    1.500 
#    0.000    0.000    0.000    3.750    0.000    0.000 
#    0.000    0.000    0.000    0.000    0.000    0.000 
#
# Total GULP energy -396744.865829 kJ/mol
# GULP energy per Si atom -12398.277057 kJ/mol
# Density = 2.107599 g / cm^3
# Si number density = 21.124069 Si / 1000 Ang^3
#
#
#
# Elastic Constant Matrix: (Units=GPa)
#
#
# Indices 1 2 3 4 5 6 
#
# 1 91.0137 19.3880 39.4590 0.0000 12.2972 0.0000
# 2 19.3880 57.1391 36.8186 0.0000 -2.6953 0.0000
# 3 39.4590 36.8186 133.0779 0.0000 21.4273 0.0000
# 4 0.0000 0.0000 0.0000 33.5855 0.0000 1.6016
# 5 12.2972 -2.6953 21.4273 0.0000 26.9736 0.0000
# 6 0.0000 0.0000 0.0000 1.6016 0.0000 20.5675
#
#
#
# Elastic Compliance Matrix: (Units=1/GPa)
#
#
# Indices 1 2 3 4 5 6 
#
# 1 0.013294 -0.003233 -0.002316 0.000000 -0.004544 0.000000
# 2 -0.003233 0.023622 -0.007103 0.000000 0.009477 0.000000
# 3 -0.002316 -0.007103 0.011593 0.000000 -0.008864 0.000000
# 4 0.000000 0.000000 0.000000 0.029886 0.000000 -0.002327
# 5 -0.004544 0.009477 -0.008864 0.000000 0.047133 0.000000
# 6 0.000000 0.000000 0.000000 -0.002327 0.000000 0.048802
#
#
# Mechanical properties :
#
#
# Convention : Reuss Voigt Hill
#
# Bulk Modulus (GPa) = 43.09152 52.50687 47.79919
# Shear Modulus (GPa) = 24.11176 28.59632 26.35404
#
# Velocity S-wave (km/s) = 3.38218 3.68330 3.53595
# Velocity P-wave (km/s) = 5.97459 6.55739 6.27276
#
# Compressibility (1/GPa) = 0.02320642
#
# Stress axis : x y z
#
# Youngs Moduli (GPa) = 75.22190 42.33352 86.25703
#
# Poissons Ratio (x) = 0.13687 0.19974
# Poissons Ratio (y) = 0.24320 0.61266
# Poissons Ratio (z) = 0.17419 0.30068
#
# Static dielectric constant tensor:
#      x y z
#    x 3.910120 0.000000 0.169790 
#    y 0.000000 3.478980 0.000000 
#    z 0.169790 0.000000 4.123160 
# 
# 
# High freq. dielectric constant tensor:
#      x y z
#    x 1.838220 0.000000 0.009360 
#    y 0.000000 1.786710 0.000000 
#    z 0.009360 0.000000 1.844630 
# 
# From -- ./inp_files/61991.got.cif
#   From: 2010.03.12/outbox.cif.g09.slc.cpg/sg14_31_cif.got.tgz:61991.got - 2010.03.31 13:35:05.
