data_PCOD8125096
_publ_section_title
;
Structure prediction by ZEFSAII (Michael W. Deem and Ramdas Pophale) SiO2 
 PCOD8125096
Probable space group: P 21/C
;
_chemical_formula_sum "Si O2"
_cell_formula_units_Z 32
_cell_length_a 15.027964
_cell_length_b 20.055087
_cell_length_c 15.111212
_cell_angle_alpha 90.000000
_cell_angle_beta 19.129614
_cell_angle_gamma 90.000000
_cell_volume 1492.480744
_symmetry_space_group_name_H-M "P 21/C"
_symmetry_group_IT_number 14
_symmetry_cell_setting 'monoclinic'
loop_
_space_group_symop_operation_xyz
x,y,z
-x,1/2+y,1/2-z
-x,-y,-z
x,1/2-y,1/2+z
loop_
_atom_site_type_symbol
_atom_site_label
_atom_site_fract_x
_atom_site_fract_y
_atom_site_fract_z
Si Si1 0.985142 0.049506 0.645326
Si Si2 0.435610 0.385043 0.615001
Si Si3 0.185219 0.101661 0.166145
Si Si4 0.355675 0.864464 0.400644
Si Si5 0.470375 0.717269 0.326812
Si Si6 0.775076 0.585359 0.757526
Si Si7 0.081985 0.151148 0.701799
Si Si8 0.207652 0.933456 0.716500
O O1 0.246520 0.058122 0.336789
O O2 0.055016 0.081427 0.674664
O O3 0.917785 0.972951 0.721606
O O4 0.739399 0.087007 0.827308
O O5 0.336562 0.368698 0.609551
O O6 0.427267 0.315847 0.677760
O O7 0.916956 0.146952 0.401817
O O8 0.399420 0.102338 0.884327
O O9 0.467354 0.796818 0.339519
O O10 0.252468 0.914815 0.572967
O O11 0.174844 0.695598 0.576200
O O12 0.662674 0.694725 0.067055
O O13 0.883089 0.637883 0.727348
O O14 0.829121 0.512353 0.745338
O O15 0.935353 0.598358 0.514743
O O16 0.456186 0.593980 0.041582
#
# Coordination Sequence:
#
# PCOD8125096 Si02
#       8
#     4   4   4   4   4   4   4   4
#     4  10  20  36  64  95 127 154 195 258 325 360
#     4  10  21  40  62  91 124 165 200 254 308 371
#     4  12  23  38  65  95 123 160 208 255 310 382
#     4  12  25  42  58  88 130 167 205 255 312 358
#     4  10  23  42  59  82 127 163 209 248 301 359
#     4  10  20  38  62  93 117 153 211 246 308 370
#     4  10  20  38  64  88 117 163 206 256 295 366
#     4  10  22  38  60  89 128 156 190 264 313 359
#
# _framework density 21.440812000000001
#
# number of rings (size 3 to 8) (size 9 to 14) (size 15 to 20)
#    0.000    1.500    0.000    5.250    0.000    4.000 
#    6.750    0.000    0.000    0.000    0.000    0.000 
#    0.000    0.000    0.000    0.000    0.000    0.000 
#
# Total GULP energy -396901.954408 kJ/mol
# GULP energy per Si atom -12403.186075 kJ/mol
# Density = 2.139201 g / cm^3
# Si number density = 21.440812 Si / 1000 Ang^3
#
#
#
# Elastic Constant Matrix: (Units=GPa)
#
#
# Indices 1 2 3 4 5 6 
#
# 1 77.4929 34.3945 17.1302 0.0000 10.8588 0.0000
# 2 34.3945 80.6051 27.6924 0.0000 9.8246 0.0000
# 3 17.1302 27.6924 127.9675 0.0000 2.9261 0.0000
# 4 0.0000 0.0000 0.0000 25.2230 0.0000 -3.8808
# 5 10.8588 9.8246 2.9261 0.0000 26.0522 0.0000
# 6 0.0000 0.0000 0.0000 -3.8808 0.0000 19.9690
#
#
#
# Elastic Compliance Matrix: (Units=1/GPa)
#
#
# Indices 1 2 3 4 5 6 
#
# 1 0.016453 -0.006222 -0.000755 0.000000 -0.004427 0.000000
# 2 -0.006222 0.016366 -0.002634 0.000000 -0.003283 0.000000
# 3 -0.000755 -0.002634 0.008477 0.000000 0.000356 0.000000
# 4 0.000000 0.000000 0.000000 0.040868 0.000000 0.007943
# 5 -0.004427 -0.003283 0.000356 0.000000 0.041428 0.000000
# 6 0.000000 0.000000 0.000000 0.007943 0.000000 0.051621
#
#
# Mechanical properties :
#
#
# Convention : Reuss Voigt Hill
#
# Bulk Modulus (GPa) = 45.29848 49.38887 47.34368
# Shear Modulus (GPa) = 24.77792 28.03873 26.40832
#
# Velocity S-wave (km/s) = 3.40316 3.62017 3.51334
# Velocity P-wave (km/s) = 6.05104 6.36861 6.21186
#
# Compressibility (1/GPa) = 0.02207579
#
# Stress axis : x y z
#
# Youngs Moduli (GPa) = 60.77915 61.10258 117.96160
#
# Poissons Ratio (x) = 0.38016 0.08904
# Poissons Ratio (y) = 0.37815 0.31068
# Poissons Ratio (z) = 0.04588 0.16093
#
# Static dielectric constant tensor:
#      x y z
#    x 3.935000 0.000000 -0.083940 
#    y 0.000000 3.604280 0.000000 
#    z -0.083940 0.000000 4.146180 
# 
# 
# High freq. dielectric constant tensor:
#      x y z
#    x 1.843780 0.000000 -0.005930 
#    y 0.000000 1.819940 0.000000 
#    z -0.005930 0.000000 1.863710 
# 
# From -- ./inp_files/47616.got.cif
#   From: 2010.03.12/outbox.cif.g09.slc.cpg/sg14_24_cif.got.tgz:47616.got - 2010.03.31 13:35:05.
