data_PCOD8125788
_publ_section_title
;
Structure prediction by ZEFSAII (Michael W. Deem and Ramdas Pophale) SiO2 
 PCOD8125788
Probable space group: P 21/C
;
_chemical_formula_sum "Si O2"
_cell_formula_units_Z 28
_cell_length_a 11.654813
_cell_length_b 8.698084
_cell_length_c 14.873177
_cell_angle_alpha 90.000000
_cell_angle_beta 62.248856
_cell_angle_gamma 90.000000
_cell_volume 1334.336282
_symmetry_space_group_name_H-M "P 21/C"
_symmetry_group_IT_number 14
_symmetry_cell_setting 'monoclinic'
loop_
_space_group_symop_operation_xyz
x,y,z
-x,1/2+y,1/2-z
-x,-y,-z
x,1/2-y,1/2+z
loop_
_atom_site_type_symbol
_atom_site_label
_atom_site_fract_x
_atom_site_fract_y
_atom_site_fract_z
Si Si1 0.388347 0.577591 0.600565
Si Si2 0.865442 0.490860 0.502497
Si Si3 0.556425 0.196094 0.723261
Si Si4 0.734598 0.195986 0.489608
Si Si5 0.139965 0.020378 0.686020
Si Si6 0.329866 0.493016 0.274245
Si Si7 0.136322 0.122131 0.177434
O O1 0.500000 0.500000 0.500000
O O2 0.433994 0.606120 0.685649
O O3 0.355543 0.732706 0.556539
O O4 0.263463 0.469499 0.661585
O O5 0.847249 0.320921 0.467390
O O6 0.748766 0.538643 0.607649
O O7 0.867929 0.623481 0.427985
O O8 0.000000 0.500000 0.500000
O O9 0.664821 0.154570 0.608913
O O10 0.565047 0.374104 0.745264
O O11 0.418021 0.158457 0.725937
O O12 0.796657 0.036998 0.430518
O O13 0.230831 0.954648 0.732658
O O14 0.141554 0.201361 0.704113
O O15 0.993784 0.958861 0.738953
#
# Coordination Sequence:
#
# PCOD8125788 Si02
#       7
#     4   4   4   4   4   4   4
#     4  11  23  45  71  98 141 183 224 280 348 409
#     4  10  20  43  69  94 131 178 222 275 343 406
#     4  11  24  44  67 100 138 176 231 280 340 404
#     4  10  24  42  65 101 135 174 228 286 334 403
#     4  12  25  45  68 100 137 179 230 287 342 405
#     4  11  25  42  71  95 138 179 226 281 341 404
#     4  11  25  42  70  97 137 181 226 279 349 406
#
# _framework density 20.984216
#
# number of rings (size 3 to 8) (size 9 to 14) (size 15 to 20)
#    0.000    1.143    2.857    4.286    4.000    2.857 
#    0.000    1.429    0.000    0.000    0.000    0.000 
#    0.000    0.000    0.000    0.000    0.000    0.000 
#
# Total GULP energy -347007.773851 kJ/mol
# GULP energy per Si atom -12393.134780 kJ/mol
# Density = 2.093645 g / cm^3
# Si number density = 20.984216 Si / 1000 Ang^3
#
#
#
# Elastic Constant Matrix: (Units=GPa)
#
#
# Indices 1 2 3 4 5 6 
#
# 1 99.8934 20.5481 28.2510 0.0000 -13.5253 0.0000
# 2 20.5481 61.7836 42.3825 0.0000 -20.6872 0.0000
# 3 28.2510 42.3825 120.7837 0.0000 2.7007 0.0000
# 4 0.0000 0.0000 0.0000 36.7741 0.0000 -4.9680
# 5 -13.5253 -20.6872 2.7007 0.0000 34.6037 0.0000
# 6 0.0000 0.0000 0.0000 -4.9680 0.0000 25.1703
#
#
#
# Elastic Compliance Matrix: (Units=1/GPa)
#
#
# Indices 1 2 3 4 5 6 
#
# 1 0.011443 -0.000607 -0.002560 0.000000 0.004310 0.000000
# 2 -0.000607 0.030007 -0.010802 0.000000 0.018545 0.000000
# 3 -0.002560 -0.010802 0.012858 0.000000 -0.008462 0.000000
# 4 0.000000 0.000000 0.000000 0.027938 0.000000 0.005514
# 5 0.004310 0.018545 -0.008462 0.000000 0.042330 0.000000
# 6 0.000000 0.000000 0.000000 0.005514 0.000000 0.040818
#
#
# Mechanical properties :
#
#
# Convention : Reuss Voigt Hill
#
# Bulk Modulus (GPa) = 37.92164 51.64712 44.78438
# Shear Modulus (GPa) = 24.73772 32.06157 28.39964
#
# Velocity S-wave (km/s) = 3.43720 3.91306 3.68282
# Velocity P-wave (km/s) = 5.81921 6.71430 6.28272
#
# Compressibility (1/GPa) = 0.02637017
#
# Stress axis : x y z
#
# Youngs Moduli (GPa) = 87.38988 33.32587 77.77477
#
# Poissons Ratio (x) = 0.02021 0.19910
# Poissons Ratio (y) = 0.05300 0.84013
# Poissons Ratio (z) = 0.22372 0.35999
#
# Static dielectric constant tensor:
#      x y z
#    x 4.013090 0.000000 -0.078740 
#    y 0.000000 3.693090 0.000000 
#    z -0.078740 0.000000 4.011500 
# 
# 
# High freq. dielectric constant tensor:
#      x y z
#    x 1.831110 0.000000 -0.001370 
#    y 0.000000 1.810830 0.000000 
#    z -0.001370 0.000000 1.836320 
# 
# From -- ./inp_files/43289.got.cif
#   From: 2010.03.12/outbox.cif.g09.slc.cpg/sg14_22_cif.got.tgz:43289.got - 2010.03.31 13:35:05.
