data_PCOD8125573
_publ_section_title
;
Structure prediction by ZEFSAII (Michael W. Deem and Ramdas Pophale) SiO2 
 PCOD8125573
Probable space group: P 21/C
;
_chemical_formula_sum "Si O2"
_cell_formula_units_Z 20
_cell_length_a 7.719659
_cell_length_b 13.334132
_cell_length_c 9.857074
_cell_angle_alpha 90.000000
_cell_angle_beta 63.175823
_cell_angle_gamma 90.000000
_cell_volume 905.457868
_symmetry_space_group_name_H-M "P 21/C"
_symmetry_group_IT_number 14
_symmetry_cell_setting 'monoclinic'
loop_
_space_group_symop_operation_xyz
x,y,z
-x,1/2+y,1/2-z
-x,-y,-z
x,1/2-y,1/2+z
loop_
_atom_site_type_symbol
_atom_site_label
_atom_site_fract_x
_atom_site_fract_y
_atom_site_fract_z
Si Si1 0.358566 0.169003 0.233029
Si Si2 0.578063 0.599823 0.797130
Si Si3 0.753483 0.431899 0.584947
Si Si4 0.944258 0.953046 0.800825
Si Si5 0.236440 0.018330 0.499225
O O1 0.348425 0.287929 0.245211
O O2 0.586459 0.149983 0.127613
O O3 0.229105 0.127083 0.155182
O O4 0.273363 0.118627 0.399264
O O5 0.652152 0.540553 0.639123
O O6 0.678643 0.543270 0.884526
O O7 0.345783 0.579086 0.895162
O O8 0.874734 0.445051 0.402438
O O9 0.891471 0.400752 0.662978
O O10 0.015306 0.985479 0.621068
#
# Coordination Sequence:
#
# PCOD8125573 Si02
#       5
#     4   4   4   4   4
#     4  11  21  37  66  89 114 166 207 233 308 376
#     4   9  20  39  62  85 123 163 198 248 304 357
#     4   9  21  41  59  88 131 154 192 261 302 347
#     4  10  20  40  62  86 123 160 192 253 306 348
#     4   9  20  41  59  86 129 155 196 262 300 345
#
# _framework density 22.088273999999998
#
# number of rings (size 3 to 8) (size 9 to 14) (size 15 to 20)
#    0.000    2.400    0.000    2.400    2.800    0.000 
#   10.800    8.000    0.000    0.000    0.000    0.000 
#    0.000    0.000    0.000    0.000    0.000    0.000 
#
# Total GULP energy -247796.575320 kJ/mol
# GULP energy per Si atom -12389.828766 kJ/mol
# Density = 2.203800 g / cm^3
# Si number density = 22.088274 Si / 1000 Ang^3
#
#
#
# Elastic Constant Matrix: (Units=GPa)
#
#
# Indices 1 2 3 4 5 6 
#
# 1 60.0663 6.4149 8.2908 0.0000 -17.3121 0.0000
# 2 6.4149 80.7983 6.4492 0.0000 5.3870 0.0000
# 3 8.2908 6.4492 94.6188 0.0000 -3.2092 0.0000
# 4 0.0000 0.0000 0.0000 13.2567 0.0000 3.8600
# 5 -17.3121 5.3870 -3.2092 0.0000 23.9077 0.0000
# 6 0.0000 0.0000 0.0000 3.8600 0.0000 16.2389
#
#
#
# Elastic Compliance Matrix: (Units=1/GPa)
#
#
# Indices 1 2 3 4 5 6 
#
# 1 0.021776 -0.002717 -0.001173 0.000000 0.016223 0.000000
# 2 -0.002717 0.012991 -0.000817 0.000000 -0.005004 0.000000
# 3 -0.001173 -0.000817 0.010754 0.000000 0.000778 0.000000
# 4 0.000000 0.000000 0.000000 0.081042 0.000000 -0.019264
# 5 0.016223 -0.005004 0.000778 0.000000 0.054807 0.000000
# 6 0.000000 0.000000 0.000000 -0.019264 0.000000 0.066159
#
#
# Mechanical properties :
#
#
# Convention : Reuss Voigt Hill
#
# Bulk Modulus (GPa) = 27.69520 30.86590 29.28055
# Shear Modulus (GPa) = 18.58878 24.96924 21.77901
#
# Velocity S-wave (km/s) = 2.90413 3.36583 3.14347
# Velocity P-wave (km/s) = 4.87964 5.39531 5.14394
#
# Compressibility (1/GPa) = 0.03610734
#
# Stress axis : x y z
#
# Youngs Moduli (GPa) = 45.92180 76.97592 92.99237
#
# Poissons Ratio (x) = 0.20914 0.10905
# Poissons Ratio (y) = 0.12477 0.07599
# Poissons Ratio (z) = 0.05385 0.06290
#
# Static dielectric constant tensor:
#      x y z
#    x 4.270410 0.000000 -0.288680 
#    y 0.000000 3.392470 0.000000 
#    z -0.288680 0.000000 4.367660 
# 
# 
# High freq. dielectric constant tensor:
#      x y z
#    x 1.882280 0.000000 -0.005590 
#    y 0.000000 1.821810 0.000000 
#    z -0.005590 0.000000 1.887870 
# 
# From -- ./inp_files/23618.got.cif
#   From: 2010.03.12/outbox.cif.g09.slc.cpg/sg14_12_cif.got.tgz:23618.got - 2010.03.31 13:35:05.
