data_PCOD8125898
_publ_section_title
;
Structure prediction by ZEFSAII (Michael W. Deem and Ramdas Pophale) SiO2 
 PCOD8125898
Probable space group: P 21/C
;
_chemical_formula_sum "Si O2"
_cell_formula_units_Z 28
_cell_length_a 13.898195
_cell_length_b 7.797391
_cell_length_c 12.320813
_cell_angle_alpha 90.000000
_cell_angle_beta 53.207316
_cell_angle_gamma 90.000000
_cell_volume 1069.240505
_symmetry_space_group_name_H-M "P 21/C"
_symmetry_group_IT_number 14
_symmetry_cell_setting 'monoclinic'
loop_
_space_group_symop_operation_xyz
x,y,z
-x,1/2+y,1/2-z
-x,-y,-z
x,1/2-y,1/2+z
loop_
_atom_site_type_symbol
_atom_site_label
_atom_site_fract_x
_atom_site_fract_y
_atom_site_fract_z
Si Si1 0.646980 0.408786 0.745901
Si Si2 0.463284 0.944480 0.242923
Si Si3 0.856492 0.223700 0.682699
Si Si4 0.299638 0.414189 0.682858
Si Si5 0.957772 0.661410 0.114809
Si Si6 0.942929 0.518262 0.759477
Si Si7 0.329575 0.412077 0.043090
O O1 0.606464 0.535463 0.674310
O O2 0.786188 0.353312 0.647596
O O3 0.625726 0.493123 0.877830
O O4 0.559237 0.246216 0.783538
O O5 0.414215 0.075362 0.184790
O O6 0.400769 0.999694 0.398314
O O7 0.938566 0.329460 0.709306
O O8 0.948185 0.115947 0.544899
O O9 0.751934 0.105731 0.810003
O O10 0.183894 0.322622 0.820982
O O11 0.344212 0.296161 0.551802
O O12 0.967458 0.506902 0.198702
O O13 0.997408 0.843314 0.139528
O O14 0.810314 0.563032 0.889253
#
# Coordination Sequence:
#
# PCOD8125898 Si02
#       7
#     4   4   4   4   4   4   4
#     4  10  22  40  64  91 122 163 217 256 310 389
#     4  11  22  42  64  88 127 167 203 267 321 366
#     4  10  21  39  59  87 124 161 204 264 314 366
#     4  10  22  38  62  93 121 160 215 253 312 395
#     4  11  21  37  60  87 124 165 204 259 312 366
#     4  10  21  36  57  89 122 161 212 254 310 377
#     4  10  22  42  62  89 126 163 206 265 319 371
#
# _framework density 26.186812
#
# number of rings (size 3 to 8) (size 9 to 14) (size 15 to 20)
#    0.000    1.714    0.000    4.714    0.000    2.286 
#    0.000   20.714    0.000    0.000    0.000    0.000 
#    0.000    0.000    0.000    0.000    0.000    0.000 
#
# Total GULP energy -346887.020055 kJ/mol
# GULP energy per Si atom -12388.822145 kJ/mol
# Density = 2.612721 g / cm^3
# Si number density = 26.186812 Si / 1000 Ang^3
#
#
#
# Elastic Constant Matrix: (Units=GPa)
#
#
# Indices 1 2 3 4 5 6 
#
# 1 108.4779 -2.4741 6.6847 0.0000 21.4478 0.0000
# 2 -2.4741 104.4897 12.1675 0.0000 20.7839 0.0000
# 3 6.6847 12.1675 23.6023 0.0000 6.1580 0.0000
# 4 0.0000 0.0000 0.0000 23.6035 0.0000 0.0213
# 5 21.4478 20.7839 6.1580 0.0000 26.2959 0.0000
# 6 0.0000 0.0000 0.0000 0.0213 0.0000 51.1238
#
#
#
# Elastic Compliance Matrix: (Units=1/GPa)
#
#
# Indices 1 2 3 4 5 6 
#
# 1 0.011601 0.002705 -0.001761 0.000000 -0.011187 0.000000
# 2 0.002705 0.012305 -0.004257 0.000000 -0.010935 0.000000
# 3 -0.001761 -0.004257 0.046660 0.000000 -0.006126 0.000000
# 4 0.000000 0.000000 0.000000 0.042367 0.000000 -0.000018
# 5 -0.011187 -0.010935 -0.006126 0.000000 0.057231 0.000000
# 6 0.000000 0.000000 0.000000 -0.000018 0.000000 0.019560
#
#
# Mechanical properties :
#
#
# Convention : Reuss Voigt Hill
#
# Bulk Modulus (GPa) = 15.63950 29.92512 22.78231
# Shear Modulus (GPa) = 22.97125 34.88410 28.92767
#
# Velocity S-wave (km/s) = 2.96498 3.65379 3.32726
# Velocity P-wave (km/s) = 4.20794 5.40857 4.84558
#
# Compressibility (1/GPa) = 0.06394068
#
# Stress axis : x y z
#
# Youngs Moduli (GPa) = 86.20233 81.26675 21.43147
#
# Poissons Ratio (x) = -0.21983 0.03774
# Poissons Ratio (y) = -0.23318 0.09123
# Poissons Ratio (z) = 0.15182 0.34592
#
# Static dielectric constant tensor:
#      x y z
#    x 5.337200 0.000000 0.064300 
#    y 0.000000 5.150410 0.000000 
#    z 0.064300 0.000000 4.082770 
# 
# 
# High freq. dielectric constant tensor:
#      x y z
#    x 2.078920 0.000000 0.003600 
#    y 0.000000 2.081780 0.000000 
#    z 0.003600 0.000000 2.000370 
# 
# From -- ./inp_files/31457.got.cif
#   From: 2010.03.12/outbox.cif.g09.slc.cpg/sg14_16_cif.got.tgz:31457.got - 2010.03.31 13:35:05.
