data_PCOD8125903
_publ_section_title
;
Structure prediction by ZEFSAII (Michael W. Deem and Ramdas Pophale) SiO2 
 PCOD8125903
Probable space group: P 21/C
;
_chemical_formula_sum "Si O2"
_cell_formula_units_Z 32
_cell_length_a 12.486697
_cell_length_b 5.210049
_cell_length_c 28.477985
_cell_angle_alpha 90.000000
_cell_angle_beta 57.971247
_cell_angle_gamma 90.000000
_cell_volume 1570.662442
_symmetry_space_group_name_H-M "P 21/C"
_symmetry_group_IT_number 14
_symmetry_cell_setting 'monoclinic'
loop_
_space_group_symop_operation_xyz
x,y,z
-x,1/2+y,1/2-z
-x,-y,-z
x,1/2-y,1/2+z
loop_
_atom_site_type_symbol
_atom_site_label
_atom_site_fract_x
_atom_site_fract_y
_atom_site_fract_z
Si Si1 0.862671 0.745047 0.129506
Si Si2 0.111572 0.634606 0.521167
Si Si3 0.201587 0.859172 0.696488
Si Si4 0.179192 0.372920 0.962754
Si Si5 0.859902 0.226928 0.187042
Si Si6 0.355874 0.868989 0.487695
Si Si7 0.366226 0.099249 0.587108
Si Si8 0.874762 0.849042 0.830713
O O1 0.786609 0.683457 0.099323
O O2 0.843459 0.508282 0.169199
O O3 0.010553 0.800795 0.084958
O O4 0.806717 0.005427 0.164952
O O5 0.090554 0.360336 0.501745
O O6 0.099166 0.862927 0.485364
O O7 0.254333 0.637283 0.509260
O O8 0.223006 0.797172 0.746210
O O9 0.333828 0.903336 0.637939
O O10 0.121646 0.625657 0.693740
O O11 0.116731 0.118292 0.710003
O O12 0.305871 0.400466 0.965154
O O13 0.007955 0.175560 0.161567
O O14 0.494368 0.780708 0.437273
O O15 0.365147 0.947845 0.539142
O O16 0.257980 0.318529 0.610024
#
# Coordination Sequence:
#
# PCOD8125903 Si02
#       8
#     4   4   4   4   4   4   4   4
#     4  12  23  36  60  87 120 155 195 238 290 344
#     4  10  21  36  58  85 120 153 185 239 286 352
#     4  10  22  38  58  85 120 152 193 235 292 347
#     4  10  22  38  58  86 121 153 192 238 290 347
#     4  12  23  36  60  87 118 156 194 239 286 349
#     4   9  21  38  62  87 119 150 196 237 291 353
#     4   9  21  39  60  90 116 154 190 241 293 351
#     4  10  21  36  58  84 120 150 185 238 286 350
#
# _framework density 20.373567999999999
#
# number of rings (size 3 to 8) (size 9 to 14) (size 15 to 20)
#    1.500    0.250    0.000    5.250    3.500    1.000 
#    0.000    2.500    0.000    1.500    0.000    0.000 
#    0.000    0.000    0.000    0.000    0.000    0.000 
#
# Total GULP energy -396440.259085 kJ/mol
# GULP energy per Si atom -12388.758096 kJ/mol
# Density = 2.032720 g / cm^3
# Si number density = 20.373568 Si / 1000 Ang^3
#
#
#
# Elastic Constant Matrix: (Units=GPa)
#
#
# Indices 1 2 3 4 5 6 
#
# 1 57.1145 7.2510 38.0191 0.0000 -12.1533 0.0000
# 2 7.2510 103.6715 23.4130 0.0000 6.2783 0.0000
# 3 38.0191 23.4130 124.1760 0.0000 2.5200 0.0000
# 4 0.0000 0.0000 0.0000 29.5575 0.0000 7.0547
# 5 -12.1533 6.2783 2.5200 0.0000 24.5435 0.0000
# 6 0.0000 0.0000 0.0000 7.0547 0.0000 11.9495
#
#
#
# Elastic Compliance Matrix: (Units=1/GPa)
#
#
# Indices 1 2 3 4 5 6 
#
# 1 0.025939 -0.000833 -0.008066 0.000000 0.013885 0.000000
# 2 -0.000833 0.010243 -0.001618 0.000000 -0.002867 0.000000
# 3 -0.008066 -0.001618 0.010923 0.000000 -0.004702 0.000000
# 4 0.000000 0.000000 0.000000 0.039382 0.000000 -0.023250
# 5 0.013885 -0.002867 -0.004702 0.000000 0.048836 0.000000
# 6 0.000000 0.000000 0.000000 -0.023250 0.000000 0.097411
#
#
# Mechanical properties :
#
#
# Convention : Reuss Voigt Hill
#
# Bulk Modulus (GPa) = 38.35883 46.92537 42.64210
# Shear Modulus (GPa) = 19.05059 27.62869 23.33964
#
# Velocity S-wave (km/s) = 3.06120 3.68653 3.38832
# Velocity P-wave (km/s) = 5.60029 6.41897 6.02355
#
# Compressibility (1/GPa) = 0.02606962
#
# Stress axis : x y z
#
# Youngs Moduli (GPa) = 38.55259 97.62620 91.54797
#
# Poissons Ratio (x) = 0.08136 0.73845
# Poissons Ratio (y) = 0.03213 0.14812
# Poissons Ratio (z) = 0.31098 0.15796
#
# Static dielectric constant tensor:
#      x y z
#    x 3.546740 0.000000 0.016510 
#    y 0.000000 3.672260 0.000000 
#    z 0.016510 0.000000 3.733070 
# 
# 
# High freq. dielectric constant tensor:
#      x y z
#    x 1.762260 0.000000 0.010540 
#    y 0.000000 1.802980 0.000000 
#    z 0.010540 0.000000 1.793320 
# 
# From -- ./inp_files/73490.got.cif
#   From: 2010.03.12/outbox.cif.g09.slc.cpg/sg14_37_cif.got.tgz:73490.got - 2010.03.31 13:35:05.
