data_PCOD8125564
_publ_section_title
;
Structure prediction by ZEFSAII (Michael W. Deem and Ramdas Pophale) SiO2 
 PCOD8125564
Probable space group: P 21/C
;
_chemical_formula_sum "Si O2"
_cell_formula_units_Z 28
_cell_length_a 9.412398
_cell_length_b 12.963990
_cell_length_c 11.294019
_cell_angle_alpha 90.000000
_cell_angle_beta 99.598557
_cell_angle_gamma 90.000000
_cell_volume 1358.828051
_symmetry_space_group_name_H-M "P 21/C"
_symmetry_group_IT_number 14
_symmetry_cell_setting 'monoclinic'
loop_
_space_group_symop_operation_xyz
x,y,z
-x,1/2+y,1/2-z
-x,-y,-z
x,1/2-y,1/2+z
loop_
_atom_site_type_symbol
_atom_site_label
_atom_site_fract_x
_atom_site_fract_y
_atom_site_fract_z
Si Si1 0.123399 0.406028 0.885540
Si Si2 0.600385 0.119666 0.932360
Si Si3 0.228640 0.922743 0.261173
Si Si4 0.778598 0.192711 0.498977
Si Si5 0.829161 0.508247 0.868502
Si Si6 0.718934 0.557709 0.596219
Si Si7 0.981097 0.691816 0.590808
O O1 0.227370 0.456628 0.801285
O O2 0.076419 0.290944 0.841067
O O3 0.997910 0.493136 0.866552
O O4 0.190970 0.407649 0.028242
O O5 0.630939 0.083714 0.802201
O O6 0.641772 0.237990 0.951112
O O7 0.433250 0.114206 0.940746
O O8 0.703068 0.054437 0.035485
O O9 0.243686 0.846549 0.372917
O O10 0.086168 0.884781 0.173893
O O11 0.767953 0.102124 0.400866
O O12 0.930256 0.257083 0.506817
O O13 0.753236 0.549272 0.740072
O O14 0.840440 0.622791 0.540729
#
# Coordination Sequence:
#
# PCOD8125564 Si02
#       7
#     4   4   4   4   4   4   4
#     4   9  18  36  59  92 117 147 203 255 300 354
#     4  10  25  41  58  86 126 167 195 245 301 366
#     4  10  20  40  60  90 120 159 205 251 301 362
#     4   9  21  39  64  89 117 159 209 242 306 365
#     4   9  18  38  63  83 121 156 190 256 303 351
#     4  11  23  43  57  91 128 157 202 247 306 354
#     4  10  21  34  64  92 115 159 195 254 305 342
#
# _framework density 20.605993000000002
#
# number of rings (size 3 to 8) (size 9 to 14) (size 15 to 20)
#    0.000    2.286    1.429    0.857    6.000    3.429 
#    5.143    1.429    0.000    0.000    0.000    0.000 
#    0.000    0.000    0.000    0.000    0.000    0.000 
#
# Total GULP energy -346979.411406 kJ/mol
# GULP energy per Si atom -12392.121836 kJ/mol
# Density = 2.055909 g / cm^3
# Si number density = 20.605993 Si / 1000 Ang^3
#
#
#
# Elastic Constant Matrix: (Units=GPa)
#
#
# Indices 1 2 3 4 5 6 
#
# 1 51.2294 15.1302 7.6549 0.0000 -1.0911 0.0000
# 2 15.1302 48.5017 1.6975 0.0000 3.4746 0.0000
# 3 7.6549 1.6975 68.3774 0.0000 -4.2229 0.0000
# 4 0.0000 0.0000 0.0000 20.5386 0.0000 -1.4132
# 5 -1.0911 3.4746 -4.2229 0.0000 22.6234 0.0000
# 6 0.0000 0.0000 0.0000 -1.4132 0.0000 20.5172
#
#
#
# Elastic Compliance Matrix: (Units=1/GPa)
#
#
# Indices 1 2 3 4 5 6 
#
# 1 0.021914 -0.006882 -0.002177 0.000000 0.001708 0.000000
# 2 -0.006882 0.023044 -0.000041 0.000000 -0.003879 0.000000
# 3 -0.002177 -0.000041 0.015037 0.000000 0.002708 0.000000
# 4 0.000000 0.000000 0.000000 0.048921 0.000000 0.003369
# 5 0.001708 -0.003879 0.002708 0.000000 0.045386 0.000000
# 6 0.000000 0.000000 0.000000 0.003369 0.000000 0.048972
#
#
# Mechanical properties :
#
#
# Convention : Reuss Voigt Hill
#
# Bulk Modulus (GPa) = 23.92681 24.11931 24.02306
# Shear Modulus (GPa) = 21.23996 22.31091 21.77544
#
# Velocity S-wave (km/s) = 3.21404 3.29407 3.25430
# Velocity P-wave (km/s) = 5.04085 5.11842 5.07979
#
# Compressibility (1/GPa) = 0.04179412
#
# Stress axis : x y z
#
# Youngs Moduli (GPa) = 45.63220 43.39508 66.50400
#
# Poissons Ratio (x) = 0.29866 0.14478
# Poissons Ratio (y) = 0.31406 0.00274
# Poissons Ratio (z) = 0.09934 0.00179
#
# Static dielectric constant tensor:
#      x y z
#    x 3.611500 0.000000 -0.216060 
#    y 0.000000 3.793340 0.000000 
#    z -0.216060 0.000000 3.672870 
# 
# 
# High freq. dielectric constant tensor:
#      x y z
#    x 1.787670 0.000000 -0.014530 
#    y 0.000000 1.810200 0.000000 
#    z -0.014530 0.000000 1.792350 
# 
# From -- ./inp_files/24961.got.cif
#   From: 2010.03.12/outbox.cif.g09.slc.cpg/sg14_13_cif.got.tgz:24961.got - 2010.03.31 13:35:05.
