data_PCOD8125822
_publ_section_title
;
Structure prediction by ZEFSAII (Michael W. Deem and Ramdas Pophale) SiO2 
 PCOD8125822
Probable space group: P 21/C
;
_chemical_formula_sum "Si O2"
_cell_formula_units_Z 24
_cell_length_a 22.818683
_cell_length_b 9.548876
_cell_length_c 10.469268
_cell_angle_alpha 90.000000
_cell_angle_beta 151.973673
_cell_angle_gamma 90.000000
_cell_volume 1071.873510
_symmetry_space_group_name_H-M "P 21/C"
_symmetry_group_IT_number 14
_symmetry_cell_setting 'monoclinic'
loop_
_space_group_symop_operation_xyz
x,y,z
-x,1/2+y,1/2-z
-x,-y,-z
x,1/2-y,1/2+z
loop_
_atom_site_type_symbol
_atom_site_label
_atom_site_fract_x
_atom_site_fract_y
_atom_site_fract_z
Si Si1 0.083330 0.182167 0.621813
Si Si2 0.849205 0.180654 0.596636
Si Si3 0.202660 0.468266 0.800103
Si Si4 0.426642 0.689735 0.474094
Si Si5 0.015287 0.044070 0.730302
Si Si6 0.528676 0.098124 0.218202
O O1 0.184571 0.300559 0.781315
O O2 0.111059 0.108619 0.810140
O O3 0.936197 0.225458 0.355228
O O4 0.084776 0.068282 0.512248
O O5 0.714890 0.246783 0.307837
O O6 0.930931 0.166505 0.626454
O O7 0.830762 0.030194 0.626721
O O8 0.106076 0.526349 0.509436
O O9 0.340673 0.514261 0.026115
O O10 0.485578 0.686651 0.443006
O O11 0.492001 0.797822 0.700188
O O12 0.428380 0.529089 0.530866
#
# Coordination Sequence:
#
# PCOD8125822 Si02
#       6
#     4   4   4   4   4   4
#     4  10  21  34  55  87 121 155 201 243 297 369
#     4  10  22  35  61  80 121 161 192 245 306 363
#     4  10  22  37  59  83 122 159 198 247 313 358
#     4  10  23  43  68  91 129 158 221 254 327 366
#     4  10  21  34  55  88 118 158 200 244 298 366
#     4  10  23  45  66  96 121 171 206 273 310 388
#
# _framework density 22.390702000000001
#
# number of rings (size 3 to 8) (size 9 to 14) (size 15 to 20)
#    0.000    2.000    0.000    3.000   14.000    2.000 
#    6.000    0.000    0.000    0.000    0.000    0.000 
#    0.000    0.000    0.000    0.000    0.000    0.000 
#
# Total GULP energy -297323.353480 kJ/mol
# GULP energy per Si atom -12388.473062 kJ/mol
# Density = 2.233974 g / cm^3
# Si number density = 22.390702 Si / 1000 Ang^3
#
#
#
# Elastic Constant Matrix: (Units=GPa)
#
#
# Indices 1 2 3 4 5 6 
#
# 1 78.6426 33.7370 21.4644 0.0000 -21.9388 0.0000
# 2 33.7370 82.4736 8.6309 0.0000 -15.1790 0.0000
# 3 21.4644 8.6309 46.1543 0.0000 -9.4924 0.0000
# 4 0.0000 0.0000 0.0000 33.4688 0.0000 2.2111
# 5 -21.9388 -15.1790 -9.4924 0.0000 33.3758 0.0000
# 6 0.0000 0.0000 0.0000 2.2111 0.0000 21.4614
#
#
#
# Elastic Compliance Matrix: (Units=1/GPa)
#
#
# Indices 1 2 3 4 5 6 
#
# 1 0.019120 -0.005661 -0.006137 0.000000 0.008248 0.000000
# 2 -0.005661 0.014984 0.000496 0.000000 0.003235 0.000000
# 3 -0.006137 0.000496 0.025113 0.000000 0.003334 0.000000
# 4 0.000000 0.000000 0.000000 0.030083 0.000000 -0.003099
# 5 0.008248 0.003235 0.003334 0.000000 0.037803 0.000000
# 6 0.000000 0.000000 0.000000 -0.003099 0.000000 0.046915
#
#
# Mechanical properties :
#
#
# Convention : Reuss Voigt Hill
#
# Bulk Modulus (GPa) = 27.31227 37.21502 32.26364
# Shear Modulus (GPa) = 23.94314 27.22374 25.58344
#
# Velocity S-wave (km/s) = 3.27361 3.49069 3.38389
# Velocity P-wave (km/s) = 5.14910 5.73615 5.45053
#
# Compressibility (1/GPa) = 0.03661359
#
# Stress axis : x y z
#
# Youngs Moduli (GPa) = 52.30024 66.73659 39.81927
#
# Poissons Ratio (x) = 0.37781 0.24437
# Poissons Ratio (y) = 0.29608 -0.01975
# Poissons Ratio (z) = 0.32097 -0.03310
#
# Static dielectric constant tensor:
#      x y z
#    x 3.894130 0.000000 -0.289380 
#    y 0.000000 4.024850 0.000000 
#    z -0.289380 0.000000 4.191470 
# 
# 
# High freq. dielectric constant tensor:
#      x y z
#    x 1.872070 0.000000 -0.026730 
#    y 0.000000 1.876610 0.000000 
#    z -0.026730 0.000000 1.873540 
# 
# From -- ./inp_files/35785.got.cif
#   From: 2010.03.12/outbox.cif.g09.slc.cpg/sg14_18_cif.got.tgz:35785.got - 2010.03.31 13:35:05.
