data_PCOD8125839
_publ_section_title
;
Structure prediction by ZEFSAII (Michael W. Deem and Ramdas Pophale) SiO2 
 PCOD8125839
Probable space group: P 21/C
;
_chemical_formula_sum "Si O2"
_cell_formula_units_Z 32
_cell_length_a 9.320731
_cell_length_b 22.590380
_cell_length_c 8.789246
_cell_angle_alpha 90.000000
_cell_angle_beta 66.330969
_cell_angle_gamma 90.000000
_cell_volume 1694.976073
_symmetry_space_group_name_H-M "P 21/C"
_symmetry_group_IT_number 14
_symmetry_cell_setting 'monoclinic'
loop_
_space_group_symop_operation_xyz
x,y,z
-x,1/2+y,1/2-z
-x,-y,-z
x,1/2-y,1/2+z
loop_
_atom_site_type_symbol
_atom_site_label
_atom_site_fract_x
_atom_site_fract_y
_atom_site_fract_z
Si Si1 0.407348 0.946682 0.962852
Si Si2 0.978700 0.631227 0.823865
Si Si3 0.353190 0.176335 0.544535
Si Si4 0.477401 0.754317 0.781937
Si Si5 0.438732 0.051096 0.413910
Si Si6 0.105870 0.448125 0.899146
Si Si7 0.061644 0.984534 0.136945
Si Si8 0.676260 0.326502 0.400353
O O1 0.434665 0.940139 0.771976
O O2 0.434616 0.885046 0.042369
O O3 0.225028 0.953268 0.053945
O O4 0.500000 0.000000 0.000000
O O5 0.834667 0.675078 0.850194
O O6 0.949880 0.566350 0.757613
O O7 0.139563 0.661634 0.706091
O O8 0.963446 0.614889 0.012062
O O9 0.418651 0.214810 0.652437
O O10 0.402266 0.204069 0.361363
O O11 0.422786 0.110014 0.522013
O O12 0.348924 0.791818 0.930440
O O13 0.379770 0.712091 0.715471
O O14 0.279487 0.038306 0.388492
O O15 0.500000 0.000000 0.500000
O O16 0.089576 0.454649 0.722596
O O17 0.000000 0.500000 0.000000
O O18 0.000000 0.000000 0.000000
#
# Coordination Sequence:
#
# PCOD8125839 Si02
#       8
#     4   4   4   4   4   4   4   4
#     4  11  22  37  59  87 124 155 193 245 295 353
#     4   9  21  38  58  81 119 149 198 243 289 354
#     4  10  22  41  60  88 113 156 196 247 291 352
#     4  10  22  41  65  80 116 153 201 247 294 342
#     4  11  23  36  60  90 120 153 201 239 293 362
#     4   9  19  37  52  79 121 158 188 233 292 351
#     4  10  21  35  54  84 123 161 192 235 293 357
#     4  10  22  42  59  88 115 155 197 247 294 347
#
# _framework density 18.879321999999998
#
# number of rings (size 3 to 8) (size 9 to 14) (size 15 to 20)
#    0.000    2.000    2.500    0.000    7.000    1.000 
#    0.000    0.000    0.000    0.000    0.000    0.000 
#    0.000    0.000    0.000    0.000    0.000    0.000 
#
# Total GULP energy -396468.907741 kJ/mol
# GULP energy per Si atom -12389.653367 kJ/mol
# Density = 1.883635 g / cm^3
# Si number density = 18.879322 Si / 1000 Ang^3
#
#
#
# Elastic Constant Matrix: (Units=GPa)
#
#
# Indices 1 2 3 4 5 6 
#
# 1 63.9986 59.7171 64.2536 0.0000 11.7040 0.0000
# 2 59.7171 119.7831 58.9719 0.0000 0.3345 0.0000
# 3 64.2536 58.9719 124.7263 0.0000 -1.0466 0.0000
# 4 0.0000 0.0000 0.0000 28.6774 0.0000 -5.0179
# 5 11.7040 0.3345 -1.0466 0.0000 29.6086 0.0000
# 6 0.0000 0.0000 0.0000 -5.0179 0.0000 26.1640
#
#
#
# Elastic Compliance Matrix: (Units=1/GPa)
#
#
# Indices 1 2 3 4 5 6 
#
# 1 0.059938 -0.018915 -0.022138 0.000000 -0.024262 0.000000
# 2 -0.018915 0.016853 0.001838 0.000000 0.007351 0.000000
# 3 -0.022138 0.001838 0.018632 0.000000 0.009389 0.000000
# 4 0.000000 0.000000 0.000000 0.036082 0.000000 0.006920
# 5 -0.024262 0.007351 0.009389 0.000000 0.043613 0.000000
# 6 0.000000 0.000000 0.000000 0.006920 0.000000 0.039548
#
#
# Mechanical properties :
#
#
# Convention : Reuss Voigt Hill
#
# Bulk Modulus (GPa) = 58.84940 74.93259 66.89100
# Shear Modulus (GPa) = 16.73580 25.26102 20.99841
#
# Velocity S-wave (km/s) = 2.98058 3.66187 3.33865
# Velocity P-wave (km/s) = 6.56385 7.59312 7.09717
#
# Compressibility (1/GPa) = 0.01699253
#
# Stress axis : x y z
#
# Youngs Moduli (GPa) = 16.68388 59.33586 53.67098
#
# Poissons Ratio (x) = 1.12234 1.18816
# Poissons Ratio (y) = 0.31558 -0.09862
# Poissons Ratio (z) = 0.36935 -0.10903
#
# Static dielectric constant tensor:
#      x y z
#    x 3.480940 0.000000 0.071860 
#    y 0.000000 3.769310 0.000000 
#    z 0.071860 0.000000 4.141630 
# 
# 
# High freq. dielectric constant tensor:
#      x y z
#    x 1.719960 0.000000 -0.014970 
#    y 0.000000 1.730920 0.000000 
#    z -0.014970 0.000000 1.754490 
# 
# From -- ./inp_files/10650.got.cif
#   From: 2010.03.12/outbox.cif.g09.slc.cpg/sg14_6_cif.got.tgz:10650.got - 2010.03.31 13:35:05.
