data_PCOD8125826
_publ_section_title
;
Structure prediction by ZEFSAII (Michael W. Deem and Ramdas Pophale) SiO2 
 PCOD8125826
Probable space group: P 21/C
;
_chemical_formula_sum "Si O2"
_cell_formula_units_Z 24
_cell_length_a 8.982888
_cell_length_b 13.802999
_cell_length_c 13.987723
_cell_angle_alpha 90.000000
_cell_angle_beta 136.688574
_cell_angle_gamma 90.000000
_cell_volume 1189.699982
_symmetry_space_group_name_H-M "P 21/C"
_symmetry_group_IT_number 14
_symmetry_cell_setting 'monoclinic'
loop_
_space_group_symop_operation_xyz
x,y,z
-x,1/2+y,1/2-z
-x,-y,-z
x,1/2-y,1/2+z
loop_
_atom_site_type_symbol
_atom_site_label
_atom_site_fract_x
_atom_site_fract_y
_atom_site_fract_z
Si Si1 0.452363 0.195634 0.194380
Si Si2 0.673733 0.335024 0.159709
Si Si3 0.510145 0.280487 0.420819
Si Si4 0.677505 0.985691 0.776765
Si Si5 0.170684 0.366534 0.398581
Si Si6 0.130637 0.573492 0.452194
O O1 0.636878 0.243345 0.214134
O O2 0.423145 0.261579 0.273867
O O3 0.501447 0.084678 0.256176
O O4 0.236390 0.189329 0.027718
O O5 0.578916 0.438757 0.153395
O O6 0.927786 0.338857 0.259043
O O7 0.549989 0.317205 0.001303
O O8 0.323642 0.343441 0.381340
O O9 0.743534 0.334376 0.531081
O O10 0.867672 0.914555 0.823278
O O11 0.797810 0.059940 0.904502
O O12 0.200500 0.480651 0.424148
#
# Coordination Sequence:
#
# PCOD8125826 Si02
#       6
#     4   4   4   4   4   4
#     4  10  21  34  58  82 107 151 184 230 274 331
#     4  10  21  38  55  83 116 145 186 235 277 328
#     4  11  21  32  59  87 109 144 188 232 277 332
#     4   9  18  35  57  81 111 149 185 227 275 333
#     4   9  21  37  55  82 113 144 189 234 269 331
#     4   9  17  34  59  79 106 149 191 225 272 329
#
# _framework density 20.173154
#
# number of rings (size 3 to 8) (size 9 to 14) (size 15 to 20)
#    0.000    2.333    1.667    1.500    2.333    0.667 
#    0.000    0.000    0.000    4.000    0.000    0.000 
#    0.000    0.000    0.000    0.000    0.000    0.000 
#
# Total GULP energy -297355.027691 kJ/mol
# GULP energy per Si atom -12389.792820 kJ/mol
# Density = 2.012724 g / cm^3
# Si number density = 20.173154 Si / 1000 Ang^3
#
#
#
# Elastic Constant Matrix: (Units=GPa)
#
#
# Indices 1 2 3 4 5 6 
#
# 1 64.1271 13.7659 5.4245 0.0000 -8.0873 0.0000
# 2 13.7659 57.6951 -5.1751 0.0000 6.8522 0.0000
# 3 5.4245 -5.1751 25.3026 0.0000 -11.7301 0.0000
# 4 0.0000 0.0000 0.0000 27.2299 0.0000 1.9269
# 5 -8.0873 6.8522 -11.7301 0.0000 27.4044 0.0000
# 6 0.0000 0.0000 0.0000 1.9269 0.0000 39.0570
#
#
#
# Elastic Compliance Matrix: (Units=1/GPa)
#
#
# Indices 1 2 3 4 5 6 
#
# 1 0.017558 -0.005042 -0.002257 0.000000 0.005476 0.000000
# 2 -0.005042 0.019390 0.002632 0.000000 -0.005210 0.000000
# 3 -0.002257 0.002632 0.049815 0.000000 0.019999 0.000000
# 4 0.000000 0.000000 0.000000 0.036853 0.000000 -0.001818
# 5 0.005476 -0.005210 0.019999 0.000000 0.047970 0.000000
# 6 0.000000 0.000000 0.000000 -0.001818 0.000000 0.025693
#
#
# Mechanical properties :
#
#
# Convention : Reuss Voigt Hill
#
# Bulk Modulus (GPa) = 12.91507 19.46169 16.18838
# Shear Modulus (GPa) = 21.51251 27.61222 24.56237
#
# Velocity S-wave (km/s) = 3.26911 3.70369 3.49317
# Velocity P-wave (km/s) = 4.54593 5.28754 4.93069
#
# Compressibility (1/GPa) = 0.07742891
#
# Stress axis : x y z
#
# Youngs Moduli (GPa) = 56.95438 51.57208 20.07430
#
# Poissons Ratio (x) = 0.26003 0.04530
# Poissons Ratio (y) = 0.28717 -0.05283
# Poissons Ratio (z) = 0.12852 -0.13571
#
# Static dielectric constant tensor:
#      x y z
#    x 3.697330 0.000000 -0.091520 
#    y 0.000000 3.731070 0.000000 
#    z -0.091520 0.000000 3.452080 
# 
# 
# High freq. dielectric constant tensor:
#      x y z
#    x 1.786700 0.000000 -0.016020 
#    y 0.000000 1.783380 0.000000 
#    z -0.016020 0.000000 1.760960 
# 
# From -- ./inp_files/40574.got.cif
#   From: 2010.03.12/outbox.cif.g09.slc.cpg/sg14_21_cif.got.tgz:40574.got - 2010.03.31 13:35:05.
