data_PCOD8125855
_publ_section_title
;
Structure prediction by ZEFSAII (Michael W. Deem and Ramdas Pophale) SiO2 
 PCOD8125855
Probable space group: P 21/C
;
_chemical_formula_sum "Si O2"
_cell_formula_units_Z 28
_cell_length_a 12.523519
_cell_length_b 5.450149
_cell_length_c 22.246713
_cell_angle_alpha 90.000000
_cell_angle_beta 112.646430
_cell_angle_gamma 90.000000
_cell_volume 1401.375581
_symmetry_space_group_name_H-M "P 21/C"
_symmetry_group_IT_number 14
_symmetry_cell_setting 'monoclinic'
loop_
_space_group_symop_operation_xyz
x,y,z
-x,1/2+y,1/2-z
-x,-y,-z
x,1/2-y,1/2+z
loop_
_atom_site_type_symbol
_atom_site_label
_atom_site_fract_x
_atom_site_fract_y
_atom_site_fract_z
Si Si1 0.661993 0.442395 0.085078
Si Si2 0.846136 0.435247 0.594375
Si Si3 0.565481 0.810722 0.973066
Si Si4 0.041848 0.096996 0.671901
Si Si5 0.151647 0.313953 0.802999
Si Si6 0.782040 0.937965 0.957074
Si Si7 0.113039 0.951465 0.564548
O O1 0.732408 0.234746 0.064354
O O2 0.534000 0.359737 0.078444
O O3 0.734904 0.519441 0.160331
O O4 0.652518 0.661670 0.035126
O O5 0.835796 0.575103 0.654169
O O6 0.848326 0.602584 0.535236
O O7 0.965114 0.288068 0.618281
O O8 0.642602 0.937154 0.937833
O O9 0.500000 0.000000 0.000000
O O10 0.965574 0.954507 0.704535
O O11 0.143528 0.234898 0.731357
O O12 0.089731 0.915110 0.630964
O O13 0.819803 0.202602 0.938998
O O14 0.810205 0.700236 0.922998
O O15 0.000000 0.000000 0.500000
#
# Coordination Sequence:
#
# PCOD8125855 Si02
#       7
#     4   4   4   4   4   4   4
#     4  10  21  35  59  96 125 157 204 272 335 369
#     4  11  20  37  58  94 126 164 205 261 324 382
#     4  11  21  36  63  94 124 158 209 276 329 371
#     4  11  24  36  61  89 130 170 216 252 325 385
#     4  11  21  38  60  92 124 165 216 271 311 391
#     4  12  24  40  62  93 133 165 216 260 321 395
#     4  12  26  40  60  92 135 179 202 256 322 400
#
# _framework density 19.980367999999999
#
# number of rings (size 3 to 8) (size 9 to 14) (size 15 to 20)
#    0.000    0.857    5.714    2.143    4.000    0.000 
#    0.000    0.000    0.000    0.000    7.429    0.000 
#    0.000    0.000    0.000    0.000    0.000    0.000 
#
# Total GULP energy -347087.582373 kJ/mol
# GULP energy per Si atom -12395.985085 kJ/mol
# Density = 1.993489 g / cm^3
# Si number density = 19.980368 Si / 1000 Ang^3
#
#
#
# Elastic Constant Matrix: (Units=GPa)
#
#
# Indices 1 2 3 4 5 6 
#
# 1 95.7543 35.6501 43.0792 0.0000 7.8873 0.0000
# 2 35.6501 96.9544 16.7651 0.0000 1.8670 0.0000
# 3 43.0792 16.7651 102.1766 0.0000 3.6178 0.0000
# 4 0.0000 0.0000 0.0000 32.7232 0.0000 1.0997
# 5 7.8873 1.8670 3.6178 0.0000 22.6708 0.0000
# 6 0.0000 0.0000 0.0000 1.0997 0.0000 40.6284
#
#
#
# Elastic Compliance Matrix: (Units=1/GPa)
#
#
# Indices 1 2 3 4 5 6 
#
# 1 0.014851 -0.004453 -0.005391 0.000000 -0.003940 0.000000
# 2 -0.004453 0.011958 -0.000105 0.000000 0.000581 0.000000
# 3 -0.005391 -0.000105 0.012079 0.000000 -0.000043 0.000000
# 4 0.000000 0.000000 0.000000 0.030587 0.000000 -0.000828
# 5 -0.003940 0.000581 -0.000043 0.000000 0.045439 0.000000
# 6 0.000000 0.000000 0.000000 -0.000828 0.000000 0.024636
#
#
# Mechanical properties :
#
#
# Convention : Reuss Voigt Hill
#
# Bulk Modulus (GPa) = 52.66044 53.98602 53.32323
# Shear Modulus (GPa) = 30.16054 32.49721 31.32888
#
# Velocity S-wave (km/s) = 3.88945 4.03731 3.96407
# Velocity P-wave (km/s) = 6.82523 6.98651 6.90634
#
# Compressibility (1/GPa) = 0.01898959
#
# Stress axis : x y z
#
# Youngs Moduli (GPa) = 67.33444 83.62323 82.78899
#
# Poissons Ratio (x) = 0.37235 0.44635
# Poissons Ratio (y) = 0.29982 0.00873
# Poissons Ratio (z) = 0.36303 0.00881
#
# Static dielectric constant tensor:
#      x y z
#    x 3.851090 0.000000 0.216380 
#    y 0.000000 3.063120 0.000000 
#    z 0.216380 0.000000 3.439210 
# 
# 
# High freq. dielectric constant tensor:
#      x y z
#    x 1.765890 0.000000 0.012170 
#    y 0.000000 1.799030 0.000000 
#    z 0.012170 0.000000 1.751360 
# 
# From -- ./inp_files/66268.got.cif
#   From: 2010.03.12/outbox.cif.g09.slc.cpg/sg14_34_cif.got.tgz:66268.got - 2010.03.31 13:35:05.
