data_PCOD8125949
_publ_section_title
;
Structure prediction by ZEFSAII (Michael W. Deem and Ramdas Pophale) SiO2 
 PCOD8125949
Probable space group: P 21/C
;
_chemical_formula_sum "Si O2"
_cell_formula_units_Z 28
_cell_length_a 21.026379
_cell_length_b 6.210489
_cell_length_c 14.649326
_cell_angle_alpha 90.000000
_cell_angle_beta 45.836188
_cell_angle_gamma 90.000000
_cell_volume 1372.269820
_symmetry_space_group_name_H-M "P 21/C"
_symmetry_group_IT_number 14
_symmetry_cell_setting 'monoclinic'
loop_
_space_group_symop_operation_xyz
x,y,z
-x,1/2+y,1/2-z
-x,-y,-z
x,1/2-y,1/2+z
loop_
_atom_site_type_symbol
_atom_site_label
_atom_site_fract_x
_atom_site_fract_y
_atom_site_fract_z
Si Si1 0.876323 0.902575 0.067875
Si Si2 0.464181 0.312310 0.411942
Si Si3 0.750000 0.250000 0.130040
Si Si4 0.035819 0.312310 0.340304
Si Si5 0.901184 0.979665 0.414063
Si Si6 0.376323 0.097425 0.179479
Si Si7 0.598816 0.979665 0.216430
O O1 0.889729 0.801748 0.155366
O O2 0.792285 0.064380 0.152432
O O3 0.859150 0.706100 0.017436
O O4 0.963817 0.017299 0.944257
O O5 0.536183 0.482701 0.371891
O O6 0.389729 0.301747 0.565176
O O7 0.417288 0.395877 0.368254
O O8 0.508010 0.077489 0.350495
O O9 0.707715 0.435620 0.237003
O O10 0.673363 0.164726 0.139286
O O11 0.826638 0.335273 0.986012
O O12 0.082712 0.395877 0.202831
O O13 0.991990 0.077489 0.366515
O O14 0.359150 0.293900 0.264263
#
# Coordination Sequence:
#
# PCOD8125949 Si02
#       7
#     4   4   4   4   4   4   4
#     4  10  21  40  58  89 122 160 200 253 302 369
#     4  10  21  36  66  88 116 158 207 251 305 357
#     4  10  24  38  58  86 132 162 200 252 308 362
#     4  10  21  36  66  88 116 158 207 251 305 357
#     4  11  20  40  61  92 120 159 206 257 302 366
#     4  10  21  40  58  89 122 160 200 253 302 369
#     4  11  20  40  61  92 120 159 206 257 302 366
#
# _framework density 20.404152
#
# number of rings (size 3 to 8) (size 9 to 14) (size 15 to 20)
#    0.000    1.714    2.857    1.714    0.000    1.143 
#    0.000    5.714    0.000    0.000    0.000    0.000 
#    0.000    0.000    0.000    0.000    0.000    0.000 
#
# Total GULP energy -347185.584226 kJ/mol
# GULP energy per Si atom -12399.485151 kJ/mol
# Density = 2.035771 g / cm^3
# Si number density = 20.404152 Si / 1000 Ang^3
#
#
#
# Elastic Constant Matrix: (Units=GPa)
#
#
# Indices 1 2 3 4 5 6 
#
# 1 100.0783 40.8134 73.8869 0.0000 17.6036 0.0000
# 2 40.8134 80.4107 43.0886 0.0000 14.3023 0.0000
# 3 73.8869 43.0886 106.1738 0.0000 20.7180 0.0000
# 4 0.0000 0.0000 0.0000 24.9757 0.0000 -5.7545
# 5 17.6036 14.3023 20.7180 0.0000 34.0743 0.0000
# 6 0.0000 0.0000 0.0000 -5.7545 0.0000 25.8911
#
#
#
# Elastic Compliance Matrix: (Units=1/GPa)
#
#
# Indices 1 2 3 4 5 6 
#
# 1 0.021442 -0.003542 -0.013176 0.000000 -0.001580 0.000000
# 2 -0.003542 0.016775 -0.003774 0.000000 -0.002917 0.000000
# 3 -0.013176 -0.003774 0.020970 0.000000 -0.004359 0.000000
# 4 0.000000 0.000000 0.000000 0.042200 0.000000 0.009379
# 5 -0.001580 -0.002917 -0.004359 0.000000 0.034038 0.000000
# 6 0.000000 0.000000 0.000000 0.009379 0.000000 0.040708
#
#
# Mechanical properties :
#
#
# Convention : Reuss Voigt Hill
#
# Bulk Modulus (GPa) = 54.93456 66.91561 60.92508
# Shear Modulus (GPa) = 22.40295 25.57982 23.99139
#
# Velocity S-wave (km/s) = 3.31714 3.54454 3.43273
# Velocity P-wave (km/s) = 6.45391 7.04401 6.75540
#
# Compressibility (1/GPa) = 0.01820348
#
# Stress axis : x y z
#
# Youngs Moduli (GPa) = 46.63682 59.61302 47.68708
#
# Poissons Ratio (x) = 0.21114 0.62833
# Poissons Ratio (y) = 0.16518 0.17996
# Poissons Ratio (z) = 0.61450 0.22497
#
# Static dielectric constant tensor:
#      x y z
#    x 3.698250 0.000000 -0.000890 
#    y 0.000000 3.844070 0.000000 
#    z -0.000890 0.000000 3.698110 
# 
# 
# High freq. dielectric constant tensor:
#      x y z
#    x 1.790100 0.000000 -0.003760 
#    y 0.000000 1.807340 0.000000 
#    z -0.003760 0.000000 1.789510 
# 
# From -- ./inp_files/49655.got.cif
#   From: 2010.03.12/outbox.cif.g09.slc.cpg/sg14_25_cif.got.tgz:49655.got - 2010.03.31 13:35:05.
