data_PCOD8125347
_publ_section_title
;
Structure prediction by ZEFSAII (Michael W. Deem and Ramdas Pophale) SiO2 
 PCOD8125347
Probable space group: P 21/C
;
_chemical_formula_sum "Si O2"
_cell_formula_units_Z 20
_cell_length_a 8.641992
_cell_length_b 7.105622
_cell_length_c 23.379375
_cell_angle_alpha 90.000000
_cell_angle_beta 138.276897
_cell_angle_gamma 90.000000
_cell_volume 955.470721
_symmetry_space_group_name_H-M "P 21/C"
_symmetry_group_IT_number 14
_symmetry_cell_setting 'monoclinic'
loop_
_space_group_symop_operation_xyz
x,y,z
-x,1/2+y,1/2-z
-x,-y,-z
x,1/2-y,1/2+z
loop_
_atom_site_type_symbol
_atom_site_label
_atom_site_fract_x
_atom_site_fract_y
_atom_site_fract_z
Si Si1 0.375092 0.790635 0.903345
Si Si2 0.792719 0.411756 0.317686
Si Si3 0.843793 0.759347 0.744739
Si Si4 0.271604 0.201900 0.911377
Si Si5 0.471464 0.906484 0.811663
O O1 0.503907 0.779879 0.877390
O O2 0.115267 0.708611 0.829506
O O3 0.377105 0.010277 0.917405
O O4 0.532356 0.690400 0.996145
O O5 0.768454 0.556534 0.258303
O O6 0.627213 0.232187 0.263977
O O7 0.716712 0.512688 0.355943
O O8 0.055654 0.338397 0.394161
O O9 0.802482 0.815656 0.666350
O O10 0.708170 0.575669 0.727345
#
# Coordination Sequence:
#
# PCOD8125347 Si02
#       5
#     4   4   4   4   4
#     4   9  19  36  61  88 113 150 195 238 286 340
#     4  11  21  36  59  86 117 155 190 233 291 341
#     4  10  20  38  62  84 116 148 196 240 284 340
#     4   9  19  36  61  88 113 150 195 238 286 340
#     4  11  21  36  59  86 117 155 190 233 291 341
#
# _framework density 20.932091
#
# number of rings (size 3 to 8) (size 9 to 14) (size 15 to 20)
#    0.000    2.000    4.000    0.000    0.000    0.800 
#    0.000    4.000    0.000    2.400    0.000    0.000 
#    0.000    0.000    0.000    0.000    0.000    0.000 
#
# Total GULP energy -247834.290503 kJ/mol
# GULP energy per Si atom -12391.714525 kJ/mol
# Density = 2.088445 g / cm^3
# Si number density = 20.932091 Si / 1000 Ang^3
#
#
#
# Elastic Constant Matrix: (Units=GPa)
#
#
# Indices 1 2 3 4 5 6 
#
# 1 144.1167 15.0085 48.1283 0.0000 -2.6291 0.0000
# 2 15.0085 53.0820 6.1023 0.0000 0.8717 0.0000
# 3 48.1283 6.1023 137.7322 0.0000 6.1609 0.0000
# 4 0.0000 0.0000 0.0000 8.1602 0.0000 -2.5554
# 5 -2.6291 0.8717 6.1609 0.0000 15.3932 0.0000
# 6 0.0000 0.0000 0.0000 -2.5554 0.0000 34.0701
#
#
#
# Elastic Compliance Matrix: (Units=1/GPa)
#
#
# Indices 1 2 3 4 5 6 
#
# 1 0.008160 -0.002020 -0.002881 0.000000 0.002661 0.000000
# 2 -0.002020 0.019444 -0.000093 0.000000 -0.001409 0.000000
# 3 -0.002881 -0.000093 0.008444 0.000000 -0.003866 0.000000
# 4 0.000000 0.000000 0.000000 0.125493 0.000000 0.009412
# 5 0.002661 -0.001409 -0.003866 0.000000 0.067045 0.000000
# 6 0.000000 0.000000 0.000000 0.009412 0.000000 0.030057
#
#
# Mechanical properties :
#
#
# Convention : Reuss Voigt Hill
#
# Bulk Modulus (GPa) = 38.37126 52.60103 45.48614
# Shear Modulus (GPa) = 18.02991 29.23749 23.63370
#
# Velocity S-wave (km/s) = 2.93807 3.74140 3.36380
# Velocity P-wave (km/s) = 5.46633 6.62179 6.07161
#
# Compressibility (1/GPa) = 0.02606117
#
# Stress axis : x y z
#
# Youngs Moduli (GPa) = 122.55264 51.43082 118.42463
#
# Poissons Ratio (x) = 0.10387 0.34116
# Poissons Ratio (y) = 0.24751 0.01098
# Poissons Ratio (z) = 0.35306 0.00477
#
# Static dielectric constant tensor:
#      x y z
#    x 3.885360 0.000000 -0.196550 
#    y 0.000000 3.621030 0.000000 
#    z -0.196550 0.000000 4.220080 
# 
# 
# High freq. dielectric constant tensor:
#      x y z
#    x 1.822520 0.000000 -0.005760 
#    y 0.000000 1.811220 0.000000 
#    z -0.005760 0.000000 1.800830 
# 
# From -- ./inp_files/38630.got.cif
#   From: 2010.03.12/outbox.cif.g09.slc.cpg/sg14_20_cif.got.tgz:38630.got - 2010.03.31 13:35:05.
