data_PCOD8125417
_publ_section_title
;
Structure prediction by ZEFSAII (Michael W. Deem and Ramdas Pophale) SiO2 
 PCOD8125417
Probable space group: P 21/C
;
_chemical_formula_sum "Si O2"
_cell_formula_units_Z 32
_cell_length_a 15.635133
_cell_length_b 8.839739
_cell_length_c 23.484384
_cell_angle_alpha 90.000000
_cell_angle_beta 30.545574
_cell_angle_gamma 90.000000
_cell_volume 1649.586091
_symmetry_space_group_name_H-M "P 21/C"
_symmetry_group_IT_number 14
_symmetry_cell_setting 'monoclinic'
loop_
_space_group_symop_operation_xyz
x,y,z
-x,1/2+y,1/2-z
-x,-y,-z
x,1/2-y,1/2+z
loop_
_atom_site_type_symbol
_atom_site_label
_atom_site_fract_x
_atom_site_fract_y
_atom_site_fract_z
Si Si1 0.846131 0.088189 0.760652
Si Si2 0.817306 0.820175 0.190461
Si Si3 0.949001 0.098157 0.167800
Si Si4 0.765719 0.057237 0.608898
Si Si5 0.763537 0.419927 0.434063
Si Si6 0.120846 0.635240 0.071064
Si Si7 0.402702 0.452906 0.687833
Si Si8 0.968657 0.750792 0.494025
O O1 0.864985 0.268921 0.751690
O O2 0.755268 0.046475 0.871652
O O3 0.728601 0.047669 0.774816
O O4 0.032565 0.011752 0.650328
O O5 0.644352 0.725085 0.292500
O O6 0.969117 0.719064 0.126692
O O7 0.804485 0.976464 0.232801
O O8 0.865779 0.854981 0.097084
O O9 0.038573 0.164262 0.060846
O O10 0.087794 0.019123 0.126239
O O11 0.734346 0.094042 0.559450
O O12 0.842468 0.209866 0.593329
O O13 0.608668 0.008279 0.739304
O O14 0.889240 0.915802 0.535056
O O15 0.794101 0.242399 0.430278
O O16 0.590879 0.479523 0.559757
#
# Coordination Sequence:
#
# PCOD8125417 Si02
#       8
#     4   4   4   4   4   4   4   4
#     4  11  20  38  62  77 108 152 195 224 267 333
#     4   8  18  31  57  80 106 138 179 225 270 330
#     4  11  19  34  57  87 104 135 198 233 261 312
#     4   9  15  32  58  81 105 145 185 221 281 340
#     4  11  24  36  52  85 117 147 182 234 276 326
#     4   9  18  36  56  79 109 146 183 226 278 326
#     4  10  20  39  56  78 114 152 180 220 289 338
#     4   9  14  29  57  84 103 135 186 230 263 324
#
# _framework density 19.398806
#
# number of rings (size 3 to 8) (size 9 to 14) (size 15 to 20)
#    0.000    2.250    2.500    3.000    0.000    0.000 
#    4.500    1.875    0.000    0.000    0.000    0.000 
#    0.000    0.000    0.000    0.000    0.000    0.000 
#
# Total GULP energy -396496.711627 kJ/mol
# GULP energy per Si atom -12390.522238 kJ/mol
# Density = 1.935465 g / cm^3
# Si number density = 19.398806 Si / 1000 Ang^3
#
#
#
# Elastic Constant Matrix: (Units=GPa)
#
#
# Indices 1 2 3 4 5 6 
#
# 1 44.1061 10.6505 18.8933 0.0000 20.8993 0.0000
# 2 10.6505 85.2423 22.1515 0.0000 6.2225 0.0000
# 3 18.8933 22.1515 77.6608 0.0000 22.1380 0.0000
# 4 0.0000 0.0000 0.0000 16.5504 0.0000 8.5211
# 5 20.8993 6.2225 22.1380 0.0000 31.0406 0.0000
# 6 0.0000 0.0000 0.0000 8.5211 0.0000 20.8162
#
#
#
# Elastic Compliance Matrix: (Units=1/GPa)
#
#
# Indices 1 2 3 4 5 6 
#
# 1 0.033991 -0.002291 -0.001535 0.000000 -0.021332 0.000000
# 2 -0.002291 0.012825 -0.003524 0.000000 0.001485 0.000000
# 3 -0.001535 -0.003524 0.017270 0.000000 -0.010577 0.000000
# 4 0.000000 0.000000 0.000000 0.076556 0.000000 -0.031338
# 5 -0.021332 0.001485 -0.010577 0.000000 0.053824 0.000000
# 6 0.000000 0.000000 0.000000 -0.031338 0.000000 0.060868
#
#
# Mechanical properties :
#
#
# Convention : Reuss Voigt Hill
#
# Bulk Modulus (GPa) = 20.24844 34.48886 27.36865
# Shear Modulus (GPa) = 17.45218 24.03568 20.74393
#
# Velocity S-wave (km/s) = 3.00267 3.52380 3.27362
# Velocity P-wave (km/s) = 4.74152 5.86291 5.33178
#
# Compressibility (1/GPa) = 0.04938652
#
# Stress axis : x y z
#
# Youngs Moduli (GPa) = 29.41921 77.97339 57.90301
#
# Poissons Ratio (x) = 0.17863 0.08889
# Poissons Ratio (y) = 0.06740 0.20405
# Poissons Ratio (z) = 0.04516 0.27478
#
# Static dielectric constant tensor:
#      x y z
#    x 3.490230 0.000000 0.326430 
#    y 0.000000 3.695130 0.000000 
#    z 0.326430 0.000000 3.301130 
# 
# 
# High freq. dielectric constant tensor:
#      x y z
#    x 1.740150 0.000000 0.033090 
#    y 0.000000 1.755960 0.000000 
#    z 0.033090 0.000000 1.726790 
# 
# From -- ./inp_files/73829.got.cif
#   From: 2010.03.12/outbox.cif.g09.slc.cpg/sg14_37_cif.got.tgz:73829.got - 2010.03.31 13:35:05.
