data_PCOD8125867
_publ_section_title
;
Structure prediction by ZEFSAII (Michael W. Deem and Ramdas Pophale) SiO2 
 PCOD8125867
Probable space group: P 21/C
;
_chemical_formula_sum "Si O2"
_cell_formula_units_Z 20
_cell_length_a 25.706403
_cell_length_b 7.983069
_cell_length_c 5.040046
_cell_angle_alpha 90.000000
_cell_angle_beta 102.870160
_cell_angle_gamma 90.000000
_cell_volume 1008.313698
_symmetry_space_group_name_H-M "P 21/C"
_symmetry_group_IT_number 14
_symmetry_cell_setting 'monoclinic'
loop_
_space_group_symop_operation_xyz
x,y,z
-x,1/2+y,1/2-z
-x,-y,-z
x,1/2-y,1/2+z
loop_
_atom_site_type_symbol
_atom_site_label
_atom_site_fract_x
_atom_site_fract_y
_atom_site_fract_z
Si Si1 0.546763 0.866440 0.082230
Si Si2 0.042579 0.140847 0.492583
Si Si3 0.838799 0.642250 0.802005
Si Si4 0.366243 0.638191 0.326060
Si Si5 0.243417 0.644435 0.168188
O O1 0.542635 0.780036 0.362750
O O2 0.602466 0.535883 0.616359
O O3 0.500000 0.000000 0.000000
O O4 0.034350 0.205246 0.184803
O O5 0.102055 0.064178 0.593104
O O6 0.000000 0.000000 0.500000
O O7 0.831537 0.701335 0.491808
O O8 0.794158 0.508713 0.812246
O O9 0.381837 0.734245 0.076404
O O10 0.304405 0.585982 0.269104
O O11 0.231436 0.795144 0.357484
#
# Coordination Sequence:
#
# PCOD8125867 Si02
#       5
#     4   4   4   4   4
#     4  12  24  39  60  85 112 146 184 223 270 321
#     4  10  21  36  54  78 106 140 178 222 270 318
#     4  10  21  36  54  78 110 141 176 222 270 318
#     4  10  21  39  58  81 113 144 179 225 268 315
#     4  10  21  36  57  82 109 143 181 220 267 318
#
# _framework density 19.835096
#
# number of rings (size 3 to 8) (size 9 to 14) (size 15 to 20)
#    0.000    1.600    0.000    4.800    0.000    3.200 
#    0.000    0.000    0.000    0.000    0.000    0.000 
#    0.000    0.000    0.000    0.000    0.000    0.000 
#
# Total GULP energy -248100.280716 kJ/mol
# GULP energy per Si atom -12405.014036 kJ/mol
# Density = 1.978995 g / cm^3
# Si number density = 19.835096 Si / 1000 Ang^3
#
#
#
# Elastic Constant Matrix: (Units=GPa)
#
#
# Indices 1 2 3 4 5 6 
#
# 1 116.5151 62.4904 16.6469 0.0000 -2.4611 0.0000
# 2 62.4904 76.4045 2.4303 0.0000 7.5195 0.0000
# 3 16.6469 2.4303 68.0042 0.0000 1.3160 0.0000
# 4 0.0000 0.0000 0.0000 25.4002 0.0000 -10.1739
# 5 -2.4611 7.5195 1.3160 0.0000 21.2387 0.0000
# 6 0.0000 0.0000 0.0000 -10.1739 0.0000 58.2114
#
#
#
# Elastic Compliance Matrix: (Units=1/GPa)
#
#
# Indices 1 2 3 4 5 6 
#
# 1 0.017117 -0.014606 -0.003811 0.000000 0.007391 0.000000
# 2 -0.014606 0.026034 0.002859 0.000000 -0.011087 0.000000
# 3 -0.003811 0.002859 0.015583 0.000000 -0.002420 0.000000
# 4 0.000000 0.000000 0.000000 0.042333 0.000000 0.007399
# 5 0.007391 -0.011087 -0.002420 0.000000 0.052015 0.000000
# 6 0.000000 0.000000 0.000000 0.007399 0.000000 0.018472
#
#
# Mechanical properties :
#
#
# Convention : Reuss Voigt Hill
#
# Bulk Modulus (GPa) = 36.20704 47.11767 41.66236
# Shear Modulus (GPa) = 23.59888 32.92715 28.26302
#
# Velocity S-wave (km/s) = 3.45302 4.07879 3.77888
# Velocity P-wave (km/s) = 5.84735 6.78146 6.33166
#
# Compressibility (1/GPa) = 0.02761894
#
# Stress axis : x y z
#
# Youngs Moduli (GPa) = 58.42284 38.41103 64.17447
#
# Poissons Ratio (x) = 0.56102 0.24457
# Poissons Ratio (y) = 0.85330 -0.18351
# Poissons Ratio (z) = 0.22265 -0.10984
#
# Static dielectric constant tensor:
#      x y z
#    x 3.793910 0.000000 -0.021500 
#    y 0.000000 3.294910 0.000000 
#    z -0.021500 0.000000 4.009110 
# 
# 
# High freq. dielectric constant tensor:
#      x y z
#    x 1.787650 0.000000 -0.006590 
#    y 0.000000 1.757930 0.000000 
#    z -0.006590 0.000000 1.795850 
# 
# From -- ./inp_files/4510.got.cif
#   From: 2010.03.12/outbox.cif.g09.slc.cpg/sg14_3_cif.got.tgz:4510.got - 2010.03.31 13:35:05.
