data_PCOD8125068
_publ_section_title
;
Structure prediction by ZEFSAII (Michael W. Deem and Ramdas Pophale) SiO2 
 PCOD8125068
Probable space group: P 21/C
;
_chemical_formula_sum "Si O2"
_cell_formula_units_Z 24
_cell_length_a 14.157837
_cell_length_b 9.454223
_cell_length_c 14.941890
_cell_angle_alpha 90.000000
_cell_angle_beta 36.778425
_cell_angle_gamma 90.000000
_cell_volume 1197.439356
_symmetry_space_group_name_H-M "P 21/C"
_symmetry_group_IT_number 14
_symmetry_cell_setting 'monoclinic'
loop_
_space_group_symop_operation_xyz
x,y,z
-x,1/2+y,1/2-z
-x,-y,-z
x,1/2-y,1/2+z
loop_
_atom_site_type_symbol
_atom_site_label
_atom_site_fract_x
_atom_site_fract_y
_atom_site_fract_z
Si Si1 0.560280 0.873797 0.186333
Si Si2 0.286280 0.164038 0.555890
Si Si3 0.697544 0.385647 0.464763
Si Si4 0.124047 0.393844 0.777379
Si Si5 0.781119 0.391978 0.998597
Si Si6 0.616687 0.738871 0.834406
O O1 0.372657 0.902754 0.322104
O O2 0.610241 0.858934 0.252152
O O3 0.594945 0.726982 0.109002
O O4 0.656900 0.003629 0.073797
O O5 0.147908 0.279584 0.678346
O O6 0.379542 0.140828 0.579205
O O7 0.215073 0.016676 0.577663
O O8 0.809724 0.454589 0.304974
O O9 0.786993 0.254622 0.440794
O O10 0.535542 0.338587 0.540952
O O11 0.225727 0.339213 0.785957
O O12 0.938166 0.404534 0.940827
#
# Coordination Sequence:
#
# PCOD8125068 Si02
#       6
#     4   4   4   4   4   4
#     4  10  21  37  60  84 114 152 197 233 282 343
#     4   9  21  38  61  81 118 151 191 234 288 340
#     4  10  20  36  62  81 115 153 194 228 288 344
#     4   9  20  36  60  83 115 149 193 232 289 334
#     4  11  19  35  59  88 115 150 186 244 288 330
#     4   9  20  39  64  81 115 153 198 230 283 347
#
# _framework density 20.042770000000001
#
# number of rings (size 3 to 8) (size 9 to 14) (size 15 to 20)
#    1.000    1.333    0.000    3.500    0.000    2.667 
#    0.000    4.167   14.667    0.000    0.000    0.000 
#    0.000    0.000    0.000    0.000    0.000    0.000 
#
# Total GULP energy -297429.671095 kJ/mol
# GULP energy per Si atom -12392.902962 kJ/mol
# Density = 1.999715 g / cm^3
# Si number density = 20.042770 Si / 1000 Ang^3
#
#
#
# Elastic Constant Matrix: (Units=GPa)
#
#
# Indices 1 2 3 4 5 6 
#
# 1 90.6817 3.1921 34.1704 0.0000 -29.3369 0.0000
# 2 3.1921 74.9721 12.3147 0.0000 -18.3597 0.0000
# 3 34.1704 12.3147 62.1779 0.0000 -17.3987 0.0000
# 4 0.0000 0.0000 0.0000 9.1822 0.0000 -0.3032
# 5 -29.3369 -18.3597 -17.3987 0.0000 31.0669 0.0000
# 6 0.0000 0.0000 0.0000 -0.3032 0.0000 27.1457
#
#
#
# Elastic Compliance Matrix: (Units=1/GPa)
#
#
# Indices 1 2 3 4 5 6 
#
# 1 0.018677 0.004326 -0.006487 0.000000 0.016561 0.000000
# 2 0.004326 0.016616 -0.002108 0.000000 0.012724 0.000000
# 3 -0.006487 -0.002108 0.021348 0.000000 0.004584 0.000000
# 4 0.000000 0.000000 0.000000 0.108947 0.000000 0.001217
# 5 0.016561 0.012724 0.004584 0.000000 0.057914 0.000000
# 6 0.000000 0.000000 0.000000 0.001217 0.000000 0.036852
#
#
# Mechanical properties :
#
#
# Convention : Reuss Voigt Hill
#
# Bulk Modulus (GPa) = 20.78828 36.35402 28.57115
# Shear Modulus (GPa) = 17.54832 25.35593 21.45212
#
# Velocity S-wave (km/s) = 2.96217 3.56067 3.27512
# Velocity P-wave (km/s) = 4.70040 5.92301 5.34677
#
# Compressibility (1/GPa) = 0.04810403
#
# Stress axis : x y z
#
# Youngs Moduli (GPa) = 53.54067 60.18170 46.84244
#
# Poissons Ratio (x) = -0.26034 0.30387
# Poissons Ratio (y) = -0.23161 0.09873
# Poissons Ratio (z) = 0.34732 0.12685
#
# Static dielectric constant tensor:
#      x y z
#    x 3.414190 0.000000 -0.113270 
#    y 0.000000 3.608230 0.000000 
#    z -0.113270 0.000000 3.458420 
# 
# 
# High freq. dielectric constant tensor:
#      x y z
#    x 1.768030 0.000000 -0.008520 
#    y 0.000000 1.787820 0.000000 
#    z -0.008520 0.000000 1.767400 
# 
# From -- ./inp_files/58736.got.cif
#   From: 2010.03.12/outbox.cif.g09.slc.cpg/sg14_30_cif.got.tgz:58736.got - 2010.03.31 13:35:05.
