data_PCOD8125670
_publ_section_title
;
Structure prediction by ZEFSAII (Michael W. Deem and Ramdas Pophale) SiO2 
 PCOD8125670
Probable space group: P 21/C
;
_chemical_formula_sum "Si O2"
_cell_formula_units_Z 32
_cell_length_a 10.410107
_cell_length_b 11.481985
_cell_length_c 13.658016
_cell_angle_alpha 90.000000
_cell_angle_beta 112.645460
_cell_angle_gamma 90.000000
_cell_volume 1506.665321
_symmetry_space_group_name_H-M "P 21/C"
_symmetry_group_IT_number 14
_symmetry_cell_setting 'monoclinic'
loop_
_space_group_symop_operation_xyz
x,y,z
-x,1/2+y,1/2-z
-x,-y,-z
x,1/2-y,1/2+z
loop_
_atom_site_type_symbol
_atom_site_label
_atom_site_fract_x
_atom_site_fract_y
_atom_site_fract_z
Si Si1 0.249687 0.423751 0.464209
Si Si2 0.809641 0.358475 0.099521
Si Si3 0.748333 0.335010 0.436085
Si Si4 0.504129 0.127284 0.541640
Si Si5 0.574916 0.693433 0.636673
Si Si6 0.915973 0.583353 0.044143
Si Si7 0.692212 0.771721 0.375375
Si Si8 0.038818 0.800879 0.166765
O O1 0.226530 0.557745 0.483602
O O2 0.354077 0.415518 0.400421
O O3 0.316251 0.356371 0.577736
O O4 0.099837 0.372316 0.395288
O O5 0.660692 0.329581 0.102936
O O6 0.819269 0.497323 0.080361
O O7 0.927736 0.318281 0.209319
O O8 0.816812 0.281295 0.002879
O O9 0.581707 0.327779 0.370438
O O10 0.831465 0.350741 0.358879
O O11 0.418314 0.202905 0.438692
O O12 0.430099 0.142033 0.623918
O O13 0.500000 0.000000 0.500000
O O14 0.675197 0.734771 0.754007
O O15 0.012908 0.662811 0.142234
O O16 0.836441 0.669380 0.947558
O O17 0.000000 0.500000 0.000000
#
# Coordination Sequence:
#
# PCOD8125670 Si02
#       8
#     4   4   4   4   4   4   4   4
#     4  10  24  43  60  94 131 163 210 264 312 379
#     4  11  24  40  67  93 128 167 212 268 318 384
#     4  11  23  45  61  95 131 160 214 267 311 378
#     4  10  20  41  62  94 130 161 214 268 314 376
#     4  10  23  39  66  95 122 173 212 251 331 378
#     4  11  23  43  62  92 132 162 215 269 313 376
#     4  10  22  41  65  91 128 167 211 263 318 384
#     4  11  25  40  66  95 121 176 211 252 333 381
#
# _framework density 21.238956999999999
#
# number of rings (size 3 to 8) (size 9 to 14) (size 15 to 20)
#    0.000    1.500    2.500    1.500    3.500    2.000 
#    0.000    0.000    0.000    0.000    0.000    0.000 
#    0.000    0.000    0.000    0.000    0.000    0.000 
#
# Total GULP energy -396768.207025 kJ/mol
# GULP energy per Si atom -12399.006470 kJ/mol
# Density = 2.119062 g / cm^3
# Si number density = 21.238957 Si / 1000 Ang^3
#
#
#
# Elastic Constant Matrix: (Units=GPa)
#
#
# Indices 1 2 3 4 5 6 
#
# 1 82.1084 5.2274 17.9277 0.0000 -3.8019 0.0000
# 2 5.2274 84.1097 16.2147 0.0000 10.5595 0.0000
# 3 17.9277 16.2147 108.0660 0.0000 14.6079 0.0000
# 4 0.0000 0.0000 0.0000 18.4998 0.0000 -1.1883
# 5 -3.8019 10.5595 14.6079 0.0000 26.6156 0.0000
# 6 0.0000 0.0000 0.0000 -1.1883 0.0000 31.4619
#
#
#
# Elastic Compliance Matrix: (Units=1/GPa)
#
#
# Indices 1 2 3 4 5 6 
#
# 1 0.012939 -0.000763 -0.002509 0.000000 0.003528 0.000000
# 2 -0.000763 0.012730 -0.001173 0.000000 -0.004516 0.000000
# 3 -0.002509 -0.001173 0.010619 0.000000 -0.005721 0.000000
# 4 0.000000 0.000000 0.000000 0.054186 0.000000 0.002047
# 5 0.003528 -0.004516 -0.005721 0.000000 0.043008 0.000000
# 6 0.000000 0.000000 0.000000 0.002047 0.000000 0.031862
#
#
# Mechanical properties :
#
#
# Convention : Reuss Voigt Hill
#
# Bulk Modulus (GPa) = 36.50006 39.22485 37.86246
# Shear Modulus (GPa) = 27.26789 30.97643 29.12216
#
# Velocity S-wave (km/s) = 3.58699 3.82314 3.70694
# Velocity P-wave (km/s) = 5.86328 6.16417 6.01561
#
# Compressibility (1/GPa) = 0.02739722
#
# Stress axis : x y z
#
# Youngs Moduli (GPa) = 77.28711 78.55634 94.16911
#
# Poissons Ratio (x) = 0.05997 0.23626
# Poissons Ratio (y) = 0.05900 0.11046
# Poissons Ratio (z) = 0.19390 0.09214
#
# Static dielectric constant tensor:
#      x y z
#    x 4.201690 0.000000 -0.143720 
#    y 0.000000 4.247920 0.000000 
#    z -0.143720 0.000000 3.498040 
# 
# 
# High freq. dielectric constant tensor:
#      x y z
#    x 1.848820 0.000000 0.001240 
#    y 0.000000 1.829790 0.000000 
#    z 0.001240 0.000000 1.822120 
# 
# From -- ./inp_files/29403.got.cif
#   From: 2010.03.12/outbox.cif.g09.slc.cpg/sg14_15_cif.got.tgz:29403.got - 2010.03.31 13:35:05.
