data_PCOD8125100
_publ_section_title
;
Structure prediction by ZEFSAII (Michael W. Deem and Ramdas Pophale) SiO2 
 PCOD8125100
Probable space group: P 21/C
;
_chemical_formula_sum "Si O2"
_cell_formula_units_Z 32
_cell_length_a 10.826620
_cell_length_b 9.535438
_cell_length_c 28.847597
_cell_angle_alpha 90.000000
_cell_angle_beta 31.084002
_cell_angle_gamma 90.000000
_cell_volume 1537.589658
_symmetry_space_group_name_H-M "P 21/C"
_symmetry_group_IT_number 14
_symmetry_cell_setting 'monoclinic'
loop_
_space_group_symop_operation_xyz
x,y,z
-x,1/2+y,1/2-z
-x,-y,-z
x,1/2-y,1/2+z
loop_
_atom_site_type_symbol
_atom_site_label
_atom_site_fract_x
_atom_site_fract_y
_atom_site_fract_z
Si Si1 0.027177 0.822575 0.753546
Si Si2 0.433930 0.197938 0.194039
Si Si3 0.890611 0.964679 0.200382
Si Si4 0.461506 0.671774 0.436640
Si Si5 0.671398 0.639043 0.534627
Si Si6 0.289469 0.886241 0.229408
Si Si7 0.814287 0.195892 0.152127
Si Si8 0.294133 0.774284 0.084969
O O1 0.747077 0.849229 0.848787
O O2 0.089759 0.670335 0.756897
O O3 0.108347 0.824593 0.673311
O O4 0.178144 0.941333 0.732697
O O5 0.250043 0.321702 0.260986
O O6 0.586475 0.237998 0.098726
O O7 0.608106 0.182089 0.181047
O O8 0.283923 0.054401 0.234810
O O9 0.170163 0.926442 0.117549
O O10 0.834807 0.050675 0.172546
O O11 0.322740 0.523903 0.481807
O O12 0.364639 0.772564 0.509494
O O13 0.546190 0.659235 0.625035
O O14 0.534198 0.718631 0.537553
O O15 0.929861 0.713269 0.455318
O O16 0.247686 0.823650 0.293785
#
# Coordination Sequence:
#
# PCOD8125100 Si02
#       8
#     4   4   4   4   4   4   4   4
#     4  10  21  37  64  92 129 155 206 260 315 371
#     4  11  24  39  61  90 130 164 213 257 302 376
#     4  11  21  39  67  89 123 169 204 255 320 362
#     4  11  20  35  60  97 122 161 209 253 309 370
#     4  10  20  36  65  92 118 157 213 257 306 369
#     4   9  22  39  62  90 122 162 205 262 314 362
#     4  11  22  42  65  88 121 168 215 258 307 363
#     4  11  19  35  63  93 122 155 198 261 314 364
#
# _framework density 20.811796000000001
#
# number of rings (size 3 to 8) (size 9 to 14) (size 15 to 20)
#    0.000    1.500    3.750    2.625    0.000    2.000 
#    2.250    0.625    8.250    7.500    0.000    0.000 
#    0.000    0.000    0.000    0.000    0.000    0.000 
#
# Total GULP energy -396426.973551 kJ/mol
# GULP energy per Si atom -12388.342923 kJ/mol
# Density = 2.076443 g / cm^3
# Si number density = 20.811796 Si / 1000 Ang^3
#
#
#
# Elastic Constant Matrix: (Units=GPa)
#
#
# Indices 1 2 3 4 5 6 
#
# 1 100.1634 33.2225 32.2731 0.0000 2.3079 0.0000
# 2 33.2225 67.7039 29.6704 0.0000 -3.6459 0.0000
# 3 32.2731 29.6704 101.0583 0.0000 10.8862 0.0000
# 4 0.0000 0.0000 0.0000 20.1928 0.0000 -0.8034
# 5 2.3079 -3.6459 10.8862 0.0000 27.0761 0.0000
# 6 0.0000 0.0000 0.0000 -0.8034 0.0000 23.8881
#
#
#
# Elastic Compliance Matrix: (Units=1/GPa)
#
#
# Indices 1 2 3 4 5 6 
#
# 1 0.012469 -0.005111 -0.002397 0.000000 -0.000787 0.000000
# 2 -0.005111 0.019582 -0.004649 0.000000 0.004942 0.000000
# 3 -0.002397 -0.004649 0.012618 0.000000 -0.005495 0.000000
# 4 0.000000 0.000000 0.000000 0.049589 0.000000 0.001668
# 5 -0.000787 0.004942 -0.005495 0.000000 0.039875 0.000000
# 6 0.000000 0.000000 0.000000 0.001668 0.000000 0.041918
#
#
# Mechanical properties :
#
#
# Convention : Reuss Voigt Hill
#
# Bulk Modulus (GPa) = 49.12824 51.02864 50.07844
# Shear Modulus (GPa) = 24.13725 25.81538 24.97632
#
# Velocity S-wave (km/s) = 3.40926 3.52578 3.46801
# Velocity P-wave (km/s) = 6.25736 6.41461 6.33647
#
# Compressibility (1/GPa) = 0.02035489
#
# Stress axis : x y z
#
# Youngs Moduli (GPa) = 80.19750 51.06812 79.25422
#
# Poissons Ratio (x) = 0.26100 0.18995
# Poissons Ratio (y) = 0.40987 0.36848
# Poissons Ratio (z) = 0.19221 0.23743
#
# Static dielectric constant tensor:
#      x y z
#    x 3.864670 0.000000 0.252330 
#    y 0.000000 3.551150 0.000000 
#    z 0.252330 0.000000 4.014660 
# 
# 
# High freq. dielectric constant tensor:
#      x y z
#    x 1.815660 0.000000 0.014920 
#    y 0.000000 1.786950 0.000000 
#    z 0.014920 0.000000 1.815330 
# 
# From -- ./inp_files/79984.got.cif
#   From: 2010.03.12/outbox.cif.g09.slc.cpg/sg14_40_cif.got.tgz:79984.got - 2010.03.31 13:35:05.
