data_PCOD8125864
_publ_section_title
;
Structure prediction by ZEFSAII (Michael W. Deem and Ramdas Pophale) SiO2 
 PCOD8125864
Probable space group: P 21/C
;
_chemical_formula_sum "Si O2"
_cell_formula_units_Z 32
_cell_length_a 19.000756
_cell_length_b 17.338824
_cell_length_c 5.042357
_cell_angle_alpha 90.000000
_cell_angle_beta 98.115080
_cell_angle_gamma 90.000000
_cell_volume 1644.573921
_symmetry_space_group_name_H-M "P 21/C"
_symmetry_group_IT_number 14
_symmetry_cell_setting 'monoclinic'
loop_
_space_group_symop_operation_xyz
x,y,z
-x,1/2+y,1/2-z
-x,-y,-z
x,1/2-y,1/2+z
loop_
_atom_site_type_symbol
_atom_site_label
_atom_site_fract_x
_atom_site_fract_y
_atom_site_fract_z
Si Si1 0.327145 0.299410 0.079345
Si Si2 0.837094 0.798353 0.498071
Si Si3 0.582170 0.950050 0.304191
Si Si4 0.669621 0.299955 0.221636
Si Si5 0.419596 0.550342 0.686277
Si Si6 0.044759 0.909561 0.267314
Si Si7 0.833767 0.298782 0.318948
Si Si8 0.042870 0.409462 0.777457
O O1 0.346139 0.232153 0.298811
O O2 0.370766 0.374189 0.182464
O O3 0.244744 0.323385 0.036532
O O4 0.855156 0.770719 0.211437
O O5 0.882660 0.872104 0.604230
O O6 0.501534 0.924863 0.198343
O O7 0.589490 0.985382 0.597717
O O8 0.608556 0.013025 0.102713
O O9 0.650738 0.233482 0.423409
O O10 0.624600 0.375028 0.260325
O O11 0.751925 0.324491 0.266556
O O12 0.119933 0.872332 0.235473
O O13 0.016891 0.884713 0.540703
O O14 0.057457 0.000243 0.272913
O O15 0.985728 0.882039 0.022820
O O16 0.851286 0.270196 0.623815
#
# Coordination Sequence:
#
# PCOD8125864 Si02
#       8
#     4   4   4   4   4   4   4   4
#     4  10  21  37  56  81 112 144 182 226 271 324
#     4  10  21  36  54  78 106 137 176 219 262 314
#     4  10  21  37  57  83 113 144 182 225 268 321
#     4  10  21  37  56  81 112 144 182 226 271 324
#     4  10  21  37  57  83 113 144 182 225 268 321
#     4  10  21  36  53  76 105 136 174 219 265 316
#     4  10  21  36  54  78 106 137 176 219 262 314
#     4  10  21  36  53  76 105 136 174 219 265 316
#
# _framework density 19.457927000000002
#
# number of rings (size 3 to 8) (size 9 to 14) (size 15 to 20)
#    0.000    2.000    0.000    3.000    0.000    5.000 
#    0.000    3.750    0.000    0.000    0.000    0.000 
#    0.000    0.000    0.000    0.000    0.000    0.000 
#
# Total GULP energy -396881.679469 kJ/mol
# GULP energy per Si atom -12402.552483 kJ/mol
# Density = 1.941364 g / cm^3
# Si number density = 19.457927 Si / 1000 Ang^3
#
#
#
# Elastic Constant Matrix: (Units=GPa)
#
#
# Indices 1 2 3 4 5 6 
#
# 1 95.1935 69.0161 30.8606 0.0000 -2.7340 0.0000
# 2 69.0161 81.0832 20.2916 0.0000 0.0777 0.0000
# 3 30.8606 20.2916 91.3779 0.0000 -3.5664 0.0000
# 4 0.0000 0.0000 0.0000 30.3104 0.0000 -0.7791
# 5 -2.7340 0.0777 -3.5664 0.0000 27.1781 0.0000
# 6 0.0000 0.0000 0.0000 -0.7791 0.0000 22.4191
#
#
#
# Elastic Compliance Matrix: (Units=1/GPa)
#
#
# Indices 1 2 3 4 5 6 
#
# 1 0.029305 -0.023816 -0.004514 0.000000 0.002424 0.000000
# 2 -0.023816 0.032419 0.000751 0.000000 -0.002390 0.000000
# 3 -0.004514 0.000751 0.012347 0.000000 0.001164 0.000000
# 4 0.000000 0.000000 0.000000 0.033021 0.000000 0.001148
# 5 0.002424 -0.002390 0.001164 0.000000 0.037198 0.000000
# 6 0.000000 0.000000 0.000000 0.001148 0.000000 0.044645
#
#
# Mechanical properties :
#
#
# Convention : Reuss Voigt Hill
#
# Bulk Modulus (GPa) = 52.87458 56.44348 54.65903
# Shear Modulus (GPa) = 19.96830 25.81394 22.89112
#
# Velocity S-wave (km/s) = 3.20696 3.64628 3.43365
# Velocity P-wave (km/s) = 6.39887 6.84091 6.62358
#
# Compressibility (1/GPa) = 0.01891268
#
# Stress axis : x y z
#
# Youngs Moduli (GPa) = 34.12406 30.84584 80.99399
#
# Poissons Ratio (x) = 0.73464 0.36558
# Poissons Ratio (y) = 0.81271 -0.06082
# Poissons Ratio (z) = 0.15402 -0.02316
#
# Static dielectric constant tensor:
#      x y z
#    x 3.505200 0.000000 -0.043050 
#    y 0.000000 3.269430 0.000000 
#    z -0.043050 0.000000 3.959800 
# 
# 
# High freq. dielectric constant tensor:
#      x y z
#    x 1.753610 0.000000 -0.003850 
#    y 0.000000 1.746670 0.000000 
#    z -0.003850 0.000000 1.781870 
# 
# From -- ./inp_files/4151.got.cif
#   From: 2010.03.12/outbox.cif.g09.slc.cpg/sg14_3_cif.got.tgz:4151.got - 2010.03.31 13:35:05.
