data_PCOD8125397
_publ_section_title
;
Structure prediction by ZEFSAII (Michael W. Deem and Ramdas Pophale) SiO2 
 PCOD8125397
Probable space group: P 21/C
;
_chemical_formula_sum "Si O2"
_cell_formula_units_Z 32
_cell_length_a 11.155156
_cell_length_b 17.951848
_cell_length_c 13.437583
_cell_angle_alpha 90.000000
_cell_angle_beta 33.887860
_cell_angle_gamma 90.000000
_cell_volume 1500.392103
_symmetry_space_group_name_H-M "P 21/C"
_symmetry_group_IT_number 14
_symmetry_cell_setting 'monoclinic'
loop_
_space_group_symop_operation_xyz
x,y,z
-x,1/2+y,1/2-z
-x,-y,-z
x,1/2-y,1/2+z
loop_
_atom_site_type_symbol
_atom_site_label
_atom_site_fract_x
_atom_site_fract_y
_atom_site_fract_z
Si Si1 0.614131 0.808455 0.248288
Si Si2 0.278118 0.587373 0.462418
Si Si3 0.033137 0.913002 0.466871
Si Si4 0.202970 0.412629 0.537562
Si Si5 0.449028 0.585667 0.550972
Si Si6 0.129468 0.658773 0.110444
Si Si7 0.350322 0.341225 0.889565
Si Si8 0.889324 0.691545 0.748271
O O1 0.384980 0.837835 0.444049
O O2 0.585066 0.740452 0.192723
O O3 0.753199 0.783470 0.246808
O O4 0.737051 0.874920 0.107523
O O5 0.237416 0.500002 0.500001
O O6 0.404138 0.620489 0.473178
O O7 0.435334 0.607108 0.262083
O O8 0.047948 0.625089 0.607479
O O9 0.830549 0.877011 0.554137
O O10 0.241044 0.897307 0.258948
O O11 0.061260 0.877024 0.554097
O O12 0.000000 0.000000 0.500000
O O13 0.350504 0.379513 0.526808
O O14 0.959517 0.392889 0.737885
O O15 0.500000 0.500000 0.500000
O O16 0.029492 0.740448 0.192727
O O17 0.273007 0.337846 0.055984
#
# Coordination Sequence:
#
# PCOD8125397 Si02
#       8
#     4   4   4   4   4   4   4   4
#     4  12  27  46  69 102 140 186 231 278 352 424
#     4  11  24  44  70 102 142 181 231 289 346 407
#     4  12  22  40  76 109 136 175 231 300 356 397
#     4  11  24  44  70 102 142 181 231 289 346 407
#     4  10  20  38  66 105 137 172 221 292 344 395
#     4  12  25  45  70 103 140 178 233 291 346 418
#     4  12  25  45  70 103 140 178 233 291 346 418
#     4  12  27  46  69 102 140 186 231 278 352 424
#
# _framework density 21.327757999999999
#
# number of rings (size 3 to 8) (size 9 to 14) (size 15 to 20)
#    0.000    0.500    6.250    3.750    0.000    1.500 
#    2.250    1.250    0.000    0.000    0.000    0.000 
#    0.000    0.000    0.000    0.000    0.000    0.000 
#
# Total GULP energy -396906.556762 kJ/mol
# GULP energy per Si atom -12403.329899 kJ/mol
# Density = 2.127921 g / cm^3
# Si number density = 21.327758 Si / 1000 Ang^3
#
#
#
# Elastic Constant Matrix: (Units=GPa)
#
#
# Indices 1 2 3 4 5 6 
#
# 1 59.6656 8.6415 23.0121 0.0000 -0.0215 0.0000
# 2 8.6415 93.2102 44.6650 0.0000 2.2947 0.0000
# 3 23.0121 44.6650 187.0534 0.0000 8.1342 0.0000
# 4 0.0000 0.0000 0.0000 42.8999 0.0000 1.2079
# 5 -0.0215 2.2947 8.1342 0.0000 18.7083 0.0000
# 6 0.0000 0.0000 0.0000 1.2079 0.0000 24.0921
#
#
#
# Elastic Compliance Matrix: (Units=1/GPa)
#
#
# Indices 1 2 3 4 5 6 
#
# 1 0.017650 -0.000677 -0.002053 0.000000 0.000996 0.000000
# 2 -0.000677 0.012142 -0.002804 0.000000 -0.000271 0.000000
# 3 -0.002053 -0.002804 0.006374 0.000000 -0.002430 0.000000
# 4 0.000000 0.000000 0.000000 0.023343 0.000000 -0.001170
# 5 0.000996 -0.000271 -0.002430 0.000000 0.054543 0.000000
# 6 0.000000 0.000000 0.000000 -0.001170 0.000000 0.041566
#
#
# Mechanical properties :
#
#
# Convention : Reuss Voigt Hill
#
# Bulk Modulus (GPa) = 39.84495 54.72958 47.28726
# Shear Modulus (GPa) = 28.56293 34.71410 31.63851
#
# Velocity S-wave (km/s) = 3.66353 4.03879 3.85573
# Velocity P-wave (km/s) = 6.05128 6.88956 6.48398
#
# Compressibility (1/GPa) = 0.02509729
#
# Stress axis : x y z
#
# Youngs Moduli (GPa) = 56.65613 82.36167 156.89051
#
# Poissons Ratio (x) = 0.05577 0.32211
# Poissons Ratio (y) = 0.03836 0.43994
# Poissons Ratio (z) = 0.11632 0.23095
#
# Static dielectric constant tensor:
#      x y z
#    x 3.889880 0.000000 0.020970 
#    y 0.000000 3.856780 0.000000 
#    z 0.020970 0.000000 4.219620 
# 
# 
# High freq. dielectric constant tensor:
#      x y z
#    x 1.818740 0.000000 0.002830 
#    y 0.000000 1.837000 0.000000 
#    z 0.002830 0.000000 1.863110 
# 
# From -- ./inp_files/45443.got.cif
#   From: 2010.03.12/outbox.cif.g09.slc.cpg/sg14_23_cif.got.tgz:45443.got - 2010.03.31 13:35:05.
