data_PCOD8125273
_publ_section_title
;
Structure prediction by ZEFSAII (Michael W. Deem and Ramdas Pophale) SiO2 
 PCOD8125273
Probable space group: P 21/C
;
_chemical_formula_sum "Si O2"
_cell_formula_units_Z 32
_cell_length_a 11.954292
_cell_length_b 7.422682
_cell_length_c 21.070768
_cell_angle_alpha 90.000000
_cell_angle_beta 116.399387
_cell_angle_gamma 90.000000
_cell_volume 1674.694766
_symmetry_space_group_name_H-M "P 21/C"
_symmetry_group_IT_number 14
_symmetry_cell_setting 'monoclinic'
loop_
_space_group_symop_operation_xyz
x,y,z
-x,1/2+y,1/2-z
-x,-y,-z
x,1/2-y,1/2+z
loop_
_atom_site_type_symbol
_atom_site_label
_atom_site_fract_x
_atom_site_fract_y
_atom_site_fract_z
Si Si1 0.595049 0.305136 0.324428
Si Si2 0.779195 0.985266 0.371070
Si Si3 0.855866 0.752505 0.714534
Si Si4 0.597271 0.305910 0.468871
Si Si5 0.326771 0.341561 0.728536
Si Si6 0.769156 0.981928 0.515171
Si Si7 0.994274 0.491892 0.155711
Si Si8 0.315865 0.363939 0.433402
O O1 0.666730 0.120633 0.327409
O O2 0.617766 0.369426 0.401936
O O3 0.643788 0.462841 0.291470
O O4 0.450194 0.267658 0.277679
O O5 0.811523 0.972723 0.453148
O O6 0.898589 0.065897 0.364182
O O7 0.746579 0.783607 0.339949
O O8 0.757683 0.874003 0.729816
O O9 0.949208 0.664323 0.787545
O O10 0.772261 0.615631 0.650907
O O11 0.945895 0.857353 0.690674
O O12 0.646798 0.104371 0.492315
O O13 0.452638 0.298552 0.448782
O O14 0.676397 0.441900 0.532179
O O15 0.741248 0.781499 0.532638
O O16 0.879589 0.075609 0.583422
#
# Coordination Sequence:
#
# PCOD8125273 Si02
#       8
#     4   4   4   4   4   4   4   4
#     4  11  21  36  60  87 121 156 194 246 302 357
#     4  10  22  40  60  85 118 159 202 246 296 351
#     4  10  23  39  60  85 122 154 206 242 293 357
#     4  10  21  36  59  88 118 153 195 239 302 354
#     4  11  21  38  58  89 121 155 197 248 300 356
#     4  10  21  39  60  86 115 155 202 245 291 349
#     4  10  23  40  60  84 118 162 198 249 289 354
#     4  10  20  38  58  87 122 152 191 246 296 352
#
# _framework density 19.107959000000001
#
# number of rings (size 3 to 8) (size 9 to 14) (size 15 to 20)
#    0.000    1.750    2.500    1.500    3.500    0.000 
#    0.000    2.500    0.000    7.500    0.000    0.000 
#    0.000    0.000    0.000    0.000    0.000    0.000 
#
# Total GULP energy -396754.592308 kJ/mol
# GULP energy per Si atom -12398.581010 kJ/mol
# Density = 1.906447 g / cm^3
# Si number density = 19.107959 Si / 1000 Ang^3
#
#
#
# Elastic Constant Matrix: (Units=GPa)
#
#
# Indices 1 2 3 4 5 6 
#
# 1 112.4006 25.3883 32.7018 0.0000 -6.9213 0.0000
# 2 25.3883 56.9150 23.2058 0.0000 -6.6605 0.0000
# 3 32.7018 23.2058 87.0440 0.0000 0.2403 0.0000
# 4 0.0000 0.0000 0.0000 25.0715 0.0000 -0.9645
# 5 -6.9213 -6.6605 0.2403 0.0000 28.7791 0.0000
# 6 0.0000 0.0000 0.0000 -0.9645 0.0000 26.0810
#
#
#
# Elastic Compliance Matrix: (Units=1/GPa)
#
#
# Indices 1 2 3 4 5 6 
#
# 1 0.010660 -0.003260 -0.003141 0.000000 0.001836 0.000000
# 2 -0.003260 0.021340 -0.004476 0.000000 0.004192 0.000000
# 3 -0.003141 -0.004476 0.013867 0.000000 -0.001907 0.000000
# 4 0.000000 0.000000 0.000000 0.039943 0.000000 0.001477
# 5 0.001836 0.004192 -0.001907 0.000000 0.036175 0.000000
# 6 0.000000 0.000000 0.000000 0.001477 0.000000 0.038397
#
#
# Mechanical properties :
#
#
# Convention : Reuss Voigt Hill
#
# Bulk Modulus (GPa) = 41.47079 46.55016 44.01047
# Shear Modulus (GPa) = 26.29199 27.65725 26.97462
#
# Velocity S-wave (km/s) = 3.71343 3.80862 3.76133
# Velocity P-wave (km/s) = 6.33535 6.61478 6.47657
#
# Compressibility (1/GPa) = 0.02411336
#
# Stress axis : x y z
#
# Youngs Moduli (GPa) = 93.80991 46.86101 72.11359
#
# Poissons Ratio (x) = 0.15275 0.22650
# Poissons Ratio (y) = 0.30579 0.32278
# Poissons Ratio (z) = 0.29464 0.20975
#
# Static dielectric constant tensor:
#      x y z
#    x 3.743370 0.000000 -0.013190 
#    y 0.000000 3.174750 0.000000 
#    z -0.013190 0.000000 3.762710 
# 
# 
# High freq. dielectric constant tensor:
#      x y z
#    x 1.758330 0.000000 -0.002800 
#    y 0.000000 1.722270 0.000000 
#    z -0.002800 0.000000 1.760250 
# 
# From -- ./inp_files/67069.got.cif
#   From: 2010.03.12/outbox.cif.g09.slc.cpg/sg14_34_cif.got.tgz:67069.got - 2010.03.31 13:35:05.
