data_PCOD8125454
_publ_section_title
;
Structure prediction by ZEFSAII (Michael W. Deem and Ramdas Pophale) SiO2 
 PCOD8125454
Probable space group: P 21/C
;
_chemical_formula_sum "Si O2"
_cell_formula_units_Z 16
_cell_length_a 11.096767
_cell_length_b 7.046742
_cell_length_c 9.250382
_cell_angle_alpha 90.000000
_cell_angle_beta 124.837239
_cell_angle_gamma 90.000000
_cell_volume 593.704401
_symmetry_space_group_name_H-M "P 21/C"
_symmetry_group_IT_number 14
_symmetry_cell_setting 'monoclinic'
loop_
_space_group_symop_operation_xyz
x,y,z
-x,1/2+y,1/2-z
-x,-y,-z
x,1/2-y,1/2+z
loop_
_atom_site_type_symbol
_atom_site_label
_atom_site_fract_x
_atom_site_fract_y
_atom_site_fract_z
Si Si1 0.875143 0.492985 0.228172
Si Si2 0.484057 0.939449 0.247512
Si Si3 0.599143 0.739142 0.089465
Si Si4 0.165243 0.678579 0.504992
O O1 0.764754 0.663523 0.193027
O O2 0.827777 0.396870 0.044226
O O3 0.870567 0.330900 0.349289
O O4 0.038404 0.574079 0.326347
O O5 0.589582 0.936053 0.175825
O O6 0.527504 0.750405 0.379060
O O7 0.509083 0.107345 0.381472
O O8 0.316681 0.931012 0.077226
#
# Coordination Sequence:
#
# PCOD8125454 Si02
#       4
#     4   4   4   4
#     4  10  23  41  61  87 118 156 196 239 292 347
#     4  10  20  39  61  87 120 153 194 241 290 347
#     4  10  22  39  61  87 118 155 195 240 292 344
#     4  10  21  40  61  86 120 154 195 241 290 347
#
# _framework density 26.949439000000002
#
# number of rings (size 3 to 8) (size 9 to 14) (size 15 to 20)
#    0.000    2.000    0.000    4.500    0.000    8.000 
#    0.000   10.000    0.000    0.000    0.000    0.000 
#    0.000    0.000    0.000    0.000    0.000    0.000 
#
# Total GULP energy -198333.359884 kJ/mol
# GULP energy per Si atom -12395.834993 kJ/mol
# Density = 2.688810 g / cm^3
# Si number density = 26.949439 Si / 1000 Ang^3
#
#
#
# Elastic Constant Matrix: (Units=GPa)
#
#
# Indices 1 2 3 4 5 6 
#
# 1 113.8826 22.8065 49.4638 0.0000 10.3346 0.0000
# 2 22.8065 30.5327 -1.1890 0.0000 0.1730 0.0000
# 3 49.4638 -1.1890 130.0048 0.0000 -6.7035 0.0000
# 4 0.0000 0.0000 0.0000 47.6997 0.0000 -8.1302
# 5 10.3346 0.1730 -6.7035 0.0000 51.1727 0.0000
# 6 0.0000 0.0000 0.0000 -8.1302 0.0000 48.8133
#
#
#
# Elastic Compliance Matrix: (Units=1/GPa)
#
#
# Indices 1 2 3 4 5 6 
#
# 1 0.013493 -0.010269 -0.005403 0.000000 -0.003398 0.000000
# 2 -0.010269 0.040580 0.004408 0.000000 0.002514 0.000000
# 3 -0.005403 0.004408 0.009910 0.000000 0.002374 0.000000
# 4 0.000000 0.000000 0.000000 0.021577 0.000000 0.003594
# 5 -0.003398 0.002514 0.002374 0.000000 0.020530 0.000000
# 6 0.000000 0.000000 0.000000 0.003594 0.000000 0.021085
#
#
# Mechanical properties :
#
#
# Convention : Reuss Voigt Hill
#
# Bulk Modulus (GPa) = 24.12269 46.28694 35.20481
# Shear Modulus (GPa) = 30.57697 43.09305 36.83501
#
# Velocity S-wave (km/s) = 3.37204 4.00313 3.70106
# Velocity P-wave (km/s) = 4.91238 6.21124 5.59959
#
# Compressibility (1/GPa) = 0.04145475
#
# Stress axis : x y z
#
# Youngs Moduli (GPa) = 74.11497 24.64266 100.90420
#
# Poissons Ratio (x) = 0.25307 0.54516
# Poissons Ratio (y) = 0.76112 -0.44479
# Poissons Ratio (z) = 0.40042 -0.10863
#
# Static dielectric constant tensor:
#      x y z
#    x 4.817740 0.000000 -0.354730 
#    y 0.000000 4.977640 0.000000 
#    z -0.354730 0.000000 5.132420 
# 
# 
# High freq. dielectric constant tensor:
#      x y z
#    x 2.079130 0.000000 -0.012150 
#    y 0.000000 2.076180 0.000000 
#    z -0.012150 0.000000 2.100010 
# 
# From -- ./inp_files/11665.got.cif
#   From: 2010.03.12/outbox.cif.g09.slc.cpg/sg14_6_cif.got.tgz:11665.got - 2010.03.31 13:35:05.
