data_PCOD8125515
_publ_section_title
;
Structure prediction by ZEFSAII (Michael W. Deem and Ramdas Pophale) SiO2 
 PCOD8125515
Probable space group: P 21/C
;
_chemical_formula_sum "Si O2"
_cell_formula_units_Z 20
_cell_length_a 10.778531
_cell_length_b 10.318656
_cell_length_c 8.871764
_cell_angle_alpha 90.000000
_cell_angle_beta 81.555210
_cell_angle_gamma 90.000000
_cell_volume 976.019028
_symmetry_space_group_name_H-M "P 21/C"
_symmetry_group_IT_number 14
_symmetry_cell_setting 'monoclinic'
loop_
_space_group_symop_operation_xyz
x,y,z
-x,1/2+y,1/2-z
-x,-y,-z
x,1/2-y,1/2+z
loop_
_atom_site_type_symbol
_atom_site_label
_atom_site_fract_x
_atom_site_fract_y
_atom_site_fract_z
Si Si1 0.667405 0.101644 0.978739
Si Si2 0.122667 0.922515 0.514098
Si Si3 0.604945 0.658021 0.371111
Si Si4 0.804009 0.285224 0.723909
Si Si5 0.620597 0.583720 0.029907
O O1 0.522103 0.132701 0.016968
O O2 0.727153 0.116195 0.132780
O O3 0.713232 0.205796 0.849629
O O4 0.697433 0.956518 0.912993
O O5 0.104782 0.869830 0.686998
O O6 0.115120 0.807303 0.395380
O O7 0.255758 0.995653 0.477093
O O8 0.000000 0.000000 0.500000
O O9 0.589386 0.649459 0.194843
O O10 0.652045 0.802216 0.404882
O O11 0.500000 0.500000 0.000000
#
# Coordination Sequence:
#
# PCOD8125515 Si02
#       5
#     4   4   4   4   4
#     4  10  20  39  64  95 130 173 207 262 330 384
#     4  11  25  45  68  94 129 171 217 263 323 385
#     4  11  24  36  63  99 131 164 220 268 319 377
#     4  10  21  44  66  88 130 173 213 256 332 386
#     4  12  26  42  65  96 134 168 217 270 324 381
#
# _framework density 20.491405
#
# number of rings (size 3 to 8) (size 9 to 14) (size 15 to 20)
#    0.000    1.200    2.000    4.800    8.400    1.600 
#    0.000    2.000    0.000    0.000    0.000    0.000 
#    0.000    0.000    0.000    0.000    0.000    0.000 
#
# Total GULP energy -247957.020555 kJ/mol
# GULP energy per Si atom -12397.851028 kJ/mol
# Density = 2.044477 g / cm^3
# Si number density = 20.491405 Si / 1000 Ang^3
#
#
#
# Elastic Constant Matrix: (Units=GPa)
#
#
# Indices 1 2 3 4 5 6 
#
# 1 108.3931 47.6447 31.6529 0.0000 23.0639 0.0000
# 2 47.6447 125.0669 52.0294 0.0000 32.4622 0.0000
# 3 31.6529 52.0294 136.7305 0.0000 39.4389 0.0000
# 4 0.0000 0.0000 0.0000 41.2533 0.0000 13.2905
# 5 23.0639 32.4622 39.4389 0.0000 23.2629 0.0000
# 6 0.0000 0.0000 0.0000 13.2905 0.0000 35.7515
#
#
#
# Elastic Compliance Matrix: (Units=1/GPa)
#
#
# Indices 1 2 3 4 5 6 
#
# 1 0.012217 -0.002323 0.001203 0.000000 -0.010910 0.000000
# 2 -0.002323 0.012998 0.000312 0.000000 -0.016364 0.000000
# 3 0.001203 0.000312 0.014454 0.000000 -0.026132 0.000000
# 4 0.000000 0.000000 0.000000 0.027539 0.000000 -0.010237
# 5 -0.010910 -0.016364 -0.026132 0.000000 0.120943 0.000000
# 6 0.000000 0.000000 0.000000 -0.010237 0.000000 0.031777
#
#
# Mechanical properties :
#
#
# Convention : Reuss Voigt Hill
#
# Bulk Modulus (GPa) = 26.27932 70.31606 48.29769
# Shear Modulus (GPa) = 21.34667 35.97778 28.66223
#
# Velocity S-wave (km/s) = 3.23110 4.19471 3.74404
# Velocity P-wave (km/s) = 5.17420 7.60593 6.50471
#
# Compressibility (1/GPa) = 0.03805274
#
# Stress axis : x y z
#
# Youngs Moduli (GPa) = 81.85430 76.93321 69.18293
#
# Poissons Ratio (x) = 0.17868 -0.08319
# Poissons Ratio (y) = 0.19011 -0.02156
# Poissons Ratio (z) = -0.09843 -0.02397
#
# Static dielectric constant tensor:
#      x y z
#    x 3.562640 0.000000 0.195370 
#    y 0.000000 4.174660 0.000000 
#    z 0.195370 0.000000 4.120680 
# 
# 
# High freq. dielectric constant tensor:
#      x y z
#    x 1.766730 0.000000 0.014450 
#    y 0.000000 1.816150 0.000000 
#    z 0.014450 0.000000 1.824100 
# 
# From -- ./inp_files/7936.got.cif
#   From: 2010.03.12/outbox.cif.g09.slc.cpg/sg14_4_cif.got.tgz:7936.got - 2010.03.31 13:35:05.
