data_PCOD8125811
_publ_section_title
;
Structure prediction by ZEFSAII (Michael W. Deem and Ramdas Pophale) SiO2 
 PCOD8125811
Probable space group: P 21/C
;
_chemical_formula_sum "Si O2"
_cell_formula_units_Z 32
_cell_length_a 15.644924
_cell_length_b 19.879358
_cell_length_c 15.224552
_cell_angle_alpha 90.000000
_cell_angle_beta 18.777251
_cell_angle_gamma 90.000000
_cell_volume 1524.149471
_symmetry_space_group_name_H-M "P 21/C"
_symmetry_group_IT_number 14
_symmetry_cell_setting 'monoclinic'
loop_
_space_group_symop_operation_xyz
x,y,z
-x,1/2+y,1/2-z
-x,-y,-z
x,1/2-y,1/2+z
loop_
_atom_site_type_symbol
_atom_site_label
_atom_site_fract_x
_atom_site_fract_y
_atom_site_fract_z
Si Si1 0.039428 0.302820 0.010222
Si Si2 0.310137 0.126728 0.960144
Si Si3 0.194895 0.575538 0.127264
Si Si4 0.606982 0.301948 0.749919
Si Si5 0.043628 0.649137 0.452979
Si Si6 0.760131 0.969573 0.287414
Si Si7 0.485551 0.667235 0.562417
Si Si8 0.110884 0.277670 0.139056
O O1 0.309578 0.338015 0.717208
O O2 0.019736 0.305386 0.133873
O O3 0.030663 0.226924 0.982457
O O4 0.803845 0.347120 0.196276
O O5 0.527685 0.102129 0.679235
O O6 0.430038 0.116559 0.941256
O O7 0.232647 0.203078 0.012158
O O8 0.043525 0.082008 0.210881
O O9 0.127899 0.620898 0.277237
O O10 0.220217 0.496904 0.131124
O O11 0.713711 0.359687 0.712432
O O12 0.499201 0.241162 0.912772
O O13 0.851297 0.276671 0.451926
O O14 0.350486 0.325579 0.942589
O O15 0.789543 0.610939 0.744860
O O16 0.500000 0.000000 0.500000
O O17 0.000000 0.000000 0.000000
#
# Coordination Sequence:
#
# PCOD8125811 Si02
#       8
#     4   4   4   4   4   4   4   4
#     4  11  21  32  53  72 102 137 173 195 259 308
#     4  11  20  33  50  69 103 130 172 207 254 288
#     4  11  21  32  53  73  98 142 173 204 246 299
#     4  10  21  33  49  71 101 133 173 209 247 294
#     4  10  21  35  52  71 104 143 171 200 255 296
#     4  10  22  35  48  74 103 131 180 219 233 291
#     4  10  21  33  48  74  99 131 171 215 243 306
#     4  11  21  33  49  74 102 131 173 211 243 307
#
# _framework density 20.995317
#
# number of rings (size 3 to 8) (size 9 to 14) (size 15 to 20)
#    0.000    1.500    1.250    7.500    3.500    5.000 
#    0.000    0.000    0.000    0.000    0.000    0.000 
#    0.000   20.000    0.000    0.000    0.000    0.000 
#
# Total GULP energy -396615.390022 kJ/mol
# GULP energy per Si atom -12394.230938 kJ/mol
# Density = 2.094753 g / cm^3
# Si number density = 20.995317 Si / 1000 Ang^3
#
#
#
# Elastic Constant Matrix: (Units=GPa)
#
#
# Indices 1 2 3 4 5 6 
#
# 1 102.3401 -1.1445 17.7125 0.0000 -23.7677 0.0000
# 2 -1.1445 12.3764 -4.4062 0.0000 -8.8713 0.0000
# 3 17.7125 -4.4062 108.0401 0.0000 -14.6821 0.0000
# 4 0.0000 0.0000 0.0000 16.5464 0.0000 -6.5052
# 5 -23.7677 -8.8713 -14.6821 0.0000 45.5677 0.0000
# 6 0.0000 0.0000 0.0000 -6.5052 0.0000 20.1393
#
#
#
# Elastic Compliance Matrix: (Units=1/GPa)
#
#
# Indices 1 2 3 4 5 6 
#
# 1 0.011569 0.005779 -0.000720 0.000000 0.006928 0.000000
# 2 0.005779 0.101522 0.006576 0.000000 0.024898 0.000000
# 3 -0.000720 0.006576 0.010212 0.000000 0.004195 0.000000
# 4 0.000000 0.000000 0.000000 0.069227 0.000000 0.022361
# 5 0.006928 0.024898 0.004195 0.000000 0.031758 0.000000
# 6 0.000000 0.000000 0.000000 0.022361 0.000000 0.056877
#
#
# Mechanical properties :
#
#
# Convention : Reuss Voigt Hill
#
# Bulk Modulus (GPa) = 6.82241 27.45336 17.13788
# Shear Modulus (GPa) = 16.29984 30.49033 23.39509
#
# Velocity S-wave (km/s) = 2.78934 3.81497 3.34173
# Velocity P-wave (km/s) = 3.69194 5.70172 4.80313
#
# Compressibility (1/GPa) = 0.14657580
#
# Stress axis : x y z
#
# Youngs Moduli (GPa) = 86.43454 9.85012 97.92275
#
# Poissons Ratio (x) = -0.05693 0.07046
# Poissons Ratio (y) = -0.49955 -0.64398
# Poissons Ratio (z) = 0.06220 -0.06478
#
# Static dielectric constant tensor:
#      x y z
#    x 4.294240 0.000000 -0.368020 
#    y 0.000000 3.910880 0.000000 
#    z -0.368020 0.000000 4.017600 
# 
# 
# High freq. dielectric constant tensor:
#      x y z
#    x 1.829900 0.000000 -0.011150 
#    y 0.000000 1.756460 0.000000 
#    z -0.011150 0.000000 1.847430 
# 
# From -- ./inp_files/47641.got.cif
#   From: 2010.03.12/outbox.cif.g09.slc.cpg/sg14_24_cif.got.tgz:47641.got - 2010.03.31 13:35:05.
