data_PCOD8125720
_publ_section_title
;
Structure prediction by ZEFSAII (Michael W. Deem and Ramdas Pophale) SiO2 
 PCOD8125720
Probable space group: P 21/C
;
_chemical_formula_sum "Si O2"
_cell_formula_units_Z 20
_cell_length_a 17.964406
_cell_length_b 5.653343
_cell_length_c 18.661446
_cell_angle_alpha 90.000000
_cell_angle_beta 29.502703
_cell_angle_gamma 90.000000
_cell_volume 933.337090
_symmetry_space_group_name_H-M "P 21/C"
_symmetry_group_IT_number 14
_symmetry_cell_setting 'monoclinic'
loop_
_space_group_symop_operation_xyz
x,y,z
-x,1/2+y,1/2-z
-x,-y,-z
x,1/2-y,1/2+z
loop_
_atom_site_type_symbol
_atom_site_label
_atom_site_fract_x
_atom_site_fract_y
_atom_site_fract_z
Si Si1 0.013733 0.748635 0.530436
Si Si2 0.714265 0.684626 0.862991
Si Si3 0.499292 0.788648 0.428965
Si Si4 0.390538 0.403932 0.412706
Si Si5 0.324662 0.608271 0.325787
O O1 0.175720 0.756719 0.432359
O O2 0.000000 0.500000 0.500000
O O3 0.885734 0.728256 0.697917
O O4 0.000000 0.000000 0.500000
O O5 0.601386 0.841292 0.905678
O O6 0.643080 0.420906 0.913635
O O7 0.706058 0.736826 0.954347
O O8 0.428186 0.631200 0.427828
O O9 0.620906 0.962448 0.288669
O O10 0.292223 0.450638 0.423861
O O11 0.547027 0.289678 0.256178
#
# Coordination Sequence:
#
# PCOD8125720 Si02
#       5
#     4   4   4   4   4
#     4  12  27  47  71 102 142 186 235 289 355 420
#     4  10  23  40  66  99 131 181 229 288 338 420
#     4  10  20  41  68  95 134 173 241 279 344 411
#     4  11  22  40  66  99 134 178 233 288 351 413
#     4  11  23  41  69  99 137 184 232 294 350 421
#
# _framework density 21.428487000000001
#
# number of rings (size 3 to 8) (size 9 to 14) (size 15 to 20)
#    0.000    1.200    4.000    1.800    2.800    0.000 
#    3.600    0.000    0.000    0.000    0.000    0.000 
#    0.000    0.000    0.000    0.000    0.000    0.000 
#
# Total GULP energy -247792.285793 kJ/mol
# GULP energy per Si atom -12389.614290 kJ/mol
# Density = 2.137971 g / cm^3
# Si number density = 21.428487 Si / 1000 Ang^3
#
#
#
# Elastic Constant Matrix: (Units=GPa)
#
#
# Indices 1 2 3 4 5 6 
#
# 1 88.0369 6.5659 18.0746 0.0000 14.1669 0.0000
# 2 6.5659 56.4600 7.8711 0.0000 -1.2649 0.0000
# 3 18.0746 7.8711 113.2368 0.0000 1.3057 0.0000
# 4 0.0000 0.0000 0.0000 15.4521 0.0000 1.3754
# 5 14.1669 -1.2649 1.3057 0.0000 32.8588 0.0000
# 6 0.0000 0.0000 0.0000 1.3754 0.0000 42.1847
#
#
#
# Elastic Compliance Matrix: (Units=1/GPa)
#
#
# Indices 1 2 3 4 5 6 
#
# 1 0.012723 -0.001341 -0.001875 0.000000 -0.005462 0.000000
# 2 -0.001341 0.018044 -0.001055 0.000000 0.001315 0.000000
# 3 -0.001875 -0.001055 0.009199 0.000000 0.000402 0.000000
# 4 0.000000 0.000000 0.000000 0.064904 0.000000 -0.002116
# 5 -0.005462 0.001315 0.000402 0.000000 0.032823 0.000000
# 6 0.000000 0.000000 0.000000 -0.002116 0.000000 0.023774
#
#
# Mechanical properties :
#
#
# Convention : Reuss Voigt Hill
#
# Bulk Modulus (GPa) = 31.82219 35.86189 33.84204
# Shear Modulus (GPa) = 27.70333 33.11392 30.40863
#
# Velocity S-wave (km/s) = 3.59949 3.93532 3.77115
# Velocity P-wave (km/s) = 5.67078 6.11727 5.89825
#
# Compressibility (1/GPa) = 0.03142461
#
# Stress axis : x y z
#
# Youngs Moduli (GPa) = 78.59938 55.41967 108.70750
#
# Poissons Ratio (x) = 0.07430 0.20378
# Poissons Ratio (y) = 0.10537 0.11473
# Poissons Ratio (z) = 0.14734 0.05849
#
# Static dielectric constant tensor:
#      x y z
#    x 4.264620 0.000000 0.333620 
#    y 0.000000 3.973600 0.000000 
#    z 0.333620 0.000000 4.037000 
# 
# 
# High freq. dielectric constant tensor:
#      x y z
#    x 1.842480 0.000000 0.019200 
#    y 0.000000 1.836240 0.000000 
#    z 0.019200 0.000000 1.840420 
# 
# From -- ./inp_files/53957.got.cif
#   From: 2010.03.12/outbox.cif.g09.slc.cpg/sg14_27_cif.got.tgz:53957.got - 2010.03.31 13:35:05.
