data_PCOD8125863
_publ_section_title
;
Structure prediction by ZEFSAII (Michael W. Deem and Ramdas Pophale) SiO2 
 PCOD8125863
Probable space group: P 21/C
;
_chemical_formula_sum "Si O2"
_cell_formula_units_Z 28
_cell_length_a 8.500306
_cell_length_b 16.783843
_cell_length_c 9.814197
_cell_angle_alpha 90.000000
_cell_angle_beta 99.184996
_cell_angle_gamma 90.000000
_cell_volume 1382.217068
_symmetry_space_group_name_H-M "P 21/C"
_symmetry_group_IT_number 14
_symmetry_cell_setting 'monoclinic'
loop_
_space_group_symop_operation_xyz
x,y,z
-x,1/2+y,1/2-z
-x,-y,-z
x,1/2-y,1/2+z
loop_
_atom_site_type_symbol
_atom_site_label
_atom_site_fract_x
_atom_site_fract_y
_atom_site_fract_z
Si Si1 0.897385 0.234037 0.827426
Si Si2 0.324895 0.394764 0.988033
Si Si3 0.603056 0.756235 0.696672
Si Si4 0.373420 0.874890 0.090297
Si Si5 0.537483 0.002849 0.696796
Si Si6 0.095914 0.293282 0.097284
Si Si7 0.341925 0.861970 0.775433
O O1 0.958721 0.198182 0.692001
O O2 0.766756 0.171606 0.855149
O O3 0.823944 0.323365 0.799673
O O4 0.034757 0.240972 0.960660
O O5 0.468346 0.421262 0.106720
O O6 0.160297 0.379532 0.049433
O O7 0.371153 0.309048 0.934007
O O8 0.316696 0.460919 0.866561
O O9 0.540949 0.671121 0.633815
O O10 0.761903 0.752019 0.807218
O O11 0.475391 0.794639 0.780495
O O12 0.389623 0.964194 0.153128
O O13 0.325312 0.887305 0.928624
O O14 0.392792 0.939957 0.696634
#
# Coordination Sequence:
#
# PCOD8125863 Si02
#       7
#     4   4   4   4   4   4   4
#     4  11  25  38  65  94 134 161 217 265 323 367
#     4  10  21  38  62  96 126 162 215 258 309 382
#     4  10  21  35  68  91 119 165 224 267 304 366
#     4  11  21  39  62  94 124 170 212 270 309 374
#     4  10  22  39  65  92 128 168 213 261 316 379
#     4  12  21  41  64  95 126 167 206 269 317 376
#     4  10  22  40  61  94 126 170 212 266 313 381
#
# _framework density 20.257311999999999
#
# number of rings (size 3 to 8) (size 9 to 14) (size 15 to 20)
#    0.000    1.429    4.286    1.286    2.000    2.286 
#    0.000    2.857    0.000    5.143    0.000    0.000 
#    0.000    0.000    0.000    0.000    0.000    0.000 
#
# Total GULP energy -347078.534334 kJ/mol
# GULP energy per Si atom -12395.661940 kJ/mol
# Density = 2.021121 g / cm^3
# Si number density = 20.257312 Si / 1000 Ang^3
#
#
#
# Elastic Constant Matrix: (Units=GPa)
#
#
# Indices 1 2 3 4 5 6 
#
# 1 86.3554 35.6198 39.3629 0.0000 -3.1366 0.0000
# 2 35.6198 78.8239 37.0449 0.0000 1.3483 0.0000
# 3 39.3629 37.0449 108.2943 0.0000 -16.2665 0.0000
# 4 0.0000 0.0000 0.0000 37.1580 0.0000 -3.6634
# 5 -3.1366 1.3483 -16.2665 0.0000 30.1569 0.0000
# 6 0.0000 0.0000 0.0000 -3.6634 0.0000 31.6970
#
#
#
# Elastic Compliance Matrix: (Units=1/GPa)
#
#
# Indices 1 2 3 4 5 6 
#
# 1 0.015475 -0.005155 -0.003901 0.000000 -0.000264 0.000000
# 2 -0.005155 0.017239 -0.004591 0.000000 -0.003784 0.000000
# 3 -0.003901 -0.004591 0.013268 0.000000 0.006956 0.000000
# 4 0.000000 0.000000 0.000000 0.027222 0.000000 0.003146
# 5 -0.000264 -0.003784 0.006956 0.000000 0.037054 0.000000
# 6 0.000000 0.000000 0.000000 0.003146 0.000000 0.031912
#
#
# Mechanical properties :
#
#
# Convention : Reuss Voigt Hill
#
# Bulk Modulus (GPa) = 53.51642 55.28095 54.39868
# Shear Modulus (GPa) = 28.45867 30.56545 29.51206
#
# Velocity S-wave (km/s) = 3.75221 3.88862 3.82102
# Velocity P-wave (km/s) = 6.72665 6.89278 6.81022
#
# Compressibility (1/GPa) = 0.01868585
#
# Stress axis : x y z
#
# Youngs Moduli (GPa) = 64.62014 58.00933 75.37195
#
# Poissons Ratio (x) = 0.29904 0.29404
# Poissons Ratio (y) = 0.33312 0.34607
# Poissons Ratio (z) = 0.25209 0.26635
#
# Static dielectric constant tensor:
#      x y z
#    x 3.707970 0.000000 -0.230970 
#    y 0.000000 3.588640 0.000000 
#    z -0.230970 0.000000 3.853430 
# 
# 
# High freq. dielectric constant tensor:
#      x y z
#    x 1.777050 0.000000 -0.015380 
#    y 0.000000 1.773490 0.000000 
#    z -0.015380 0.000000 1.810920 
# 
# From -- ./inp_files/9520.got.cif
#   From: 2010.03.12/outbox.cif.g09.slc.cpg/sg14_5_cif.got.tgz:9520.got - 2010.03.31 13:35:05.
