data_PCOD8125660
_publ_section_title
;
Structure prediction by ZEFSAII (Michael W. Deem and Ramdas Pophale) SiO2 
 PCOD8125660
Probable space group: P 21/C
;
_chemical_formula_sum "Si O2"
_cell_formula_units_Z 28
_cell_length_a 20.344424
_cell_length_b 10.031211
_cell_length_c 12.574183
_cell_angle_alpha 90.000000
_cell_angle_beta 31.088720
_cell_angle_gamma 90.000000
_cell_volume 1325.058712
_symmetry_space_group_name_H-M "P 21/C"
_symmetry_group_IT_number 14
_symmetry_cell_setting 'monoclinic'
loop_
_space_group_symop_operation_xyz
x,y,z
-x,1/2+y,1/2-z
-x,-y,-z
x,1/2-y,1/2+z
loop_
_atom_site_type_symbol
_atom_site_label
_atom_site_fract_x
_atom_site_fract_y
_atom_site_fract_z
Si Si1 0.736983 0.355779 0.954091
Si Si2 0.511369 0.405787 0.132413
Si Si3 0.675198 0.726646 0.456167
Si Si4 0.123917 0.078195 0.443878
Si Si5 0.126421 0.109996 0.683979
Si Si6 0.557340 0.319393 0.843364
Si Si7 0.928744 0.294335 0.059373
O O1 0.853589 0.450212 0.830840
O O2 0.792722 0.249445 0.793760
O O3 0.629986 0.445256 0.043519
O O4 0.666830 0.279082 0.148476
O O5 0.420392 0.306272 0.318228
O O6 0.422713 0.531107 0.227381
O O7 0.568600 0.323762 0.954266
O O8 0.773102 0.825394 0.375768
O O9 0.589487 0.786060 0.480469
O O10 0.749126 0.601277 0.302077
O O11 0.144232 0.137769 0.533935
O O12 0.010888 0.162043 0.547384
O O13 0.090493 0.920823 0.492335
O O14 0.989730 0.169488 0.909397
#
# Coordination Sequence:
#
# PCOD8125660 Si02
#       7
#     4   4   4   4   4   4   4
#     4  11  23  39  61  92 122 160 204 255 300 368
#     4  10  21  38  61  88 123 163 195 248 304 356
#     4  10  20  41  59  91 123 157 200 253 293 373
#     4  10  23  41  65  87 119 164 205 251 313 358
#     4  11  23  40  63  90 121 159 211 253 308 358
#     4  10  21  38  60  90 124 158 199 243 306 364
#     4  10  24  43  60  90 124 159 208 258 302 369
#
# _framework density 21.131141
#
# number of rings (size 3 to 8) (size 9 to 14) (size 15 to 20)
#    0.000    1.714    1.429    2.143    4.000    0.000 
#    0.000    3.571    0.000    0.000    0.000    0.000 
#    0.000    0.000    0.000    0.000    0.000    0.000 
#
# Total GULP energy -347030.396958 kJ/mol
# GULP energy per Si atom -12393.942749 kJ/mol
# Density = 2.108305 g / cm^3
# Si number density = 21.131141 Si / 1000 Ang^3
#
#
#
# Elastic Constant Matrix: (Units=GPa)
#
#
# Indices 1 2 3 4 5 6 
#
# 1 43.7941 34.8862 28.0825 0.0000 18.3419 0.0000
# 2 34.8862 88.6507 41.5134 0.0000 9.9095 0.0000
# 3 28.0825 41.5134 98.3259 0.0000 11.6322 0.0000
# 4 0.0000 0.0000 0.0000 30.3293 0.0000 -5.8162
# 5 18.3419 9.9095 11.6322 0.0000 29.3533 0.0000
# 6 0.0000 0.0000 0.0000 -5.8162 0.0000 22.9646
#
#
#
# Elastic Compliance Matrix: (Units=1/GPa)
#
#
# Indices 1 2 3 4 5 6 
#
# 1 0.045839 -0.013280 -0.004854 0.000000 -0.022236 0.000000
# 2 -0.013280 0.018086 -0.004304 0.000000 0.003898 0.000000
# 3 -0.004854 -0.004304 0.013475 0.000000 -0.000853 0.000000
# 4 0.000000 0.000000 0.000000 0.034655 0.000000 0.008777
# 5 -0.022236 0.003898 -0.000853 0.000000 0.046985 0.000000
# 6 0.000000 0.000000 0.000000 0.008777 0.000000 0.045768
#
#
# Mechanical properties :
#
#
# Convention : Reuss Voigt Hill
#
# Bulk Modulus (GPa) = 30.74795 48.85944 39.80369
# Shear Modulus (GPa) = 19.19202 24.94867 22.07034
#
# Velocity S-wave (km/s) = 3.01696 3.43980 3.23530
# Velocity P-wave (km/s) = 5.16901 6.24087 5.73006
#
# Compressibility (1/GPa) = 0.03252250
#
# Stress axis : x y z
#
# Youngs Moduli (GPa) = 21.81567 55.29127 74.21158
#
# Poissons Ratio (x) = 0.73426 0.36026
# Poissons Ratio (y) = 0.28971 0.31943
# Poissons Ratio (z) = 0.10590 0.23799
#
# Static dielectric constant tensor:
#      x y z
#    x 3.957720 0.000000 -0.108470 
#    y 0.000000 3.722730 0.000000 
#    z -0.108470 0.000000 3.760510 
# 
# 
# High freq. dielectric constant tensor:
#      x y z
#    x 1.832460 0.000000 0.001910 
#    y 0.000000 1.824360 0.000000 
#    z 0.001910 0.000000 1.826290 
# 
# From -- ./inp_files/35130.got.cif
#   From: 2010.03.12/outbox.cif.g09.slc.cpg/sg14_18_cif.got.tgz:35130.got - 2010.03.31 13:35:05.
