data_PCOD8125685
_publ_section_title
;
Structure prediction by ZEFSAII (Michael W. Deem and Ramdas Pophale) SiO2 
 PCOD8125685
Probable space group: P 21/C
;
_chemical_formula_sum "Si O2"
_cell_formula_units_Z 32
_cell_length_a 10.983761
_cell_length_b 9.899266
_cell_length_c 21.473966
_cell_angle_alpha 90.000000
_cell_angle_beta 35.574127
_cell_angle_gamma 90.000000
_cell_volume 1358.335360
_symmetry_space_group_name_H-M "P 21/C"
_symmetry_group_IT_number 14
_symmetry_cell_setting 'monoclinic'
loop_
_space_group_symop_operation_xyz
x,y,z
-x,1/2+y,1/2-z
-x,-y,-z
x,1/2-y,1/2+z
loop_
_atom_site_type_symbol
_atom_site_label
_atom_site_fract_x
_atom_site_fract_y
_atom_site_fract_z
Si Si1 0.857928 0.027194 0.120365
Si Si2 0.115061 0.245774 0.817092
Si Si3 0.350827 0.385060 0.977530
Si Si4 0.165659 0.259068 0.455063
Si Si5 0.080975 0.399746 0.205799
Si Si6 0.487592 0.321503 0.725898
Si Si7 0.191395 0.634875 0.973857
Si Si8 0.164964 0.657029 0.238344
O O1 0.634045 0.050806 0.179744
O O2 0.865014 0.127674 0.176602
O O3 0.870245 0.871509 0.135750
O O4 0.059048 0.088815 0.995427
O O5 0.158715 0.189890 0.731278
O O6 0.292203 0.357672 0.761017
O O7 0.887000 0.310052 0.924989
O O8 0.272592 0.418559 0.079007
O O9 0.223220 0.255550 0.004630
O O10 0.284027 0.488567 0.950088
O O11 0.597193 0.367579 0.880371
O O12 0.392386 0.245564 0.327908
O O13 0.001760 0.146716 0.495265
O O14 0.022724 0.549682 0.256271
O O15 0.893356 0.313598 0.252342
O O16 0.614256 0.212278 0.634406
#
# Coordination Sequence:
#
# PCOD8125685 Si02
#       8
#     4   4   4   4   4   4   4   4
#     4  10  20  41  64  89 131 171 208 276 330 395
#     4  10  23  42  63  94 132 171 219 269 337 389
#     4  12  22  42  69  95 128 175 225 268 330 394
#     4  10  21  37  64  99 130 169 217 270 334 389
#     4  11  24  42  69  96 134 177 224 275 327 395
#     4  10  21  37  62  97 125 164 216 260 330 391
#     4  10  22  39  65  99 131 165 217 277 320 393
#     4  11  23  42  69  94 132 176 223 271 334 392
#
# _framework density 23.558247000000001
#
# number of rings (size 3 to 8) (size 9 to 14) (size 15 to 20)
#    0.000    1.500    2.500    3.000    0.000    5.500 
#    2.250    0.625    8.250    0.000    0.000    0.000 
#    0.000    0.000    0.000    0.000    0.000    0.000 
#
# Total GULP energy -396472.832734 kJ/mol
# GULP energy per Si atom -12389.776023 kJ/mol
# Density = 2.350463 g / cm^3
# Si number density = 23.558247 Si / 1000 Ang^3
#
#
#
# Elastic Constant Matrix: (Units=GPa)
#
#
# Indices 1 2 3 4 5 6 
#
# 1 69.5974 26.6916 21.6372 0.0000 1.0087 0.0000
# 2 26.6916 82.3604 14.8752 0.0000 -24.3679 0.0000
# 3 21.6372 14.8752 118.1281 0.0000 -11.3145 0.0000
# 4 0.0000 0.0000 0.0000 22.6348 0.0000 -2.5541
# 5 1.0087 -24.3679 -11.3145 0.0000 33.4787 0.0000
# 6 0.0000 0.0000 0.0000 -2.5541 0.0000 42.3552
#
#
#
# Elastic Compliance Matrix: (Units=1/GPa)
#
#
# Indices 1 2 3 4 5 6 
#
# 1 0.018283 -0.007442 -0.003083 0.000000 -0.007010 0.000000
# 2 -0.007442 0.018597 0.000351 0.000000 0.013879 0.000000
# 3 -0.003083 0.000351 0.009321 0.000000 0.003498 0.000000
# 4 0.000000 0.000000 0.000000 0.044482 0.000000 0.002682
# 5 -0.007010 0.013879 0.003498 0.000000 0.041365 0.000000
# 6 0.000000 0.000000 0.000000 0.002682 0.000000 0.023772
#
#
# Mechanical properties :
#
#
# Convention : Reuss Voigt Hill
#
# Bulk Modulus (GPa) = 38.68304 44.05489 41.36896
# Shear Modulus (GPa) = 27.05844 33.48587 30.27215
#
# Velocity S-wave (km/s) = 3.39274 3.77425 3.58857
# Velocity P-wave (km/s) = 5.63945 6.14282 5.89651
#
# Compressibility (1/GPa) = 0.02585112
#
# Stress axis : x y z
#
# Youngs Moduli (GPa) = 54.69673 53.77343 107.28458
#
# Poissons Ratio (x) = 0.40019 0.33076
# Poissons Ratio (y) = 0.40707 -0.03763
# Poissons Ratio (z) = 0.16863 -0.01886
#
# Static dielectric constant tensor:
#      x y z
#    x 4.394960 0.000000 0.190080 
#    y 0.000000 4.245430 0.000000 
#    z 0.190080 0.000000 4.451580 
# 
# 
# High freq. dielectric constant tensor:
#      x y z
#    x 1.933180 0.000000 0.021790 
#    y 0.000000 1.926320 0.000000 
#    z 0.021790 0.000000 1.953140 
# 
# From -- ./inp_files/73294.got.cif
#   From: 2010.03.12/outbox.cif.g09.slc.cpg/sg14_37_cif.got.tgz:73294.got - 2010.03.31 13:35:05.
