data_PCOD8125885
_publ_section_title
;
Structure prediction by ZEFSAII (Michael W. Deem and Ramdas Pophale) SiO2 
 PCOD8125885
Probable space group: P 21/C
;
_chemical_formula_sum "Si O2"
_cell_formula_units_Z 20
_cell_length_a 20.902559
_cell_length_b 8.197351
_cell_length_c 5.261807
_cell_angle_alpha 90.000000
_cell_angle_beta 76.199496
_cell_angle_gamma 90.000000
_cell_volume 875.560680
_symmetry_space_group_name_H-M "P 21/C"
_symmetry_group_IT_number 14
_symmetry_cell_setting 'monoclinic'
loop_
_space_group_symop_operation_xyz
x,y,z
-x,1/2+y,1/2-z
-x,-y,-z
x,1/2-y,1/2+z
loop_
_atom_site_type_symbol
_atom_site_label
_atom_site_fract_x
_atom_site_fract_y
_atom_site_fract_z
Si Si1 0.782849 0.699399 0.218292
Si Si2 0.360289 0.162791 0.631597
Si Si3 0.556621 0.137361 0.446501
Si Si4 0.802172 0.153953 0.649605
Si Si5 0.045100 0.652825 0.001940
O O1 0.824724 0.758343 0.932590
O O2 0.761108 0.511587 0.225211
O O3 0.718508 0.815015 0.296238
O O4 0.391261 0.249756 0.352027
O O5 0.375862 0.969078 0.617586
O O6 0.553197 0.249859 0.699914
O O7 0.500000 0.000000 0.500000
O O8 0.782885 0.273439 0.896057
O O9 0.878543 0.102537 0.590899
O O10 0.028812 0.717721 0.297595
O O11 0.000000 0.500000 0.000000
#
# Coordination Sequence:
#
# PCOD8125885 Si02
#       5
#     4   4   4   4   4
#     4  10  21  38  59  83 115 155 195 241 286 343
#     4  10  21  41  60  86 122 153 194 241 284 343
#     4  12  24  41  66  93 122 157 194 240 293 347
#     4  10  21  38  58  84 116 153 196 243 292 346
#     4  10  21  36  56  84 117 150 193 243 294 351
#
# _framework density 22.842506
#
# number of rings (size 3 to 8) (size 9 to 14) (size 15 to 20)
#    0.000    1.600    0.000    4.800    0.000    1.600 
#    0.000   24.000    0.000    0.000    0.000    0.000 
#    0.000    0.000    0.000    0.000    0.000    0.000 
#
# Total GULP energy -247897.961039 kJ/mol
# GULP energy per Si atom -12394.898052 kJ/mol
# Density = 2.279052 g / cm^3
# Si number density = 22.842506 Si / 1000 Ang^3
#
#
#
# Elastic Constant Matrix: (Units=GPa)
#
#
# Indices 1 2 3 4 5 6 
#
# 1 31.6439 18.0211 10.9171 0.0000 0.8880 0.0000
# 2 18.0211 133.0687 60.3372 0.0000 4.1024 0.0000
# 3 10.9171 60.3372 204.0626 0.0000 26.2849 0.0000
# 4 0.0000 0.0000 0.0000 52.1588 0.0000 2.1953
# 5 0.8880 4.1024 26.2849 0.0000 8.4970 0.0000
# 6 0.0000 0.0000 0.0000 2.1953 0.0000 43.5074
#
#
#
# Elastic Compliance Matrix: (Units=1/GPa)
#
#
# Indices 1 2 3 4 5 6 
#
# 1 0.034293 -0.004392 -0.000578 0.000000 0.000324 0.000000
# 2 -0.004392 0.009444 -0.003373 0.000000 0.006335 0.000000
# 3 -0.000578 -0.003373 0.009494 0.000000 -0.027681 0.000000
# 4 0.000000 0.000000 0.000000 0.019213 0.000000 -0.000969
# 5 0.000324 0.006335 -0.027681 0.000000 0.200226 0.000000
# 6 0.000000 0.000000 0.000000 -0.000969 0.000000 0.023034
#
#
# Mechanical properties :
#
#
# Convention : Reuss Voigt Hill
#
# Bulk Modulus (GPa) = 27.36351 60.81399 44.08875
# Shear Modulus (GPa) = 15.40488 39.46596 27.43542
#
# Velocity S-wave (km/s) = 2.59973 4.16112 3.46940
# Velocity P-wave (km/s) = 4.58439 7.05461 5.94913
#
# Compressibility (1/GPa) = 0.03654502
#
# Stress axis : x y z
#
# Youngs Moduli (GPa) = 29.16022 105.88668 105.32571
#
# Poissons Ratio (x) = 0.46509 0.06084
# Poissons Ratio (y) = 0.12808 0.35531
# Poissons Ratio (z) = 0.01684 0.35720
#
# Static dielectric constant tensor:
#      x y z
#    x 4.036400 0.000000 0.667430 
#    y 0.000000 4.968450 0.000000 
#    z 0.667430 0.000000 6.981760 
# 
# 
# High freq. dielectric constant tensor:
#      x y z
#    x 1.869140 0.000000 0.016350 
#    y 0.000000 1.908620 0.000000 
#    z 0.016350 0.000000 1.936270 
# 
# From -- ./inp_files/4509.got.cif
#   From: 2010.03.12/outbox.cif.g09.slc.cpg/sg14_3_cif.got.tgz:4509.got - 2010.03.31 13:35:05.
