data_PCOD8125391
_publ_section_title
;
Structure prediction by ZEFSAII (Michael W. Deem and Ramdas Pophale) SiO2 
 PCOD8125391
Probable space group: P 21/C
;
_chemical_formula_sum "Si O2"
_cell_formula_units_Z 32
_cell_length_a 9.525660
_cell_length_b 14.169329
_cell_length_c 24.571514
_cell_angle_alpha 90.000000
_cell_angle_beta 150.384592
_cell_angle_gamma 90.000000
_cell_volume 1638.919567
_symmetry_space_group_name_H-M "P 21/C"
_symmetry_group_IT_number 14
_symmetry_cell_setting 'monoclinic'
loop_
_space_group_symop_operation_xyz
x,y,z
-x,1/2+y,1/2-z
-x,-y,-z
x,1/2-y,1/2+z
loop_
_atom_site_type_symbol
_atom_site_label
_atom_site_fract_x
_atom_site_fract_y
_atom_site_fract_z
Si Si1 0.360049 0.860029 0.215862
Si Si2 0.171566 0.304629 0.850126
Si Si3 0.150669 0.660496 0.149534
Si Si4 0.652216 0.057535 0.505062
Si Si5 0.178321 0.394888 0.399152
Si Si6 0.234016 0.433905 0.054910
Si Si7 0.254531 0.563328 0.349041
Si Si8 0.293591 0.024367 0.744961
O O1 0.367377 0.746408 0.215075
O O2 0.561884 0.892721 0.331690
O O3 0.043030 0.888999 0.125748
O O4 0.461950 0.902111 0.192118
O O5 0.162275 0.190860 0.849649
O O6 0.056422 0.340627 0.868586
O O7 0.962130 0.350084 0.734179
O O8 0.492445 0.341259 0.946529
O O9 0.333055 0.564751 0.217510
O O10 0.932504 0.656151 0.025846
O O11 0.500000 0.000000 0.500000
O O12 0.597761 0.996129 0.432567
O O13 0.984241 0.072263 0.631105
O O14 0.116389 0.489034 0.344252
O O15 0.476357 0.391534 0.530566
O O16 0.000000 0.500000 0.000000
O O17 0.341442 0.506764 0.323390
#
# Coordination Sequence:
#
# PCOD8125391 Si02
#       8
#     4   4   4   4   4   4   4   4
#     4  11  22  38  61  88 121 161 202 245 303 368
#     4  10  20  38  65  90 117 158 210 251 297 359
#     4   9  20  36  57  88 115 156 203 241 295 358
#     4  11  18  36  65  93 116 157 205 255 303 340
#     4  10  24  39  62  91 119 164 208 237 313 374
#     4  11  20  38  63  87 121 156 203 257 291 354
#     4  10  21  43  59  85 129 157 197 264 298 360
#     4  10  21  39  58  89 126 157 199 252 301 361
#
# _framework density 19.525058000000001
#
# number of rings (size 3 to 8) (size 9 to 14) (size 15 to 20)
#    0.000    1.750    6.250    0.750    0.000    7.500 
#    2.250    2.500    0.000    0.000    0.000    0.000 
#    0.000    0.000    0.000    0.000    0.000    0.000 
#
# Total GULP energy -396591.397574 kJ/mol
# GULP energy per Si atom -12393.481174 kJ/mol
# Density = 1.948062 g / cm^3
# Si number density = 19.525058 Si / 1000 Ang^3
#
#
#
# Elastic Constant Matrix: (Units=GPa)
#
#
# Indices 1 2 3 4 5 6 
#
# 1 71.9821 35.2962 24.2223 0.0000 11.5772 0.0000
# 2 35.2962 97.7022 56.0589 0.0000 19.3454 0.0000
# 3 24.2223 56.0589 88.7202 0.0000 -0.7820 0.0000
# 4 0.0000 0.0000 0.0000 31.3576 0.0000 1.6855
# 5 11.5772 19.3454 -0.7820 0.0000 32.4512 0.0000
# 6 0.0000 0.0000 0.0000 1.6855 0.0000 27.7871
#
#
#
# Elastic Compliance Matrix: (Units=1/GPa)
#
#
# Indices 1 2 3 4 5 6 
#
# 1 0.017293 -0.004407 -0.001968 0.000000 -0.003589 0.000000
# 2 -0.004407 0.021064 -0.012206 0.000000 -0.011279 0.000000
# 3 -0.001968 -0.012206 0.019595 0.000000 0.008451 0.000000
# 4 0.000000 0.000000 0.000000 0.031995 0.000000 -0.001941
# 5 -0.003589 -0.011279 0.008451 0.000000 0.039023 0.000000
# 6 0.000000 0.000000 0.000000 -0.001941 0.000000 0.036106
#
#
# Mechanical properties :
#
#
# Convention : Reuss Voigt Hill
#
# Bulk Modulus (GPa) = 48.09946 54.39546 51.24746
# Shear Modulus (GPa) = 23.90422 27.84099 25.87260
#
# Velocity S-wave (km/s) = 3.50277 3.78022 3.64414
# Velocity P-wave (km/s) = 6.40683 6.85370 6.63403
#
# Compressibility (1/GPa) = 0.02079026
#
# Stress axis : x y z
#
# Youngs Moduli (GPa) = 57.82665 47.47471 51.03230
#
# Poissons Ratio (x) = 0.20924 0.10044
# Poissons Ratio (y) = 0.25486 0.62288
# Poissons Ratio (z) = 0.11381 0.57946
#
# Static dielectric constant tensor:
#      x y z
#    x 3.721210 0.000000 0.056270 
#    y 0.000000 3.991260 0.000000 
#    z 0.056270 0.000000 3.402480 
# 
# 
# High freq. dielectric constant tensor:
#      x y z
#    x 1.756110 0.000000 -0.003080 
#    y 0.000000 1.756730 0.000000 
#    z -0.003080 0.000000 1.755700 
# 
# From -- ./inp_files/72455.got.cif
#   From: 2010.03.12/outbox.cif.g09.slc.cpg/sg14_37_cif.got.tgz:72455.got - 2010.03.31 13:35:05.
