data_PCOD8125398
_publ_section_title
;
Structure prediction by ZEFSAII (Michael W. Deem and Ramdas Pophale) SiO2 
 PCOD8125398
Probable space group: P 21/C
;
_chemical_formula_sum "Si O2"
_cell_formula_units_Z 24
_cell_length_a 9.702533
_cell_length_b 13.675531
_cell_length_c 16.022849
_cell_angle_alpha 90.000000
_cell_angle_beta 35.118067
_cell_angle_gamma 90.000000
_cell_volume 1223.025935
_symmetry_space_group_name_H-M "P 21/C"
_symmetry_group_IT_number 14
_symmetry_cell_setting 'monoclinic'
loop_
_space_group_symop_operation_xyz
x,y,z
-x,1/2+y,1/2-z
-x,-y,-z
x,1/2-y,1/2+z
loop_
_atom_site_type_symbol
_atom_site_label
_atom_site_fract_x
_atom_site_fract_y
_atom_site_fract_z
Si Si1 0.476580 0.009219 0.174019
Si Si2 0.787218 0.146340 0.487603
Si Si3 0.111819 0.861862 0.094596
Si Si4 0.689960 0.646621 0.682045
Si Si5 0.991719 0.046276 0.682771
Si Si6 0.173132 0.355840 0.934916
O O1 0.339985 0.057120 0.319548
O O2 0.646546 0.925082 0.126095
O O3 0.632584 0.089188 0.048587
O O4 0.287349 0.966488 0.201846
O O5 0.847689 0.246582 0.409145
O O6 0.507220 0.139814 0.647278
O O7 0.924520 0.142621 0.507804
O O8 0.870802 0.057648 0.387104
O O9 0.944282 0.878853 0.097203
O O10 0.984796 0.909451 0.237214
O O11 0.687987 0.754452 0.643413
O O12 0.116947 0.123523 0.558943
#
# Coordination Sequence:
#
# PCOD8125398 Si02
#       6
#     4   4   4   4   4   4
#     4  11  20  41  64  86 115 162 200 237 288 363
#     4  10  20  41  62  83 120 164 193 240 301 350
#     4  11  25  37  59  96 122 147 197 255 301 334
#     4  11  21  39  64  86 122 158 199 242 289 354
#     4  11  22  41  63  88 119 156 200 243 296 354
#     4  10  20  38  66  84 113 163 206 228 287 370
#
# _framework density 19.623459
#
# number of rings (size 3 to 8) (size 9 to 14) (size 15 to 20)
#    0.000    1.333    5.000    2.000    0.000    2.000 
#    3.000    0.000    0.000    0.000    0.000    0.000 
#    0.000    0.000    0.000    0.000    0.000    0.000 
#
# Total GULP energy -297740.808715 kJ/mol
# GULP energy per Si atom -12405.867030 kJ/mol
# Density = 1.957880 g / cm^3
# Si number density = 19.623459 Si / 1000 Ang^3
#
#
#
# Elastic Constant Matrix: (Units=GPa)
#
#
# Indices 1 2 3 4 5 6 
#
# 1 41.6283 36.5351 15.9993 0.0000 0.9897 0.0000
# 2 36.5351 112.3150 25.0226 0.0000 9.0332 0.0000
# 3 15.9993 25.0226 77.7733 0.0000 0.9262 0.0000
# 4 0.0000 0.0000 0.0000 38.0451 0.0000 0.5100
# 5 0.9897 9.0332 0.9262 0.0000 22.0220 0.0000
# 6 0.0000 0.0000 0.0000 0.5100 0.0000 26.7916
#
#
#
# Elastic Compliance Matrix: (Units=1/GPa)
#
#
# Indices 1 2 3 4 5 6 
#
# 1 0.034806 -0.010729 -0.003744 0.000000 0.002994 0.000000
# 2 -0.010729 0.013228 -0.001991 0.000000 -0.004860 0.000000
# 3 -0.003744 -0.001991 0.014264 0.000000 0.000385 0.000000
# 4 0.000000 0.000000 0.000000 0.026291 0.000000 -0.000500
# 5 0.002994 -0.004860 0.000385 0.000000 0.047252 0.000000
# 6 0.000000 0.000000 0.000000 -0.000500 0.000000 0.037335
#
#
# Mechanical properties :
#
#
# Convention : Reuss Voigt Hill
#
# Bulk Modulus (GPa) = 34.04769 42.98118 38.51443
# Shear Modulus (GPa) = 23.15956 27.64905 25.40430
#
# Velocity S-wave (km/s) = 3.43913 3.75771 3.60194
# Velocity P-wave (km/s) = 5.75832 6.38574 6.08013
#
# Compressibility (1/GPa) = 0.02937057
#
# Stress axis : x y z
#
# Youngs Moduli (GPa) = 28.73069 75.59748 70.10616
#
# Poissons Ratio (x) = 0.81107 0.26248
# Poissons Ratio (y) = 0.30824 0.13958
# Poissons Ratio (z) = 0.10757 0.15051
#
# Static dielectric constant tensor:
#      x y z
#    x 3.289590 0.000000 -0.180680 
#    y 0.000000 3.760680 0.000000 
#    z -0.180680 0.000000 3.474550 
# 
# 
# High freq. dielectric constant tensor:
#      x y z
#    x 1.741160 0.000000 -0.014170 
#    y 0.000000 1.779490 0.000000 
#    z -0.014170 0.000000 1.767270 
# 
# From -- ./inp_files/24075.got.cif
#   From: 2010.03.12/outbox.cif.g09.slc.cpg/sg14_13_cif.got.tgz:24075.got - 2010.03.31 13:35:05.
