data_PCOD8125567
_publ_section_title
;
Structure prediction by ZEFSAII (Michael W. Deem and Ramdas Pophale) SiO2 
 PCOD8125567
Probable space group: P 21/C
;
_chemical_formula_sum "Si O2"
_cell_formula_units_Z 28
_cell_length_a 9.362655
_cell_length_b 11.383588
_cell_length_c 14.353010
_cell_angle_alpha 90.000000
_cell_angle_beta 63.556390
_cell_angle_gamma 90.000000
_cell_volume 1369.699213
_symmetry_space_group_name_H-M "P 21/C"
_symmetry_group_IT_number 14
_symmetry_cell_setting 'monoclinic'
loop_
_space_group_symop_operation_xyz
x,y,z
-x,1/2+y,1/2-z
-x,-y,-z
x,1/2-y,1/2+z
loop_
_atom_site_type_symbol
_atom_site_label
_atom_site_fract_x
_atom_site_fract_y
_atom_site_fract_z
Si Si1 0.676678 0.826767 0.796600
Si Si2 0.164368 0.415613 0.252432
Si Si3 0.431651 0.730556 0.516631
Si Si4 0.161111 0.073831 0.955259
Si Si5 0.203777 0.964663 0.129158
Si Si6 0.706225 0.683972 0.073727
Si Si7 0.683967 0.027709 0.460947
O O1 0.777614 0.712243 0.797912
O O2 0.642398 0.832396 0.696922
O O3 0.779092 0.941395 0.793348
O O4 0.510730 0.825885 0.901528
O O5 0.243840 0.446683 0.330316
O O6 0.220648 0.512341 0.163058
O O7 0.974304 0.414253 0.318668
O O8 0.326472 0.640538 0.606525
O O9 0.561784 0.774291 0.551720
O O10 0.312697 0.834381 0.514494
O O11 0.151552 0.217416 0.970411
O O12 0.257320 0.025059 0.015526
O O13 0.000000 0.000000 0.000000
O O14 0.763242 0.556859 0.016978
O O15 0.500000 0.000000 0.500000
#
# Coordination Sequence:
#
# PCOD8125567 Si02
#       7
#     4   4   4   4   4   4   4
#     4  11  22  40  64  88 123 164 201 267 314 365
#     4  10  21  39  64  86 122 167 203 254 319 369
#     4  11  23  40  62  93 123 163 211 258 311 378
#     4   9  19  37  62  91 119 162 211 257 313 373
#     4  11  23  38  64  93 123 160 212 261 308 374
#     4  10  21  39  65  88 126 162 212 259 312 371
#     4  10  20  40  61  86 122 168 203 250 311 373
#
# _framework density 20.442443999999998
#
# number of rings (size 3 to 8) (size 9 to 14) (size 15 to 20)
#    0.000    1.714    4.286    0.429    2.000    3.429 
#    0.000    0.714    6.286    0.000    0.000    0.000 
#    0.000    0.000    0.000    0.000    0.000    0.000 
#
# Total GULP energy -346948.476800 kJ/mol
# GULP energy per Si atom -12391.017029 kJ/mol
# Density = 2.039592 g / cm^3
# Si number density = 20.442444 Si / 1000 Ang^3
#
#
#
# Elastic Constant Matrix: (Units=GPa)
#
#
# Indices 1 2 3 4 5 6 
#
# 1 46.7125 32.2210 36.2589 0.0000 7.5900 0.0000
# 2 32.2210 101.5033 26.6938 0.0000 -2.6890 0.0000
# 3 36.2589 26.6938 112.7114 0.0000 7.1105 0.0000
# 4 0.0000 0.0000 0.0000 32.0507 0.0000 -3.9766
# 5 7.5900 -2.6890 7.1105 0.0000 32.8053 0.0000
# 6 0.0000 0.0000 0.0000 -3.9766 0.0000 32.3481
#
#
#
# Elastic Compliance Matrix: (Units=1/GPa)
#
#
# Indices 1 2 3 4 5 6 
#
# 1 0.035829 -0.009223 -0.008893 0.000000 -0.007118 0.000000
# 2 -0.009223 0.012946 -0.000305 0.000000 0.003261 0.000000
# 3 -0.008893 -0.000305 0.011839 0.000000 -0.000534 0.000000
# 4 0.000000 0.000000 0.000000 0.031684 0.000000 0.003895
# 5 -0.007118 0.003261 -0.000534 0.000000 0.032513 0.000000
# 6 0.000000 0.000000 0.000000 0.003895 0.000000 0.031392
#
#
# Mechanical properties :
#
#
# Convention : Reuss Voigt Hill
#
# Bulk Modulus (GPa) = 42.06544 50.14162 46.10353
# Shear Modulus (GPa) = 24.87956 30.49105 27.68531
#
# Velocity S-wave (km/s) = 3.49242 3.86626 3.68408
# Velocity P-wave (km/s) = 6.07329 6.67173 6.37953
#
# Compressibility (1/GPa) = 0.02377248
#
# Stress axis : x y z
#
# Youngs Moduli (GPa) = 27.91061 77.24234 84.46837
#
# Poissons Ratio (x) = 0.71243 0.75114
# Poissons Ratio (y) = 0.25743 0.02574
# Poissons Ratio (z) = 0.24820 0.02354
#
# Static dielectric constant tensor:
#      x y z
#    x 3.492130 0.000000 0.232350 
#    y 0.000000 4.108560 0.000000 
#    z 0.232350 0.000000 3.994270 
# 
# 
# High freq. dielectric constant tensor:
#      x y z
#    x 1.765650 0.000000 0.013880 
#    y 0.000000 1.810730 0.000000 
#    z 0.013880 0.000000 1.805570 
# 
# From -- ./inp_files/40227.got.cif
#   From: 2010.03.12/outbox.cif.g09.slc.cpg/sg14_21_cif.got.tgz:40227.got - 2010.03.31 13:35:05.
