data_PCOD8125175
_publ_section_title
;
Structure prediction by ZEFSAII (Michael W. Deem and Ramdas Pophale) SiO2 
 PCOD8125175
Probable space group: P 21/C
;
_chemical_formula_sum "Si O2"
_cell_formula_units_Z 32
_cell_length_a 20.409375
_cell_length_b 9.331173
_cell_length_c 8.859170
_cell_angle_alpha 90.000000
_cell_angle_beta 77.464926
_cell_angle_gamma 90.000000
_cell_volume 1646.954007
_symmetry_space_group_name_H-M "P 21/C"
_symmetry_group_IT_number 14
_symmetry_cell_setting 'monoclinic'
loop_
_space_group_symop_operation_xyz
x,y,z
-x,1/2+y,1/2-z
-x,-y,-z
x,1/2-y,1/2+z
loop_
_atom_site_type_symbol
_atom_site_label
_atom_site_fract_x
_atom_site_fract_y
_atom_site_fract_z
Si Si1 0.063863 0.098178 0.144222
Si Si2 0.170469 0.899408 0.236009
Si Si3 0.936137 0.901822 0.208085
Si Si4 0.442516 0.404829 0.956996
Si Si5 0.442516 0.404829 0.600489
Si Si6 0.676971 0.105171 0.836948
Si Si7 0.323029 0.894829 0.513919
Si Si8 0.829531 0.100592 0.406477
O O1 0.048345 0.250000 0.225827
O O2 0.128615 0.030108 0.190335
O O3 0.078633 0.117203 0.960684
O O4 1.000000 0.000000 0.207446
O O5 0.247289 0.929310 0.148715
O O6 0.145184 0.750000 0.177408
O O7 0.160803 0.891396 0.419598
O O8 0.871385 0.969891 0.318950
O O9 0.453733 0.394631 0.773133
O O10 0.500000 0.500000 0.000000
O O11 0.445096 0.250000 0.027452
O O12 0.370505 0.473198 0.034814
O O13 0.500000 0.500000 0.500000
O O14 0.370505 0.473198 0.594680
O O15 0.649247 0.250000 0.925377
O O16 0.674857 0.135656 0.662571
O O17 0.247289 0.929310 0.603995
#
# Coordination Sequence:
#
# PCOD8125175 Si02
#       8
#     4   4   4   4   4   4   4   4
#     4  11  24  40  59  84 114 149 188 232 282 334
#     4  10  20  37  60  86 116 150 188 230 278 332
#     4  11  24  40  59  84 114 149 188 232 282 334
#     4  11  23  39  58  83 114 149 189 233 282 334
#     4  11  23  39  58  83 114 149 189 233 282 334
#     4   9  20  37  58  84 114 148 186 229 278 332
#     4   9  20  37  58  84 114 148 186 229 278 332
#     4  10  20  37  60  86 116 150 188 230 278 332
#
# _framework density 19.429808999999999
#
# number of rings (size 3 to 8) (size 9 to 14) (size 15 to 20)
#    0.000    1.750    0.000    3.750    0.000   10.000 
#    0.000    2.500    0.000    0.000    0.000    0.000 
#    0.000    0.000    0.000    0.000    0.000    0.000 
#
# Total GULP energy -396954.733289 kJ/mol
# GULP energy per Si atom -12404.835415 kJ/mol
# Density = 1.938559 g / cm^3
# Si number density = 19.429809 Si / 1000 Ang^3
#
#
#
# Elastic Constant Matrix: (Units=GPa)
#
#
# Indices 1 2 3 4 5 6 
#
# 1 103.9200 74.4631 59.3838 0.0000 2.8875 0.0000
# 2 74.4631 169.4006 76.5754 0.0000 0.4352 0.0000
# 3 59.3838 76.5754 103.9222 0.0000 -2.8871 0.0000
# 4 0.0000 0.0000 0.0000 41.9867 0.0000 -1.2364
# 5 2.8875 0.4352 -2.8871 0.0000 28.0878 0.0000
# 6 0.0000 0.0000 0.0000 -1.2364 0.0000 47.9901
#
#
#
# Elastic Compliance Matrix: (Units=1/GPa)
#
#
# Indices 1 2 3 4 5 6 
#
# 1 0.016363 -0.004396 -0.006173 0.000000 -0.002249 0.000000
# 2 -0.004396 0.010051 -0.004900 0.000000 -0.000207 0.000000
# 3 -0.006173 -0.004900 0.016828 0.000000 0.002440 0.000000
# 4 0.000000 0.000000 0.000000 0.023835 0.000000 0.000614
# 5 -0.002249 -0.000207 0.002440 0.000000 0.036088 0.000000
# 6 0.000000 0.000000 0.000000 0.000614 0.000000 0.020853
#
#
# Mechanical properties :
#
#
# Convention : Reuss Voigt Hill
#
# Bulk Modulus (GPa) = 81.27610 88.67638 84.97624
# Shear Modulus (GPa) = 31.43489 34.73429 33.08459
#
# Velocity S-wave (km/s) = 4.02664 4.23268 4.13095
# Velocity P-wave (km/s) = 7.97119 8.34421 8.15983
#
# Compressibility (1/GPa) = 0.01230374
#
# Stress axis : x y z
#
# Youngs Moduli (GPa) = 61.11320 99.49205 59.42359
#
# Poissons Ratio (x) = 0.43740 0.36684
# Poissons Ratio (y) = 0.26868 0.29116
# Poissons Ratio (z) = 0.37727 0.48748
#
# Static dielectric constant tensor:
#      x y z
#    x 3.919630 0.000000 -0.056910 
#    y 0.000000 3.565510 0.000000 
#    z -0.056910 0.000000 3.643330 
# 
# 
# High freq. dielectric constant tensor:
#      x y z
#    x 1.768130 0.000000 0.000030 
#    y 0.000000 1.760900 0.000000 
#    z 0.000030 0.000000 1.768280 
# 
# From -- ./inp_files/18614.got.cif
#   From: 2010.03.12/outbox.cif.g09.slc.cpg/sg14_10_cif.got.tgz:18614.got - 2010.03.31 13:35:05.
