data_PCOD8125975
_publ_section_title
;
Structure prediction by ZEFSAII (Michael W. Deem and Ramdas Pophale) SiO2 
 PCOD8125975
Probable space group: P 21/C
;
_chemical_formula_sum "Si O2"
_cell_formula_units_Z 32
_cell_length_a 13.804804
_cell_length_b 9.020540
_cell_length_c 13.075519
_cell_angle_alpha 90.000000
_cell_angle_beta 69.281759
_cell_angle_gamma 90.000000
_cell_volume 1522.955644
_symmetry_space_group_name_H-M "P 21/C"
_symmetry_group_IT_number 14
_symmetry_cell_setting 'monoclinic'
loop_
_space_group_symop_operation_xyz
x,y,z
-x,1/2+y,1/2-z
-x,-y,-z
x,1/2-y,1/2+z
loop_
_atom_site_type_symbol
_atom_site_label
_atom_site_fract_x
_atom_site_fract_y
_atom_site_fract_z
Si Si1 0.350139 0.284016 0.555837
Si Si2 0.017802 0.197520 0.895626
Si Si3 0.842044 0.193368 0.807463
Si Si4 0.384283 0.094421 0.355048
Si Si5 0.874444 0.399462 0.615333
Si Si6 0.798651 0.892821 0.725882
Si Si7 0.302296 0.586386 0.472129
Si Si8 0.515452 0.280746 0.159741
O O1 0.337145 0.150995 0.479764
O O2 0.251523 0.285302 0.668894
O O3 0.358988 0.442957 0.496967
O O4 0.455632 0.253752 0.577299
O O5 0.115370 0.305117 0.869681
O O6 0.947984 0.239161 0.824192
O O7 0.057188 0.030722 0.864630
O O8 0.950316 0.211214 0.024420
O O9 0.819257 0.311791 0.727544
O O10 0.855566 0.030037 0.756543
O O11 0.744621 0.190263 0.920803
O O12 0.289937 0.047533 0.317077
O O13 0.448246 0.231094 0.282575
O O14 0.459696 0.954530 0.340990
O O15 0.788229 0.466480 0.570972
O O16 0.380188 0.686182 0.378860
#
# Coordination Sequence:
#
# PCOD8125975 Si02
#       8
#     4   4   4   4   4   4   4   4
#     4  10  22  40  60  85 116 154 197 239 289 346
#     4  10  21  37  58  82 114 154 196 238 287 347
#     4  10  21  37  57  85 117 151 194 240 291 346
#     4  11  23  39  60  88 119 153 196 241 291 349
#     4  10  21  37  58  85 114 154 196 237 291 347
#     4  10  22  39  59  86 117 152 191 240 293 341
#     4  10  21  38  60  85 117 153 193 243 294 346
#     4  11  23  39  61  88 117 153 194 240 293 347
#
# _framework density 21.011773999999999
#
# number of rings (size 3 to 8) (size 9 to 14) (size 15 to 20)
#    0.000    1.750    0.000    3.750    0.000    8.500 
#    0.000    0.000    0.000    0.000    0.000    0.000 
#    0.000    0.000    0.000    0.000    0.000    0.000 
#
# Total GULP energy -396936.173967 kJ/mol
# GULP energy per Si atom -12404.255436 kJ/mol
# Density = 2.096395 g / cm^3
# Si number density = 21.011774 Si / 1000 Ang^3
#
#
#
# Elastic Constant Matrix: (Units=GPa)
#
#
# Indices 1 2 3 4 5 6 
#
# 1 82.5746 28.0875 33.1779 0.0000 4.3086 0.0000
# 2 28.0875 54.5118 12.3020 0.0000 10.8515 0.0000
# 3 33.1779 12.3020 62.6202 0.0000 16.3721 0.0000
# 4 0.0000 0.0000 0.0000 38.0666 0.0000 -1.5223
# 5 4.3086 10.8515 16.3721 0.0000 23.7671 0.0000
# 6 0.0000 0.0000 0.0000 -1.5223 0.0000 39.2064
#
#
#
# Elastic Compliance Matrix: (Units=1/GPa)
#
#
# Indices 1 2 3 4 5 6 
#
# 1 0.018875 -0.008949 -0.010265 0.000000 0.007735 0.000000
# 2 -0.008949 0.024608 0.002952 0.000000 -0.011647 0.000000
# 3 -0.010265 0.002952 0.025239 0.000000 -0.016873 0.000000
# 4 0.000000 0.000000 0.000000 0.026311 0.000000 0.001022
# 5 0.007735 -0.011647 -0.016873 0.000000 0.057614 0.000000
# 6 0.000000 0.000000 0.000000 0.001022 0.000000 0.025546
#
#
# Mechanical properties :
#
#
# Convention : Reuss Voigt Hill
#
# Bulk Modulus (GPa) = 27.62496 38.53794 33.08145
# Shear Modulus (GPa) = 22.44355 28.61728 25.53042
#
# Velocity S-wave (km/s) = 3.27179 3.69448 3.48954
# Velocity P-wave (km/s) = 5.23915 6.04813 5.65812
#
# Compressibility (1/GPa) = 0.03619915
#
# Stress axis : x y z
#
# Youngs Moduli (GPa) = 52.98068 40.63760 39.62054
#
# Poissons Ratio (x) = 0.36365 0.40669
# Poissons Ratio (y) = 0.47410 -0.11696
# Poissons Ratio (z) = 0.54383 -0.11996
#
# Static dielectric constant tensor:
#      x y z
#    x 3.748460 0.000000 0.005460 
#    y 0.000000 3.484320 0.000000 
#    z 0.005460 0.000000 3.865460 
# 
# 
# High freq. dielectric constant tensor:
#      x y z
#    x 1.829330 0.000000 0.003120 
#    y 0.000000 1.809260 0.000000 
#    z 0.003120 0.000000 1.828970 
# 
# From -- ./inp_files/31814.got.cif
#   From: 2010.03.12/outbox.cif.g09.slc.cpg/sg14_16_cif.got.tgz:31814.got - 2010.03.31 13:35:05.
