data_PCOD8125990
_publ_section_title
;
Structure prediction by ZEFSAII (Michael W. Deem and Ramdas Pophale) SiO2 
 PCOD8125990
Probable space group: P 21/C
;
_chemical_formula_sum "Si O2"
_cell_formula_units_Z 28
_cell_length_a 20.594514
_cell_length_b 11.993355
_cell_length_c 9.105988
_cell_angle_alpha 90.000000
_cell_angle_beta 147.035360
_cell_angle_gamma 90.000000
_cell_volume 1223.813036
_symmetry_space_group_name_H-M "P 21/C"
_symmetry_group_IT_number 14
_symmetry_cell_setting 'monoclinic'
loop_
_space_group_symop_operation_xyz
x,y,z
-x,1/2+y,1/2-z
-x,-y,-z
x,1/2-y,1/2+z
loop_
_atom_site_type_symbol
_atom_site_label
_atom_site_fract_x
_atom_site_fract_y
_atom_site_fract_z
Si Si1 0.355733 0.090107 0.315068
Si Si2 0.410883 0.850565 0.410726
Si Si3 0.943778 0.843691 0.893769
Si Si4 0.128328 0.399980 0.240779
Si Si5 0.005503 0.497766 0.756720
Si Si6 0.669398 0.906402 0.400625
Si Si7 0.437138 0.649500 0.293901
O O1 0.484650 0.114356 0.501245
O O2 0.343208 0.135685 0.456192
O O3 0.324310 0.956962 0.253414
O O4 0.260584 0.146456 0.023753
O O5 0.356329 0.741026 0.228208
O O6 0.453285 0.820115 0.654576
O O7 0.955434 0.710135 0.922929
O O8 0.806965 0.887661 0.615299
O O9 0.017686 0.891870 0.894443
O O10 0.008663 0.890794 0.163522
O O11 0.096164 0.483768 0.313487
O O12 0.123546 0.468324 0.078032
O O13 0.632754 0.035400 0.314063
O O14 0.572736 0.841918 0.116715
#
# Coordination Sequence:
#
# PCOD8125990 Si02
#       7
#     4   4   4   4   4   4   4
#     4  10  21  38  63  91 123 159 210 256 299 379
#     4  10  21  37  58  90 128 164 199 252 309 365
#     4  11  22  42  67  91 123 165 206 265 315 374
#     4  11  22  42  67  91 123 165 206 265 315 374
#     4  10  24  40  62  94 124 152 214 264 314 372
#     4  10  21  38  63  91 123 159 210 256 299 379
#     4  10  21  37  58  90 128 164 199 252 309 365
#
# _framework density 22.879313
#
# number of rings (size 3 to 8) (size 9 to 14) (size 15 to 20)
#    0.000    1.714    1.429    2.571    2.000    1.143 
#    0.000    8.571    0.000    0.000    0.000    0.000 
#    0.000    0.000    0.000    0.000    0.000    0.000 
#
# Total GULP energy -346899.298352 kJ/mol
# GULP energy per Si atom -12389.260655 kJ/mol
# Density = 2.282724 g / cm^3
# Si number density = 22.879313 Si / 1000 Ang^3
#
#
#
# Elastic Constant Matrix: (Units=GPa)
#
#
# Indices 1 2 3 4 5 6 
#
# 1 76.9505 21.0720 27.4023 0.0000 -29.8499 0.0000
# 2 21.0720 78.3474 24.2644 0.0000 -11.3494 0.0000
# 3 27.4023 24.2644 91.4306 0.0000 -29.5878 0.0000
# 4 0.0000 0.0000 0.0000 31.4272 0.0000 -5.8895
# 5 -29.8499 -11.3494 -29.5878 0.0000 39.2825 0.0000
# 6 0.0000 0.0000 0.0000 -5.8895 0.0000 28.1207
#
#
#
# Elastic Compliance Matrix: (Units=1/GPa)
#
#
# Indices 1 2 3 4 5 6 
#
# 1 0.019185 -0.003040 -0.000674 0.000000 0.013193 0.000000
# 2 -0.003040 0.014469 -0.003072 0.000000 -0.000444 0.000000
# 3 -0.000674 -0.003072 0.015209 0.000000 0.010055 0.000000
# 4 0.000000 0.000000 0.000000 0.033119 0.000000 0.006936
# 5 0.013193 -0.000444 0.010055 0.000000 0.042927 0.000000
# 6 0.000000 0.000000 0.000000 0.006936 0.000000 0.037014
#
#
# Mechanical properties :
#
#
# Convention : Reuss Voigt Hill
#
# Bulk Modulus (GPa) = 28.33682 43.57844 35.95763
# Shear Modulus (GPa) = 26.70102 31.36542 29.03322
#
# Velocity S-wave (km/s) = 3.41990 3.70659 3.56613
# Velocity P-wave (km/s) = 5.29212 6.11612 5.71898
#
# Compressibility (1/GPa) = 0.03528978
#
# Stress axis : x y z
#
# Youngs Moduli (GPa) = 52.12281 69.11561 65.75228
#
# Poissons Ratio (x) = 0.21013 0.04431
# Poissons Ratio (y) = 0.15847 0.20201
# Poissons Ratio (z) = 0.03513 0.21234
#
# Static dielectric constant tensor:
#      x y z
#    x 3.965400 0.000000 -0.329340 
#    y 0.000000 4.619420 0.000000 
#    z -0.329340 0.000000 4.143640 
# 
# 
# High freq. dielectric constant tensor:
#      x y z
#    x 1.890230 0.000000 -0.032090 
#    y 0.000000 1.916590 0.000000 
#    z -0.032090 0.000000 1.891080 
# 
# From -- ./inp_files/18976.got.cif
#   From: 2010.03.12/outbox.cif.g09.slc.cpg/sg14_10_cif.got.tgz:18976.got - 2010.03.31 13:35:05.
