data_PCOD8125423
_publ_section_title
;
Structure prediction by ZEFSAII (Michael W. Deem and Ramdas Pophale) SiO2 
 PCOD8125423
Probable space group: P 21/C
;
_chemical_formula_sum "Si O2"
_cell_formula_units_Z 20
_cell_length_a 12.873722
_cell_length_b 8.821343
_cell_length_c 13.744280
_cell_angle_alpha 90.000000
_cell_angle_beta 41.859809
_cell_angle_gamma 90.000000
_cell_volume 1041.570441
_symmetry_space_group_name_H-M "P 21/C"
_symmetry_group_IT_number 14
_symmetry_cell_setting 'monoclinic'
loop_
_space_group_symop_operation_xyz
x,y,z
-x,1/2+y,1/2-z
-x,-y,-z
x,1/2-y,1/2+z
loop_
_atom_site_type_symbol
_atom_site_label
_atom_site_fract_x
_atom_site_fract_y
_atom_site_fract_z
Si Si1 0.897575 0.764441 0.263454
Si Si2 0.335948 0.378081 0.710164
Si Si3 0.600972 0.283811 0.380524
Si Si4 0.351450 0.151493 0.424519
Si Si5 0.178112 0.911837 0.651051
O O1 0.826685 0.686823 0.216789
O O2 0.778447 0.735644 0.437352
O O3 0.064583 0.693741 0.167958
O O4 0.915369 0.946369 0.235427
O O5 0.480618 0.306461 0.552363
O O6 0.331866 0.558639 0.704798
O O7 0.352468 0.327310 0.809305
O O8 0.520812 0.194916 0.347545
O O9 0.745160 0.184617 0.316692
O O10 0.309909 0.978739 0.485761
#
# Coordination Sequence:
#
# PCOD8125423 Si02
#       5
#     4   4   4   4   4
#     4   9  21  37  58  80 115 151 183 234 274 329
#     4  10  21  38  59  88 113 144 191 227 283 335
#     4  10  21  37  61  85 116 144 183 241 274 332
#     4   9  22  35  62  82 112 152 184 228 282 336
#     4  10  20  39  58  79 117 150 184 231 284 321
#
# _framework density 19.201775000000001
#
# number of rings (size 3 to 8) (size 9 to 14) (size 15 to 20)
#    1.200    1.200    0.000    1.800    2.800    0.800 
#    0.000    1.000    0.000    0.000    0.000    0.000 
#    0.000    0.000    0.000    0.000    0.000    0.000 
#
# Total GULP energy -247931.318844 kJ/mol
# GULP energy per Si atom -12396.565942 kJ/mol
# Density = 1.915807 g / cm^3
# Si number density = 19.201775 Si / 1000 Ang^3
#
#
#
# Elastic Constant Matrix: (Units=GPa)
#
#
# Indices 1 2 3 4 5 6 
#
# 1 191.5854 86.9117 40.2038 0.0000 8.2239 0.0000
# 2 86.9117 122.6370 22.0010 0.0000 -10.8553 0.0000
# 3 40.2038 22.0010 27.9410 0.0000 18.1247 0.0000
# 4 0.0000 0.0000 0.0000 18.7334 0.0000 -7.0562
# 5 8.2239 -10.8553 18.1247 0.0000 35.9108 0.0000
# 6 0.0000 0.0000 0.0000 -7.0562 0.0000 38.3123
#
#
#
# Elastic Compliance Matrix: (Units=1/GPa)
#
#
# Indices 1 2 3 4 5 6 
#
# 1 0.009658 -0.004474 -0.011985 0.000000 0.002485 0.000000
# 2 -0.004474 0.014703 -0.012916 0.000000 0.011988 0.000000
# 3 -0.011985 -0.012916 0.095089 0.000000 -0.049152 0.000000
# 4 0.000000 0.000000 0.000000 0.057360 0.000000 0.010564
# 5 0.002485 0.011988 -0.049152 0.000000 0.055709 0.000000
# 6 0.000000 0.000000 0.000000 0.010564 0.000000 0.028047
#
#
# Mechanical properties :
#
#
# Convention : Reuss Voigt Hill
#
# Bulk Modulus (GPa) = 16.47465 71.15517 43.81491
# Shear Modulus (GPa) = 14.72538 31.46110 23.09324
#
# Velocity S-wave (km/s) = 2.77226 4.05217 3.47170
# Velocity P-wave (km/s) = 4.34115 7.68312 6.24003
#
# Compressibility (1/GPa) = 0.06069932
#
# Stress axis : x y z
#
# Youngs Moduli (GPa) = 103.54410 68.01206 10.51647
#
# Poissons Ratio (x) = 0.30430 0.12604
# Poissons Ratio (y) = 0.46328 0.13583
# Poissons Ratio (z) = 1.24099 0.87844
#
# Static dielectric constant tensor:
#      x y z
#    x 3.457090 0.000000 -0.072600 
#    y 0.000000 3.504160 0.000000 
#    z -0.072600 0.000000 3.095250 
# 
# 
# High freq. dielectric constant tensor:
#      x y z
#    x 1.758330 0.000000 -0.004270 
#    y 0.000000 1.750540 0.000000 
#    z -0.004270 0.000000 1.708070 
# 
# From -- ./inp_files/42729.got.cif
#   From: 2010.03.12/outbox.cif.g09.slc.cpg/sg14_22_cif.got.tgz:42729.got - 2010.03.31 13:35:05.
