data_PCOD8125981
_publ_section_title
;
Structure prediction by ZEFSAII (Michael W. Deem and Ramdas Pophale) SiO2 
 PCOD8125981
Probable space group: P 21/C
;
_chemical_formula_sum "Si O2"
_cell_formula_units_Z 24
_cell_length_a 9.116201
_cell_length_b 7.820371
_cell_length_c 14.679629
_cell_angle_alpha 90.000000
_cell_angle_beta 97.381037
_cell_angle_gamma 90.000000
_cell_volume 1037.869278
_symmetry_space_group_name_H-M "P 21/C"
_symmetry_group_IT_number 14
_symmetry_cell_setting 'monoclinic'
loop_
_space_group_symop_operation_xyz
x,y,z
-x,1/2+y,1/2-z
-x,-y,-z
x,1/2-y,1/2+z
loop_
_atom_site_type_symbol
_atom_site_label
_atom_site_fract_x
_atom_site_fract_y
_atom_site_fract_z
Si Si1 0.126854 0.913957 0.284585
Si Si2 0.433994 0.336874 0.443465
Si Si3 0.050789 0.815827 0.472029
Si Si4 0.803610 0.688062 0.721464
Si Si5 0.264017 0.280532 0.593953
Si Si6 0.715938 0.168963 0.872497
O O1 0.138847 0.827988 0.384082
O O2 0.236416 0.800806 0.228748
O O3 0.959995 0.909427 0.231222
O O4 0.174653 0.110432 0.293278
O O5 0.500000 0.500000 0.500000
O O6 0.301307 0.390723 0.364579
O O7 0.365625 0.212848 0.517558
O O8 0.562084 0.241917 0.393696
O O9 0.152342 0.730643 0.554408
O O10 0.906105 0.700158 0.450190
O O11 0.000000 0.000000 0.500000
O O12 0.727709 0.659191 0.815752
O O13 0.316661 0.468970 0.622251
#
# Coordination Sequence:
#
# PCOD8125981 Si02
#       6
#     4   4   4   4   4   4
#     4  10  21  38  62  88 116 155 199 250 290 339
#     4  10  21  38  60  87 120 157 194 239 296 359
#     4  11  21  36  59  87 117 150 198 248 289 340
#     4  10  21  39  61  87 118 152 200 245 294 351
#     4   9  20  38  59  82 111 154 197 242 288 345
#     4  10  21  37  58  85 115 156 194 234 297 350
#
# _framework density 23.124300000000002
#
# number of rings (size 3 to 8) (size 9 to 14) (size 15 to 20)
#    0.000    2.000    0.000    3.500    0.000    8.000 
#    0.000   16.667    0.000    0.000    0.000    0.000 
#    0.000    0.000    0.000    0.000    0.000    0.000 
#
# Total GULP energy -297416.560087 kJ/mol
# GULP energy per Si atom -12392.356670 kJ/mol
# Density = 2.307167 g / cm^3
# Si number density = 23.124300 Si / 1000 Ang^3
#
#
#
# Elastic Constant Matrix: (Units=GPa)
#
#
# Indices 1 2 3 4 5 6 
#
# 1 111.5283 16.9336 70.6555 0.0000 -45.1870 0.0000
# 2 16.9336 15.3437 23.9737 0.0000 -1.3605 0.0000
# 3 70.6555 23.9737 140.2378 0.0000 -34.9416 0.0000
# 4 0.0000 0.0000 0.0000 25.7021 0.0000 0.0291
# 5 -45.1870 -1.3605 -34.9416 0.0000 61.2677 0.0000
# 6 0.0000 0.0000 0.0000 0.0291 0.0000 18.7427
#
#
#
# Elastic Compliance Matrix: (Units=1/GPa)
#
#
# Indices 1 2 3 4 5 6 
#
# 1 0.017676 -0.011863 -0.004307 0.000000 0.010317 0.000000
# 2 -0.011863 0.100208 -0.014896 0.000000 -0.015020 0.000000
# 3 -0.004307 -0.014896 0.012791 0.000000 0.003787 0.000000
# 4 0.000000 0.000000 0.000000 0.038907 0.000000 -0.000060
# 5 0.010317 -0.015020 0.003787 0.000000 0.025757 0.000000
# 6 0.000000 0.000000 0.000000 -0.000060 0.000000 0.053354
#
#
# Mechanical properties :
#
#
# Convention : Reuss Voigt Hill
#
# Bulk Modulus (GPa) = 14.58952 54.47060 34.53006
# Shear Modulus (GPa) = 14.98469 31.51232 23.24850
#
# Velocity S-wave (km/s) = 2.54836 3.69553 3.17420
# Velocity P-wave (km/s) = 3.87062 6.46653 5.32906
#
# Compressibility (1/GPa) = 0.06854235
#
# Stress axis : x y z
#
# Youngs Moduli (GPa) = 56.57285 9.97926 78.18060
#
# Poissons Ratio (x) = 0.11839 0.33674
# Poissons Ratio (y) = 0.67115 1.16456
# Poissons Ratio (z) = 0.24367 0.14865
#
# Static dielectric constant tensor:
#      x y z
#    x 5.002940 0.000000 -0.784140 
#    y 0.000000 3.631090 0.000000 
#    z -0.784140 0.000000 4.729790 
# 
# 
# High freq. dielectric constant tensor:
#      x y z
#    x 1.920190 0.000000 -0.026640 
#    y 0.000000 1.871250 0.000000 
#    z -0.026640 0.000000 1.934000 
# 
# From -- ./inp_files/38973.got.cif
#   From: 2010.03.12/outbox.cif.g09.slc.cpg/sg14_20_cif.got.tgz:38973.got - 2010.03.31 13:35:05.
