data_PCOD8125056
_publ_section_title
;
Structure prediction by ZEFSAII (Michael W. Deem and Ramdas Pophale) SiO2 
 PCOD8125056
Probable space group: P 21/C
;
_chemical_formula_sum "Si O2"
_cell_formula_units_Z 28
_cell_length_a 20.956301
_cell_length_b 12.209021
_cell_length_c 17.568454
_cell_angle_alpha 90.000000
_cell_angle_beta 18.222558
_cell_angle_gamma 90.000000
_cell_volume 1405.624340
_symmetry_space_group_name_H-M "P 21/C"
_symmetry_group_IT_number 14
_symmetry_cell_setting 'monoclinic'
loop_
_space_group_symop_operation_xyz
x,y,z
-x,1/2+y,1/2-z
-x,-y,-z
x,1/2-y,1/2+z
loop_
_atom_site_type_symbol
_atom_site_label
_atom_site_fract_x
_atom_site_fract_y
_atom_site_fract_z
Si Si1 0.063775 0.884759 0.134236
Si Si2 0.067611 0.842771 0.868921
Si Si3 0.736400 0.013878 0.229695
Si Si4 0.270676 0.981604 0.035781
Si Si5 0.892730 0.356352 0.965303
Si Si6 0.858343 0.395210 0.170052
Si Si7 0.719918 0.050469 0.514822
O O1 0.038605 0.766303 0.127806
O O2 0.206893 0.960031 0.920600
O O3 0.836691 0.935100 0.390245
O O4 0.174047 0.886735 0.091596
O O5 0.208491 0.886715 0.777097
O O6 0.029622 0.712944 0.922776
O O7 0.179088 0.871345 0.663134
O O8 0.847871 0.900808 0.126481
O O9 0.500000 0.000000 0.500000
O O10 0.484166 0.027336 0.762070
O O11 0.104512 0.078057 0.225121
O O12 0.309297 0.930007 0.076517
O O13 0.733265 0.391033 0.081483
O O14 0.774415 0.367578 0.180619
O O15 0.000000 0.500000 0.000000
#
# Coordination Sequence:
#
# PCOD8125056 Si02
#       7
#     4   4   4   4   4   4   4
#     4  10  20  38  60  85 121 151 200 258 298 353
#     4  10  20  38  60  86 125 156 194 259 300 351
#     4  10  20  36  60  92 118 153 204 249 306 357
#     4  10  22  39  60  87 119 160 206 242 302 369
#     4  10  21  39  58  84 121 159 197 250 302 354
#     4  10  21  40  60  86 127 165 200 244 304 363
#     4  10  22  38  61  89 118 158 205 251 302 355
#
# _framework density 19.919972999999999
#
# number of rings (size 3 to 8) (size 9 to 14) (size 15 to 20)
#    0.000    2.000    1.429    1.714    0.000    2.857 
#    5.143    4.286    0.000    0.000    0.000    0.000 
#    0.000    0.000    0.000    0.000    0.000    0.000 
#
# Total GULP energy -347026.726633 kJ/mol
# GULP energy per Si atom -12393.811665 kJ/mol
# Density = 1.987463 g / cm^3
# Si number density = 19.919973 Si / 1000 Ang^3
#
#
#
# Elastic Constant Matrix: (Units=GPa)
#
#
# Indices 1 2 3 4 5 6 
#
# 1 119.2953 32.8165 35.5476 0.0000 13.9408 0.0000
# 2 32.8165 120.3731 21.8209 0.0000 0.0579 0.0000
# 3 35.5476 21.8209 97.0832 0.0000 -13.3091 0.0000
# 4 0.0000 0.0000 0.0000 13.7507 0.0000 8.8363
# 5 13.9408 0.0579 -13.3091 0.0000 29.4499 0.0000
# 6 0.0000 0.0000 0.0000 8.8363 0.0000 22.5625
#
#
#
# Elastic Compliance Matrix: (Units=1/GPa)
#
#
# Indices 1 2 3 4 5 6 
#
# 1 0.011240 -0.002221 -0.004632 0.000000 -0.007410 0.000000
# 2 -0.002221 0.009125 -0.001168 0.000000 0.000505 0.000000
# 3 -0.004632 -0.001168 0.013390 0.000000 0.008246 0.000000
# 4 0.000000 0.000000 0.000000 0.097181 0.000000 -0.038060
# 5 -0.007410 0.000505 0.008246 0.000000 0.041189 0.000000
# 6 0.000000 0.000000 0.000000 -0.038060 0.000000 0.059227
#
#
# Mechanical properties :
#
#
# Convention : Reuss Voigt Hill
#
# Bulk Modulus (GPa) = 56.46208 57.45796 56.96002
# Shear Modulus (GPa) = 19.73962 29.59037 24.66499
#
# Velocity S-wave (km/s) = 3.15134 3.85835 3.52263
# Velocity P-wave (km/s) = 6.45347 6.98256 6.72322
#
# Compressibility (1/GPa) = 0.01771100
#
# Stress axis : x y z
#
# Youngs Moduli (GPa) = 88.97081 109.59450 74.68501
#
# Poissons Ratio (x) = 0.24340 0.34594
# Poissons Ratio (y) = 0.19760 0.08726
# Poissons Ratio (z) = 0.41212 0.12805
#
# Static dielectric constant tensor:
#      x y z
#    x 4.554320 0.000000 0.602410 
#    y 0.000000 3.544960 0.000000 
#    z 0.602410 0.000000 3.461380 
# 
# 
# High freq. dielectric constant tensor:
#      x y z
#    x 1.796090 0.000000 0.022650 
#    y 0.000000 1.781160 0.000000 
#    z 0.022650 0.000000 1.750260 
# 
# From -- ./inp_files/61260.got.cif
#   From: 2010.03.12/outbox.cif.g09.slc.cpg/sg14_31_cif.got.tgz:61260.got - 2010.03.31 13:35:05.
