data_PCOD8125905
_publ_section_title
;
Structure prediction by ZEFSAII (Michael W. Deem and Ramdas Pophale) SiO2 
 PCOD8125905
Probable space group: P 21/C
;
_chemical_formula_sum "Si O2"
_cell_formula_units_Z 32
_cell_length_a 17.772633
_cell_length_b 9.155727
_cell_length_c 23.329973
_cell_angle_alpha 90.000000
_cell_angle_beta 24.831988
_cell_angle_gamma 90.000000
_cell_volume 1594.283518
_symmetry_space_group_name_H-M "P 21/C"
_symmetry_group_IT_number 14
_symmetry_cell_setting 'monoclinic'
loop_
_space_group_symop_operation_xyz
x,y,z
-x,1/2+y,1/2-z
-x,-y,-z
x,1/2-y,1/2+z
loop_
_atom_site_type_symbol
_atom_site_label
_atom_site_fract_x
_atom_site_fract_y
_atom_site_fract_z
Si Si1 0.087169 0.942025 0.548265
Si Si2 0.334827 0.701972 0.416113
Si Si3 0.790840 0.534333 0.815792
Si Si4 0.858410 0.905847 0.959381
Si Si5 0.332823 0.748880 0.546153
Si Si6 0.942780 0.644579 0.828536
Si Si7 0.719645 0.706206 0.282814
Si Si8 0.258721 0.200963 0.365026
O O1 0.206064 0.794080 0.462200
O O2 0.874188 0.907554 0.693089
O O3 0.121321 0.014859 0.586160
O O4 0.151245 0.050553 0.453251
O O5 0.277716 0.534566 0.459780
O O6 0.321035 0.780671 0.486768
O O7 0.537320 0.693722 0.253386
O O8 0.654436 0.408458 0.931669
O O9 0.887929 0.614449 0.801719
O O10 0.705880 0.652398 0.832705
O O11 0.940682 0.460537 0.673491
O O12 0.828003 0.834626 0.041825
O O13 0.842540 0.792288 0.917503
O O14 0.512785 0.650312 0.432688
O O15 0.157540 0.660809 0.686971
O O16 0.755587 0.742393 0.191536
#
# Coordination Sequence:
#
# PCOD8125905 Si02
#       8
#     4   4   4   4   4   4   4   4
#     4  11  21  40  62  86 118 164 198 247 305 347
#     4  11  19  38  63  88 115 155 205 253 291 348
#     4  11  20  38  62  87 121 157 201 245 303 356
#     4  10  21  37  61  89 113 155 200 249 295 345
#     4  10  21  36  58  94 124 152 196 249 302 358
#     4  10  21  37  63  89 120 150 205 252 293 355
#     4  11  23  37  61  85 125 166 190 245 302 366
#     4  10  24  39  58  87 124 153 207 245 295 352
#
# _framework density 20.071712999999999
#
# number of rings (size 3 to 8) (size 9 to 14) (size 15 to 20)
#    0.000    1.500    3.750    1.500    1.750    1.000 
#    0.000    1.250    0.000    0.000    0.000    0.000 
#    0.000    0.000    0.000    0.000    0.000    0.000 
#
# Total GULP energy -396595.569402 kJ/mol
# GULP energy per Si atom -12393.611544 kJ/mol
# Density = 2.002603 g / cm^3
# Si number density = 20.071713 Si / 1000 Ang^3
#
#
#
# Elastic Constant Matrix: (Units=GPa)
#
#
# Indices 1 2 3 4 5 6 
#
# 1 71.6197 -2.3466 -36.4783 0.0000 1.8422 0.0000
# 2 -2.3466 -112.4900 -362.3910 0.0000 11.1353 0.0000
# 3 -36.4783 -362.3910 -723.3020 0.0000 27.1268 0.0000
# 4 0.0000 0.0000 0.0000 29.4193 0.0000 2.6900
# 5 1.8422 11.1353 27.1268 0.0000 28.6462 0.0000
# 6 0.0000 0.0000 0.0000 2.6900 0.0000 19.1342
#
#
#
# Elastic Compliance Matrix: (Units=1/GPa)
#
#
# Indices 1 2 3 4 5 6 
#
# 1 0.014337 -0.003324 0.000924 0.000000 -0.000504 0.000000
# 2 -0.003324 0.015290 -0.007444 0.000000 0.001319 0.000000
# 3 0.000924 -0.007444 0.002324 0.000000 0.000633 0.000000
# 4 0.000000 0.000000 0.000000 0.034434 0.000000 -0.004841
# 5 -0.000504 0.001319 0.000633 0.000000 0.033829 0.000000
# 6 0.000000 0.000000 0.000000 -0.004841 0.000000 0.052943
#
#
# Mechanical properties :
#
#
# Convention : Reuss Voigt Hill
#
# Bulk Modulus (GPa) = 81.54808 -174.06713 -46.25952
# Shear Modulus (GPa) = 28.25922 -8.75716 9.75103
#
# Velocity S-wave (km/s) = 3.75629 -2.09103 2.20650
# Velocity P-wave (km/s) = 7.71554 9.63020 4.07500
#
# Compressibility (1/GPa) = 0.01226270
#
# Stress axis : x y z
#
# Youngs Moduli (GPa) = 69.74915 65.40113 430.28011
#
# Poissons Ratio (x) = 0.21741 -0.39738
# Poissons Ratio (y) = 0.23186 3.20286
# Poissons Ratio (z) = -0.06442 0.48682
#
# Static dielectric constant tensor:
#      x y z
#    x 3.442950 0.000000 0.025230 
#    y 0.000000 3.639720 0.000000 
#    z 0.025230 0.000000 3.866800 
# 
# 
# High freq. dielectric constant tensor:
#      x y z
#    x 1.767140 0.000000 0.002890 
#    y 0.000000 1.778630 0.000000 
#    z 0.002890 0.000000 1.800110 
# 
# From -- ./inp_files/77986.got.cif
#   From: 2010.03.12/outbox.cif.g09.slc.cpg/sg14_39_cif.got.tgz:77986.got - 2010.03.31 13:35:05.
