data_PCOD8125824
_publ_section_title
;
Structure prediction by ZEFSAII (Michael W. Deem and Ramdas Pophale) SiO2 
 PCOD8125824
Probable space group: P 21/C
;
_chemical_formula_sum "Si O2"
_cell_formula_units_Z 20
_cell_length_a 17.905982
_cell_length_b 8.854727
_cell_length_c 13.667963
_cell_angle_alpha 90.000000
_cell_angle_beta 28.879834
_cell_angle_gamma 90.000000
_cell_volume 1046.649007
_symmetry_space_group_name_H-M "P 21/C"
_symmetry_group_IT_number 14
_symmetry_cell_setting 'monoclinic'
loop_
_space_group_symop_operation_xyz
x,y,z
-x,1/2+y,1/2-z
-x,-y,-z
x,1/2-y,1/2+z
loop_
_atom_site_type_symbol
_atom_site_label
_atom_site_fract_x
_atom_site_fract_y
_atom_site_fract_z
Si Si1 0.199109 0.102548 0.689007
Si Si2 0.582269 0.778904 0.936763
Si Si3 0.279670 0.584868 0.736940
Si Si4 0.817057 0.657596 0.016857
Si Si5 0.936405 0.214507 0.133512
O O1 0.363894 0.151262 0.547469
O O2 0.192872 0.166291 0.587262
O O3 0.180224 0.922487 0.710586
O O4 0.060510 0.176595 0.908033
O O5 0.671808 0.750234 0.730754
O O6 0.628019 0.947887 0.922805
O O7 0.396727 0.779799 0.135563
O O8 0.160773 0.645280 0.794036
O O9 0.190301 0.515823 0.934225
O O10 0.977247 0.736034 0.866457
#
# Coordination Sequence:
#
# PCOD8125824 Si02
#       5
#     4   4   4   4   4
#     4  10  21  35  53  84 107 136 180 226 261 312
#     4   8  19  37  55  74 110 140 176 221 260 320
#     4   9  18  38  55  74 107 150 170 216 270 316
#     4   9  19  34  57  77 106 146 176 212 268 329
#     4  10  21  34  56  80 112 134 177 229 264 307
#
# _framework density 19.108602000000001
#
# number of rings (size 3 to 8) (size 9 to 14) (size 15 to 20)
#    1.200    1.600    0.000    0.600    2.800    0.800 
#    3.600    0.000    0.000    0.000    0.000    0.000 
#    0.000    0.000    0.000    0.000    0.000    0.000 
#
# Total GULP energy -247816.866135 kJ/mol
# GULP energy per Si atom -12390.843307 kJ/mol
# Density = 1.906511 g / cm^3
# Si number density = 19.108602 Si / 1000 Ang^3
#
#
#
# Elastic Constant Matrix: (Units=GPa)
#
#
# Indices 1 2 3 4 5 6 
#
# 1 99.5620 26.0485 31.6564 0.0000 18.9267 0.0000
# 2 26.0485 47.7505 22.3395 0.0000 -4.9115 0.0000
# 3 31.6564 22.3395 34.6369 0.0000 -6.6334 0.0000
# 4 0.0000 0.0000 0.0000 28.5684 0.0000 -15.0595
# 5 18.9267 -4.9115 -6.6334 0.0000 28.0457 0.0000
# 6 0.0000 0.0000 0.0000 -15.0595 0.0000 31.9544
#
#
#
# Elastic Compliance Matrix: (Units=1/GPa)
#
#
# Indices 1 2 3 4 5 6 
#
# 1 0.021671 -0.004046 -0.021088 0.000000 -0.020321 0.000000
# 2 -0.004046 0.030761 -0.015279 0.000000 0.004504 0.000000
# 3 -0.021088 -0.015279 0.063069 0.000000 0.026472 0.000000
# 4 0.000000 0.000000 0.000000 0.046574 0.000000 0.021950
# 5 -0.020321 0.004504 0.026472 0.000000 0.056420 0.000000
# 6 0.000000 0.000000 0.000000 0.021950 0.000000 0.041639
#
#
# Mechanical properties :
#
#
# Convention : Reuss Voigt Hill
#
# Bulk Modulus (GPa) = 28.84042 38.00425 33.42233
# Shear Modulus (GPa) = 14.18371 24.50736 19.34553
#
# Velocity S-wave (km/s) = 2.72742 3.58513 3.18527
# Velocity P-wave (km/s) = 5.00440 6.08845 5.57285
#
# Compressibility (1/GPa) = 0.03467356
#
# Stress axis : x y z
#
# Youngs Moduli (GPa) = 46.14555 32.50889 15.85575
#
# Poissons Ratio (x) = 0.13153 0.33437
# Poissons Ratio (y) = 0.18670 0.24226
# Poissons Ratio (z) = 0.97312 0.49671
#
# Static dielectric constant tensor:
#      x y z
#    x 3.260590 0.000000 -0.193160 
#    y 0.000000 3.425470 0.000000 
#    z -0.193160 0.000000 3.329470 
# 
# 
# High freq. dielectric constant tensor:
#      x y z
#    x 1.732870 0.000000 -0.016570 
#    y 0.000000 1.728150 0.000000 
#    z -0.016570 0.000000 1.722680 
# 
# From -- ./inp_files/23811.got.cif
#   From: 2010.03.12/outbox.cif.g09.slc.cpg/sg14_12_cif.got.tgz:23811.got - 2010.03.31 13:35:05.
