data_PCOD8125359
_publ_section_title
;
Structure prediction by ZEFSAII (Michael W. Deem and Ramdas Pophale) SiO2 
 PCOD8125359
Probable space group: P 21/C
;
_chemical_formula_sum "Si O2"
_cell_formula_units_Z 28
_cell_length_a 8.445470
_cell_length_b 19.097507
_cell_length_c 8.494908
_cell_angle_alpha 90.000000
_cell_angle_beta 105.461832
_cell_angle_gamma 90.000000
_cell_volume 1320.534726
_symmetry_space_group_name_H-M "P 21/C"
_symmetry_group_IT_number 14
_symmetry_cell_setting 'monoclinic'
loop_
_space_group_symop_operation_xyz
x,y,z
-x,1/2+y,1/2-z
-x,-y,-z
x,1/2-y,1/2+z
loop_
_atom_site_type_symbol
_atom_site_label
_atom_site_fract_x
_atom_site_fract_y
_atom_site_fract_z
Si Si1 0.857808 0.809059 0.800064
Si Si2 0.459178 0.386740 0.872040
Si Si3 0.789364 0.109642 0.620599
Si Si4 0.239204 0.465898 0.028637
Si Si5 0.627739 0.036809 0.146419
Si Si6 0.050783 0.177915 0.503636
Si Si7 0.916761 0.075395 0.995533
O O1 0.674797 0.825994 0.687481
O O2 0.834843 0.737026 0.887722
O O3 0.980190 0.797957 0.683917
O O4 0.936056 0.870847 0.926295
O O5 0.538037 0.402980 0.723400
O O6 0.600693 0.368577 0.037150
O O7 0.371287 0.454606 0.923868
O O8 0.826774 0.102658 0.814796
O O9 0.887839 0.173173 0.565179
O O10 0.848613 0.037825 0.548652
O O11 0.314266 0.475969 0.220923
O O12 0.127236 0.398810 0.014915
O O13 0.780311 0.071688 0.095845
O O14 0.500000 0.000000 0.000000
O O15 0.000000 0.000000 0.000000
#
# Coordination Sequence:
#
# PCOD8125359 Si02
#       7
#     4   4   4   4   4   4   4
#     4  11  24  43  62  89 125 166 209 258 319 384
#     4  10  22  40  61  87 125 163 205 260 316 374
#     4  11  21  40  65  93 124 164 210 260 312 375
#     4  10  20  38  62  91 125 162 202 256 320 378
#     4  11  20  34  60  93 123 155 203 261 310 365
#     4  11  23  41  63  88 121 164 208 255 312 378
#     4  12  23  38  64  97 129 166 212 262 314 380
#
# _framework density 21.203530000000001
#
# number of rings (size 3 to 8) (size 9 to 14) (size 15 to 20)
#    0.000    1.143    0.000    9.857    0.000    1.143 
#    0.000   10.000    0.000    0.000    0.000    0.000 
#    0.000    0.000    0.000    0.000    0.000    0.000 
#
# Total GULP energy -347028.122949 kJ/mol
# GULP energy per Si atom -12393.861534 kJ/mol
# Density = 2.115527 g / cm^3
# Si number density = 21.203530 Si / 1000 Ang^3
#
#
#
# Elastic Constant Matrix: (Units=GPa)
#
#
# Indices 1 2 3 4 5 6 
#
# 1 105.6887 35.6715 44.1909 0.0000 -5.7422 0.0000
# 2 35.6715 77.7148 30.2965 0.0000 7.0415 0.0000
# 3 44.1909 30.2965 144.8603 0.0000 0.9094 0.0000
# 4 0.0000 0.0000 0.0000 34.8661 0.0000 0.3485
# 5 -5.7422 7.0415 0.9094 0.0000 42.4537 0.0000
# 6 0.0000 0.0000 0.0000 0.3485 0.0000 17.3183
#
#
#
# Elastic Compliance Matrix: (Units=1/GPa)
#
#
# Indices 1 2 3 4 5 6 
#
# 1 0.012396 -0.004834 -0.002787 0.000000 0.002538 0.000000
# 2 -0.004834 0.016115 -0.001875 0.000000 -0.003286 0.000000
# 3 -0.002787 -0.001875 0.008147 0.000000 -0.000240 0.000000
# 4 0.000000 0.000000 0.000000 0.028687 0.000000 -0.000577
# 5 0.002538 -0.003286 -0.000240 0.000000 0.024449 0.000000
# 6 0.000000 0.000000 0.000000 -0.000577 0.000000 0.057754
#
#
# Mechanical properties :
#
#
# Convention : Reuss Voigt Hill
#
# Bulk Modulus (GPa) = 56.60114 60.95349 58.77732
# Shear Modulus (GPa) = 28.99767 33.46795 31.23281
#
# Velocity S-wave (km/s) = 3.70210 3.97724 3.84213
# Velocity P-wave (km/s) = 6.71016 7.06403 6.88937
#
# Compressibility (1/GPa) = 0.01766749
#
# Stress axis : x y z
#
# Youngs Moduli (GPa) = 80.67007 62.05403 122.74511
#
# Poissons Ratio (x) = 0.29994 0.34204
# Poissons Ratio (y) = 0.38992 0.23017
# Poissons Ratio (z) = 0.22479 0.11636
#
# Static dielectric constant tensor:
#      x y z
#    x 4.093280 0.000000 -0.125080 
#    y 0.000000 3.658740 0.000000 
#    z -0.125080 0.000000 4.114850 
# 
# 
# High freq. dielectric constant tensor:
#      x y z
#    x 1.835460 0.000000 -0.008090 
#    y 0.000000 1.812910 0.000000 
#    z -0.008090 0.000000 1.849230 
# 
# From -- ./inp_files/9991.got.cif
#   From: 2010.03.12/outbox.cif.g09.slc.cpg/sg14_5_cif.got.tgz:9991.got - 2010.03.31 13:35:05.
