data_PCOD8125280
_publ_section_title
;
Structure prediction by ZEFSAII (Michael W. Deem and Ramdas Pophale) SiO2 
 PCOD8125280
Probable space group: P 21/C
;
_chemical_formula_sum "Si O2"
_cell_formula_units_Z 32
_cell_length_a 6.575696
_cell_length_b 20.604655
_cell_length_c 11.756495
_cell_angle_alpha 90.000000
_cell_angle_beta 97.419252
_cell_angle_gamma 90.000000
_cell_volume 1579.550970
_symmetry_space_group_name_H-M "P 21/C"
_symmetry_group_IT_number 14
_symmetry_cell_setting 'monoclinic'
loop_
_space_group_symop_operation_xyz
x,y,z
-x,1/2+y,1/2-z
-x,-y,-z
x,1/2-y,1/2+z
loop_
_atom_site_type_symbol
_atom_site_label
_atom_site_fract_x
_atom_site_fract_y
_atom_site_fract_z
Si Si1 0.745124 0.947997 0.088650
Si Si2 0.965108 0.700416 0.033345
Si Si3 0.725757 0.395848 0.826989
Si Si4 0.075874 0.657813 0.587901
Si Si5 0.832265 0.360096 0.153345
Si Si6 0.661427 0.090849 0.064809
Si Si7 0.420231 0.116515 0.499263
Si Si8 0.169923 0.038237 0.655217
O O1 0.703591 0.940899 0.221781
O O2 0.936850 0.905356 0.067404
O O3 0.790198 0.023715 0.065517
O O4 0.562465 0.922158 0.998995
O O5 0.133629 0.663994 0.123669
O O6 0.952764 0.776137 0.060248
O O7 0.735947 0.674968 0.038010
O O8 0.029954 0.691503 0.906423
O O9 0.650981 0.384204 0.693367
O O10 0.862030 0.460892 0.850506
O O11 0.519609 0.405076 0.886991
O O12 0.181754 0.661187 0.717872
O O13 0.244580 0.649009 0.502375
O O14 0.600531 0.359789 0.094433
O O15 0.942774 0.430092 0.142436
O O16 0.296336 0.058899 0.552384
#
# Coordination Sequence:
#
# PCOD8125280 Si02
#       8
#     4   4   4   4   4   4   4   4
#     4   9  20  38  61  95 116 145 200 243 293 354
#     4  10  24  39  54  84 119 151 201 238 280 349
#     4  10  22  37  56  89 124 152 190 243 290 343
#     4  11  22  39  63  80 116 161 188 240 297 343
#     4   9  21  39  59  86 110 151 199 239 288 349
#     4  10  21  38  62  90 120 149 192 247 295 351
#     4  10  20  38  59  85 116 156 194 240 289 345
#     4   9  18  36  62  88 119 150 192 243 292 346
#
# _framework density 20.258924
#
# number of rings (size 3 to 8) (size 9 to 14) (size 15 to 20)
#    0.000    2.250    0.000    1.500    1.750    8.500 
#    0.000    2.500    0.000    0.000    0.000    0.000 
#    0.000    0.000    0.000    0.000    0.000    0.000 
#
# Total GULP energy -396753.548184 kJ/mol
# GULP energy per Si atom -12398.548381 kJ/mol
# Density = 2.021281 g / cm^3
# Si number density = 20.258924 Si / 1000 Ang^3
#
#
#
# Elastic Constant Matrix: (Units=GPa)
#
#
# Indices 1 2 3 4 5 6 
#
# 1 73.3143 21.0516 45.4751 0.0000 3.3012 0.0000
# 2 21.0516 60.1416 37.2053 0.0000 0.3718 0.0000
# 3 45.4751 37.2053 154.7736 0.0000 -3.0186 0.0000
# 4 0.0000 0.0000 0.0000 21.9379 0.0000 0.4680
# 5 3.3012 0.3718 -3.0186 0.0000 28.7837 0.0000
# 6 0.0000 0.0000 0.0000 0.4680 0.0000 19.0346
#
#
#
# Elastic Compliance Matrix: (Units=1/GPa)
#
#
# Indices 1 2 3 4 5 6 
#
# 1 0.017421 -0.003392 -0.004350 0.000000 -0.002410 0.000000
# 2 -0.003392 0.020208 -0.003867 0.000000 -0.000278 0.000000
# 3 -0.004350 -0.003867 0.008697 0.000000 0.001461 0.000000
# 4 0.000000 0.000000 0.000000 0.045607 0.000000 -0.001121
# 5 -0.002410 -0.000278 0.001461 0.000000 0.035175 0.000000
# 6 0.000000 0.000000 0.000000 -0.001121 0.000000 0.052564
#
#
# Mechanical properties :
#
#
# Convention : Reuss Voigt Hill
#
# Bulk Modulus (GPa) = 43.27311 55.07706 49.17508
# Shear Modulus (GPa) = 23.74256 26.25107 24.99682
#
# Velocity S-wave (km/s) = 3.42710 3.60360 3.51645
# Velocity P-wave (km/s) = 6.08822 6.67534 6.38853
#
# Compressibility (1/GPa) = 0.02310904
#
# Stress axis : x y z
#
# Youngs Moduli (GPa) = 57.40313 49.48438 114.97986
#
# Poissons Ratio (x) = 0.16784 0.50018
# Poissons Ratio (y) = 0.19470 0.44459
# Poissons Ratio (z) = 0.24971 0.19134
#
# Static dielectric constant tensor:
#      x y z
#    x 3.450690 0.000000 -0.001100 
#    y 0.000000 3.524620 0.000000 
#    z -0.001100 0.000000 3.929240 
# 
# 
# High freq. dielectric constant tensor:
#      x y z
#    x 1.779830 0.000000 0.003100 
#    y 0.000000 1.779180 0.000000 
#    z 0.003100 0.000000 1.807180 
# 
# From -- ./inp_files/21786.got.cif
#   From: 2010.03.12/outbox.cif.g09.slc.cpg/sg14_11_cif.got.tgz:21786.got - 2010.03.31 13:35:05.
