data_PCOD8125868
_publ_section_title
;
Structure prediction by ZEFSAII (Michael W. Deem and Ramdas Pophale) SiO2 
 PCOD8125868
Probable space group: P 21/C
;
_chemical_formula_sum "Si O2"
_cell_formula_units_Z 24
_cell_length_a 29.427764
_cell_length_b 8.750394
_cell_length_c 9.897295
_cell_angle_alpha 90.000000
_cell_angle_beta 25.102395
_cell_angle_gamma 90.000000
_cell_volume 1081.210397
_symmetry_space_group_name_H-M "P 21/C"
_symmetry_group_IT_number 14
_symmetry_cell_setting 'monoclinic'
loop_
_space_group_symop_operation_xyz
x,y,z
-x,1/2+y,1/2-z
-x,-y,-z
x,1/2-y,1/2+z
loop_
_atom_site_type_symbol
_atom_site_label
_atom_site_fract_x
_atom_site_fract_y
_atom_site_fract_z
Si Si1 0.511676 0.244550 0.890937
Si Si2 0.517942 0.924041 0.776034
Si Si3 0.097878 0.420665 0.065988
Si Si4 0.093328 0.150469 0.879219
Si Si5 0.737720 0.411092 0.032047
Si Si6 0.262140 0.660874 0.673452
O O1 0.443183 0.346864 0.969136
O O2 0.442075 0.182572 0.205415
O O3 0.608519 0.349423 0.685249
O O4 0.562076 0.096443 0.674602
O O5 0.389344 0.935539 0.129440
O O6 0.093172 0.324436 0.217996
O O7 0.005355 0.546228 0.311051
O O8 0.083432 0.313612 0.976088
O O9 0.212032 0.507132 0.745901
O O10 0.204293 0.074179 0.630624
O O11 0.778972 0.309133 0.796435
O O12 0.773109 0.325294 0.074979
#
# Coordination Sequence:
#
# PCOD8125868 Si02
#       6
#     4   4   4   4   4   4
#     4   9  18  34  53  75 104 136 174 216 261 309
#     4   9  18  34  53  76 106 139 174 216 261 308
#     4  10  21  36  55  79 107 137 173 214 257 308
#     4  10  21  36  54  79 108 137 173 215 255 306
#     4   9  18  34  53  76 106 136 173 215 256 305
#     4   9  18  34  54  76 103 137 173 212 258 307
#
# _framework density 22.197344999999999
#
# number of rings (size 3 to 8) (size 9 to 14) (size 15 to 20)
#    0.000    2.667    0.000    1.000    0.000    2.667 
#    0.000   20.000    0.000    0.000    0.000    0.000 
#    0.000    0.000    0.000    0.000    0.000    0.000 
#
# Total GULP energy -297489.099750 kJ/mol
# GULP energy per Si atom -12395.379156 kJ/mol
# Density = 2.214682 g / cm^3
# Si number density = 22.197345 Si / 1000 Ang^3
#
#
#
# Elastic Constant Matrix: (Units=GPa)
#
#
# Indices 1 2 3 4 5 6 
#
# 1 87.5377 34.1719 10.3136 0.0000 7.1592 0.0000
# 2 34.1719 71.9495 19.9455 0.0000 -1.2426 0.0000
# 3 10.3136 19.9455 31.8208 0.0000 -2.2846 0.0000
# 4 0.0000 0.0000 0.0000 30.1701 0.0000 8.1797
# 5 7.1592 -1.2426 -2.2846 0.0000 9.0034 0.0000
# 6 0.0000 0.0000 0.0000 8.1797 0.0000 53.0917
#
#
#
# Elastic Compliance Matrix: (Units=1/GPa)
#
#
# Indices 1 2 3 4 5 6 
#
# 1 0.015533 -0.007196 -0.001510 0.000000 -0.013728 0.000000
# 2 -0.007196 0.020156 -0.009871 0.000000 0.005999 0.000000
# 3 -0.001510 -0.009871 0.038798 0.000000 0.009683 0.000000
# 4 0.000000 0.000000 0.000000 0.034590 0.000000 -0.005329
# 5 -0.013728 0.005999 0.009683 0.000000 0.125270 0.000000
# 6 0.000000 0.000000 0.000000 -0.005329 0.000000 0.019656
#
#
# Mechanical properties :
#
#
# Convention : Reuss Voigt Hill
#
# Bulk Modulus (GPa) = 26.78530 35.57442 31.17986
# Shear Modulus (GPa) = 16.46894 26.91151 21.69023
#
# Velocity S-wave (km/s) = 2.72680 3.48570 3.12934
# Velocity P-wave (km/s) = 4.69116 5.67990 5.20905
#
# Compressibility (1/GPa) = 0.03733391
#
# Stress axis : x y z
#
# Youngs Moduli (GPa) = 64.37781 49.61220 25.77468
#
# Poissons Ratio (x) = 0.35701 0.03891
# Poissons Ratio (y) = 0.46326 0.25442
# Poissons Ratio (z) = 0.09719 0.48973
#
# Static dielectric constant tensor:
#      x y z
#    x 4.414910 0.000000 0.120610 
#    y 0.000000 3.878000 0.000000 
#    z 0.120610 0.000000 3.666120 
# 
# 
# High freq. dielectric constant tensor:
#      x y z
#    x 1.891400 0.000000 0.012560 
#    y 0.000000 1.861560 0.000000 
#    z 0.012560 0.000000 1.833810 
# 
# From -- ./inp_files/19930.got.cif
#   From: 2010.03.12/outbox.cif.g09.slc.cpg/sg14_10_cif.got.tgz:19930.got - 2010.03.31 13:35:05.
