data_PCOD8125368
_publ_section_title
;
Structure prediction by ZEFSAII (Michael W. Deem and Ramdas Pophale) SiO2 
 PCOD8125368
Probable space group: P 21/C
;
_chemical_formula_sum "Si O2"
_cell_formula_units_Z 28
_cell_length_a 11.538787
_cell_length_b 9.317176
_cell_length_c 13.966623
_cell_angle_alpha 90.000000
_cell_angle_beta 63.898697
_cell_angle_gamma 90.000000
_cell_volume 1348.406075
_symmetry_space_group_name_H-M "P 21/C"
_symmetry_group_IT_number 14
_symmetry_cell_setting 'monoclinic'
loop_
_space_group_symop_operation_xyz
x,y,z
-x,1/2+y,1/2-z
-x,-y,-z
x,1/2-y,1/2+z
loop_
_atom_site_type_symbol
_atom_site_label
_atom_site_fract_x
_atom_site_fract_y
_atom_site_fract_z
Si Si1 0.904369 0.044779 0.219990
Si Si2 0.118413 0.805675 0.131360
Si Si3 0.474599 0.173652 0.406752
Si Si4 0.239609 0.720062 0.387054
Si Si5 0.347759 0.415654 0.131398
Si Si6 0.464209 0.325033 0.702425
Si Si7 0.667770 0.409570 0.310614
O O1 0.937124 0.173660 0.283811
O O2 0.843489 0.106466 0.144357
O O3 0.803623 0.931953 0.300636
O O4 0.025064 0.942906 0.154131
O O5 0.244904 0.873653 0.131298
O O6 0.158458 0.744012 0.012283
O O7 0.363947 0.171255 0.526445
O O8 0.417268 0.128982 0.325367
O O9 0.531471 0.330615 0.371281
O O10 0.593316 0.074469 0.398375
O O11 0.380739 0.655294 0.362938
O O12 0.261263 0.862549 0.314504
O O13 0.422569 0.336211 0.190473
O O14 0.375570 0.425601 0.668160
#
# Coordination Sequence:
#
# PCOD8125368 Si02
#       7
#     4   4   4   4   4   4   4
#     4  11  25  45  63  96 122 173 221 260 305 379
#     4  11  24  45  67  84 132 172 213 267 309 366
#     4  10  20  38  63  87 128 164 200 256 333 370
#     4  10  22  42  69  90 130 169 203 263 330 368
#     4  11  22  38  61  92 126 166 205 261 316 378
#     4  11  22  36  64  99 130 155 209 264 317 393
#     4  10  22  40  60  99 124 161 211 259 315 386
#
# _framework density 20.765256999999998
#
# number of rings (size 3 to 8) (size 9 to 14) (size 15 to 20)
#    0.000    1.429    4.286    3.000    6.000    2.286 
#    0.000    5.714    0.000    0.000    0.000    0.000 
#    0.000    0.000    0.000    0.000    0.000    0.000 
#
# Total GULP energy -347028.020150 kJ/mol
# GULP energy per Si atom -12393.857862 kJ/mol
# Density = 2.071799 g / cm^3
# Si number density = 20.765257 Si / 1000 Ang^3
#
#
#
# Elastic Constant Matrix: (Units=GPa)
#
#
# Indices 1 2 3 4 5 6 
#
# 1 48.7812 35.4142 22.1575 0.0000 4.6751 0.0000
# 2 35.4142 71.3042 18.0296 0.0000 -3.3371 0.0000
# 3 22.1575 18.0296 109.5586 0.0000 10.0303 0.0000
# 4 0.0000 0.0000 0.0000 9.4101 0.0000 3.6295
# 5 4.6751 -3.3371 10.0303 0.0000 16.4913 0.0000
# 6 0.0000 0.0000 0.0000 3.6295 0.0000 39.2187
#
#
#
# Elastic Compliance Matrix: (Units=1/GPa)
#
#
# Indices 1 2 3 4 5 6 
#
# 1 0.035828 -0.017509 -0.003294 0.000000 -0.011697 0.000000
# 2 -0.017509 0.023540 -0.001296 0.000000 0.010515 0.000000
# 3 -0.003294 -0.001296 0.010532 0.000000 -0.005734 0.000000
# 4 0.000000 0.000000 0.000000 0.110202 0.000000 -0.010199
# 5 -0.011697 0.010515 -0.005734 0.000000 0.069569 0.000000
# 6 0.000000 0.000000 0.000000 -0.010199 0.000000 0.026442
#
#
# Mechanical properties :
#
#
# Convention : Reuss Voigt Hill
#
# Bulk Modulus (GPa) = 38.90522 42.31629 40.61076
# Shear Modulus (GPa) = 15.20320 23.29354 19.24837
#
# Velocity S-wave (km/s) = 2.70875 3.35289 3.04789
# Velocity P-wave (km/s) = 5.34411 5.95079 5.65559
#
# Compressibility (1/GPa) = 0.02570349
#
# Stress axis : x y z
#
# Youngs Moduli (GPa) = 27.91110 42.48050 94.95026
#
# Poissons Ratio (x) = 0.74379 0.31274
# Poissons Ratio (y) = 0.48870 0.12301
# Poissons Ratio (z) = 0.09193 0.05503
#
# Static dielectric constant tensor:
#      x y z
#    x 3.619670 0.000000 0.151650 
#    y 0.000000 3.696140 0.000000 
#    z 0.151650 0.000000 4.013840 
# 
# 
# High freq. dielectric constant tensor:
#      x y z
#    x 1.799350 0.000000 0.014960 
#    y 0.000000 1.809390 0.000000 
#    z 0.014960 0.000000 1.812720 
# 
# From -- ./inp_files/43626.got.cif
#   From: 2010.03.12/outbox.cif.g09.slc.cpg/sg14_22_cif.got.tgz:43626.got - 2010.03.31 13:35:05.
