data_PCOD8125252
_publ_section_title
;
Structure prediction by ZEFSAII (Michael W. Deem and Ramdas Pophale) SiO2 
 PCOD8125252
Probable space group: P 21/C
;
_chemical_formula_sum "Si O2"
_cell_formula_units_Z 28
_cell_length_a 18.845101
_cell_length_b 18.185634
_cell_length_c 9.328416
_cell_angle_alpha 90.000000
_cell_angle_beta 153.005228
_cell_angle_gamma 90.000000
_cell_volume 1451.121590
_symmetry_space_group_name_H-M "P 21/C"
_symmetry_group_IT_number 14
_symmetry_cell_setting 'monoclinic'
loop_
_space_group_symop_operation_xyz
x,y,z
-x,1/2+y,1/2-z
-x,-y,-z
x,1/2-y,1/2+z
loop_
_atom_site_type_symbol
_atom_site_label
_atom_site_fract_x
_atom_site_fract_y
_atom_site_fract_z
Si Si1 0.714782 0.620600 0.815434
Si Si2 0.980883 0.096631 0.307597
Si Si3 0.845099 0.944245 0.112850
Si Si4 0.493769 0.750555 0.846083
Si Si5 0.346257 0.663054 0.837799
Si Si6 0.356409 0.390649 0.991969
Si Si7 0.559248 0.968849 0.796769
O O1 0.640731 0.700786 0.660175
O O2 0.612727 0.560896 0.546665
O O3 0.717262 0.596778 0.985068
O O4 0.891668 0.621599 0.078407
O O5 0.045263 0.105386 0.586496
O O6 0.940012 0.010756 0.210439
O O7 0.834821 0.149596 0.019411
O O8 0.782203 0.891544 0.874635
O O9 0.706753 0.979597 0.958677
O O10 0.411553 0.717362 0.835982
O O11 0.367950 0.798645 0.531460
O O12 0.557593 0.687190 0.856830
O O13 0.439391 0.586267 0.002695
O O14 0.480941 0.453126 0.179170
#
# Coordination Sequence:
#
# PCOD8125252 Si02
#       7
#     4   4   4   4   4   4   4
#     4  10  24  40  59  91 133 161 196 257 318 366
#     4  10  22  41  60  90 130 156 198 258 314 364
#     4  10  20  37  65  95 118 161 204 255 311 360
#     4  11  23  40  64  88 118 168 211 250 302 375
#     4  11  21  43  62  90 124 158 212 258 306 365
#     4  12  20  38  68  92 115 166 215 250 301 365
#     4  10  20  38  68  93 119 159 210 265 292 361
#
# _framework density 19.295418999999999
#
# number of rings (size 3 to 8) (size 9 to 14) (size 15 to 20)
#    0.000    1.429    4.286    1.714    0.000    0.571 
#    5.143    0.000    0.000    0.000    0.000    0.000 
#    0.000    0.000    0.000    0.000    0.000    0.000 
#
# Total GULP energy -347295.805835 kJ/mol
# GULP energy per Si atom -12403.421637 kJ/mol
# Density = 1.925150 g / cm^3
# Si number density = 19.295419 Si / 1000 Ang^3
#
#
#
# Elastic Constant Matrix: (Units=GPa)
#
#
# Indices 1 2 3 4 5 6 
#
# 1 106.1310 35.2857 61.2816 0.0000 -4.7102 0.0000
# 2 35.2857 85.2781 51.6392 0.0000 3.4097 0.0000
# 3 61.2816 51.6392 140.4890 0.0000 5.8897 0.0000
# 4 0.0000 0.0000 0.0000 32.9216 0.0000 3.1061
# 5 -4.7102 3.4097 5.8897 0.0000 31.8200 0.0000
# 6 0.0000 0.0000 0.0000 3.1061 0.0000 26.6301
#
#
#
# Elastic Compliance Matrix: (Units=1/GPa)
#
#
# Indices 1 2 3 4 5 6 
#
# 1 0.013306 -0.002621 -0.004974 0.000000 0.003171 0.000000
# 2 -0.002621 0.015611 -0.004544 0.000000 -0.001220 0.000000
# 3 -0.004974 -0.004544 0.011054 0.000000 -0.002295 0.000000
# 4 0.000000 0.000000 0.000000 0.030713 0.000000 -0.003582
# 5 0.003171 -0.001220 -0.002295 0.000000 0.032452 0.000000
# 6 0.000000 0.000000 0.000000 -0.003582 0.000000 0.037969
#
#
# Mechanical properties :
#
#
# Convention : Reuss Voigt Hill
#
# Bulk Modulus (GPa) = 63.71661 69.81234 66.76448
# Shear Modulus (GPa) = 29.30594 30.52046 29.91320
#
# Velocity S-wave (km/s) = 3.90141 3.98143 3.94162
# Velocity P-wave (km/s) = 7.30671 7.57595 7.44255
#
# Compressibility (1/GPa) = 0.01569449
#
# Stress axis : x y z
#
# Youngs Moduli (GPa) = 75.15178 64.05776 90.46494
#
# Poissons Ratio (x) = 0.16788 0.44997
# Poissons Ratio (y) = 0.19695 0.41105
# Poissons Ratio (z) = 0.37380 0.29106
#
# Static dielectric constant tensor:
#      x y z
#    x 3.454990 0.000000 -0.131490 
#    y 0.000000 3.465160 0.000000 
#    z -0.131490 0.000000 3.732830 
# 
# 
# High freq. dielectric constant tensor:
#      x y z
#    x 1.747930 0.000000 -0.011670 
#    y 0.000000 1.746850 0.000000 
#    z -0.011670 0.000000 1.760020 
# 
# From -- ./inp_files/9363.got.cif
#   From: 2010.03.12/outbox.cif.g09.slc.cpg/sg14_5_cif.got.tgz:9363.got - 2010.03.31 13:35:05.
