data_PCOD8125161
_publ_section_title
;
Structure prediction by ZEFSAII (Michael W. Deem and Ramdas Pophale) SiO2 
 PCOD8125161
Probable space group: P 21/C
;
_chemical_formula_sum "Si O2"
_cell_formula_units_Z 28
_cell_length_a 5.087204
_cell_length_b 16.315476
_cell_length_c 16.095948
_cell_angle_alpha 90.000000
_cell_angle_beta 83.567960
_cell_angle_gamma 90.000000
_cell_volume 1327.556843
_symmetry_space_group_name_H-M "P 21/C"
_symmetry_group_IT_number 14
_symmetry_cell_setting 'monoclinic'
loop_
_space_group_symop_operation_xyz
x,y,z
-x,1/2+y,1/2-z
-x,-y,-z
x,1/2-y,1/2+z
loop_
_atom_site_type_symbol
_atom_site_label
_atom_site_fract_x
_atom_site_fract_y
_atom_site_fract_z
Si Si1 0.901565 0.049716 0.193345
Si Si2 0.922819 0.370222 0.361929
Si Si3 0.739479 0.946877 0.521322
Si Si4 0.367633 0.227856 0.526083
Si Si5 0.615812 0.599124 0.212219
Si Si6 0.443010 0.273502 0.336447
Si Si7 0.850573 0.324341 0.552738
O O1 0.636461 0.041487 0.258634
O O2 0.806555 0.101808 0.117632
O O3 0.141222 0.091218 0.233542
O O4 0.003286 0.962435 0.160215
O O5 0.161668 0.312323 0.326091
O O6 0.674309 0.340584 0.314778
O O7 0.851044 0.363728 0.461239
O O8 0.727928 0.866254 0.462790
O O9 0.724480 0.922858 0.617882
O O10 0.500000 0.000000 0.500000
O O11 0.000000 0.000000 0.500000
O O12 0.457356 0.242686 0.429529
O O13 0.622469 0.254709 0.571650
O O14 0.129390 0.284316 0.563922
O O15 0.516354 0.693506 0.222130
#
# Coordination Sequence:
#
# PCOD8125161 Si02
#       7
#     4   4   4   4   4   4   4
#     4  12  23  38  59  90 128 153 189 251 304 353
#     4  10  20  37  62  87 113 157 204 238 280 350
#     4  11  22  41  66  87 113 156 207 258 296 342
#     4   9  19  36  60  85 110 145 199 245 287 350
#     4  11  24  41  59  86 121 161 195 238 310 361
#     4   9  19  38  60  78 108 154 200 235 282 358
#     4  10  20  37  59  87 119 158 197 237 290 356
#
# _framework density 21.091377999999999
#
# number of rings (size 3 to 8) (size 9 to 14) (size 15 to 20)
#    0.000    1.714    0.000    4.714    0.000    4.571 
#    0.000   20.000    0.000    0.000    0.000    0.000 
#    0.000    0.000    0.000    0.000    0.000    0.000 
#
# Total GULP energy -347181.454703 kJ/mol
# GULP energy per Si atom -12399.337668 kJ/mol
# Density = 2.104337 g / cm^3
# Si number density = 21.091378 Si / 1000 Ang^3
#
#
#
# Elastic Constant Matrix: (Units=GPa)
#
#
# Indices 1 2 3 4 5 6 
#
# 1 124.8686 37.6493 47.6228 0.0000 6.2336 0.0000
# 2 37.6493 135.6234 49.2462 0.0000 -1.5096 0.0000
# 3 47.6228 49.2462 47.7837 0.0000 -0.2937 0.0000
# 4 0.0000 0.0000 0.0000 18.7854 0.0000 1.5560
# 5 6.2336 -1.5096 -0.2937 0.0000 25.4715 0.0000
# 6 0.0000 0.0000 0.0000 1.5560 0.0000 37.4614
#
#
#
# Elastic Compliance Matrix: (Units=1/GPa)
#
#
# Indices 1 2 3 4 5 6 
#
# 1 0.013463 0.001766 -0.015258 0.000000 -0.003366 0.000000
# 2 0.001766 0.012022 -0.014149 0.000000 0.000117 0.000000
# 3 -0.015258 -0.014149 0.050738 0.000000 0.003481 0.000000
# 4 0.000000 0.000000 0.000000 0.053417 0.000000 -0.002219
# 5 -0.003366 0.000117 0.003481 0.000000 0.040130 0.000000
# 6 0.000000 0.000000 0.000000 -0.002219 0.000000 0.026786
#
#
# Mechanical properties :
#
#
# Convention : Reuss Voigt Hill
#
# Bulk Modulus (GPa) = 47.75545 64.14581 55.95063
# Shear Modulus (GPa) = 19.31839 27.92748 23.62294
#
# Velocity S-wave (km/s) = 3.02973 3.64279 3.35031
# Velocity P-wave (km/s) = 5.91019 6.94064 6.44604
#
# Compressibility (1/GPa) = 0.02094002
#
# Stress axis : x y z
#
# Youngs Moduli (GPa) = 74.27536 83.17943 19.70908
#
# Poissons Ratio (x) = -0.14685 0.30073
# Poissons Ratio (y) = -0.13113 0.27886
# Poissons Ratio (z) = 1.13332 1.17691
#
# Static dielectric constant tensor:
#      x y z
#    x 3.996960 0.000000 0.104700 
#    y 0.000000 3.910670 0.000000 
#    z 0.104700 0.000000 3.771640 
# 
# 
# High freq. dielectric constant tensor:
#      x y z
#    x 1.847030 0.000000 0.002790 
#    y 0.000000 1.832760 0.000000 
#    z 0.002790 0.000000 1.807090 
# 
# From -- ./inp_files/53193.got.cif
#   From: 2010.03.12/outbox.cif.g09.slc.cpg/sg14_27_cif.got.tgz:53193.got - 2010.03.31 13:35:05.
