data_PCOD8125546
_publ_section_title
;
Structure prediction by ZEFSAII (Michael W. Deem and Ramdas Pophale) SiO2 
 PCOD8125546
Probable space group: P 21/C
;
_chemical_formula_sum "Si O2"
_cell_formula_units_Z 32
_cell_length_a 16.473931
_cell_length_b 15.213634
_cell_length_c 10.250072
_cell_angle_alpha 90.000000
_cell_angle_beta 146.628857
_cell_angle_gamma 90.000000
_cell_volume 1413.081936
_symmetry_space_group_name_H-M "P 21/C"
_symmetry_group_IT_number 14
_symmetry_cell_setting 'monoclinic'
loop_
_space_group_symop_operation_xyz
x,y,z
-x,1/2+y,1/2-z
-x,-y,-z
x,1/2-y,1/2+z
loop_
_atom_site_type_symbol
_atom_site_label
_atom_site_fract_x
_atom_site_fract_y
_atom_site_fract_z
Si Si1 0.800035 0.934575 0.949975
Si Si2 0.846177 0.919540 0.443407
Si Si3 0.117656 0.891176 0.477632
Si Si4 0.088821 0.783934 0.046965
Si Si5 0.164385 0.879275 0.900841
Si Si6 0.658040 0.681210 0.480804
Si Si7 0.204237 0.136422 0.329301
Si Si8 0.680912 0.208055 0.449884
O O1 0.709197 0.866813 0.917532
O O2 0.975408 0.917948 0.200633
O O3 0.758934 0.033664 0.938524
O O4 0.749278 0.926259 0.729840
O O5 0.737056 0.858144 0.214738
O O6 0.816520 0.912830 0.560468
O O7 0.015464 0.905856 0.621710
O O8 0.810491 0.021865 0.361117
O O9 0.074533 0.822599 0.534505
O O10 0.245098 0.840145 0.571821
O O11 0.236467 0.823580 0.308681
O O12 0.080641 0.816294 0.889746
O O13 0.946124 0.820905 0.928809
O O14 0.291505 0.815199 0.012271
O O15 0.681609 0.784876 0.496784
O O16 0.483998 0.673667 0.265753
#
# Coordination Sequence:
#
# PCOD8125546 Si02
#       8
#     4   4   4   4   4   4   4   4
#     4  11  23  41  71 104 133 172 230 283 332 399
#     4  10  24  42  73 103 130 176 233 277 332 399
#     4  10  22  40  69 101 130 177 225 284 325 405
#     4  10  20  39  70  95 132 176 228 272 336 397
#     4   9  23  40  67 101 128 176 229 281 326 403
#     4  12  26  42  65 102 139 178 223 279 342 399
#     4  11  22  42  71  97 135 179 225 277 337 404
#     4  11  24  43  64  94 141 177 221 275 347 399
#
# _framework density 22.645537999999998
#
# number of rings (size 3 to 8) (size 9 to 14) (size 15 to 20)
#    0.000    1.500    2.500    1.500    5.250    7.000 
#    2.250    1.250    0.000    0.000    0.000    0.000 
#    0.000    0.000    0.000    0.000    0.000    0.000 
#
# Total GULP energy -396418.890756 kJ/mol
# GULP energy per Si atom -12388.090336 kJ/mol
# Density = 2.259400 g / cm^3
# Si number density = 22.645538 Si / 1000 Ang^3
#
#
#
# Elastic Constant Matrix: (Units=GPa)
#
#
# Indices 1 2 3 4 5 6 
#
# 1 74.1537 8.9064 24.5061 0.0000 -1.0400 0.0000
# 2 8.9064 88.4223 25.2403 0.0000 11.2672 0.0000
# 3 24.5061 25.2403 70.9141 0.0000 8.5139 0.0000
# 4 0.0000 0.0000 0.0000 20.7876 0.0000 -1.1018
# 5 -1.0400 11.2672 8.5139 0.0000 33.7387 0.0000
# 6 0.0000 0.0000 0.0000 -1.1018 0.0000 24.0639
#
#
#
# Elastic Compliance Matrix: (Units=1/GPa)
#
#
# Indices 1 2 3 4 5 6 
#
# 1 0.015342 -0.000235 -0.005449 0.000000 0.001927 0.000000
# 2 -0.000235 0.012929 -0.004126 0.000000 -0.003284 0.000000
# 3 -0.005449 -0.004126 0.017849 0.000000 -0.003294 0.000000
# 4 0.000000 0.000000 0.000000 0.048223 0.000000 0.002208
# 5 0.001927 -0.003284 -0.003294 0.000000 0.031627 0.000000
# 6 0.000000 0.000000 0.000000 0.002208 0.000000 0.041657
#
#
# Mechanical properties :
#
#
# Convention : Reuss Voigt Hill
#
# Bulk Modulus (GPa) = 37.73858 38.97730 38.35794
# Shear Modulus (GPa) = 25.49968 27.37386 26.43677
#
# Velocity S-wave (km/s) = 3.35929 3.48055 3.42045
# Velocity P-wave (km/s) = 5.63449 5.77941 5.70741
#
# Compressibility (1/GPa) = 0.02649808
#
# Stress axis : x y z
#
# Youngs Moduli (GPa) = 65.18220 77.34318 56.02606
#
# Poissons Ratio (x) = 0.01820 0.30530
# Poissons Ratio (y) = 0.01534 0.23118
# Poissons Ratio (z) = 0.35519 0.31915
#
# Static dielectric constant tensor:
#      x y z
#    x 3.977230 0.000000 -0.107890 
#    y 0.000000 4.418310 0.000000 
#    z -0.107890 0.000000 3.803260 
# 
# 
# High freq. dielectric constant tensor:
#      x y z
#    x 1.896400 0.000000 -0.015420 
#    y 0.000000 1.909040 0.000000 
#    z -0.015420 0.000000 1.861370 
# 
# From -- ./inp_files/34191.got.cif
#   From: 2010.03.12/outbox.cif.g09.slc.cpg/sg14_18_cif.got.tgz:34191.got - 2010.03.31 13:35:05.
