data_PCOD8125592
_publ_section_title
;
Structure prediction by ZEFSAII (Michael W. Deem and Ramdas Pophale) SiO2 
 PCOD8125592
Probable space group: P 21/C
;
_chemical_formula_sum "Si O2"
_cell_formula_units_Z 28
_cell_length_a 19.096730
_cell_length_b 8.669812
_cell_length_c 13.828807
_cell_angle_alpha 90.000000
_cell_angle_beta 35.158192
_cell_angle_gamma 90.000000
_cell_volume 1318.415021
_symmetry_space_group_name_H-M "P 21/C"
_symmetry_group_IT_number 14
_symmetry_cell_setting 'monoclinic'
loop_
_space_group_symop_operation_xyz
x,y,z
-x,1/2+y,1/2-z
-x,-y,-z
x,1/2-y,1/2+z
loop_
_atom_site_type_symbol
_atom_site_label
_atom_site_fract_x
_atom_site_fract_y
_atom_site_fract_z
Si Si1 0.985885 0.189290 0.713294
Si Si2 0.584469 0.188183 0.311572
Si Si3 0.659393 0.980145 0.401746
Si Si4 0.285020 0.765230 0.034785
Si Si5 0.977448 0.356085 0.908899
Si Si6 0.715983 0.431318 0.272363
Si Si7 0.836656 0.736806 0.142950
O O1 0.856425 0.257028 0.827636
O O2 0.004242 0.214118 0.806915
O O3 0.091954 0.280600 0.535513
O O4 0.998488 0.008990 0.679686
O O5 0.442743 0.148271 0.461077
O O6 0.606476 0.359914 0.331046
O O7 0.642507 0.061992 0.317631
O O8 0.644196 0.178015 0.139247
O O9 0.786494 0.889210 0.250409
O O10 0.663909 0.101618 0.484133
O O11 0.308521 0.897482 0.087493
O O12 0.067918 0.353228 0.897098
O O13 0.839671 0.343594 0.101485
O O14 0.727760 0.614955 0.242244
#
# Coordination Sequence:
#
# PCOD8125592 Si02
#       7
#     4   4   4   4   4   4   4
#     4  11  23  37  63  93 126 171 201 256 322 378
#     4  10  23  46  62  88 126 164 218 256 308 379
#     4  10  26  42  65  95 121 165 218 261 309 374
#     4  11  21  41  66  89 125 170 204 257 326 367
#     4  11  22  38  57  96 129 158 211 251 313 391
#     4  10  20  40  64  86 127 167 196 257 321 366
#     4  11  23  39  60  97 129 156 213 261 308 387
#
# _framework density 21.237622999999999
#
# number of rings (size 3 to 8) (size 9 to 14) (size 15 to 20)
#    0.000    1.429    4.286    0.857    4.000    2.286 
#    0.000    4.286    0.000    0.000    0.000    0.000 
#    0.000    0.000    0.000    0.000    0.000    0.000 
#
# Total GULP energy -347250.338317 kJ/mol
# GULP energy per Si atom -12401.797797 kJ/mol
# Density = 2.118928 g / cm^3
# Si number density = 21.237623 Si / 1000 Ang^3
#
#
#
# Elastic Constant Matrix: (Units=GPa)
#
#
# Indices 1 2 3 4 5 6 
#
# 1 57.3129 11.5795 30.8241 0.0000 15.2361 0.0000
# 2 11.5795 49.9112 34.3660 0.0000 4.1727 0.0000
# 3 30.8241 34.3660 98.3748 0.0000 23.0851 0.0000
# 4 0.0000 0.0000 0.0000 33.8870 0.0000 -2.7781
# 5 15.2361 4.1727 23.0851 0.0000 40.9856 0.0000
# 6 0.0000 0.0000 0.0000 -2.7781 0.0000 32.1019
#
#
#
# Elastic Compliance Matrix: (Units=1/GPa)
#
#
# Indices 1 2 3 4 5 6 
#
# 1 0.021844 -0.000983 -0.005322 0.000000 -0.005023 0.000000
# 2 -0.000983 0.026725 -0.009766 0.000000 0.003145 0.000000
# 3 -0.005322 -0.009766 0.016763 0.000000 -0.006469 0.000000
# 4 0.000000 0.000000 0.000000 0.029721 0.000000 0.002572
# 5 -0.005023 0.003145 -0.006469 0.000000 0.029589 0.000000
# 6 0.000000 0.000000 0.000000 0.002572 0.000000 0.031373
#
#
# Mechanical properties :
#
#
# Convention : Reuss Voigt Hill
#
# Bulk Modulus (GPa) = 30.13105 39.90424 35.01764
# Shear Modulus (GPa) = 25.09764 29.98352 27.54058
#
# Velocity S-wave (km/s) = 3.44139 3.76148 3.60499
# Velocity P-wave (km/s) = 5.47807 6.13964 5.81827
#
# Compressibility (1/GPa) = 0.03318836
#
# Stress axis : x y z
#
# Youngs Moduli (GPa) = 45.77821 37.41795 59.65683
#
# Poissons Ratio (x) = 0.03679 0.31752
# Poissons Ratio (y) = 0.04501 0.58262
# Poissons Ratio (z) = 0.24365 0.36543
#
# Static dielectric constant tensor:
#      x y z
#    x 3.816280 0.000000 0.093660 
#    y 0.000000 3.670020 0.000000 
#    z 0.093660 0.000000 3.945400 
# 
# 
# High freq. dielectric constant tensor:
#      x y z
#    x 1.826660 0.000000 0.010430 
#    y 0.000000 1.824950 0.000000 
#    z 0.010430 0.000000 1.839080 
# 
# From -- ./inp_files/50033.got.cif
#   From: 2010.03.12/outbox.cif.g09.slc.cpg/sg14_26_cif.got.tgz:50033.got - 2010.03.31 13:35:05.
