data_PCOD8125757
_publ_section_title
;
Structure prediction by ZEFSAII (Michael W. Deem and Ramdas Pophale) SiO2 
 PCOD8125757
Probable space group: P 21/C
;
_chemical_formula_sum "Si O2"
_cell_formula_units_Z 20
_cell_length_a 7.017979
_cell_length_b 10.174421
_cell_length_c 14.081411
_cell_angle_alpha 90.000000
_cell_angle_beta 121.286331
_cell_angle_gamma 90.000000
_cell_volume 859.254991
_symmetry_space_group_name_H-M "P 21/C"
_symmetry_group_IT_number 14
_symmetry_cell_setting 'monoclinic'
loop_
_space_group_symop_operation_xyz
x,y,z
-x,1/2+y,1/2-z
-x,-y,-z
x,1/2-y,1/2+z
loop_
_atom_site_type_symbol
_atom_site_label
_atom_site_fract_x
_atom_site_fract_y
_atom_site_fract_z
Si Si1 0.200563 0.749591 0.402135
Si Si2 0.645923 0.018216 0.670532
Si Si3 0.926397 0.977468 0.087718
Si Si4 0.892755 0.784590 0.660094
Si Si5 0.184833 0.596388 0.084965
O O1 0.239049 0.591600 0.415269
O O2 0.195058 0.788160 0.510606
O O3 0.962872 0.765299 0.284156
O O4 0.377446 0.844006 0.393611
O O5 0.704496 0.897752 0.613497
O O6 0.413135 0.983709 0.659866
O O7 0.839642 0.029184 0.796779
O O8 0.799628 0.838867 0.074282
O O9 0.000000 0.000000 0.000000
O O10 0.116529 0.842139 0.668221
O O11 0.000000 0.500000 0.000000
#
# Coordination Sequence:
#
# PCOD8125757 Si02
#       5
#     4   4   4   4   4
#     4  10  21  41  65  92 131 165 217 272 316 384
#     4  10  23  43  67  96 128 173 227 260 317 398
#     4  10  20  42  65  97 134 165 211 275 331 378
#     4  10  22  42  64  95 133 165 217 273 319 385
#     4  12  23  42  70  94 129 180 221 261 321 394
#
# _framework density 23.275977999999999
#
# number of rings (size 3 to 8) (size 9 to 14) (size 15 to 20)
#    0.000    1.600    4.000    0.600    0.000    0.000 
#   18.000    1.000    0.000    0.000    0.000    0.000 
#    0.000    0.000    0.000    0.000    0.000    0.000 
#
# Total GULP energy -247798.217359 kJ/mol
# GULP energy per Si atom -12389.910868 kJ/mol
# Density = 2.322300 g / cm^3
# Si number density = 23.275978 Si / 1000 Ang^3
#
#
#
# Elastic Constant Matrix: (Units=GPa)
#
#
# Indices 1 2 3 4 5 6 
#
# 1 86.7762 45.5145 6.6673 0.0000 2.6421 0.0000
# 2 45.5145 178.1381 11.4805 0.0000 -4.9342 0.0000
# 3 6.6673 11.4805 71.0300 0.0000 -11.4606 0.0000
# 4 0.0000 0.0000 0.0000 27.2911 0.0000 -12.2080
# 5 2.6421 -4.9342 -11.4606 0.0000 23.2574 0.0000
# 6 0.0000 0.0000 0.0000 -12.2080 0.0000 15.5166
#
#
#
# Elastic Compliance Matrix: (Units=1/GPa)
#
#
# Indices 1 2 3 4 5 6 
#
# 1 0.013513 -0.003456 -0.001169 0.000000 -0.002844 0.000000
# 2 -0.003456 0.006571 -0.000488 0.000000 0.001546 0.000000
# 3 -0.001169 -0.000488 0.015505 0.000000 0.007669 0.000000
# 4 0.000000 0.000000 0.000000 0.056541 0.000000 0.044485
# 5 -0.002844 0.001546 0.007669 0.000000 0.047427 0.000000
# 6 0.000000 0.000000 0.000000 0.044485 0.000000 0.099446
#
#
# Mechanical properties :
#
#
# Convention : Reuss Voigt Hill
#
# Bulk Modulus (GPa) = 39.42810 51.47432 45.45121
# Shear Modulus (GPa) = 19.40366 31.36515 25.38441
#
# Velocity S-wave (km/s) = 2.89041 3.67486 3.30598
# Velocity P-wave (km/s) = 5.30240 6.33789 5.84313
#
# Compressibility (1/GPa) = 0.02536262
#
# Stress axis : x y z
#
# Youngs Moduli (GPa) = 74.00275 152.18539 64.49692
#
# Poissons Ratio (x) = 0.52596 0.07538
# Poissons Ratio (y) = 0.25576 0.03149
# Poissons Ratio (z) = 0.08649 0.07429
#
# Static dielectric constant tensor:
#      x y z
#    x 5.981130 0.000000 -3.886360 
#    y 0.000000 4.891620 0.000000 
#    z -3.886360 0.000000 10.340520 
# 
# 
# High freq. dielectric constant tensor:
#      x y z
#    x 1.874550 0.000000 -0.010760 
#    y 0.000000 1.945130 0.000000 
#    z -0.010760 0.000000 1.927100 
# 
# From -- ./inp_files/37059.got.cif
#   From: 2010.03.12/outbox.cif.g09.slc.cpg/sg14_19_cif.got.tgz:37059.got - 2010.03.31 13:35:05.
