data_PCOD8125884
_publ_section_title
;
Structure prediction by ZEFSAII (Michael W. Deem and Ramdas Pophale) SiO2 
 PCOD8125884
Probable space group: P 21/C
;
_chemical_formula_sum "Si O2"
_cell_formula_units_Z 32
_cell_length_a 25.779152
_cell_length_b 8.251168
_cell_length_c 14.792004
_cell_angle_alpha 90.000000
_cell_angle_beta 30.605071
_cell_angle_gamma 90.000000
_cell_volume 1601.877047
_symmetry_space_group_name_H-M "P 21/C"
_symmetry_group_IT_number 14
_symmetry_cell_setting 'monoclinic'
loop_
_space_group_symop_operation_xyz
x,y,z
-x,1/2+y,1/2-z
-x,-y,-z
x,1/2-y,1/2+z
loop_
_atom_site_type_symbol
_atom_site_label
_atom_site_fract_x
_atom_site_fract_y
_atom_site_fract_z
Si Si1 0.386550 0.790215 0.735543
Si Si2 0.289982 0.878513 0.219365
Si Si3 0.731357 0.680871 0.876480
Si Si4 0.289976 0.378512 0.410687
Si Si5 0.268643 0.819126 0.570540
Si Si6 0.111965 0.579481 0.735638
Si Si7 0.386548 0.209789 0.104800
Si Si8 0.888031 0.579481 0.071544
O O1 0.307393 0.747810 0.773885
O O2 0.500003 0.750007 0.532525
O O3 0.374666 0.979624 0.777612
O O4 0.363386 0.681765 0.858910
O O5 0.301003 0.787782 0.107638
O O6 0.374672 0.020378 0.098374
O O7 0.177456 0.959620 0.394794
O O8 0.760510 0.499997 0.859237
O O9 0.636611 0.681769 0.949086
O O10 0.827748 0.752942 0.677253
O O11 0.699001 0.787772 0.010655
O O12 0.177449 0.459620 0.572841
O O13 0.307383 0.252197 0.303934
O O14 0.172249 0.747059 0.660493
O O15 0.096857 0.500001 0.854712
O O16 0.999997 0.610933 0.860013
#
# Coordination Sequence:
#
# PCOD8125884 Si02
#       8
#     4   4   4   4   4   4   4   4
#     4  11  22  36  56  81 113 155 195 240 291 344
#     4  10  21  38  56  82 115 147 192 241 287 345
#     4  10  21  36  56  84 116 150 191 240 288 348
#     4  10  21  38  56  82 115 147 192 241 287 345
#     4  10  21  36  56  84 116 150 191 240 288 348
#     4   8  16  34  58  80 107 143 180 228 288 342
#     4  11  22  36  56  81 113 155 195 240 291 344
#     4   8  16  34  58  80 107 143 180 228 288 342
#
# _framework density 19.976565000000001
#
# number of rings (size 3 to 8) (size 9 to 14) (size 15 to 20)
#    0.000    2.250    0.000    4.500    0.000    3.500 
#    0.000    5.000    0.000    6.000    0.000    0.000 
#    0.000    0.000    0.000    0.000    0.000    0.000 
#
# Total GULP energy -396707.124204 kJ/mol
# GULP energy per Si atom -12397.097631 kJ/mol
# Density = 1.993110 g / cm^3
# Si number density = 19.976565 Si / 1000 Ang^3
#
#
#
# Elastic Constant Matrix: (Units=GPa)
#
#
# Indices 1 2 3 4 5 6 
#
# 1 102.7391 35.7045 55.1417 0.0000 -0.1300 0.0000
# 2 35.7045 98.3564 42.3046 0.0000 -6.6960 0.0000
# 3 55.1417 42.3046 108.9137 0.0000 -6.1350 0.0000
# 4 0.0000 0.0000 0.0000 21.0111 0.0000 9.0133
# 5 -0.1300 -6.6960 -6.1350 0.0000 29.9585 0.0000
# 6 0.0000 0.0000 0.0000 9.0133 0.0000 29.8930
#
#
#
# Elastic Compliance Matrix: (Units=1/GPa)
#
#
# Indices 1 2 3 4 5 6 
#
# 1 0.013916 -0.002520 -0.006166 0.000000 -0.001766 0.000000
# 2 -0.002520 0.012757 -0.003560 0.000000 0.002111 0.000000
# 3 -0.006166 -0.003560 0.013799 0.000000 0.002003 0.000000
# 4 0.000000 0.000000 0.000000 0.054665 0.000000 -0.016482
# 5 -0.001766 0.002111 0.002003 0.000000 0.034254 0.000000
# 6 0.000000 0.000000 0.000000 -0.016482 0.000000 0.038422
#
#
# Mechanical properties :
#
#
# Convention : Reuss Voigt Hill
#
# Bulk Modulus (GPa) = 62.58026 64.03454 63.30740
# Shear Modulus (GPa) = 25.29932 27.96305 26.63118
#
# Velocity S-wave (km/s) = 3.56258 3.74544 3.65515
# Velocity P-wave (km/s) = 6.95108 7.12943 7.04082
#
# Compressibility (1/GPa) = 0.01597948
#
# Stress axis : x y z
#
# Youngs Moduli (GPa) = 71.85720 78.38869 72.46692
#
# Poissons Ratio (x) = 0.19752 0.44687
# Poissons Ratio (y) = 0.18106 0.25801
# Poissons Ratio (z) = 0.44311 0.27910
#
# Static dielectric constant tensor:
#      x y z
#    x 3.655730 0.000000 -0.089340 
#    y 0.000000 3.676910 0.000000 
#    z -0.089340 0.000000 3.743760 
# 
# 
# High freq. dielectric constant tensor:
#      x y z
#    x 1.772000 0.000000 0.002500 
#    y 0.000000 1.779700 0.000000 
#    z 0.002500 0.000000 1.769530 
# 
# From -- ./inp_files/51909.got.cif
#   From: 2010.03.12/outbox.cif.g09.slc.cpg/sg14_26_cif.got.tgz:51909.got - 2010.03.31 13:35:05.
