data_PCOD8125677
_publ_section_title
;
Structure prediction by ZEFSAII (Michael W. Deem and Ramdas Pophale) SiO2 
 PCOD8125677
Probable space group: P 21/C
;
_chemical_formula_sum "Si O2"
_cell_formula_units_Z 32
_cell_length_a 22.533141
_cell_length_b 6.245506
_cell_length_c 18.082755
_cell_angle_alpha 90.000000
_cell_angle_beta 34.438633
_cell_angle_gamma 90.000000
_cell_volume 1439.144522
_symmetry_space_group_name_H-M "P 21/C"
_symmetry_group_IT_number 14
_symmetry_cell_setting 'monoclinic'
loop_
_space_group_symop_operation_xyz
x,y,z
-x,1/2+y,1/2-z
-x,-y,-z
x,1/2-y,1/2+z
loop_
_atom_site_type_symbol
_atom_site_label
_atom_site_fract_x
_atom_site_fract_y
_atom_site_fract_z
Si Si1 0.359298 0.365598 0.639051
Si Si2 0.586097 0.615717 0.780137
Si Si3 0.721743 0.242194 0.681259
Si Si4 0.101034 0.445634 0.234023
Si Si5 0.890341 0.209792 0.895387
Si Si6 0.257784 0.364369 0.504636
Si Si7 0.772142 0.014825 0.268008
Si Si8 0.380280 0.835605 0.991869
O O1 0.423709 0.206675 0.625813
O O2 0.303493 0.526956 0.751683
O O3 0.424897 0.495952 0.508890
O O4 0.275318 0.223977 0.680697
O O5 0.616698 0.362887 0.756673
O O6 0.671771 0.720914 0.636731
O O7 0.471396 0.678344 0.865866
O O8 0.801517 0.172723 0.535105
O O9 0.782645 0.409856 0.672411
O O10 0.086272 0.659651 0.202374
O O11 0.115281 0.504219 0.306166
O O12 0.998143 0.301363 0.330815
O O13 0.212116 0.333799 0.097541
O O14 0.846540 0.976997 0.919793
O O15 0.328642 0.530990 0.478428
O O16 0.704537 0.187727 0.382205
#
# Coordination Sequence:
#
# PCOD8125677 Si02
#       8
#     4   4   4   4   4   4   4   4
#     4  10  20  41  63  90 126 164 208 253 314 366
#     4  10  23  39  61  92 125 168 208 252 308 372
#     4   9  22  42  61  90 130 158 203 264 308 369
#     4  12  22  40  67  91 120 168 211 259 321 376
#     4  11  23  41  66  91 121 166 210 258 318 378
#     4  11  23  42  60  93 131 163 212 264 311 368
#     4  10  22  38  64  91 127 160 210 260 308 370
#     4  11  22  39  63  91 127 167 209 256 309 373
#
# _framework density 22.235433
#
# number of rings (size 3 to 8) (size 9 to 14) (size 15 to 20)
#    0.000    1.500    3.750    1.125    0.000    7.000 
#    4.500    0.625    0.000    0.000    0.000    0.000 
#    0.000    0.000    0.000    0.000    0.000    0.000 
#
# Total GULP energy -396556.941723 kJ/mol
# GULP energy per Si atom -12392.404429 kJ/mol
# Density = 2.218482 g / cm^3
# Si number density = 22.235433 Si / 1000 Ang^3
#
#
#
# Elastic Constant Matrix: (Units=GPa)
#
#
# Indices 1 2 3 4 5 6 
#
# 1 71.2895 4.5431 15.4574 0.0000 -11.8432 0.0000
# 2 4.5431 46.2058 6.9530 0.0000 -5.6520 0.0000
# 3 15.4574 6.9530 53.2604 0.0000 -7.9093 0.0000
# 4 0.0000 0.0000 0.0000 25.3478 0.0000 4.4173
# 5 -11.8432 -5.6520 -7.9093 0.0000 29.8375 0.0000
# 6 0.0000 0.0000 0.0000 4.4173 0.0000 34.0794
#
#
#
# Elastic Compliance Matrix: (Units=1/GPa)
#
#
# Indices 1 2 3 4 5 6 
#
# 1 0.015723 -0.000348 -0.003748 0.000000 0.005181 0.000000
# 2 -0.000348 0.022453 -0.002310 0.000000 0.003503 0.000000
# 3 -0.003748 -0.002310 0.020694 0.000000 0.003560 0.000000
# 4 0.000000 0.000000 0.000000 0.040363 0.000000 -0.005232
# 5 0.005181 0.003503 0.003560 0.000000 0.037179 0.000000
# 6 0.000000 0.000000 0.000000 -0.005232 0.000000 0.030021
#
#
# Mechanical properties :
#
#
# Convention : Reuss Voigt Hill
#
# Bulk Modulus (GPa) = 21.71238 24.96251 23.33744
# Shear Modulus (GPa) = 25.69409 27.43974 26.56692
#
# Velocity S-wave (km/s) = 3.40302 3.51672 3.46034
# Velocity P-wave (km/s) = 5.02262 5.26694 5.14623
#
# Compressibility (1/GPa) = 0.04605667
#
# Stress axis : x y z
#
# Youngs Moduli (GPa) = 63.60112 44.53833 48.32371
#
# Poissons Ratio (x) = 0.01550 0.18113
# Poissons Ratio (y) = 0.02214 0.11162
# Poissons Ratio (z) = 0.23840 0.10288
#
# Static dielectric constant tensor:
#      x y z
#    x 4.303990 0.000000 0.097390 
#    y 0.000000 4.025070 0.000000 
#    z 0.097390 0.000000 3.799270 
# 
# 
# High freq. dielectric constant tensor:
#      x y z
#    x 1.888150 0.000000 0.007500 
#    y 0.000000 1.875120 0.000000 
#    z 0.007500 0.000000 1.849620 
# 
# From -- ./inp_files/70093.got.cif
#   From: 2010.03.12/outbox.cif.g09.slc.cpg/sg14_36_cif.got.tgz:70093.got - 2010.03.31 13:35:05.
