data_PCOD8125259
_publ_section_title
;
Structure prediction by ZEFSAII (Michael W. Deem and Ramdas Pophale) SiO2 
 PCOD8125259
Probable space group: P 21/C
;
_chemical_formula_sum "Si O2"
_cell_formula_units_Z 28
_cell_length_a 11.428510
_cell_length_b 13.898987
_cell_length_c 8.640673
_cell_angle_alpha 90.000000
_cell_angle_beta 67.582230
_cell_angle_gamma 90.000000
_cell_volume 1268.800466
_symmetry_space_group_name_H-M "P 21/C"
_symmetry_group_IT_number 14
_symmetry_cell_setting 'monoclinic'
loop_
_space_group_symop_operation_xyz
x,y,z
-x,1/2+y,1/2-z
-x,-y,-z
x,1/2-y,1/2+z
loop_
_atom_site_type_symbol
_atom_site_label
_atom_site_fract_x
_atom_site_fract_y
_atom_site_fract_z
Si Si1 0.767609 0.821121 0.981590
Si Si2 0.060778 0.226371 0.852714
Si Si3 0.427463 0.603632 0.011143
Si Si4 0.215738 0.510591 0.958044
Si Si5 0.397803 0.432949 0.625270
Si Si6 0.479224 0.236456 0.260611
Si Si7 0.980649 0.381986 0.125537
O O1 0.875669 0.844464 0.053200
O O2 0.660397 0.751536 0.102490
O O3 0.826360 0.763092 0.810534
O O4 0.712410 0.921556 0.947567
O O5 0.992596 0.313930 0.971035
O O6 0.956809 0.172319 0.799686
O O7 0.277139 0.579094 0.059420
O O8 0.467713 0.660959 0.831242
O O9 0.500000 0.500000 0.000000
O O10 0.438013 0.676438 0.152899
O O11 0.340432 0.462636 0.819535
O O12 0.112499 0.439767 0.085588
O O13 0.143851 0.557950 0.847992
O O14 0.500000 0.500000 0.500000
O O15 0.466797 0.330429 0.614619
#
# Coordination Sequence:
#
# PCOD8125259 Si02
#       7
#     4   4   4   4   4   4   4
#     4  11  19  36  64  92 129 166 232 277 322 405
#     4  10  20  37  67  95 117 177 233 276 330 406
#     4  12  27  42  68 102 139 180 227 284 352 410
#     4  11  24  44  65  97 142 176 225 287 350 402
#     4  12  23  38  65  98 139 179 224 285 341 414
#     4  12  24  41  64 101 137 181 224 275 351 416
#     4  10  23  43  69  92 131 181 229 284 339 404
#
# _framework density 22.068086000000001
#
# number of rings (size 3 to 8) (size 9 to 14) (size 15 to 20)
#    0.000    0.857    5.714    1.714    2.000    1.143 
#    0.000    0.714    0.000    0.000    0.000    0.000 
#    0.000    0.000    0.000    0.000    0.000    0.000 
#
# Total GULP energy -346878.552042 kJ/mol
# GULP energy per Si atom -12388.519716 kJ/mol
# Density = 2.201786 g / cm^3
# Si number density = 22.068086 Si / 1000 Ang^3
#
#
#
# Elastic Constant Matrix: (Units=GPa)
#
#
# Indices 1 2 3 4 5 6 
#
# 1 78.2952 30.6886 15.7607 0.0000 14.7194 0.0000
# 2 30.6886 94.7733 27.5677 0.0000 16.9244 0.0000
# 3 15.7607 27.5677 62.0038 0.0000 21.7767 0.0000
# 4 0.0000 0.0000 0.0000 37.2092 0.0000 15.3153
# 5 14.7194 16.9244 21.7767 0.0000 25.9153 0.0000
# 6 0.0000 0.0000 0.0000 15.3153 0.0000 44.0427
#
#
#
# Elastic Compliance Matrix: (Units=1/GPa)
#
#
# Indices 1 2 3 4 5 6 
#
# 1 0.015473 -0.003893 -0.000012 0.000000 -0.006236 0.000000
# 2 -0.003893 0.013535 -0.003831 0.000000 -0.003409 0.000000
# 3 -0.000012 -0.003831 0.024052 0.000000 -0.017702 0.000000
# 4 0.000000 0.000000 0.000000 0.031364 0.000000 -0.010907
# 5 -0.006236 -0.003409 -0.017702 0.000000 0.059230 0.000000
# 6 0.000000 0.000000 0.000000 -0.010907 0.000000 0.026498
#
#
# Mechanical properties :
#
#
# Convention : Reuss Voigt Hill
#
# Bulk Modulus (GPa) = 26.60481 42.56737 34.58609
# Shear Modulus (GPa) = 25.23290 32.17045 28.70168
#
# Velocity S-wave (km/s) = 3.38511 3.82223 3.61029
# Velocity P-wave (km/s) = 5.23073 6.22979 5.75199
#
# Compressibility (1/GPa) = 0.03758719
#
# Stress axis : x y z
#
# Youngs Moduli (GPa) = 64.62919 73.88075 41.57716
#
# Poissons Ratio (x) = 0.28764 0.00050
# Poissons Ratio (y) = 0.25162 0.15929
# Poissons Ratio (z) = 0.00077 0.28305
#
# Static dielectric constant tensor:
#      x y z
#    x 4.084050 0.000000 0.441640 
#    y 0.000000 3.592360 0.000000 
#    z 0.441640 0.000000 4.068170 
# 
# 
# High freq. dielectric constant tensor:
#      x y z
#    x 1.867010 0.000000 0.027730 
#    y 0.000000 1.864090 0.000000 
#    z 0.027730 0.000000 1.861750 
# 
# From -- ./inp_files/13050.got.cif
#   From: 2010.03.12/outbox.cif.g09.slc.cpg/sg14_7_cif.got.tgz:13050.got - 2010.03.31 13:35:05.
