data_PCOD8125365
_publ_section_title
;
Structure prediction by ZEFSAII (Michael W. Deem and Ramdas Pophale) SiO2 
 PCOD8125365
Probable space group: P 21/C
;
_chemical_formula_sum "Si O2"
_cell_formula_units_Z 32
_cell_length_a 12.730557
_cell_length_b 16.823633
_cell_length_c 9.224302
_cell_angle_alpha 90.000000
_cell_angle_beta 56.808682
_cell_angle_gamma 90.000000
_cell_volume 1653.281901
_symmetry_space_group_name_H-M "P 21/C"
_symmetry_group_IT_number 14
_symmetry_cell_setting 'monoclinic'
loop_
_space_group_symop_operation_xyz
x,y,z
-x,1/2+y,1/2-z
-x,-y,-z
x,1/2-y,1/2+z
loop_
_atom_site_type_symbol
_atom_site_label
_atom_site_fract_x
_atom_site_fract_y
_atom_site_fract_z
Si Si1 0.170924 0.823644 0.832898
Si Si2 0.840925 0.328979 0.321502
Si Si3 0.651522 0.428340 0.974793
Si Si4 0.924922 0.743139 0.432065
Si Si5 0.592656 0.609806 0.004798
Si Si6 0.326635 0.558936 0.708485
Si Si7 0.570024 0.609098 0.354152
Si Si8 0.254590 0.237730 0.178318
O O1 0.226473 0.743032 0.717088
O O2 0.228253 0.898322 0.705405
O O3 0.019056 0.824094 0.924888
O O4 0.203472 0.827580 0.978252
O O5 0.801229 0.410972 0.272163
O O6 0.991874 0.316430 0.196261
O O7 0.649647 0.522177 0.948813
O O8 0.527043 0.384198 0.010502
O O9 0.664335 0.407901 0.134858
O O10 0.834259 0.705625 0.381468
O O11 0.830845 0.777791 0.619354
O O12 0.700486 0.671374 0.874945
O O13 0.548045 0.628849 0.201852
O O14 0.438084 0.591412 0.525593
O O15 0.331709 0.463587 0.704621
O O16 0.622962 0.683766 0.401563
#
# Coordination Sequence:
#
# PCOD8125365 Si02
#       8
#     4   4   4   4   4   4   4   4
#     4  10  20  38  63  85 117 156 195 248 289 343
#     4  10  20  38  63  85 118 154 197 248 287 344
#     4  10  22  40  62  91 119 154 199 246 301 348
#     4  10  22  39  60  85 121 155 204 242 283 356
#     4  10  23  41  61  88 125 155 194 250 297 358
#     4  10  22  40  62  91 118 155 200 245 300 348
#     4  10  23  41  61  88 124 156 196 247 296 362
#     4  12  22  41  62  85 119 161 194 243 301 346
#
# _framework density 19.355440000000002
#
# number of rings (size 3 to 8) (size 9 to 14) (size 15 to 20)
#    0.750    1.000    2.500    1.500    5.250    1.000 
#    0.000    2.500    0.000    0.000    0.000    0.000 
#    0.000    0.000    0.000    0.000    0.000    0.000 
#
# Total GULP energy -396666.785449 kJ/mol
# GULP energy per Si atom -12395.837045 kJ/mol
# Density = 1.931139 g / cm^3
# Si number density = 19.355440 Si / 1000 Ang^3
#
#
#
# Elastic Constant Matrix: (Units=GPa)
#
#
# Indices 1 2 3 4 5 6 
#
# 1 84.1215 30.7159 28.2385 0.0000 18.4946 0.0000
# 2 30.7159 62.9843 29.8589 0.0000 4.0676 0.0000
# 3 28.2385 29.8589 119.4003 0.0000 17.7954 0.0000
# 4 0.0000 0.0000 0.0000 27.8495 0.0000 3.6545
# 5 18.4946 4.0676 17.7954 0.0000 39.1215 0.0000
# 6 0.0000 0.0000 0.0000 3.6545 0.0000 24.1057
#
#
#
# Elastic Compliance Matrix: (Units=1/GPa)
#
#
# Indices 1 2 3 4 5 6 
#
# 1 0.016223 -0.006957 -0.001139 0.000000 -0.006428 0.000000
# 2 -0.006957 0.020997 -0.004044 0.000000 0.002945 0.000000
# 3 -0.001139 -0.004044 0.010205 0.000000 -0.003683 0.000000
# 4 0.000000 0.000000 0.000000 0.036636 0.000000 -0.005554
# 5 -0.006428 0.002945 -0.003683 0.000000 0.029969 0.000000
# 6 0.000000 0.000000 0.000000 -0.005554 0.000000 0.042326
#
#
# Mechanical properties :
#
#
# Convention : Reuss Voigt Hill
#
# Bulk Modulus (GPa) = 43.20668 49.34807 46.27737
# Shear Modulus (GPa) = 26.54615 30.06155 28.30385
#
# Velocity S-wave (km/s) = 3.70741 3.94525 3.82818
# Velocity P-wave (km/s) = 6.37947 6.80474 6.59553
#
# Compressibility (1/GPa) = 0.02314457
#
# Stress axis : x y z
#
# Youngs Moduli (GPa) = 61.63974 47.62674 97.99207
#
# Poissons Ratio (x) = 0.33132 0.11163
# Poissons Ratio (y) = 0.42880 0.39632
# Poissons Ratio (z) = 0.07022 0.19262
#
# Static dielectric constant tensor:
#      x y z
#    x 3.415320 0.000000 0.082440 
#    y 0.000000 3.362010 0.000000 
#    z 0.082440 0.000000 3.477450 
# 
# 
# High freq. dielectric constant tensor:
#      x y z
#    x 1.752170 0.000000 0.012360 
#    y 0.000000 1.731180 0.000000 
#    z 0.012360 0.000000 1.767000 
# 
# From -- ./inp_files/13709.got.cif
#   From: 2010.03.12/outbox.cif.g09.slc.cpg/sg14_7_cif.got.tgz:13709.got - 2010.03.31 13:35:05.
