data_PCOD8125241
_publ_section_title
;
Structure prediction by ZEFSAII (Michael W. Deem and Ramdas Pophale) SiO2 
 PCOD8125241
Probable space group: P 21/C
;
_chemical_formula_sum "Si O2"
_cell_formula_units_Z 32
_cell_length_a 5.262472
_cell_length_b 28.740388
_cell_length_c 10.036835
_cell_angle_alpha 90.000000
_cell_angle_beta 98.812850
_cell_angle_gamma 90.000000
_cell_volume 1500.104253
_symmetry_space_group_name_H-M "P 21/C"
_symmetry_group_IT_number 14
_symmetry_cell_setting 'monoclinic'
loop_
_space_group_symop_operation_xyz
x,y,z
-x,1/2+y,1/2-z
-x,-y,-z
x,1/2-y,1/2+z
loop_
_atom_site_type_symbol
_atom_site_label
_atom_site_fract_x
_atom_site_fract_y
_atom_site_fract_z
Si Si1 0.872300 0.658245 0.451818
Si Si2 0.193691 0.138893 0.575926
Si Si3 0.616752 0.283311 0.530761
Si Si4 0.873121 0.377781 0.287371
Si Si5 0.332113 0.542613 0.130143
Si Si6 0.558523 0.052024 0.654692
Si Si7 0.854090 0.901479 0.695006
Si Si8 0.469850 0.791063 0.263874
O O1 0.592569 0.681895 0.420198
O O2 0.915394 0.621173 0.340101
O O3 0.099340 0.695781 0.460964
O O4 0.889739 0.628792 0.591702
O O5 0.393765 0.097454 0.609361
O O6 0.131888 0.140287 0.413556
O O7 0.277411 0.189235 0.641277
O O8 0.940508 0.126045 0.636750
O O9 0.497682 0.265231 0.377922
O O10 0.666125 0.241298 0.638214
O O11 0.749957 0.429776 0.287988
O O12 0.679763 0.336107 0.301152
O O13 0.390605 0.491138 0.194409
O O14 0.574145 0.575501 0.180648
O O15 0.072065 0.560419 0.178388
O O16 0.289263 0.536980 0.967608
#
# Coordination Sequence:
#
# PCOD8125241 Si02
#       8
#     4   4   4   4   4   4   4   4
#     4  11  25  43  61  86 126 164 195 245 312 357
#     4  10  20  37  64  86 121 158 208 238 302 362
#     4  11  25  42  64  88 120 157 201 251 298 355
#     4  10  20  41  61  85 121 163 201 241 303 368
#     4  10  21  37  61  94 123 151 209 252 300 350
#     4   9  20  35  62  91 119 161 199 258 296 352
#     4  11  23  39  61  91 123 161 199 251 298 357
#     4  10  24  40  60  93 117 156 202 249 298 359
#
# _framework density 21.331848999999998
#
# number of rings (size 3 to 8) (size 9 to 14) (size 15 to 20)
#    0.000    1.750    2.500    0.750    5.250    2.500 
#    0.000    1.250    0.000    0.000    0.000    0.000 
#    0.000    0.000    0.000    0.000    0.000    0.000 
#
# Total GULP energy -396468.819719 kJ/mol
# GULP energy per Si atom -12389.650616 kJ/mol
# Density = 2.128330 g / cm^3
# Si number density = 21.331849 Si / 1000 Ang^3
#
#
#
# Elastic Constant Matrix: (Units=GPa)
#
#
# Indices 1 2 3 4 5 6 
#
# 1 55.8925 -11.1674 -0.8456 0.0000 -5.1301 0.0000
# 2 -11.1674 45.8368 34.4259 0.0000 4.5951 0.0000
# 3 -0.8456 34.4259 94.6631 0.0000 1.7289 0.0000
# 4 0.0000 0.0000 0.0000 29.7619 0.0000 -6.1242
# 5 -5.1301 4.5951 1.7289 0.0000 25.7943 0.0000
# 6 0.0000 0.0000 0.0000 -6.1242 0.0000 21.5702
#
#
#
# Elastic Compliance Matrix: (Units=1/GPa)
#
#
# Indices 1 2 3 4 5 6 
#
# 1 0.019317 0.005949 -0.002044 0.000000 0.002919 0.000000
# 2 0.005949 0.032407 -0.011663 0.000000 -0.003808 0.000000
# 3 -0.002044 -0.011663 0.014774 0.000000 0.000681 0.000000
# 4 0.000000 0.000000 0.000000 0.035685 0.000000 0.010132
# 5 0.002919 -0.003808 0.000681 0.000000 0.039982 0.000000
# 6 0.000000 0.000000 0.000000 0.010132 0.000000 0.049237
#
#
# Mechanical properties :
#
#
# Convention : Reuss Voigt Hill
#
# Bulk Modulus (GPa) = 19.61450 26.80202 23.20826
# Shear Modulus (GPa) = 22.33020 27.02390 24.67705
#
# Velocity S-wave (km/s) = 3.23894 3.56312 3.40489
# Velocity P-wave (km/s) = 4.81690 5.43317 5.13429
#
# Compressibility (1/GPa) = 0.05098269
#
# Stress axis : x y z
#
# Youngs Moduli (GPa) = 51.76758 30.85751 67.68446
#
# Poissons Ratio (x) = -0.18357 0.13836
# Poissons Ratio (y) = -0.30796 0.78938
# Poissons Ratio (z) = 0.10582 0.35988
#
# Static dielectric constant tensor:
#      x y z
#    x 3.765900 0.000000 0.114030 
#    y 0.000000 3.944760 0.000000 
#    z 0.114030 0.000000 4.127410 
# 
# 
# High freq. dielectric constant tensor:
#      x y z
#    x 1.836420 0.000000 -0.000140 
#    y 0.000000 1.825090 0.000000 
#    z -0.000140 0.000000 1.829440 
# 
# From -- ./inp_files/6791.got.cif
#   From: 2010.03.12/outbox.cif.g09.slc.cpg/sg14_4_cif.got.tgz:6791.got - 2010.03.31 13:35:05.
