data_PCOD8125542
_publ_section_title
;
Structure prediction by ZEFSAII (Michael W. Deem and Ramdas Pophale) SiO2 
 PCOD8125542
Probable space group: P 21/C
;
_chemical_formula_sum "Si O2"
_cell_formula_units_Z 28
_cell_length_a 16.822825
_cell_length_b 13.676193
_cell_length_c 9.899841
_cell_angle_alpha 90.000000
_cell_angle_beta 148.342422
_cell_angle_gamma 90.000000
_cell_volume 1195.420195
_symmetry_space_group_name_H-M "P 21/C"
_symmetry_group_IT_number 14
_symmetry_cell_setting 'monoclinic'
loop_
_space_group_symop_operation_xyz
x,y,z
-x,1/2+y,1/2-z
-x,-y,-z
x,1/2-y,1/2+z
loop_
_atom_site_type_symbol
_atom_site_label
_atom_site_fract_x
_atom_site_fract_y
_atom_site_fract_z
Si Si1 0.852191 0.846812 0.642571
Si Si2 0.264325 0.969089 0.937292
Si Si3 0.839936 0.081063 0.919752
Si Si4 0.392644 0.486689 0.122750
Si Si5 0.288644 0.776041 0.850877
Si Si6 0.455539 0.814661 0.835952
Si Si7 0.208691 0.180992 0.742730
O O1 0.685384 0.895452 0.414353
O O2 0.871564 0.754108 0.769194
O O3 0.876441 0.811503 0.523516
O O4 0.981669 0.929206 0.860414
O O5 0.207471 0.881331 0.755981
O O6 0.206368 0.070618 0.793712
O O7 0.188862 0.957651 0.972758
O O8 0.447784 0.958770 0.216493
O O9 0.820468 0.198284 0.877967
O O10 0.725793 0.022112 0.660764
O O11 0.427926 0.569245 0.284329
O O12 0.431774 0.786644 0.957361
O O13 0.338928 0.740677 0.070716
O O14 0.620979 0.781527 0.030893
#
# Coordination Sequence:
#
# PCOD8125542 Si02
#       7
#     4   4   4   4   4   4   4
#     4  12  27  45  66 100 143 185 226 280 348 411
#     4  11  23  45  73 102 133 177 239 288 338 399
#     4  11  26  43  69 102 138 183 222 284 350 415
#     4  10  23  44  71  99 131 177 232 289 341 400
#     4  11  21  39  68 100 135 172 230 284 347 401
#     4  10  20  39  68 100 130 173 230 291 337 395
#     4  11  26  43  68 101 139 183 231 285 339 407
#
# _framework density 23.422726000000001
#
# number of rings (size 3 to 8) (size 9 to 14) (size 15 to 20)
#    0.000    1.143    1.429    4.286    4.000    2.857 
#    2.571    0.000    0.000    0.000    0.000    0.000 
#    0.000    0.000    0.000    0.000    0.000    0.000 
#
# Total GULP energy -347207.780072 kJ/mol
# GULP energy per Si atom -12400.277860 kJ/mol
# Density = 2.336941 g / cm^3
# Si number density = 23.422726 Si / 1000 Ang^3
#
#
#
# Elastic Constant Matrix: (Units=GPa)
#
#
# Indices 1 2 3 4 5 6 
#
# 1 82.9433 36.6606 27.9166 0.0000 -15.1707 0.0000
# 2 36.6606 85.8527 13.8949 0.0000 -4.8240 0.0000
# 3 27.9166 13.8949 52.2763 0.0000 -15.5425 0.0000
# 4 0.0000 0.0000 0.0000 31.4855 0.0000 1.3305
# 5 -15.1707 -4.8240 -15.5425 0.0000 33.8260 0.0000
# 6 0.0000 0.0000 0.0000 1.3305 0.0000 38.9348
#
#
#
# Elastic Compliance Matrix: (Units=1/GPa)
#
#
# Indices 1 2 3 4 5 6 
#
# 1 0.017817 -0.006307 -0.006637 0.000000 0.004042 0.000000
# 2 -0.006307 0.014406 -0.000801 0.000000 -0.001142 0.000000
# 3 -0.006637 -0.000801 0.025443 0.000000 0.008600 0.000000
# 4 0.000000 0.000000 0.000000 0.031807 0.000000 -0.001087
# 5 0.004042 -0.001142 0.008600 0.000000 0.035165 0.000000
# 6 0.000000 0.000000 0.000000 -0.001087 0.000000 0.025721
#
#
# Mechanical properties :
#
#
# Convention : Reuss Voigt Hill
#
# Bulk Modulus (GPa) = 33.13672 42.00183 37.56927
# Shear Modulus (GPa) = 26.60896 30.35592 28.48244
#
# Velocity S-wave (km/s) = 3.37416 3.60391 3.49093
# Velocity P-wave (km/s) = 5.41830 5.94042 5.68535
#
# Compressibility (1/GPa) = 0.03017800
#
# Stress axis : x y z
#
# Youngs Moduli (GPa) = 56.12583 69.41319 39.30368
#
# Poissons Ratio (x) = 0.43779 0.26084
# Poissons Ratio (y) = 0.35399 0.03147
# Poissons Ratio (z) = 0.37248 0.05558
#
# Static dielectric constant tensor:
#      x y z
#    x 4.214550 0.000000 0.046700 
#    y 0.000000 4.346680 0.000000 
#    z 0.046700 0.000000 4.045540 
# 
# 
# High freq. dielectric constant tensor:
#      x y z
#    x 1.934360 0.000000 -0.002140 
#    y 0.000000 1.931080 0.000000 
#    z -0.002140 0.000000 1.920650 
# 
# From -- ./inp_files/16457.got.cif
#   From: 2010.03.12/outbox.cif.g09.slc.cpg/sg14_9_cif.got.tgz:16457.got - 2010.03.31 13:35:05.
