data_PCOD8125848
_publ_section_title
;
Structure prediction by ZEFSAII (Michael W. Deem and Ramdas Pophale) SiO2 
 PCOD8125848
Probable space group: P 21/C
;
_chemical_formula_sum "Si O2"
_cell_formula_units_Z 32
_cell_length_a 9.952115
_cell_length_b 22.341553
_cell_length_c 16.257614
_cell_angle_alpha 90.000000
_cell_angle_beta 23.451105
_cell_angle_gamma 90.000000
_cell_volume 1438.572904
_symmetry_space_group_name_H-M "P 21/C"
_symmetry_group_IT_number 14
_symmetry_cell_setting 'monoclinic'
loop_
_space_group_symop_operation_xyz
x,y,z
-x,1/2+y,1/2-z
-x,-y,-z
x,1/2-y,1/2+z
loop_
_atom_site_type_symbol
_atom_site_label
_atom_site_fract_x
_atom_site_fract_y
_atom_site_fract_z
Si Si1 0.458612 0.006800 0.316288
Si Si2 0.883330 0.725934 0.195502
Si Si3 0.403681 0.669546 0.012620
Si Si4 0.613462 0.181215 0.152074
Si Si5 0.256793 0.469201 0.751775
Si Si6 0.356537 0.132800 0.456797
Si Si7 0.233307 0.575249 0.641893
Si Si8 0.114544 0.077716 0.825115
O O1 0.793974 0.972489 0.158554
O O2 0.134922 0.961515 0.504397
O O3 0.492377 0.027032 0.201941
O O4 0.406989 0.064045 0.402831
O O5 0.655153 0.774489 0.368156
O O6 0.670766 0.680824 0.258562
O O7 0.042353 0.687099 0.179474
O O8 0.166710 0.758345 0.979313
O O9 0.544400 0.615087 0.880003
O O10 0.373322 0.650203 0.124925
O O11 0.413028 0.179251 0.351142
O O12 0.833873 0.121523 0.021288
O O13 0.297914 0.531524 0.680976
O O14 0.403590 0.416136 0.609418
O O15 0.965906 0.134862 0.713076
O O16 0.997785 0.548975 0.699561
#
# Coordination Sequence:
#
# PCOD8125848 Si02
#       8
#     4   4   4   4   4   4   4   4
#     4  10  21  37  57  84 122 163 206 244 282 347
#     4   9  20  41  63  83 111 147 191 250 303 356
#     4   9  20  37  60  86 111 146 192 240 303 355
#     4  10  21  39  63  87 114 150 194 244 304 359
#     4   9  19  35  55  77 112 166 206 239 282 326
#     4  10  21  35  57  89 120 154 194 240 295 359
#     4   9  19  35  52  79 115 150 196 240 282 336
#     4  10  21  37  57  84 119 159 197 239 291 351
#
# _framework density 22.244268999999999
#
# number of rings (size 3 to 8) (size 9 to 14) (size 15 to 20)
#    0.000    2.500    0.000    0.750    0.000   11.500 
#    0.000    5.000    0.000    1.500    0.000    0.000 
#    0.000    0.000    0.000    0.000    0.000    0.000 
#
# Total GULP energy -396477.456075 kJ/mol
# GULP energy per Si atom -12389.920502 kJ/mol
# Density = 2.219364 g / cm^3
# Si number density = 22.244269 Si / 1000 Ang^3
#
#
#
# Elastic Constant Matrix: (Units=GPa)
#
#
# Indices 1 2 3 4 5 6 
#
# 1 140.6868 44.6175 44.5086 0.0000 7.5745 0.0000
# 2 44.6175 48.5049 21.2896 0.0000 -1.3967 0.0000
# 3 44.5086 21.2896 57.1794 0.0000 13.8572 0.0000
# 4 0.0000 0.0000 0.0000 25.1273 0.0000 -1.6269
# 5 7.5745 -1.3967 13.8572 0.0000 35.4488 0.0000
# 6 0.0000 0.0000 0.0000 -1.6269 0.0000 42.2504
#
#
#
# Elastic Compliance Matrix: (Units=1/GPa)
#
#
# Indices 1 2 3 4 5 6 
#
# 1 0.011547 -0.008060 -0.005868 0.000000 -0.000491 0.000000
# 2 -0.008060 0.031111 -0.006654 0.000000 0.005549 0.000000
# 3 -0.005868 -0.006654 0.026836 0.000000 -0.009499 0.000000
# 4 0.000000 0.000000 0.000000 0.039897 0.000000 0.001536
# 5 -0.000491 0.005549 -0.009499 0.000000 0.032246 0.000000
# 6 0.000000 0.000000 0.000000 0.001536 0.000000 0.023728
#
#
# Mechanical properties :
#
#
# Convention : Reuss Voigt Hill
#
# Bulk Modulus (GPa) = 35.29967 51.91139 43.60553
# Shear Modulus (GPa) = 23.15091 29.62901 26.38996
#
# Velocity S-wave (km/s) = 3.22958 3.65360 3.44811
# Velocity P-wave (km/s) = 5.45990 6.41763 5.95804
#
# Compressibility (1/GPa) = 0.02832888
#
# Stress axis : x y z
#
# Youngs Moduli (GPa) = 86.60144 32.14277 37.26284
#
# Poissons Ratio (x) = 0.25908 0.21867
# Poissons Ratio (y) = 0.69802 0.24796
# Poissons Ratio (z) = 0.50820 0.21389
#
# Static dielectric constant tensor:
#      x y z
#    x 4.062830 0.000000 0.039120 
#    y 0.000000 3.774700 0.000000 
#    z 0.039120 0.000000 4.301980 
# 
# 
# High freq. dielectric constant tensor:
#      x y z
#    x 1.880380 0.000000 0.002470 
#    y 0.000000 1.849600 0.000000 
#    z 0.002470 0.000000 1.881960 
# 
# From -- ./inp_files/42238.got.cif
#   From: 2010.03.12/outbox.cif.g09.slc.cpg/sg14_22_cif.got.tgz:42238.got - 2010.03.31 13:35:05.
