data_PCOD8125940
_publ_section_title
;
Structure prediction by ZEFSAII (Michael W. Deem and Ramdas Pophale) SiO2 
 PCOD8125940
Probable space group: P 21/C
;
_chemical_formula_sum "Si O2"
_cell_formula_units_Z 28
_cell_length_a 9.574736
_cell_length_b 17.592849
_cell_length_c 15.527031
_cell_angle_alpha 90.000000
_cell_angle_beta 29.633135
_cell_angle_gamma 90.000000
_cell_volume 1293.210030
_symmetry_space_group_name_H-M "P 21/C"
_symmetry_group_IT_number 14
_symmetry_cell_setting 'monoclinic'
loop_
_space_group_symop_operation_xyz
x,y,z
-x,1/2+y,1/2-z
-x,-y,-z
x,1/2-y,1/2+z
loop_
_atom_site_type_symbol
_atom_site_label
_atom_site_fract_x
_atom_site_fract_y
_atom_site_fract_z
Si Si1 0.586654 0.305345 0.176206
Si Si2 0.174739 0.286484 0.097958
Si Si3 0.393761 0.779267 0.011965
Si Si4 0.514555 0.142029 0.286533
Si Si5 0.295993 0.429836 0.615697
Si Si6 0.926074 0.924774 0.590743
Si Si7 0.093737 0.363382 0.547402
O O1 0.600979 0.229981 0.225864
O O2 0.329171 0.359876 0.345327
O O3 0.557753 0.277199 0.093773
O O4 0.868314 0.354275 0.039153
O O5 0.044300 0.221193 0.108069
O O6 0.936014 0.301330 0.297936
O O7 0.475195 0.264303 0.977464
O O8 0.259020 0.359663 0.994641
O O9 0.554971 0.858245 0.919098
O O10 0.391692 0.100353 0.268251
O O11 0.803500 0.101869 0.163633
O O12 0.500000 0.500000 0.500000
O O13 0.057514 0.446147 0.816089
O O14 0.179475 0.415622 0.582656
O O15 0.000000 0.000000 0.500000
#
# Coordination Sequence:
#
# PCOD8125940 Si02
#       7
#     4   4   4   4   4   4   4
#     4  11  22  41  70 104 138 180 237 300 346 428
#     4  10  21  36  62  99 133 170 225 287 345 400
#     4  11  22  38  67 101 133 176 234 289 344 413
#     4  11  23  41  68 100 136 181 236 290 350 422
#     4  11  25  46  68  97 140 190 230 284 366 435
#     4  12  27  45  71 103 145 188 237 292 373 430
#     4  10  22  41  67  97 135 175 227 290 349 416
#
# _framework density 21.651547999999998
#
# number of rings (size 3 to 8) (size 9 to 14) (size 15 to 20)
#    0.000    1.143    2.857    4.286    8.000    0.000 
#    0.000    5.000    0.000    0.000    0.000    0.000 
#    0.000    0.000    0.000    0.000    0.000    0.000 
#
# Total GULP energy -346977.394223 kJ/mol
# GULP energy per Si atom -12392.049794 kJ/mol
# Density = 2.160227 g / cm^3
# Si number density = 21.651548 Si / 1000 Ang^3
#
#
#
# Elastic Constant Matrix: (Units=GPa)
#
#
# Indices 1 2 3 4 5 6 
#
# 1 124.6512 31.0781 58.5942 0.0000 -9.0466 0.0000
# 2 31.0781 51.7385 -5.8849 0.0000 -4.5505 0.0000
# 3 58.5942 -5.8849 108.0202 0.0000 7.1322 0.0000
# 4 0.0000 0.0000 0.0000 22.5071 0.0000 7.6422
# 5 -9.0466 -4.5505 7.1322 0.0000 43.8650 0.0000
# 6 0.0000 0.0000 0.0000 7.6422 0.0000 19.7764
#
#
#
# Elastic Compliance Matrix: (Units=1/GPa)
#
#
# Indices 1 2 3 4 5 6 
#
# 1 0.014785 -0.009572 -0.008771 0.000000 0.003482 0.000000
# 2 -0.009572 0.025798 0.006623 0.000000 -0.000375 0.000000
# 3 -0.008771 0.006623 0.014607 0.000000 -0.003497 0.000000
# 4 0.000000 0.000000 0.000000 0.051141 0.000000 -0.019762
# 5 0.003482 -0.000375 -0.003497 0.000000 0.024045 0.000000
# 6 0.000000 0.000000 0.000000 -0.019762 0.000000 0.058202
#
#
# Mechanical properties :
#
#
# Convention : Reuss Voigt Hill
#
# Bulk Modulus (GPa) = 31.49796 50.22053 40.85925
# Shear Modulus (GPa) = 22.46162 30.60453 26.53307
#
# Velocity S-wave (km/s) = 3.22439 3.76374 3.50445
# Velocity P-wave (km/s) = 5.33305 6.49098 5.94030
#
# Compressibility (1/GPa) = 0.03174809
#
# Stress axis : x y z
#
# Youngs Moduli (GPa) = 67.63754 38.76257 68.46014
#
# Poissons Ratio (x) = 0.37104 0.60048
# Poissons Ratio (y) = 0.64744 -0.45338
# Poissons Ratio (z) = 0.59326 -0.25671
#
# Static dielectric constant tensor:
#      x y z
#    x 3.979590 0.000000 0.248340 
#    y 0.000000 3.255950 0.000000 
#    z 0.248340 0.000000 4.192720 
# 
# 
# High freq. dielectric constant tensor:
#      x y z
#    x 1.859310 0.000000 0.011020 
#    y 0.000000 1.814690 0.000000 
#    z 0.011020 0.000000 1.862620 
# 
# From -- ./inp_files/42092.got.cif
#   From: 2010.03.12/outbox.cif.g09.slc.cpg/sg14_22_cif.got.tgz:42092.got - 2010.03.31 13:35:05.
