data_PCOD8125649
_publ_section_title
;
Structure prediction by ZEFSAII (Michael W. Deem and Ramdas Pophale) SiO2 
 PCOD8125649
Probable space group: P 21/C
;
_chemical_formula_sum "Si O2"
_cell_formula_units_Z 24
_cell_length_a 13.969675
_cell_length_b 16.462110
_cell_length_c 9.738111
_cell_angle_alpha 90.000000
_cell_angle_beta 32.117839
_cell_angle_gamma 90.000000
_cell_volume 1190.645272
_symmetry_space_group_name_H-M "P 21/C"
_symmetry_group_IT_number 14
_symmetry_cell_setting 'monoclinic'
loop_
_space_group_symop_operation_xyz
x,y,z
-x,1/2+y,1/2-z
-x,-y,-z
x,1/2-y,1/2+z
loop_
_atom_site_type_symbol
_atom_site_label
_atom_site_fract_x
_atom_site_fract_y
_atom_site_fract_z
Si Si1 0.018959 0.904950 0.461589
Si Si2 0.753166 0.165181 0.575785
Si Si3 0.370827 0.402495 0.576263
Si Si4 0.533192 0.553727 0.246050
Si Si5 0.823000 0.449030 0.748407
Si Si6 0.760707 0.145051 0.048304
O O1 0.174044 0.867955 0.368477
O O2 0.070605 0.888252 0.241780
O O3 0.822397 0.864887 0.733528
O O4 0.000000 0.000000 0.500000
O O5 0.855069 0.114897 0.333075
O O6 0.791609 0.259405 0.520389
O O7 0.537494 0.153556 0.829249
O O8 0.387726 0.489591 0.481059
O O9 0.357899 0.411798 0.756587
O O10 0.428501 0.625601 0.295932
O O11 0.668212 0.512738 0.974551
O O12 0.758295 0.396379 0.698893
O O13 0.000000 0.500000 0.500000
#
# Coordination Sequence:
#
# PCOD8125649 Si02
#       6
#     4   4   4   4   4   4
#     4  12  21  42  75  92 121 178 227 258 319 403
#     4  11  25  44  63  97 139 168 216 278 329 379
#     4  10  20  41  69  94 120 173 225 260 310 408
#     4  10  20  40  68  94 124 171 222 261 328 391
#     4  11  24  41  65  99 133 172 223 271 319 401
#     4  12  23  42  65  95 139 169 210 285 336 370
#
# _framework density 20.157138
#
# number of rings (size 3 to 8) (size 9 to 14) (size 15 to 20)
#    0.000    1.000    3.333    5.500    0.000    0.000 
#    9.000    0.000    0.000    0.000    0.000    0.000 
#    0.000    0.000    0.000    0.000    0.000    0.000 
#
# Total GULP energy -297632.087798 kJ/mol
# GULP energy per Si atom -12401.336992 kJ/mol
# Density = 2.011126 g / cm^3
# Si number density = 20.157138 Si / 1000 Ang^3
#
#
#
# Elastic Constant Matrix: (Units=GPa)
#
#
# Indices 1 2 3 4 5 6 
#
# 1 69.3415 24.5394 40.0842 0.0000 -1.2316 0.0000
# 2 24.5394 122.1289 45.8700 0.0000 3.6406 0.0000
# 3 40.0842 45.8700 121.3895 0.0000 2.2307 0.0000
# 4 0.0000 0.0000 0.0000 19.5633 0.0000 -1.2452
# 5 -1.2316 3.6406 2.2307 0.0000 39.0264 0.0000
# 6 0.0000 0.0000 0.0000 -1.2452 0.0000 24.3203
#
#
#
# Elastic Compliance Matrix: (Units=1/GPa)
#
#
# Indices 1 2 3 4 5 6 
#
# 1 0.018137 -0.001653 -0.005383 0.000000 0.001034 0.000000
# 2 -0.001653 0.009711 -0.003109 0.000000 -0.000780 0.000000
# 3 -0.005383 -0.003109 0.011200 0.000000 -0.000520 0.000000
# 4 0.000000 0.000000 0.000000 0.051283 0.000000 0.002626
# 5 0.001034 -0.000780 -0.000520 0.000000 0.025759 0.000000
# 6 0.000000 0.000000 0.000000 0.002626 0.000000 0.041252
#
#
# Mechanical properties :
#
#
# Convention : Reuss Voigt Hill
#
# Bulk Modulus (GPa) = 53.31509 59.31635 56.31572
# Shear Modulus (GPa) = 27.19066 30.07307 28.63186
#
# Velocity S-wave (km/s) = 3.67677 3.86674 3.77295
# Velocity P-wave (km/s) = 6.67323 7.03040 6.85414
#
# Compressibility (1/GPa) = 0.01875642
#
# Stress axis : x y z
#
# Youngs Moduli (GPa) = 55.13687 102.97214 89.28499
#
# Poissons Ratio (x) = 0.17023 0.48064
# Poissons Ratio (y) = 0.09115 0.27763
# Poissons Ratio (z) = 0.29682 0.32019
#
# Static dielectric constant tensor:
#      x y z
#    x 3.689050 0.000000 -0.002680 
#    y 0.000000 4.708290 0.000000 
#    z -0.002680 0.000000 3.904600 
# 
# 
# High freq. dielectric constant tensor:
#      x y z
#    x 1.790420 0.000000 0.002660 
#    y 0.000000 1.770640 0.000000 
#    z 0.002660 0.000000 1.802900 
# 
# From -- ./inp_files/16607.got.cif
#   From: 2010.03.12/outbox.cif.g09.slc.cpg/sg14_9_cif.got.tgz:16607.got - 2010.03.31 13:35:05.
