data_PCOD8125688
_publ_section_title
;
Structure prediction by ZEFSAII (Michael W. Deem and Ramdas Pophale) SiO2 
 PCOD8125688
Probable space group: P 21/C
;
_chemical_formula_sum "Si O2"
_cell_formula_units_Z 28
_cell_length_a 5.559059
_cell_length_b 18.849094
_cell_length_c 13.822135
_cell_angle_alpha 90.000000
_cell_angle_beta 112.320538
_cell_angle_gamma 90.000000
_cell_volume 1339.809955
_symmetry_space_group_name_H-M "P 21/C"
_symmetry_group_IT_number 14
_symmetry_cell_setting 'monoclinic'
loop_
_space_group_symop_operation_xyz
x,y,z
-x,1/2+y,1/2-z
-x,-y,-z
x,1/2-y,1/2+z
loop_
_atom_site_type_symbol
_atom_site_label
_atom_site_fract_x
_atom_site_fract_y
_atom_site_fract_z
Si Si1 0.905476 0.203575 0.070780
Si Si2 0.362266 0.331668 0.400040
Si Si3 0.929156 0.156261 0.473476
Si Si4 0.036987 0.077517 0.964723
Si Si5 0.479075 0.079939 0.530505
Si Si6 0.103074 0.734749 0.215416
Si Si7 0.605391 0.128477 0.754163
O O1 0.941844 0.194575 0.191054
O O2 0.615117 0.205012 0.982927
O O3 0.035213 0.276824 0.052925
O O4 0.041849 0.133275 0.052821
O O5 0.364056 0.355987 0.288104
O O6 0.306295 0.404783 0.450903
O O7 0.143733 0.271561 0.373969
O O8 0.697380 0.120168 0.499930
O O9 0.797077 0.180235 0.351471
O O10 0.181163 0.108919 0.481141
O O11 0.814691 0.089996 0.852667
O O12 0.000000 0.000000 0.000000
O O13 0.546161 0.079285 0.654493
O O14 0.500000 0.000000 0.500000
O O15 0.311367 0.794786 0.272608
#
# Coordination Sequence:
#
# PCOD8125688 Si02
#       7
#     4   4   4   4   4   4   4
#     4  11  22  39  67 100 130 181 226 290 349 408
#     4  10  20  41  64  96 137 173 231 282 357 412
#     4  12  24  46  71 102 137 181 239 290 336 428
#     4  10  23  42  62  97 137 176 231 286 350 421
#     4  12  28  48  70 101 145 187 231 291 354 426
#     4  11  22  38  65 103 129 175 232 290 343 405
#     4  10  22  39  69  92 133 185 223 278 369 401
#
# _framework density 20.898486999999999
#
# number of rings (size 3 to 8) (size 9 to 14) (size 15 to 20)
#    0.000    1.143    5.714    2.143    2.000    4.571 
#    5.143    0.000    0.000    0.000    0.000    0.000 
#    0.000    0.000    0.000    0.000    0.000    0.000 
#
# Total GULP energy -346894.240791 kJ/mol
# GULP energy per Si atom -12389.080028 kJ/mol
# Density = 2.085092 g / cm^3
# Si number density = 20.898487 Si / 1000 Ang^3
#
#
#
# Elastic Constant Matrix: (Units=GPa)
#
#
# Indices 1 2 3 4 5 6 
#
# 1 103.5555 34.9326 14.4361 0.0000 -16.9210 0.0000
# 2 34.9326 123.8794 33.8856 0.0000 -13.0832 0.0000
# 3 14.4361 33.8856 116.6986 0.0000 -29.3510 0.0000
# 4 0.0000 0.0000 0.0000 35.1209 0.0000 -11.1083
# 5 -16.9210 -13.0832 -29.3510 0.0000 27.4957 0.0000
# 6 0.0000 0.0000 0.0000 -11.1083 0.0000 27.8471
#
#
#
# Elastic Compliance Matrix: (Units=1/GPa)
#
#
# Indices 1 2 3 4 5 6 
#
# 1 0.011603 -0.002847 0.001157 0.000000 0.007021 0.000000
# 2 -0.002847 0.009548 -0.002349 0.000000 0.000284 0.000000
# 3 0.001157 -0.002349 0.012311 0.000000 0.012737 0.000000
# 4 0.000000 0.000000 0.000000 0.032584 0.000000 0.012998
# 5 0.007021 0.000284 0.012737 0.000000 0.054421 0.000000
# 6 0.000000 0.000000 0.000000 0.012998 0.000000 0.041095
#
#
# Mechanical properties :
#
#
# Convention : Reuss Voigt Hill
#
# Bulk Modulus (GPa) = 39.39340 56.73804 48.06572
# Shear Modulus (GPa) = 28.07392 35.48468 31.77930
#
# Velocity S-wave (km/s) = 3.66915 4.12509 3.90378
# Velocity P-wave (km/s) = 6.06968 7.06377 6.58551
#
# Compressibility (1/GPa) = 0.02538496
#
# Stress axis : x y z
#
# Youngs Moduli (GPa) = 86.18492 104.73820 81.22586
#
# Poissons Ratio (x) = 0.29818 -0.09400
# Poissons Ratio (y) = 0.24536 0.19078
# Poissons Ratio (z) = -0.09974 0.24601
#
# Static dielectric constant tensor:
#      x y z
#    x 4.334460 0.000000 -0.414720 
#    y 0.000000 3.646040 0.000000 
#    z -0.414720 0.000000 3.768640 
# 
# 
# High freq. dielectric constant tensor:
#      x y z
#    x 1.827580 0.000000 -0.023760 
#    y 0.000000 1.801370 0.000000 
#    z -0.023760 0.000000 1.825050 
# 
# From -- ./inp_files/37730.got.cif
#   From: 2010.03.12/outbox.cif.g09.slc.cpg/sg14_19_cif.got.tgz:37730.got - 2010.03.31 13:35:05.
