data_PCOD8125695
_publ_section_title
;
Structure prediction by ZEFSAII (Michael W. Deem and Ramdas Pophale) SiO2 
 PCOD8125695
Probable space group: P 21/C
;
_chemical_formula_sum "Si O2"
_cell_formula_units_Z 28
_cell_length_a 14.576696
_cell_length_b 8.292860
_cell_length_c 13.895106
_cell_angle_alpha 90.000000
_cell_angle_beta 130.098419
_cell_angle_gamma 90.000000
_cell_volume 1284.849315
_symmetry_space_group_name_H-M "P 21/C"
_symmetry_group_IT_number 14
_symmetry_cell_setting 'monoclinic'
loop_
_space_group_symop_operation_xyz
x,y,z
-x,1/2+y,1/2-z
-x,-y,-z
x,1/2-y,1/2+z
loop_
_atom_site_type_symbol
_atom_site_label
_atom_site_fract_x
_atom_site_fract_y
_atom_site_fract_z
Si Si1 0.922661 0.261417 0.605364
Si Si2 0.124810 0.011575 0.767456
Si Si3 0.813417 0.257821 0.332468
Si Si4 0.252469 0.940416 0.391760
Si Si5 0.495064 0.153490 0.374653
Si Si6 0.658225 0.721978 0.562021
Si Si7 0.448627 0.708439 0.787002
O O1 0.929954 0.419414 0.677236
O O2 0.893780 0.314800 0.476783
O O3 0.817976 0.140723 0.568226
O O4 0.049131 0.170471 0.693577
O O5 0.261847 0.061195 0.883602
O O6 0.125567 0.898503 0.674325
O O7 0.811915 0.401514 0.252953
O O8 0.679405 0.213724 0.275383
O O9 0.388389 0.871315 0.478921
O O10 0.256706 0.130519 0.414635
O O11 0.391558 0.239463 0.365608
O O12 0.525227 0.270270 0.307555
O O13 0.447366 0.981432 0.306869
O O14 0.549748 0.695601 0.414823
#
# Coordination Sequence:
#
# PCOD8125695 Si02
#       7
#     4   4   4   4   4   4   4
#     4  11  24  47  66  93 127 166 226 269 318 380
#     4  11  27  43  69  94 126 175 213 274 320 383
#     4  11  22  42  68  96 126 169 216 266 319 376
#     4  10  20  41  65  91 131 176 206 263 323 373
#     4  11  22  38  62  96 139 170 208 264 315 391
#     4  11  23  40  62  98 137 170 210 259 324 389
#     4  11  23  38  65  99 133 174 210 257 325 382
#
# _framework density 21.792438000000001
#
# number of rings (size 3 to 8) (size 9 to 14) (size 15 to 20)
#    0.000    1.143    4.286    2.143    4.000    0.571 
#    0.000   10.714    0.000    0.000    0.000    0.000 
#    0.000    0.000    0.000    0.000    0.000    0.000 
#
# Total GULP energy -347361.604645 kJ/mol
# GULP energy per Si atom -12405.771594 kJ/mol
# Density = 2.174284 g / cm^3
# Si number density = 21.792438 Si / 1000 Ang^3
#
#
#
# Elastic Constant Matrix: (Units=GPa)
#
#
# Indices 1 2 3 4 5 6 
#
# 1 63.0931 23.5613 28.0697 0.0000 -11.0161 0.0000
# 2 23.5613 46.0397 36.4630 0.0000 -5.1895 0.0000
# 3 28.0697 36.4630 123.3409 0.0000 -17.4668 0.0000
# 4 0.0000 0.0000 0.0000 32.3591 0.0000 8.1734
# 5 -11.0161 -5.1895 -17.4668 0.0000 40.2648 0.0000
# 6 0.0000 0.0000 0.0000 8.1734 0.0000 38.0474
#
#
#
# Elastic Compliance Matrix: (Units=1/GPa)
#
#
# Indices 1 2 3 4 5 6 
#
# 1 0.020496 -0.008869 -0.001502 0.000000 0.003813 0.000000
# 2 -0.008869 0.032199 -0.007731 0.000000 -0.001630 0.000000
# 3 -0.001502 -0.007731 0.011225 0.000000 0.003462 0.000000
# 4 0.000000 0.000000 0.000000 0.032676 0.000000 -0.007020
# 5 0.003813 -0.001630 0.003462 0.000000 0.027170 0.000000
# 6 0.000000 0.000000 0.000000 -0.007020 0.000000 0.027791
#
#
# Mechanical properties :
#
#
# Convention : Reuss Voigt Hill
#
# Bulk Modulus (GPa) = 36.08303 45.40684 40.74493
# Shear Modulus (GPa) = 25.38055 31.75958 28.57006
#
# Velocity S-wave (km/s) = 3.41640 3.82169 3.62471
# Velocity P-wave (km/s) = 5.67062 6.35256 6.02125
#
# Compressibility (1/GPa) = 0.02771386
#
# Stress axis : x y z
#
# Youngs Moduli (GPa) = 48.79041 31.05724 89.08377
#
# Poissons Ratio (x) = 0.27545 0.13385
# Poissons Ratio (y) = 0.43273 0.68873
# Poissons Ratio (z) = 0.07331 0.24011
#
# Static dielectric constant tensor:
#      x y z
#    x 3.966090 0.000000 -0.018690 
#    y 0.000000 3.700180 0.000000 
#    z -0.018690 0.000000 3.880480 
# 
# 
# High freq. dielectric constant tensor:
#      x y z
#    x 1.863950 0.000000 -0.001950 
#    y 0.000000 1.843560 0.000000 
#    z -0.001950 0.000000 1.856660 
# 
# From -- ./inp_files/43311.got.cif
#   From: 2010.03.12/outbox.cif.g09.slc.cpg/sg14_22_cif.got.tgz:43311.got - 2010.03.31 13:35:05.
