data_PCOD8125727
_publ_section_title
;
Structure prediction by ZEFSAII (Michael W. Deem and Ramdas Pophale) SiO2 
 PCOD8125727
Probable space group: P 21/C
;
_chemical_formula_sum "Si O2"
_cell_formula_units_Z 32
_cell_length_a 17.094599
_cell_length_b 12.600158
_cell_length_c 13.691229
_cell_angle_alpha 90.000000
_cell_angle_beta 149.411368
_cell_angle_gamma 90.000000
_cell_volume 1500.668361
_symmetry_space_group_name_H-M "P 21/C"
_symmetry_group_IT_number 14
_symmetry_cell_setting 'monoclinic'
loop_
_space_group_symop_operation_xyz
x,y,z
-x,1/2+y,1/2-z
-x,-y,-z
x,1/2-y,1/2+z
loop_
_atom_site_type_symbol
_atom_site_label
_atom_site_fract_x
_atom_site_fract_y
_atom_site_fract_z
Si Si1 0.232035 0.757668 0.993691
Si Si2 0.075545 0.923429 0.967751
Si Si3 0.752877 0.973624 0.678292
Si Si4 0.322435 0.275229 0.799903
Si Si5 0.068408 0.157968 0.885224
Si Si6 0.483493 0.338503 0.308243
Si Si7 0.422374 0.562190 0.194387
Si Si8 0.298712 0.196627 0.980707
O O1 0.101292 0.704657 0.786639
O O2 0.159490 0.830490 0.999328
O O3 0.341293 0.826539 0.040067
O O4 0.327930 0.658714 0.144167
O O5 0.167100 0.936651 0.168018
O O6 0.893904 0.897630 0.790417
O O7 0.074404 0.032766 0.907128
O O8 0.642383 0.894270 0.621829
O O9 0.654595 0.033045 0.491445
O O10 0.168699 0.276793 0.570471
O O11 0.461101 0.232879 0.881075
O O12 0.298594 0.193628 0.863522
O O13 0.128610 0.178476 0.839836
O O14 0.438595 0.460653 0.282803
O O15 0.369164 0.307465 0.096246
O O16 0.593861 0.604188 0.357656
#
# Coordination Sequence:
#
# PCOD8125727 Si02
#       8
#     4   4   4   4   4   4   4   4
#     4  11  23  41  66 100 134 180 222 276 347 399
#     4  10  21  39  67  99 134 165 224 290 329 400
#     4  10  20  41  70  99 128 173 232 285 336 395
#     4  10  21  40  67  93 128 177 222 281 336 403
#     4  10  21  39  65  95 130 172 222 279 339 401
#     4  10  23  42  62  95 135 180 221 278 337 405
#     4  11  22  42  65  97 139 174 224 281 340 409
#     4  10  21  40  63  94 131 175 221 272 346 397
#
# _framework density 21.323833
#
# number of rings (size 3 to 8) (size 9 to 14) (size 15 to 20)
#    0.000    1.750    2.500    1.500    1.750    1.500 
#   13.500    6.875    0.000    3.000    0.000    0.000 
#    0.000    0.000    0.000    0.000    0.000    0.000 
#
# Total GULP energy -396670.908465 kJ/mol
# GULP energy per Si atom -12395.965890 kJ/mol
# Density = 2.127530 g / cm^3
# Si number density = 21.323833 Si / 1000 Ang^3
#
#
#
# Elastic Constant Matrix: (Units=GPa)
#
#
# Indices 1 2 3 4 5 6 
#
# 1 118.1348 47.0647 32.8722 0.0000 2.2046 0.0000
# 2 47.0647 126.7611 35.1815 0.0000 7.5957 0.0000
# 3 32.8722 35.1815 65.9219 0.0000 10.8142 0.0000
# 4 0.0000 0.0000 0.0000 24.3161 0.0000 4.4256
# 5 2.2046 7.5957 10.8142 0.0000 26.1013 0.0000
# 6 0.0000 0.0000 0.0000 4.4256 0.0000 35.4595
#
#
#
# Elastic Compliance Matrix: (Units=1/GPa)
#
#
# Indices 1 2 3 4 5 6 
#
# 1 0.010740 -0.002964 -0.004041 0.000000 0.001630 0.000000
# 2 -0.002964 0.010090 -0.003719 0.000000 -0.001145 0.000000
# 3 -0.004041 -0.003719 0.020317 0.000000 -0.006994 0.000000
# 4 0.000000 0.000000 0.000000 0.042081 0.000000 -0.005252
# 5 0.001630 -0.001145 -0.006994 0.000000 0.041406 0.000000
# 6 0.000000 0.000000 0.000000 -0.005252 0.000000 0.028857
#
#
# Mechanical properties :
#
#
# Convention : Reuss Voigt Hill
#
# Bulk Modulus (GPa) = 50.76487 60.11718 55.44103
# Shear Modulus (GPa) = 27.54765 30.22201 28.88483
#
# Velocity S-wave (km/s) = 3.59816 3.76877 3.68445
# Velocity P-wave (km/s) = 6.41254 6.86963 6.64502
#
# Compressibility (1/GPa) = 0.01969866
#
# Stress axis : x y z
#
# Youngs Moduli (GPa) = 93.11295 99.10752 49.22033
#
# Poissons Ratio (x) = 0.29371 0.19890
# Poissons Ratio (y) = 0.27595 0.18306
# Poissons Ratio (z) = 0.37628 0.36861
#
# Static dielectric constant tensor:
#      x y z
#    x 3.814520 0.000000 0.192330 
#    y 0.000000 3.928110 0.000000 
#    z 0.192330 0.000000 3.859970 
# 
# 
# High freq. dielectric constant tensor:
#      x y z
#    x 1.826470 0.000000 0.010450 
#    y 0.000000 1.836810 0.000000 
#    z 0.010450 0.000000 1.831570 
# 
# From -- ./inp_files/49034.got.cif
#   From: 2010.03.12/outbox.cif.g09.slc.cpg/sg14_25_cif.got.tgz:49034.got - 2010.03.31 13:35:05.
