data_PCOD8125057
_publ_section_title
;
Structure prediction by ZEFSAII (Michael W. Deem and Ramdas Pophale) SiO2 
 PCOD8125057
Probable space group: P 21/C
;
_chemical_formula_sum "Si O2"
_cell_formula_units_Z 20
_cell_length_a 9.972692
_cell_length_b 7.690767
_cell_length_c 17.064426
_cell_angle_alpha 90.000000
_cell_angle_beta 137.670861
_cell_angle_gamma 90.000000
_cell_volume 881.331906
_symmetry_space_group_name_H-M "P 21/C"
_symmetry_group_IT_number 14
_symmetry_cell_setting 'monoclinic'
loop_
_space_group_symop_operation_xyz
x,y,z
-x,1/2+y,1/2-z
-x,-y,-z
x,1/2-y,1/2+z
loop_
_atom_site_type_symbol
_atom_site_label
_atom_site_fract_x
_atom_site_fract_y
_atom_site_fract_z
Si Si1 0.237526 0.728227 0.340836
Si Si2 0.118512 0.077222 0.246490
Si Si3 0.351305 0.358311 0.998636
Si Si4 0.490451 0.838324 0.665019
Si Si5 0.486931 0.053733 0.148887
O O1 0.435642 0.834620 0.457268
O O2 0.310202 0.570957 0.315967
O O3 0.105722 0.655259 0.356533
O O4 0.113831 0.868631 0.235640
O O5 0.174407 0.122514 0.361211
O O6 0.271944 0.158373 0.250920
O O7 0.363324 0.523826 0.061099
O O8 0.322398 0.183786 0.039489
O O9 0.459528 0.882812 0.741799
O O10 0.409920 0.643846 0.613546
#
# Coordination Sequence:
#
# PCOD8125057 Si02
#       5
#     4   4   4   4   4
#     4   9  20  36  57  85 117 148 187 236 289 325
#     4  11  20  39  60  86 119 149 194 241 277 346
#     4   9  22  38  60  85 118 148 198 230 288 340
#     4  11  18  36  62  83 114 157 188 235 291 335
#     4  10  20  36  61  83 116 156 188 233 293 338
#
# _framework density 22.692927999999998
#
# number of rings (size 3 to 8) (size 9 to 14) (size 15 to 20)
#    1.200    0.800    2.000    3.600    0.000    0.800 
#    3.600    1.000    4.400    6.000    0.000    0.000 
#    0.000    0.000    0.000    0.000    0.000    0.000 
#
# Total GULP energy -247786.858579 kJ/mol
# GULP energy per Si atom -12389.342929 kJ/mol
# Density = 2.264128 g / cm^3
# Si number density = 22.692928 Si / 1000 Ang^3
#
#
#
# Elastic Constant Matrix: (Units=GPa)
#
#
# Indices 1 2 3 4 5 6 
#
# 1 71.2397 -2.4049 7.7925 0.0000 4.5553 0.0000
# 2 -2.4049 139.4244 0.3120 0.0000 6.9680 0.0000
# 3 7.7925 0.3120 28.7754 0.0000 1.6221 0.0000
# 4 0.0000 0.0000 0.0000 13.9789 0.0000 1.4932
# 5 4.5553 6.9680 1.6221 0.0000 20.0346 0.0000
# 6 0.0000 0.0000 0.0000 1.4932 0.0000 37.5381
#
#
#
# Elastic Compliance Matrix: (Units=1/GPa)
#
#
# Indices 1 2 3 4 5 6 
#
# 1 0.014670 0.000420 -0.003798 0.000000 -0.003174 0.000000
# 2 0.000420 0.007311 -0.000045 0.000000 -0.002635 0.000000
# 3 -0.003798 -0.000045 0.035895 0.000000 -0.002027 0.000000
# 4 0.000000 0.000000 0.000000 0.071842 0.000000 -0.002858
# 5 -0.003174 -0.002635 -0.002027 0.000000 0.051716 0.000000
# 6 0.000000 0.000000 0.000000 -0.002858 0.000000 0.026753
#
#
# Mechanical properties :
#
#
# Convention : Reuss Voigt Hill
#
# Bulk Modulus (GPa) = 19.59587 27.87096 23.73342
# Shear Modulus (GPa) = 21.54776 29.89298 25.72037
#
# Velocity S-wave (km/s) = 3.08480 3.63338 3.37027
# Velocity P-wave (km/s) = 4.61973 5.46903 5.06223
#
# Compressibility (1/GPa) = 0.05103116
#
# Stress axis : x y z
#
# Youngs Moduli (GPa) = 68.16763 136.77324 27.85885
#
# Poissons Ratio (x) = -0.05747 0.10581
# Poissons Ratio (y) = -0.02864 0.00124
# Poissons Ratio (z) = 0.25892 0.00609
#
# Static dielectric constant tensor:
#      x y z
#    x 3.927060 0.000000 0.003390 
#    y 0.000000 4.369300 0.000000 
#    z 0.003390 0.000000 3.511970 
# 
# 
# High freq. dielectric constant tensor:
#      x y z
#    x 1.876030 0.000000 -0.002730 
#    y 0.000000 1.923560 0.000000 
#    z -0.002730 0.000000 1.850770 
# 
# From -- ./inp_files/56898.got.cif
#   From: 2010.03.12/outbox.cif.g09.slc.cpg/sg14_29_cif.got.tgz:56898.got - 2010.03.31 13:35:05.
