data_PCOD8125116
_publ_section_title
;
Structure prediction by ZEFSAII (Michael W. Deem and Ramdas Pophale) SiO2 
 PCOD8125116
Probable space group: P 21/C
;
_chemical_formula_sum "Si O2"
_cell_formula_units_Z 28
_cell_length_a 15.980027
_cell_length_b 11.516502
_cell_length_c 10.705705
_cell_angle_alpha 90.000000
_cell_angle_beta 42.957834
_cell_angle_gamma 90.000000
_cell_volume 1342.621826
_symmetry_space_group_name_H-M "P 21/C"
_symmetry_group_IT_number 14
_symmetry_cell_setting 'monoclinic'
loop_
_space_group_symop_operation_xyz
x,y,z
-x,1/2+y,1/2-z
-x,-y,-z
x,1/2-y,1/2+z
loop_
_atom_site_type_symbol
_atom_site_label
_atom_site_fract_x
_atom_site_fract_y
_atom_site_fract_z
Si Si1 0.323566 0.720301 0.512523
Si Si2 0.987516 0.911947 0.195389
Si Si3 0.425121 0.646862 0.665327
Si Si4 0.160780 0.229408 0.010192
Si Si5 0.081750 0.644032 0.341504
Si Si6 0.682889 0.912718 0.791727
Si Si7 0.195581 0.004289 0.114945
O O1 0.388716 0.716976 0.577731
O O2 0.400154 0.785696 0.321817
O O3 0.189472 0.775500 0.674890
O O4 0.304772 0.589902 0.481539
O O5 0.898410 0.803588 0.313034
O O6 0.905667 0.021068 0.242338
O O7 0.061793 0.947330 0.239156
O O8 0.090873 0.877787 0.979930
O O9 0.354988 0.523133 0.751596
O O10 0.570398 0.625293 0.502824
O O11 0.218823 0.109487 0.994112
O O12 0.052111 0.201408 0.031927
O O13 0.274492 0.302591 0.833841
O O14 0.799458 0.948839 0.748998
#
# Coordination Sequence:
#
# PCOD8125116 Si02
#       7
#     4   4   4   4   4   4   4
#     4  11  21  42  65  94 126 172 205 265 315 372
#     4  10  20  37  56  92 126 165 202 257 317 375
#     4  10  24  42  69  89 126 168 220 263 310 376
#     4  11  21  37  62  90 125 167 198 266 313 377
#     4  10  21  35  60  91 129 160 209 253 317 379
#     4  10  23  43  61  93 121 167 218 261 310 377
#     4  10  22  38  61  89 130 154 215 257 310 383
#
# _framework density 20.854717999999998
#
# number of rings (size 3 to 8) (size 9 to 14) (size 15 to 20)
#    0.000    1.714    1.429    2.571    2.000    0.571 
#    2.571    2.143    0.000    0.000    0.000    0.000 
#    0.000    0.000    0.000    0.000    0.000    0.000 
#
# Total GULP energy -347094.390892 kJ/mol
# GULP energy per Si atom -12396.228246 kJ/mol
# Density = 2.080725 g / cm^3
# Si number density = 20.854718 Si / 1000 Ang^3
#
#
#
# Elastic Constant Matrix: (Units=GPa)
#
#
# Indices 1 2 3 4 5 6 
#
# 1 68.5309 21.4886 25.7125 0.0000 4.7295 0.0000
# 2 21.4886 116.2717 45.2359 0.0000 6.5989 0.0000
# 3 25.7125 45.2359 77.4941 0.0000 3.6109 0.0000
# 4 0.0000 0.0000 0.0000 37.6836 0.0000 5.3746
# 5 4.7295 6.5989 3.6109 0.0000 13.7381 0.0000
# 6 0.0000 0.0000 0.0000 5.3746 0.0000 25.6522
#
#
#
# Elastic Compliance Matrix: (Units=1/GPa)
#
#
# Indices 1 2 3 4 5 6 
#
# 1 0.017018 -0.001023 -0.004859 0.000000 -0.004090 0.000000
# 2 -0.001023 0.011376 -0.006138 0.000000 -0.003499 0.000000
# 3 -0.004859 -0.006138 0.018106 0.000000 -0.000138 0.000000
# 4 0.000000 0.000000 0.000000 0.027354 0.000000 -0.005731
# 5 -0.004090 -0.003499 -0.000138 0.000000 0.075915 0.000000
# 6 0.000000 0.000000 0.000000 -0.005731 0.000000 0.040184
#
#
# Mechanical properties :
#
#
# Convention : Reuss Voigt Hill
#
# Bulk Modulus (GPa) = 44.52310 49.68565 47.10437
# Shear Modulus (GPa) = 22.57538 26.73876 24.65707
#
# Velocity S-wave (km/s) = 3.29372 3.58459 3.44223
# Velocity P-wave (km/s) = 5.98835 6.40381 6.19956
#
# Compressibility (1/GPa) = 0.02246025
#
# Stress axis : x y z
#
# Youngs Moduli (GPa) = 58.76143 87.90224 55.23014
#
# Poissons Ratio (x) = 0.08989 0.26837
# Poissons Ratio (y) = 0.06009 0.33902
# Poissons Ratio (z) = 0.28552 0.53958
#
# Static dielectric constant tensor:
#      x y z
#    x 3.820740 0.000000 0.033260 
#    y 0.000000 4.083100 0.000000 
#    z 0.033260 0.000000 3.394540 
# 
# 
# High freq. dielectric constant tensor:
#      x y z
#    x 1.817890 0.000000 0.004190 
#    y 0.000000 1.836260 0.000000 
#    z 0.004190 0.000000 1.787470 
# 
# From -- ./inp_files/33794.got.cif
#   From: 2010.03.12/outbox.cif.g09.slc.cpg/sg14_17_cif.got.tgz:33794.got - 2010.03.31 13:35:05.
