data_PCOD8125185
_publ_section_title
;
Structure prediction by ZEFSAII (Michael W. Deem and Ramdas Pophale) SiO2 
 PCOD8125185
Probable space group: P 21/C
;
_chemical_formula_sum "Si O2"
_cell_formula_units_Z 24
_cell_length_a 12.119786
_cell_length_b 8.509468
_cell_length_c 24.483357
_cell_angle_alpha 90.000000
_cell_angle_beta 152.429030
_cell_angle_gamma 90.000000
_cell_volume 1168.707269
_symmetry_space_group_name_H-M "P 21/C"
_symmetry_group_IT_number 14
_symmetry_cell_setting 'monoclinic'
loop_
_space_group_symop_operation_xyz
x,y,z
-x,1/2+y,1/2-z
-x,-y,-z
x,1/2-y,1/2+z
loop_
_atom_site_type_symbol
_atom_site_label
_atom_site_fract_x
_atom_site_fract_y
_atom_site_fract_z
Si Si1 0.392452 0.909133 0.557409
Si Si2 0.892610 0.409257 0.557490
Si Si3 0.399248 0.344181 0.743128
Si Si4 0.899084 0.655568 0.243055
Si Si5 0.530699 0.014290 0.190466
Si Si6 0.031014 0.514100 0.190612
O O1 0.250300 0.749778 0.500070
O O2 0.477292 0.954091 0.656061
O O3 0.619827 0.887173 0.617585
O O4 0.212791 0.035133 0.451497
O O5 0.713305 0.535357 0.451660
O O6 0.119938 0.386808 0.617666
O O7 0.977545 0.454344 0.656162
O O8 0.521287 0.373168 0.738704
O O9 0.429647 0.163386 0.772720
O O10 0.929299 0.836373 0.272604
O O11 0.021286 0.626589 0.238722
O O12 0.749790 0.072729 0.249868
#
# Coordination Sequence:
#
# PCOD8125185 Si02
#       6
#     4   4   4   4   4   4
#     4   9  17  38  60  77 111 153 179 222 282 325
#     4   9  17  38  60  77 111 153 179 222 282 325
#     4  10  20  37  61  80 112 149 183 227 277 326
#     4  10  20  37  61  80 112 149 183 227 277 326
#     4  11  21  38  57  83 113 147 184 229 275 326
#     4  11  21  38  57  83 113 147 184 229 275 326
#
# _framework density 20.535509999999999
#
# number of rings (size 3 to 8) (size 9 to 14) (size 15 to 20)
#    0.000    2.000    6.667    1.000    0.000    1.333 
#    6.000    1.667    0.000    0.000    0.000    0.000 
#    0.000    0.000    0.000    0.000    0.000    0.000 
#
# Total GULP energy -297485.687134 kJ/mol
# GULP energy per Si atom -12395.236964 kJ/mol
# Density = 2.048877 g / cm^3
# Si number density = 20.535510 Si / 1000 Ang^3
#
#
#
# Elastic Constant Matrix: (Units=GPa)
#
#
# Indices 1 2 3 4 5 6 
#
# 1 197.8504 23.5665 64.0577 0.0000 7.7827 0.0000
# 2 23.5665 7.1379 10.9931 0.0000 1.2787 0.0000
# 3 64.0577 10.9931 132.3002 0.0000 17.9077 0.0000
# 4 0.0000 0.0000 0.0000 10.1243 0.0000 -9.6647
# 5 7.7827 1.2787 17.9077 0.0000 30.2559 0.0000
# 6 0.0000 0.0000 0.0000 -9.6647 0.0000 34.8701
#
#
#
# Elastic Compliance Matrix: (Units=1/GPa)
#
#
# Indices 1 2 3 4 5 6 
#
# 1 0.008821 -0.025853 -0.002135 0.000000 0.000087 0.000000
# 2 -0.025853 0.236461 -0.007260 0.000000 0.000953 0.000000
# 3 -0.002135 -0.007260 0.009870 0.000000 -0.004986 0.000000
# 4 0.000000 0.000000 0.000000 0.134308 0.000000 0.037225
# 5 0.000087 0.000953 -0.004986 0.000000 0.035940 0.000000
# 6 0.000000 0.000000 0.000000 0.037225 0.000000 0.038995
#
#
# Mechanical properties :
#
#
# Convention : Reuss Voigt Hill
#
# Bulk Modulus (GPa) = 5.41540 59.39144 32.40342
# Shear Modulus (GPa) = 8.38304 30.96147 19.67225
#
# Velocity S-wave (km/s) = 2.02264 3.88713 3.09846
# Velocity P-wave (km/s) = 2.84563 7.00931 5.34921
#
# Compressibility (1/GPa) = 0.18465871
#
# Stress axis : x y z
#
# Youngs Moduli (GPa) = 113.35994 4.22903 101.31367
#
# Poissons Ratio (x) = 0.10933 0.21629
# Poissons Ratio (y) = 2.93064 0.73550
# Poissons Ratio (z) = 0.24201 0.03070
#
# Static dielectric constant tensor:
#      x y z
#    x 5.382740 0.000000 -2.645140 
#    y 0.000000 3.146130 0.000000 
#    z -2.645140 0.000000 8.643420 
# 
# 
# High freq. dielectric constant tensor:
#      x y z
#    x 1.809830 0.000000 0.001320 
#    y 0.000000 1.748480 0.000000 
#    z 0.001320 0.000000 1.825990 
# 
# From -- ./inp_files/28037.got.cif
#   From: 2010.03.12/outbox.cif.g09.slc.cpg/sg14_15_cif.got.tgz:28037.got - 2010.03.31 13:35:05.
