data_PCOD8125540
_publ_section_title
;
Structure prediction by ZEFSAII (Michael W. Deem and Ramdas Pophale) SiO2 
 PCOD8125540
Probable space group: P 21/C
;
_chemical_formula_sum "Si O2"
_cell_formula_units_Z 28
_cell_length_a 9.591656
_cell_length_b 9.626905
_cell_length_c 20.182684
_cell_angle_alpha 90.000000
_cell_angle_beta 45.767360
_cell_angle_gamma 90.000000
_cell_volume 1335.314232
_symmetry_space_group_name_H-M "P 21/C"
_symmetry_group_IT_number 14
_symmetry_cell_setting 'monoclinic'
loop_
_space_group_symop_operation_xyz
x,y,z
-x,1/2+y,1/2-z
-x,-y,-z
x,1/2-y,1/2+z
loop_
_atom_site_type_symbol
_atom_site_label
_atom_site_fract_x
_atom_site_fract_y
_atom_site_fract_z
Si Si1 0.193026 0.024460 0.517074
Si Si2 0.416851 0.631141 0.131239
Si Si3 0.843258 0.243652 0.392992
Si Si4 0.729551 0.854205 0.255392
Si Si5 0.389637 0.651430 0.407060
Si Si6 0.529783 0.629339 0.684930
Si Si7 0.185821 0.853155 0.388609
O O1 0.401584 0.078038 0.474169
O O2 0.036009 0.148603 0.563535
O O3 0.110450 0.908763 0.593861
O O4 0.225832 0.962603 0.433439
O O5 0.275102 0.728471 0.135877
O O6 0.299056 0.503864 0.201700
O O7 0.520165 0.721154 0.153932
O O8 0.712696 0.331391 0.487836
O O9 0.045436 0.317113 0.308911
O O10 0.588761 0.741287 0.337312
O O11 0.689620 0.861859 0.190069
O O12 0.423711 0.488883 0.384355
O O13 0.244693 0.701474 0.396095
O O14 0.318940 0.595100 0.784605
#
# Coordination Sequence:
#
# PCOD8125540 Si02
#       7
#     4   4   4   4   4   4   4
#     4  10  20  39  67  96 127 173 222 259 328 397
#     4  12  25  44  66  99 130 177 220 268 332 401
#     4  11  25  42  67  95 138 176 221 266 334 392
#     4  11  23  43  71  94 132 173 222 277 324 390
#     4  10  22  42  66  99 134 173 216 277 333 380
#     4  11  23  41  65  97 136 165 222 279 327 384
#     4   9  19  35  68  97 122 169 220 268 321 384
#
# _framework density 20.968848000000001
#
# number of rings (size 3 to 8) (size 9 to 14) (size 15 to 20)
#    0.000    1.429    4.286    3.000    6.000    3.429 
#    2.571    0.000    0.000    0.000    0.000    0.000 
#    0.000    0.000    0.000    0.000    0.000    0.000 
#
# Total GULP energy -347199.970861 kJ/mol
# GULP energy per Si atom -12399.998959 kJ/mol
# Density = 2.092112 g / cm^3
# Si number density = 20.968848 Si / 1000 Ang^3
#
#
#
# Elastic Constant Matrix: (Units=GPa)
#
#
# Indices 1 2 3 4 5 6 
#
# 1 114.4144 42.7823 52.1643 0.0000 -19.4673 0.0000
# 2 42.7823 92.2473 32.5180 0.0000 -16.8366 0.0000
# 3 52.1643 32.5180 83.3223 0.0000 -24.0831 0.0000
# 4 0.0000 0.0000 0.0000 22.5663 0.0000 -10.8341
# 5 -19.4673 -16.8366 -24.0831 0.0000 30.4253 0.0000
# 6 0.0000 0.0000 0.0000 -10.8341 0.0000 25.7349
#
#
#
# Elastic Compliance Matrix: (Units=1/GPa)
#
#
# Indices 1 2 3 4 5 6 
#
# 1 0.013297 -0.003623 -0.006524 0.000000 0.001339 0.000000
# 2 -0.003623 0.013941 -0.002091 0.000000 0.003741 0.000000
# 3 -0.006524 -0.002091 0.019918 0.000000 0.010435 0.000000
# 4 0.000000 0.000000 0.000000 0.055539 0.000000 0.023381
# 5 0.001339 0.003741 0.010435 0.000000 0.044054 0.000000
# 6 0.000000 0.000000 0.000000 0.023381 0.000000 0.048701
#
#
# Mechanical properties :
#
#
# Convention : Reuss Voigt Hill
#
# Bulk Modulus (GPa) = 44.09138 60.54591 52.31864
# Shear Modulus (GPa) = 21.97946 26.57993 24.27969
#
# Velocity S-wave (km/s) = 3.24110 3.56419 3.40648
# Velocity P-wave (km/s) = 5.92275 6.77309 6.36215
#
# Compressibility (1/GPa) = 0.02268017
#
# Stress axis : x y z
#
# Youngs Moduli (GPa) = 75.20502 71.73318 50.20621
#
# Poissons Ratio (x) = 0.25987 0.32753
# Poissons Ratio (y) = 0.27245 0.10499
# Poissons Ratio (z) = 0.49061 0.15001
#
# Static dielectric constant tensor:
#      x y z
#    x 3.775590 0.000000 -0.169030 
#    y 0.000000 3.651450 0.000000 
#    z -0.169030 0.000000 3.830250 
# 
# 
# High freq. dielectric constant tensor:
#      x y z
#    x 1.811840 0.000000 -0.009550 
#    y 0.000000 1.811420 0.000000 
#    z -0.009550 0.000000 1.824930 
# 
# From -- ./inp_files/64963.got.cif
#   From: 2010.03.12/outbox.cif.g09.slc.cpg/sg14_33_cif.got.tgz:64963.got - 2010.03.31 13:35:05.
