data_PCOD8125415
_publ_section_title
;
Structure prediction by ZEFSAII (Michael W. Deem and Ramdas Pophale) SiO2 
 PCOD8125415
Probable space group: P 21/C
;
_chemical_formula_sum "Si O2"
_cell_formula_units_Z 28
_cell_length_a 8.666925
_cell_length_b 9.550366
_cell_length_c 20.301817
_cell_angle_alpha 90.000000
_cell_angle_beta 52.537297
_cell_angle_gamma 90.000000
_cell_volume 1333.838962
_symmetry_space_group_name_H-M "P 21/C"
_symmetry_group_IT_number 14
_symmetry_cell_setting 'monoclinic'
loop_
_space_group_symop_operation_xyz
x,y,z
-x,1/2+y,1/2-z
-x,-y,-z
x,1/2-y,1/2+z
loop_
_atom_site_type_symbol
_atom_site_label
_atom_site_fract_x
_atom_site_fract_y
_atom_site_fract_z
Si Si1 0.321647 0.838071 0.021501
Si Si2 0.013688 0.336294 0.485942
Si Si3 0.949649 0.708965 0.891555
Si Si4 0.528482 0.623527 0.043709
Si Si5 0.299240 0.540517 0.760190
Si Si6 0.411550 0.200699 0.331999
Si Si7 0.277257 0.412044 0.625376
O O1 0.514523 0.834579 0.925767
O O2 0.143205 0.780482 0.025655
O O3 0.361840 0.737662 0.072856
O O4 0.274168 0.992057 0.060687
O O5 0.000000 0.500000 0.500000
O O6 0.944292 0.282319 0.574952
O O7 0.220784 0.284920 0.404556
O O8 0.905249 0.805990 0.838527
O O9 0.082012 0.576892 0.840136
O O10 0.743699 0.672802 0.975080
O O11 0.510989 0.602217 0.127463
O O12 0.500000 0.500000 0.000000
O O13 0.435409 0.678593 0.729369
O O14 0.379216 0.407443 0.780353
O O15 0.258804 0.498334 0.696100
#
# Coordination Sequence:
#
# PCOD8125415 Si02
#       7
#     4   4   4   4   4   4   4
#     4  10  20  38  72  92 123 171 230 277 322 412
#     4  11  22  41  73  99 128 177 233 278 343 405
#     4  10  25  41  65 100 131 171 227 285 330 414
#     4  10  23  43  68  97 129 176 229 282 342 398
#     4  12  27  44  66 101 149 177 232 283 359 413
#     4  11  28  44  67 102 140 185 228 286 347 419
#     4  10  21  43  64  94 128 180 223 270 341 409
#
# _framework density 20.992038000000001
#
# number of rings (size 3 to 8) (size 9 to 14) (size 15 to 20)
#    0.000    1.429    2.857    0.857    8.000    4.571 
#    0.000    0.000    0.000    0.000    0.000    0.000 
#    0.000    0.000    0.000    0.000    0.000    0.000 
#
# Total GULP energy -346907.346380 kJ/mol
# GULP energy per Si atom -12389.548085 kJ/mol
# Density = 2.094426 g / cm^3
# Si number density = 20.992038 Si / 1000 Ang^3
#
#
#
# Elastic Constant Matrix: (Units=GPa)
#
#
# Indices 1 2 3 4 5 6 
#
# 1 124.0887 32.7185 41.0910 0.0000 9.0499 0.0000
# 2 32.7185 88.6537 28.8466 0.0000 8.9195 0.0000
# 3 41.0910 28.8466 63.6467 0.0000 15.7018 0.0000
# 4 0.0000 0.0000 0.0000 39.5651 0.0000 4.4465
# 5 9.0499 8.9195 15.7018 0.0000 25.6918 0.0000
# 6 0.0000 0.0000 0.0000 4.4465 0.0000 42.5854
#
#
#
# Elastic Compliance Matrix: (Units=1/GPa)
#
#
# Indices 1 2 3 4 5 6 
#
# 1 0.010544 -0.001983 -0.006079 0.000000 0.000689 0.000000
# 2 -0.001983 0.013630 -0.004595 0.000000 -0.001225 0.000000
# 3 -0.006079 -0.004595 0.024490 0.000000 -0.011230 0.000000
# 4 0.000000 0.000000 0.000000 0.025575 0.000000 -0.002670
# 5 0.000689 -0.001225 -0.011230 0.000000 0.045969 0.000000
# 6 0.000000 0.000000 0.000000 -0.002670 0.000000 0.023761
#
#
# Mechanical properties :
#
#
# Convention : Reuss Voigt Hill
#
# Bulk Modulus (GPa) = 42.82625 53.52235 48.17430
# Shear Modulus (GPa) = 28.23804 33.15067 30.69435
#
# Velocity S-wave (km/s) = 3.67165 3.97823 3.82801
# Velocity P-wave (km/s) = 6.19840 6.83034 6.52203
#
# Compressibility (1/GPa) = 0.02335016
#
# Stress axis : x y z
#
# Youngs Moduli (GPa) = 94.83831 73.36701 40.83374
#
# Poissons Ratio (x) = 0.14548 0.24822
# Poissons Ratio (y) = 0.18805 0.18764
# Poissons Ratio (z) = 0.57651 0.33713
#
# Static dielectric constant tensor:
#      x y z
#    x 4.396710 0.000000 0.190650 
#    y 0.000000 3.924930 0.000000 
#    z 0.190650 0.000000 3.691280 
# 
# 
# High freq. dielectric constant tensor:
#      x y z
#    x 1.843960 0.000000 0.008030 
#    y 0.000000 1.817470 0.000000 
#    z 0.008030 0.000000 1.810350 
# 
# From -- ./inp_files/64954.got.cif
#   From: 2010.03.12/outbox.cif.g09.slc.cpg/sg14_33_cif.got.tgz:64954.got - 2010.03.31 13:35:05.
