data_PCOD8125230
_publ_section_title
;
Structure prediction by ZEFSAII (Michael W. Deem and Ramdas Pophale) SiO2 
 PCOD8125230
Probable space group: P 21/C
;
_chemical_formula_sum "Si O2"
_cell_formula_units_Z 32
_cell_length_a 9.341649
_cell_length_b 8.564769
_cell_length_c 22.784961
_cell_angle_alpha 90.000000
_cell_angle_beta 123.914869
_cell_angle_gamma 90.000000
_cell_volume 1512.851337
_symmetry_space_group_name_H-M "P 21/C"
_symmetry_group_IT_number 14
_symmetry_cell_setting 'monoclinic'
loop_
_space_group_symop_operation_xyz
x,y,z
-x,1/2+y,1/2-z
-x,-y,-z
x,1/2-y,1/2+z
loop_
_atom_site_type_symbol
_atom_site_label
_atom_site_fract_x
_atom_site_fract_y
_atom_site_fract_z
Si Si1 0.878130 0.402235 0.513247
Si Si2 0.633822 0.519541 0.979785
Si Si3 0.060011 0.650363 0.888009
Si Si4 0.201188 0.300914 0.444713
Si Si5 0.097806 0.664938 0.284291
Si Si6 0.600974 0.285423 0.875742
Si Si7 0.759539 0.816098 0.176759
Si Si8 0.851248 0.151822 0.332600
O O1 0.997106 0.290990 0.581592
O O2 0.777814 0.519293 0.533655
O O3 0.735395 0.315808 0.442851
O O4 0.000000 0.500000 0.500000
O O5 0.806649 0.442243 0.042701
O O6 0.684925 0.701396 0.982654
O O7 0.500000 0.500000 0.000000
O O8 0.570230 0.447500 0.903816
O O9 0.152370 0.721522 0.850535
O O10 0.901685 0.533228 0.836937
O O11 0.282935 0.268025 0.399629
O O12 0.000147 0.248798 0.399774
O O13 0.151063 0.486010 0.306209
O O14 0.177602 0.719855 0.239836
O O15 0.889410 0.686337 0.233190
O O16 0.419733 0.192158 0.827859
O O17 0.674628 0.327217 0.828331
#
# Coordination Sequence:
#
# PCOD8125230 Si02
#       8
#     4   4   4   4   4   4   4   4
#     4  11  22  37  62 100 133 165 204 268 334 383
#     4  10  21  37  61  95 128 162 204 260 326 394
#     4  10  22  38  67  89 119 175 215 253 321 389
#     4  10  20  37  63  91 126 172 208 252 328 386
#     4  11  22  43  67  88 120 172 232 260 322 381
#     4  11  24  40  63  98 139 160 213 270 331 387
#     4  11  23  41  67  93 123 171 218 278 312 388
#     4  10  22  41  62  91 128 172 210 263 321 389
#
# _framework density 21.152113
#
# number of rings (size 3 to 8) (size 9 to 14) (size 15 to 20)
#    0.000    1.500    5.000    0.000    1.750    3.000 
#    0.000    5.000    0.000    0.000    0.000    0.000 
#    0.000    0.000    0.000    0.000    0.000    0.000 
#
# Total GULP energy -396569.687834 kJ/mol
# GULP energy per Si atom -12392.802745 kJ/mol
# Density = 2.110397 g / cm^3
# Si number density = 21.152113 Si / 1000 Ang^3
#
#
#
# Elastic Constant Matrix: (Units=GPa)
#
#
# Indices 1 2 3 4 5 6 
#
# 1 127.2432 29.2797 16.0017 0.0000 -12.6667 0.0000
# 2 29.2797 104.8464 20.3411 0.0000 -1.9509 0.0000
# 3 16.0017 20.3411 47.9014 0.0000 -10.0736 0.0000
# 4 0.0000 0.0000 0.0000 27.3916 0.0000 -7.9634
# 5 -12.6667 -1.9509 -10.0736 0.0000 24.1015 0.0000
# 6 0.0000 0.0000 0.0000 -7.9634 0.0000 27.8946
#
#
#
# Elastic Compliance Matrix: (Units=1/GPa)
#
#
# Indices 1 2 3 4 5 6 
#
# 1 0.008911 -0.002179 -0.001210 0.000000 0.004001 0.000000
# 2 -0.002179 0.010954 -0.004361 0.000000 -0.002082 0.000000
# 3 -0.001210 -0.004361 0.025134 0.000000 0.009516 0.000000
# 4 0.000000 0.000000 0.000000 0.039812 0.000000 0.011365
# 5 0.004001 -0.002082 0.009516 0.000000 0.047403 0.000000
# 6 0.000000 0.000000 0.000000 0.011365 0.000000 0.039094
#
#
# Mechanical properties :
#
#
# Convention : Reuss Voigt Hill
#
# Bulk Modulus (GPa) = 33.90119 45.69287 39.79703
# Shear Modulus (GPa) = 25.42719 30.16878 27.79799
#
# Velocity S-wave (km/s) = 3.47091 3.78071 3.62911
# Velocity P-wave (km/s) = 5.66790 6.38022 6.03458
#
# Compressibility (1/GPa) = 0.02949749
#
# Stress axis : x y z
#
# Youngs Moduli (GPa) = 112.22224 91.29303 39.78743
#
# Poissons Ratio (x) = 0.19896 0.04814
# Poissons Ratio (y) = 0.24457 0.17352
# Poissons Ratio (z) = 0.13577 0.39815
#
# Static dielectric constant tensor:
#      x y z
#    x 3.709450 0.000000 -0.252780 
#    y 0.000000 4.499220 0.000000 
#    z -0.252780 0.000000 3.878250 
# 
# 
# High freq. dielectric constant tensor:
#      x y z
#    x 1.812310 0.000000 -0.018900 
#    y 0.000000 1.837380 0.000000 
#    z -0.018900 0.000000 1.815860 
# 
# From -- ./inp_files/70520.got.cif
#   From: 2010.03.12/outbox.cif.g09.slc.cpg/sg14_36_cif.got.tgz:70520.got - 2010.03.31 13:35:05.
