data_PCOD8125568
_publ_section_title
;
Structure prediction by ZEFSAII (Michael W. Deem and Ramdas Pophale) SiO2 
 PCOD8125568
Probable space group: P 21/C
;
_chemical_formula_sum "Si O2"
_cell_formula_units_Z 32
_cell_length_a 9.121720
_cell_length_b 10.854095
_cell_length_c 24.103775
_cell_angle_alpha 90.000000
_cell_angle_beta 42.053111
_cell_angle_gamma 90.000000
_cell_volume 1598.501334
_symmetry_space_group_name_H-M "P 21/C"
_symmetry_group_IT_number 14
_symmetry_cell_setting 'monoclinic'
loop_
_space_group_symop_operation_xyz
x,y,z
-x,1/2+y,1/2-z
-x,-y,-z
x,1/2-y,1/2+z
loop_
_atom_site_type_symbol
_atom_site_label
_atom_site_fract_x
_atom_site_fract_y
_atom_site_fract_z
Si Si1 0.422726 0.932843 0.467220
Si Si2 0.210797 0.698758 0.771501
Si Si3 0.572149 0.848603 0.614353
Si Si4 0.269392 0.372776 0.500524
Si Si5 0.259155 0.289456 0.623157
Si Si6 0.803654 0.306377 0.606606
Si Si7 0.437829 0.036434 0.158069
Si Si8 0.014969 0.877335 0.530428
O O1 0.545457 0.805875 0.424668
O O2 0.158745 0.904316 0.545465
O O3 0.500000 0.000000 0.500000
O O4 0.463817 0.016067 0.400989
O O5 0.346385 0.807270 0.704301
O O6 0.226550 0.713864 0.833069
O O7 0.304605 0.565504 0.729525
O O8 0.964925 0.712836 0.818332
O O9 0.651741 0.761634 0.541798
O O10 0.760660 0.838844 0.609928
O O11 0.299191 0.375865 0.558374
O O12 0.407698 0.479441 0.432899
O O13 0.013327 0.394163 0.558582
O O14 0.262340 0.375638 0.676837
O O15 0.588618 0.389860 0.659233
O O16 0.844763 0.225894 0.540732
O O17 0.000000 0.000000 0.500000
#
# Coordination Sequence:
#
# PCOD8125568 Si02
#       8
#     4   4   4   4   4   4   4   4
#     4  11  20  35  62  91 114 151 204 253 294 347
#     4  10  25  40  57  86 128 161 194 241 299 358
#     4   9  19  38  58  84 120 156 197 248 296 345
#     4   9  19  38  63  86 116 151 197 254 300 347
#     4  11  22  39  60  88 122 160 195 244 304 358
#     4  10  20  40  61  88 117 157 201 243 299 352
#     4  11  22  40  62  88 119 160 200 245 299 361
#     4   9  19  35  61  87 112 147 201 255 291 336
#
# _framework density 20.018751999999999
#
# number of rings (size 3 to 8) (size 9 to 14) (size 15 to 20)
#    0.000    2.000    2.500    0.750    3.500    2.000 
#    0.000    0.000    0.000    0.000    0.000    0.000 
#    0.000    0.000    0.000    0.000    0.000    0.000 
#
# Total GULP energy -396692.351432 kJ/mol
# GULP energy per Si atom -12396.635982 kJ/mol
# Density = 1.997319 g / cm^3
# Si number density = 20.018752 Si / 1000 Ang^3
#
#
#
# Elastic Constant Matrix: (Units=GPa)
#
#
# Indices 1 2 3 4 5 6 
#
# 1 142.4726 41.1606 32.6833 0.0000 -20.0969 0.0000
# 2 41.1606 78.8339 9.5783 0.0000 -7.5833 0.0000
# 3 32.6833 9.5783 52.5037 0.0000 -9.9372 0.0000
# 4 0.0000 0.0000 0.0000 28.0407 0.0000 -3.0148
# 5 -20.0969 -7.5833 -9.9372 0.0000 23.8186 0.0000
# 6 0.0000 0.0000 0.0000 -3.0148 0.0000 30.2152
#
#
#
# Elastic Compliance Matrix: (Units=1/GPa)
#
#
# Indices 1 2 3 4 5 6 
#
# 1 0.009986 -0.004168 -0.004465 0.000000 0.005236 0.000000
# 2 -0.004168 0.014972 0.000108 0.000000 0.001296 0.000000
# 3 -0.004465 0.000108 0.022908 0.000000 0.005825 0.000000
# 4 0.000000 0.000000 0.000000 0.036049 0.000000 0.003597
# 5 0.005236 0.001296 0.005825 0.000000 0.049244 0.000000
# 6 0.000000 0.000000 0.000000 0.003597 0.000000 0.033455
#
#
# Mechanical properties :
#
#
# Convention : Reuss Voigt Hill
#
# Bulk Modulus (GPa) = 32.44886 48.96164 40.70525
# Shear Modulus (GPa) = 25.78174 29.10743 27.44459
#
# Velocity S-wave (km/s) = 3.59260 3.81728 3.70664
# Velocity P-wave (km/s) = 5.78389 6.62871 6.22066
#
# Compressibility (1/GPa) = 0.03081772
#
# Stress axis : x y z
#
# Youngs Moduli (GPa) = 100.14317 66.78970 43.65240
#
# Poissons Ratio (x) = 0.27835 0.19490
# Poissons Ratio (y) = 0.41736 -0.00472
# Poissons Ratio (z) = 0.44712 -0.00722
#
# Static dielectric constant tensor:
#      x y z
#    x 4.380610 0.000000 -0.347580 
#    y 0.000000 3.523180 0.000000 
#    z -0.347580 0.000000 3.551560 
# 
# 
# High freq. dielectric constant tensor:
#      x y z
#    x 1.794480 0.000000 -0.020340 
#    y 0.000000 1.781510 0.000000 
#    z -0.020340 0.000000 1.758930 
# 
# From -- ./inp_files/76609.got.cif
#   From: 2010.03.12/outbox.cif.g09.slc.cpg/sg14_39_cif.got.tgz:76609.got - 2010.03.31 13:35:05.
