data_PCOD8125728
_publ_section_title
;
Structure prediction by ZEFSAII (Michael W. Deem and Ramdas Pophale) SiO2 
 PCOD8125728
Probable space group: P 21/C
;
_chemical_formula_sum "Si O2"
_cell_formula_units_Z 28
_cell_length_a 17.710027
_cell_length_b 6.091423
_cell_length_c 14.036187
_cell_angle_alpha 90.000000
_cell_angle_beta 123.743966
_cell_angle_gamma 90.000000
_cell_volume 1259.111140
_symmetry_space_group_name_H-M "P 21/C"
_symmetry_group_IT_number 14
_symmetry_cell_setting 'monoclinic'
loop_
_space_group_symop_operation_xyz
x,y,z
-x,1/2+y,1/2-z
-x,-y,-z
x,1/2-y,1/2+z
loop_
_atom_site_type_symbol
_atom_site_label
_atom_site_fract_x
_atom_site_fract_y
_atom_site_fract_z
Si Si1 0.111998 0.813143 0.262253
Si Si2 0.621532 0.628698 0.400067
Si Si3 0.805234 0.630876 0.034249
Si Si4 0.935356 0.472558 0.602156
Si Si5 0.099799 0.886325 0.565331
Si Si6 0.545333 0.434117 0.168618
Si Si7 0.562883 0.313499 0.502905
O O1 0.055024 0.694066 0.303872
O O2 0.146991 0.646085 0.203540
O O3 0.185335 0.968053 0.367199
O O4 0.036102 0.945694 0.150145
O O5 0.699905 0.808331 0.456346
O O6 0.619658 0.492893 0.300181
O O7 0.526006 0.752688 0.344962
O O8 0.638985 0.443219 0.494511
O O9 0.864698 0.846763 0.089309
O O10 0.832935 0.530040 0.952036
O O11 0.902714 0.353167 0.484213
O O12 0.000000 0.000000 0.500000
O O13 0.601109 0.334042 0.117135
O O14 0.494848 0.657815 0.106357
O O15 0.500000 0.500000 0.500000
#
# Coordination Sequence:
#
# PCOD8125728 Si02
#       7
#     4   4   4   4   4   4   4
#     4  11  21  40  65  91 133 179 217 283 344 399
#     4  11  22  43  69  97 139 175 227 284 340 410
#     4  11  26  40  64 104 132 174 234 281 337 416
#     4  11  21  40  66  91 126 175 227 268 340 408
#     4  11  23  40  68  96 130 181 231 274 343 416
#     4  10  20  41  73  95 129 183 221 281 353 406
#     4   9  20  39  68 100 124 174 230 266 341 416
#
# _framework density 22.237911
#
# number of rings (size 3 to 8) (size 9 to 14) (size 15 to 20)
#    0.000    1.429    4.286    1.286    0.000    2.286 
#    0.000   11.429    0.000    0.000    0.000    0.000 
#    0.000    0.000    0.000    0.000    0.000    0.000 
#
# Total GULP energy -346993.070258 kJ/mol
# GULP energy per Si atom -12392.609652 kJ/mol
# Density = 2.218730 g / cm^3
# Si number density = 22.237911 Si / 1000 Ang^3
#
#
#
# Elastic Constant Matrix: (Units=GPa)
#
#
# Indices 1 2 3 4 5 6 
#
# 1 75.8530 30.0834 56.3044 0.0000 -15.2346 0.0000
# 2 30.0834 94.7196 41.6003 0.0000 -11.9612 0.0000
# 3 56.3044 41.6003 120.3598 0.0000 -22.4920 0.0000
# 4 0.0000 0.0000 0.0000 38.5426 0.0000 -2.2162
# 5 -15.2346 -11.9612 -22.4920 0.0000 33.1959 0.0000
# 6 0.0000 0.0000 0.0000 -2.2162 0.0000 39.6360
#
#
#
# Elastic Compliance Matrix: (Units=1/GPa)
#
#
# Indices 1 2 3 4 5 6 
#
# 1 0.021049 -0.002625 -0.008371 0.000000 0.003043 0.000000
# 2 -0.002625 0.012869 -0.002952 0.000000 0.001432 0.000000
# 3 -0.008371 -0.002952 0.014115 0.000000 0.004658 0.000000
# 4 0.000000 0.000000 0.000000 0.026029 0.000000 0.001455
# 5 0.003043 0.001432 0.004658 0.000000 0.035193 0.000000
# 6 0.000000 0.000000 0.000000 0.001455 0.000000 0.025311
#
#
# Mechanical properties :
#
#
# Convention : Reuss Voigt Hill
#
# Bulk Modulus (GPa) = 49.66007 60.76762 55.21385
# Shear Modulus (GPa) = 29.55535 33.13786 31.34660
#
# Velocity S-wave (km/s) = 3.64957 3.86444 3.75854
# Velocity P-wave (km/s) = 6.33553 6.87730 6.61197
#
# Compressibility (1/GPa) = 0.02013690
#
# Stress axis : x y z
#
# Youngs Moduli (GPa) = 47.50805 77.70870 70.84461
#
# Poissons Ratio (x) = 0.20395 0.59305
# Poissons Ratio (y) = 0.12469 0.20917
# Poissons Ratio (z) = 0.39769 0.22943
#
# Static dielectric constant tensor:
#      x y z
#    x 3.805680 0.000000 -0.541520 
#    y 0.000000 4.477560 0.000000 
#    z -0.541520 0.000000 3.997630 
# 
# 
# High freq. dielectric constant tensor:
#      x y z
#    x 1.850280 0.000000 -0.038450 
#    y 0.000000 1.896730 0.000000 
#    z -0.038450 0.000000 1.869260 
# 
# From -- ./inp_files/48043.got.cif
#   From: 2010.03.12/outbox.cif.g09.slc.cpg/sg14_25_cif.got.tgz:48043.got - 2010.03.31 13:35:05.
