data_PCOD8125173
_publ_section_title
;
Structure prediction by ZEFSAII (Michael W. Deem and Ramdas Pophale) SiO2 
 PCOD8125173
Probable space group: P 21/C
;
_chemical_formula_sum "Si O2"
_cell_formula_units_Z 28
_cell_length_a 15.940818
_cell_length_b 12.936388
_cell_length_c 12.473867
_cell_angle_alpha 90.000000
_cell_angle_beta 148.156223
_cell_angle_gamma 90.000000
_cell_volume 1357.168127
_symmetry_space_group_name_H-M "P 21/C"
_symmetry_group_IT_number 14
_symmetry_cell_setting 'monoclinic'
loop_
_space_group_symop_operation_xyz
x,y,z
-x,1/2+y,1/2-z
-x,-y,-z
x,1/2-y,1/2+z
loop_
_atom_site_type_symbol
_atom_site_label
_atom_site_fract_x
_atom_site_fract_y
_atom_site_fract_z
Si Si1 0.833289 0.392195 0.762772
Si Si2 0.906307 0.185775 0.119311
Si Si3 0.247718 0.387056 0.020033
Si Si4 0.718606 0.125015 0.489962
Si Si5 0.807247 0.881784 0.299135
Si Si6 0.315753 0.693190 0.815476
Si Si7 0.560992 0.748094 0.919492
O O1 0.845645 0.390654 0.647432
O O2 0.763998 0.501569 0.721787
O O3 0.708912 0.310227 0.672273
O O4 0.003344 0.365992 0.001598
O O5 0.868545 0.303082 0.118473
O O6 0.091575 0.166252 0.300046
O O7 0.818000 0.156611 0.913731
O O8 0.241701 0.510570 0.005436
O O9 0.260832 0.356180 0.157934
O O10 0.400615 0.340323 0.125972
O O11 0.691358 0.119487 0.588678
O O12 0.562641 0.169835 0.263142
O O13 0.723860 0.805396 0.125585
O O14 0.486535 0.690447 0.942201
#
# Coordination Sequence:
#
# PCOD8125173 Si02
#       7
#     4   4   4   4   4   4   4
#     4   9  19  36  61  86 108 150 200 242 289 337
#     4   9  20  38  60  85 115 149 195 245 286 338
#     4  11  23  39  60  88 116 151 196 238 289 346
#     4  10  23  40  60  86 117 155 195 236 289 347
#     4  10  20  37  60  85 114 147 195 248 289 337
#     4  10  20  38  56  80 120 155 189 236 286 341
#     4  11  23  36  57  86 120 156 190 235 288 347
#
# _framework density 20.631195000000002
#
# number of rings (size 3 to 8) (size 9 to 14) (size 15 to 20)
#    0.000    2.000    0.000    3.429    0.000    9.143 
#    0.000    1.429    0.000    0.000    0.000    0.000 
#    0.000    0.000    0.000    0.000    0.000    0.000 
#
# Total GULP energy -347258.272415 kJ/mol
# GULP energy per Si atom -12402.081158 kJ/mol
# Density = 2.058424 g / cm^3
# Si number density = 20.631195 Si / 1000 Ang^3
#
#
#
# Elastic Constant Matrix: (Units=GPa)
#
#
# Indices 1 2 3 4 5 6 
#
# 1 84.5243 8.5563 20.9444 0.0000 6.0844 0.0000
# 2 8.5563 73.0847 28.1559 0.0000 12.7586 0.0000
# 3 20.9444 28.1559 60.8888 0.0000 -12.1448 0.0000
# 4 0.0000 0.0000 0.0000 24.9483 0.0000 0.4874
# 5 6.0844 12.7586 -12.1448 0.0000 35.2160 0.0000
# 6 0.0000 0.0000 0.0000 0.4874 0.0000 29.9853
#
#
#
# Elastic Compliance Matrix: (Units=1/GPa)
#
#
# Indices 1 2 3 4 5 6 
#
# 1 0.013669 0.001889 -0.006640 0.000000 -0.005336 0.000000
# 2 0.001889 0.020354 -0.012454 0.000000 -0.011996 0.000000
# 3 -0.006640 -0.012454 0.027486 0.000000 0.015138 0.000000
# 4 0.000000 0.000000 0.000000 0.040096 0.000000 -0.000652
# 5 -0.005336 -0.011996 0.015138 0.000000 0.038885 0.000000
# 6 0.000000 0.000000 0.000000 -0.000652 0.000000 0.033360
#
#
# Mechanical properties :
#
#
# Convention : Reuss Voigt Hill
#
# Bulk Modulus (GPa) = 36.90195 37.09012 36.99603
# Shear Modulus (GPa) = 23.01054 28.75268 25.88161
#
# Velocity S-wave (km/s) = 3.34328 3.73721 3.54572
# Velocity P-wave (km/s) = 5.72963 6.05302 5.89354
#
# Compressibility (1/GPa) = 0.02709884
#
# Stress axis : x y z
#
# Youngs Moduli (GPa) = 73.15806 49.13111 36.38239
#
# Poissons Ratio (x) = -0.09282 0.24157
# Poissons Ratio (y) = -0.13821 0.45312
# Poissons Ratio (z) = 0.48575 0.61189
#
# Static dielectric constant tensor:
#      x y z
#    x 3.955950 0.000000 -0.117720 
#    y 0.000000 3.479760 0.000000 
#    z -0.117720 0.000000 3.686240 
# 
# 
# High freq. dielectric constant tensor:
#      x y z
#    x 1.825490 0.000000 -0.005300 
#    y 0.000000 1.786910 0.000000 
#    z -0.005300 0.000000 1.802740 
# 
# From -- ./inp_files/48795.got.cif
#   From: 2010.03.12/outbox.cif.g09.slc.cpg/sg14_25_cif.got.tgz:48795.got - 2010.03.31 13:35:05.
