data_PCOD8125034
_publ_section_title
;
Structure prediction by ZEFSAII (Michael W. Deem and Ramdas Pophale) SiO2 
 PCOD8125034
Probable space group: P 21/C
;
_chemical_formula_sum "Si O2"
_cell_formula_units_Z 28
_cell_length_a 19.043410
_cell_length_b 8.997797
_cell_length_c 16.258474
_cell_angle_alpha 90.000000
_cell_angle_beta 148.623145
_cell_angle_gamma 90.000000
_cell_volume 1450.503899
_symmetry_space_group_name_H-M "P 21/C"
_symmetry_group_IT_number 14
_symmetry_cell_setting 'monoclinic'
loop_
_space_group_symop_operation_xyz
x,y,z
-x,1/2+y,1/2-z
-x,-y,-z
x,1/2-y,1/2+z
loop_
_atom_site_type_symbol
_atom_site_label
_atom_site_fract_x
_atom_site_fract_y
_atom_site_fract_z
Si Si1 0.399378 0.456013 0.826884
Si Si2 0.181158 0.488092 0.128665
Si Si3 0.018619 0.750000 0.018618
Si Si4 0.399378 0.456013 0.471872
Si Si5 0.591978 0.643527 0.935831
Si Si6 0.591979 0.856473 0.248127
Si Si7 0.181159 0.488093 0.733652
O O1 0.447031 0.559211 0.798121
O O2 0.409615 0.284495 0.812897
O O3 0.249189 0.485268 0.710147
O O4 0.500000 0.500000 0.000000
O O5 0.110002 0.648530 0.049203
O O6 0.249189 0.485268 0.288231
O O7 0.288641 0.466888 0.162771
O O8 0.071548 0.356422 0.013921
O O9 0.110005 0.851469 0.170804
O O10 0.928451 0.856423 0.870825
O O11 0.500000 0.500000 0.500000
O O12 0.409615 0.284495 0.506332
O O13 0.447033 0.559210 0.595942
O O14 0.617117 0.689785 0.867117
O O15 0.711357 0.533111 0.085488
#
# Coordination Sequence:
#
# PCOD8125034 Si02
#       7
#     4   4   4   4   4   4   4
#     4  10  20  36  59  86 112 151 194 240 285 351
#     4  10  20  37  60  85 108 150 197 240 267 348
#     4  10  20  36  62  82 106 148 210 230 270 322
#     4  10  20  36  59  86 112 151 194 240 285 351
#     4  11  22  37  57  88 122 148 184 247 308 343
#     4  11  22  37  57  88 122 148 184 247 308 343
#     4  10  20  37  60  85 108 150 197 240 267 348
#
# _framework density 19.303636999999998
#
# number of rings (size 3 to 8) (size 9 to 14) (size 15 to 20)
#    0.000    1.714    2.857    3.429    8.000    0.000 
#    0.000    1.429    0.000    0.000    0.000    0.000 
#    0.000    0.000    0.000    0.000    0.000    0.000 
#
# Total GULP energy -347055.461085 kJ/mol
# GULP energy per Si atom -12394.837896 kJ/mol
# Density = 1.925970 g / cm^3
# Si number density = 19.303637 Si / 1000 Ang^3
#
#
#
# Elastic Constant Matrix: (Units=GPa)
#
#
# Indices 1 2 3 4 5 6 
#
# 1 82.3245 35.8063 43.9313 0.0000 -3.3395 0.0000
# 2 35.8063 114.0501 48.6334 0.0000 11.5692 0.0000
# 3 43.9313 48.6334 85.2587 0.0000 5.9874 0.0000
# 4 0.0000 0.0000 0.0000 34.3759 0.0000 6.4859
# 5 -3.3395 11.5692 5.9874 0.0000 25.7566 0.0000
# 6 0.0000 0.0000 0.0000 6.4859 0.0000 27.1842
#
#
#
# Elastic Compliance Matrix: (Units=1/GPa)
#
#
# Indices 1 2 3 4 5 6 
#
# 1 0.017826 -0.002730 -0.008007 0.000000 0.005399 0.000000
# 2 -0.002730 0.012368 -0.005320 0.000000 -0.004672 0.000000
# 3 -0.008007 -0.005320 0.019107 0.000000 -0.003090 0.000000
# 4 0.000000 0.000000 0.000000 0.030461 0.000000 -0.007268
# 5 0.005399 -0.004672 -0.003090 0.000000 0.042342 0.000000
# 6 0.000000 0.000000 0.000000 -0.007268 0.000000 0.038520
#
#
# Mechanical properties :
#
#
# Convention : Reuss Voigt Hill
#
# Bulk Modulus (GPa) = 58.18625 59.81947 59.00286
# Shear Modulus (GPa) = 25.19302 27.68084 26.43693
#
# Velocity S-wave (km/s) = 3.61652 3.79089 3.70473
# Velocity P-wave (km/s) = 6.90269 7.08640 6.99515
#
# Compressibility (1/GPa) = 0.01718619
#
# Stress axis : x y z
#
# Youngs Moduli (GPa) = 56.09655 80.85605 52.33757
#
# Poissons Ratio (x) = 0.22072 0.41909
# Poissons Ratio (y) = 0.15313 0.27844
# Poissons Ratio (z) = 0.44919 0.43016
#
# Static dielectric constant tensor:
#      x y z
#    x 3.521540 0.000000 0.252130 
#    y 0.000000 3.718370 0.000000 
#    z 0.252130 0.000000 3.801120 
# 
# 
# High freq. dielectric constant tensor:
#      x y z
#    x 1.718400 0.000000 0.021830 
#    y 0.000000 1.768740 0.000000 
#    z 0.021830 0.000000 1.742600 
# 
# From -- ./inp_files/61091.got.cif
#   From: 2010.03.12/outbox.cif.g09.slc.cpg/sg14_31_cif.got.tgz:61091.got - 2010.03.31 13:35:05.
