data_PCOD8125461
_publ_section_title
;
Structure prediction by ZEFSAII (Michael W. Deem and Ramdas Pophale) SiO2 
 PCOD8125461
Probable space group: P 21/C
;
_chemical_formula_sum "Si O2"
_cell_formula_units_Z 32
_cell_length_a 7.969481
_cell_length_b 23.907776
_cell_length_c 13.072271
_cell_angle_alpha 90.000000
_cell_angle_beta 142.387001
_cell_angle_gamma 90.000000
_cell_volume 1520.132165
_symmetry_space_group_name_H-M "P 21/C"
_symmetry_group_IT_number 14
_symmetry_cell_setting 'monoclinic'
loop_
_space_group_symop_operation_xyz
x,y,z
-x,1/2+y,1/2-z
-x,-y,-z
x,1/2-y,1/2+z
loop_
_atom_site_type_symbol
_atom_site_label
_atom_site_fract_x
_atom_site_fract_y
_atom_site_fract_z
Si Si1 0.500580 0.624515 0.137935
Si Si2 0.061252 0.189335 0.056785
Si Si3 0.036556 0.309746 0.115869
Si Si4 0.508913 0.376006 0.275638
Si Si5 0.201735 0.353063 0.409034
Si Si6 0.417401 0.561089 0.499585
Si Si7 0.666545 0.424214 0.150959
Si Si8 0.870159 0.969104 0.838771
O O1 0.704511 0.677598 0.244563
O O2 0.652083 0.576468 0.279998
O O3 0.498890 0.595926 0.026841
O O4 0.197900 0.644238 0.023607
O O5 0.938141 0.249660 0.027277
O O6 0.203631 0.184910 0.012591
O O7 0.817660 0.144650 0.946763
O O8 0.302753 0.324152 0.178001
O O9 0.121957 0.311187 0.277041
O O10 0.422250 0.422964 0.317653
O O11 0.476893 0.402722 0.150439
O O12 0.490953 0.387753 0.532965
O O13 0.972590 0.400456 0.304484
O O14 0.500000 0.500000 0.500000
O O15 0.095539 0.560585 0.374074
O O16 0.700578 0.490453 0.181066
O O17 0.000000 0.000000 0.000000
#
# Coordination Sequence:
#
# PCOD8125461 Si02
#       8
#     4   4   4   4   4   4   4   4
#     4  11  24  40  62  98 130 161 217 276 320 382
#     4  11  21  42  68  90 123 174 219 263 330 392
#     4  10  23  42  63  93 128 162 215 280 321 367
#     4  10  21  41  63  90 124 173 216 259 319 398
#     4   9  21  39  65  92 126 167 215 266 312 400
#     4  11  20  35  65  96 122 165 226 254 307 397
#     4  10  20  39  61  90 133 169 202 267 330 374
#     4  12  21  40  67  92 131 183 214 255 335 402
#
# _framework density 21.050802000000001
#
# number of rings (size 3 to 8) (size 9 to 14) (size 15 to 20)
#    0.000    1.500    3.750    1.875    0.000    1.000 
#    2.250    8.125    0.000    0.000    0.000    0.000 
#    0.000    0.000    0.000    0.000    0.000    0.000 
#
# Total GULP energy -396445.655153 kJ/mol
# GULP energy per Si atom -12388.926724 kJ/mol
# Density = 2.100289 g / cm^3
# Si number density = 21.050802 Si / 1000 Ang^3
#
#
#
# Elastic Constant Matrix: (Units=GPa)
#
#
# Indices 1 2 3 4 5 6 
#
# 1 108.4948 54.4942 34.6695 0.0000 0.7323 0.0000
# 2 54.4942 108.2246 36.3677 0.0000 -9.7096 0.0000
# 3 34.6695 36.3677 94.7079 0.0000 0.0438 0.0000
# 4 0.0000 0.0000 0.0000 34.2353 0.0000 3.8140
# 5 0.7323 -9.7096 0.0438 0.0000 19.8013 0.0000
# 6 0.0000 0.0000 0.0000 3.8140 0.0000 36.6918
#
#
#
# Elastic Compliance Matrix: (Units=1/GPa)
#
#
# Indices 1 2 3 4 5 6 
#
# 1 0.013072 -0.006067 -0.002454 0.000000 -0.003453 0.000000
# 2 -0.006067 0.013992 -0.003155 0.000000 0.007092 0.000000
# 3 -0.002454 -0.003155 0.012669 0.000000 -0.001484 0.000000
# 4 0.000000 0.000000 0.000000 0.029552 0.000000 -0.003072
# 5 -0.003453 0.007092 -0.001484 0.000000 0.054110 0.000000
# 6 0.000000 0.000000 0.000000 -0.003072 0.000000 0.027573
#
#
# Mechanical properties :
#
#
# Convention : Reuss Voigt Hill
#
# Bulk Modulus (GPa) = 61.04787 62.49890 61.77338
# Shear Modulus (GPa) = 27.81168 30.53875 29.17521
#
# Velocity S-wave (km/s) = 3.63873 3.81296 3.72686
# Velocity P-wave (km/s) = 6.83499 7.00991 6.92300
#
# Compressibility (1/GPa) = 0.01638059
#
# Stress axis : x y z
#
# Youngs Moduli (GPa) = 76.50001 71.47143 78.93145
#
# Poissons Ratio (x) = 0.43364 0.19368
# Poissons Ratio (y) = 0.46415 0.24903
# Poissons Ratio (z) = 0.18771 0.22549
#
# Static dielectric constant tensor:
#      x y z
#    x 3.978430 0.000000 0.003920 
#    y 0.000000 3.819260 0.000000 
#    z 0.003920 0.000000 3.691320 
# 
# 
# High freq. dielectric constant tensor:
#      x y z
#    x 1.822140 0.000000 0.003500 
#    y 0.000000 1.825440 0.000000 
#    z 0.003500 0.000000 1.814410 
# 
# From -- ./inp_files/42190.got.cif
#   From: 2010.03.12/outbox.cif.g09.slc.cpg/sg14_22_cif.got.tgz:42190.got - 2010.03.31 13:35:05.
