data_PCOD8125485
_publ_section_title
;
Structure prediction by ZEFSAII (Michael W. Deem and Ramdas Pophale) SiO2 
 PCOD8125485
Probable space group: P 21/C
;
_chemical_formula_sum "Si O2"
_cell_formula_units_Z 32
_cell_length_a 7.812051
_cell_length_b 19.625906
_cell_length_c 11.603354
_cell_angle_alpha 90.000000
_cell_angle_beta 55.653755
_cell_angle_gamma 90.000000
_cell_volume 1468.827275
_symmetry_space_group_name_H-M "P 21/C"
_symmetry_group_IT_number 14
_symmetry_cell_setting 'monoclinic'
loop_
_space_group_symop_operation_xyz
x,y,z
-x,1/2+y,1/2-z
-x,-y,-z
x,1/2-y,1/2+z
loop_
_atom_site_type_symbol
_atom_site_label
_atom_site_fract_x
_atom_site_fract_y
_atom_site_fract_z
Si Si1 0.188756 0.330612 0.706869
Si Si2 0.208690 0.758984 0.557442
Si Si3 0.523124 0.692577 0.601099
Si Si4 0.739220 0.529056 0.829468
Si Si5 0.441056 0.810731 0.779734
Si Si6 0.542074 0.538120 0.655212
Si Si7 0.584436 0.112007 0.443382
Si Si8 0.825136 0.519114 0.333387
O O1 0.277556 0.297415 0.556667
O O2 0.392373 0.348756 0.704371
O O3 0.085056 0.404016 0.719224
O O4 0.030619 0.277271 0.825387
O O5 0.306450 0.714343 0.623157
O O6 0.237490 0.714861 0.428969
O O7 0.331067 0.831075 0.500578
O O8 0.562375 0.744053 0.690187
O O9 0.501219 0.617724 0.658074
O O10 0.629156 0.521345 0.747542
O O11 0.697281 0.460236 0.918522
O O12 0.987099 0.534794 0.726421
O O13 0.655333 0.595573 0.930709
O O14 0.377681 0.861243 0.701156
O O15 0.704876 0.511855 0.499189
O O16 0.322705 0.500623 0.717480
#
# Coordination Sequence:
#
# PCOD8125485 Si02
#       8
#     4   4   4   4   4   4   4   4
#     4  10  20  39  63  89 119 161 214 262 322 384
#     4  10  20  40  62  85 123 165 211 264 325 375
#     4   9  21  39  57  86 128 157 205 267 316 384
#     4  11  21  40  63  92 130 168 209 261 325 383
#     4  10  21  39  60  87 120 165 204 263 323 377
#     4  10  21  40  63  94 130 169 211 267 320 387
#     4  10  22  39  60  90 127 162 208 269 317 384
#     4  10  21  40  65  94 128 167 216 264 321 386
#
# _framework density 21.786090000000002
#
# number of rings (size 3 to 8) (size 9 to 14) (size 15 to 20)
#    0.000    2.000    1.250    1.875    0.000    3.000 
#   13.500    1.875    0.000    0.000    0.000    0.000 
#    0.000    0.000    0.000    0.000    0.000    0.000 
#
# Total GULP energy -396635.805031 kJ/mol
# GULP energy per Si atom -12394.868907 kJ/mol
# Density = 2.173650 g / cm^3
# Si number density = 21.786090 Si / 1000 Ang^3
#
#
#
# Elastic Constant Matrix: (Units=GPa)
#
#
# Indices 1 2 3 4 5 6 
#
# 1 74.2318 9.7284 31.2713 0.0000 -10.5386 0.0000
# 2 9.7284 62.5248 15.6366 0.0000 -6.6986 0.0000
# 3 31.2713 15.6366 83.3193 0.0000 -4.2794 0.0000
# 4 0.0000 0.0000 0.0000 40.0465 0.0000 -5.9461
# 5 -10.5386 -6.6986 -4.2794 0.0000 32.3102 0.0000
# 6 0.0000 0.0000 0.0000 -5.9461 0.0000 25.9828
#
#
#
# Elastic Compliance Matrix: (Units=1/GPa)
#
#
# Indices 1 2 3 4 5 6 
#
# 1 0.016688 -0.000633 -0.005912 0.000000 0.004529 0.000000
# 2 -0.000633 0.017116 -0.002822 0.000000 0.002968 0.000000
# 3 -0.005912 -0.002822 0.014722 0.000000 -0.000564 0.000000
# 4 0.000000 0.000000 0.000000 0.025849 0.000000 0.005916
# 5 0.004529 0.002968 -0.000564 0.000000 0.032968 0.000000
# 6 0.000000 0.000000 0.000000 0.005916 0.000000 0.039841
#
#
# Mechanical properties :
#
#
# Convention : Reuss Voigt Hill
#
# Bulk Modulus (GPa) = 33.56668 37.03873 35.30270
# Shear Modulus (GPa) = 28.43376 30.56387 29.49881
#
# Velocity S-wave (km/s) = 3.61658 3.74960 3.68369
# Velocity P-wave (km/s) = 5.73414 5.98198 5.85937
#
# Compressibility (1/GPa) = 0.02979145
#
# Stress axis : x y z
#
# Youngs Moduli (GPa) = 59.92462 58.42512 67.92763
#
# Poissons Ratio (x) = 0.03697 0.40158
# Poissons Ratio (y) = 0.03792 0.19171
# Poissons Ratio (z) = 0.35426 0.16489
#
# Static dielectric constant tensor:
#      x y z
#    x 3.675850 0.000000 0.016120 
#    y 0.000000 4.038020 0.000000 
#    z 0.016120 0.000000 3.999580 
# 
# 
# High freq. dielectric constant tensor:
#      x y z
#    x 1.835440 0.000000 -0.000700 
#    y 0.000000 1.861890 0.000000 
#    z -0.000700 0.000000 1.857340 
# 
# From -- ./inp_files/26779.got.cif
#   From: 2010.03.12/outbox.cif.g09.slc.cpg/sg14_14_cif.got.tgz:26779.got - 2010.03.31 13:35:05.
