data_PCOD8125629
_publ_section_title
;
Structure prediction by ZEFSAII (Michael W. Deem and Ramdas Pophale) SiO2 
 PCOD8125629
Probable space group: P 21/C
;
_chemical_formula_sum "Si O2"
_cell_formula_units_Z 20
_cell_length_a 14.526529
_cell_length_b 7.946293
_cell_length_c 19.092698
_cell_angle_alpha 90.000000
_cell_angle_beta 158.258303
_cell_angle_gamma 90.000000
_cell_volume 816.378361
_symmetry_space_group_name_H-M "P 21/C"
_symmetry_group_IT_number 14
_symmetry_cell_setting 'monoclinic'
loop_
_space_group_symop_operation_xyz
x,y,z
-x,1/2+y,1/2-z
-x,-y,-z
x,1/2-y,1/2+z
loop_
_atom_site_type_symbol
_atom_site_label
_atom_site_fract_x
_atom_site_fract_y
_atom_site_fract_z
Si Si1 0.374790 0.671554 0.508869
Si Si2 0.318887 0.152343 0.382310
Si Si3 0.140159 0.536157 0.527785
Si Si4 0.126015 0.022674 0.375363
Si Si5 0.612289 0.683758 0.822002
O O1 0.557610 0.689968 0.570433
O O2 0.547811 0.622753 0.697307
O O3 0.172947 0.528651 0.346719
O O4 0.226831 0.842324 0.422836
O O5 0.265699 0.169406 0.427855
O O6 0.500000 0.000000 0.500000
O O7 0.048367 0.105965 0.162006
O O8 0.358625 0.674650 0.689427
O O9 0.273989 0.368404 0.595116
O O10 0.000000 0.500000 0.500000
O O11 0.188475 0.057353 0.501082
#
# Coordination Sequence:
#
# PCOD8125629 Si02
#       5
#     4   4   4   4   4
#     4  11  23  42  67  98 130 180 227 282 344 408
#     4  10  20  40  65  95 128 175 226 273 339 406
#     4  12  23  44  72  96 140 182 228 287 342 409
#     4  11  23  40  67  96 132 175 226 284 341 404
#     4  12  23  41  69 102 134 180 234 276 346 413
#
# _framework density 24.498443999999999
#
# number of rings (size 3 to 8) (size 9 to 14) (size 15 to 20)
#    0.000    0.800    6.000    3.600    0.000    0.000 
#    0.000    2.000    8.800    0.000    0.000    0.000 
#    0.000    0.000    0.000    0.000    0.000    0.000 
#
# Total GULP energy -247814.251424 kJ/mol
# GULP energy per Si atom -12390.712571 kJ/mol
# Density = 2.444268 g / cm^3
# Si number density = 24.498444 Si / 1000 Ang^3
#
#
#
# Elastic Constant Matrix: (Units=GPa)
#
#
# Indices 1 2 3 4 5 6 
#
# 1 80.8255 -5.1559 0.5835 0.0000 3.5327 0.0000
# 2 -5.1559 35.8767 10.2880 0.0000 13.2329 0.0000
# 3 0.5835 10.2880 116.9136 0.0000 -12.2729 0.0000
# 4 0.0000 0.0000 0.0000 51.6632 0.0000 18.1001
# 5 3.5327 13.2329 -12.2729 0.0000 49.5323 0.0000
# 6 0.0000 0.0000 0.0000 18.1001 0.0000 33.3480
#
#
#
# Elastic Compliance Matrix: (Units=1/GPa)
#
#
# Indices 1 2 3 4 5 6 
#
# 1 0.012614 0.002576 -0.000468 0.000000 -0.001704 0.000000
# 2 0.002576 0.033073 -0.003973 0.000000 -0.010004 0.000000
# 3 -0.000468 -0.003973 0.009261 0.000000 0.003390 0.000000
# 4 0.000000 0.000000 0.000000 0.023901 0.000000 -0.012973
# 5 -0.001704 -0.010004 0.003390 0.000000 0.023823 0.000000
# 6 0.000000 0.000000 0.000000 -0.012973 0.000000 0.037028
#
#
# Mechanical properties :
#
#
# Convention : Reuss Voigt Hill
#
# Bulk Modulus (GPa) = 19.52511 27.22744 23.37627
# Shear Modulus (GPa) = 31.15182 42.10203 36.62692
#
# Velocity S-wave (km/s) = 3.56980 4.15005 3.87081
# Velocity P-wave (km/s) = 4.99785 5.83969 5.43509
#
# Compressibility (1/GPa) = 0.05121610
#
# Stress axis : x y z
#
# Youngs Moduli (GPa) = 79.27387 30.23644 107.97832
#
# Poissons Ratio (x) = -0.07788 0.05058
# Poissons Ratio (y) = -0.20418 0.42903
# Poissons Ratio (z) = 0.03714 0.12014
#
# Static dielectric constant tensor:
#      x y z
#    x 5.086030 0.000000 0.064910 
#    y 0.000000 4.041460 0.000000 
#    z 0.064910 0.000000 5.322440 
# 
# 
# High freq. dielectric constant tensor:
#      x y z
#    x 1.978540 0.000000 -0.002000 
#    y 0.000000 1.945520 0.000000 
#    z -0.002000 0.000000 1.995120 
# 
# From -- ./inp_files/38744.got.cif
#   From: 2010.03.12/outbox.cif.g09.slc.cpg/sg14_20_cif.got.tgz:38744.got - 2010.03.31 13:35:05.
