data_PCOD8125892
_publ_section_title
;
Structure prediction by ZEFSAII (Michael W. Deem and Ramdas Pophale) SiO2 
 PCOD8125892
Probable space group: P 21/C
;
_chemical_formula_sum "Si O2"
_cell_formula_units_Z 20
_cell_length_a 25.382071
_cell_length_b 7.409446
_cell_length_c 5.035173
_cell_angle_alpha 90.000000
_cell_angle_beta 90.186809
_cell_angle_gamma 90.000000
_cell_volume 946.945273
_symmetry_space_group_name_H-M "P 21/C"
_symmetry_group_IT_number 14
_symmetry_cell_setting 'monoclinic'
loop_
_space_group_symop_operation_xyz
x,y,z
-x,1/2+y,1/2-z
-x,-y,-z
x,1/2-y,1/2+z
loop_
_atom_site_type_symbol
_atom_site_label
_atom_site_fract_x
_atom_site_fract_y
_atom_site_fract_z
Si Si1 0.336670 0.373491 0.529939
Si Si2 0.242508 0.870846 0.047195
Si Si3 0.950895 0.370963 0.458042
Si Si4 0.455007 0.137394 0.070781
Si Si5 0.853466 0.628676 0.456288
O O1 0.323873 0.240397 0.289939
O O2 0.301283 0.551957 0.517218
O O3 0.396872 0.445348 0.523045
O O4 0.233213 0.787373 0.336147
O O5 0.202831 0.035940 0.003652
O O6 0.952918 0.295835 0.160118
O O7 0.897693 0.479905 0.506981
O O8 0.000000 0.500000 0.500000
O O9 0.461495 0.190480 0.378116
O O10 0.500000 0.000000 0.000000
O O11 0.859411 0.792300 0.662030
#
# Coordination Sequence:
#
# PCOD8125892 Si02
#       5
#     4   4   4   4   4
#     4  10  21  39  58  81 113 153 190 231 285 347
#     4  12  24  39  60  89 117 149 192 243 289 339
#     4  12  24  42  64  92 124 157 198 243 288 342
#     4  10  21  36  57  82 113 148 189 234 285 340
#     4  12  24  42  64  88 119 159 196 237 291 346
#
# _framework density 21.120543999999999
#
# number of rings (size 3 to 8) (size 9 to 14) (size 15 to 20)
#    0.000    0.800    0.000    8.400    0.000    1.600 
#    0.000    0.000    0.000    0.000    0.000    0.000 
#    0.000    0.000    0.000    0.000    0.000    0.000 
#
# Total GULP energy -248162.284723 kJ/mol
# GULP energy per Si atom -12408.114236 kJ/mol
# Density = 2.107247 g / cm^3
# Si number density = 21.120544 Si / 1000 Ang^3
#
#
#
# Elastic Constant Matrix: (Units=GPa)
#
#
# Indices 1 2 3 4 5 6 
#
# 1 123.2800 49.2151 18.9421 0.0000 -5.5755 0.0000
# 2 49.2151 78.6104 16.7924 0.0000 0.1170 0.0000
# 3 18.9421 16.7924 102.3311 0.0000 0.1992 0.0000
# 4 0.0000 0.0000 0.0000 48.9363 0.0000 -10.5622
# 5 -5.5755 0.1170 0.1992 0.0000 30.1822 0.0000
# 6 0.0000 0.0000 0.0000 -10.5622 0.0000 55.1826
#
#
#
# Elastic Compliance Matrix: (Units=1/GPa)
#
#
# Indices 1 2 3 4 5 6 
#
# 1 0.011027 -0.006705 -0.000945 0.000000 0.002069 0.000000
# 2 -0.006705 0.017260 -0.001589 0.000000 -0.001295 0.000000
# 3 -0.000945 -0.001589 0.010208 0.000000 -0.000236 0.000000
# 4 0.000000 0.000000 0.000000 0.021315 0.000000 0.004080
# 5 0.002069 -0.001295 -0.000236 0.000000 0.033521 0.000000
# 6 0.000000 0.000000 0.000000 0.004080 0.000000 0.018903
#
#
# Mechanical properties :
#
#
# Convention : Reuss Voigt Hill
#
# Bulk Modulus (GPa) = 49.95439 52.68006 51.31722
# Shear Modulus (GPa) = 36.39440 41.47836 38.93638
#
# Velocity S-wave (km/s) = 4.15562 4.43638 4.29829
# Velocity P-wave (km/s) = 6.83586 7.15812 6.99884
#
# Compressibility (1/GPa) = 0.02001826
#
# Stress axis : x y z
#
# Youngs Moduli (GPa) = 90.68600 57.93767 97.95975
#
# Poissons Ratio (x) = 0.38846 0.09257
# Poissons Ratio (y) = 0.60804 0.15563
# Poissons Ratio (z) = 0.08569 0.09205
#
# Static dielectric constant tensor:
#      x y z
#    x 3.681120 0.000000 -0.380580 
#    y 0.000000 3.592330 0.000000 
#    z -0.380580 0.000000 3.396840 
# 
# 
# High freq. dielectric constant tensor:
#      x y z
#    x 1.846130 0.000000 0.000550 
#    y 0.000000 1.820820 0.000000 
#    z 0.000550 0.000000 1.847900 
# 
# From -- ./inp_files/4326.got.cif
#   From: 2010.03.12/outbox.cif.g09.slc.cpg/sg14_3_cif.got.tgz:4326.got - 2010.03.31 13:35:05.
