data_PCOD8125597
_publ_section_title
;
Structure prediction by ZEFSAII (Michael W. Deem and Ramdas Pophale) SiO2 
 PCOD8125597
Probable space group: P 21/C
;
_chemical_formula_sum "Si O2"
_cell_formula_units_Z 20
_cell_length_a 16.350444
_cell_length_b 12.490944
_cell_length_c 9.023551
_cell_angle_alpha 90.000000
_cell_angle_beta 30.191681
_cell_angle_gamma 90.000000
_cell_volume 926.785297
_symmetry_space_group_name_H-M "P 21/C"
_symmetry_group_IT_number 14
_symmetry_cell_setting 'monoclinic'
loop_
_space_group_symop_operation_xyz
x,y,z
-x,1/2+y,1/2-z
-x,-y,-z
x,1/2-y,1/2+z
loop_
_atom_site_type_symbol
_atom_site_label
_atom_site_fract_x
_atom_site_fract_y
_atom_site_fract_z
Si Si1 0.530486 0.029688 0.118530
Si Si2 0.110406 0.851467 0.852107
Si Si3 0.432529 0.391331 0.175180
Si Si4 0.709870 0.285817 0.220005
Si Si5 0.790507 0.914547 0.222815
O O1 0.371894 0.091490 0.425991
O O2 0.582979 0.922002 0.126335
O O3 0.673766 0.117004 0.889919
O O4 0.500000 0.000000 0.000000
O O5 0.244815 0.830410 0.513606
O O6 0.134227 0.770158 0.950414
O O7 0.137800 0.966156 0.885380
O O8 0.928891 0.836742 0.072149
O O9 0.257621 0.373652 0.368327
O O10 0.500000 0.500000 0.000000
O O11 0.554694 0.293600 0.953992
#
# Coordination Sequence:
#
# PCOD8125597 Si02
#       5
#     4   4   4   4   4
#     4  11  21  39  68 100 123 165 223 266 310 384
#     4  11  23  39  63  91 128 166 208 268 320 381
#     4  10  20  40  64  90 126 169 213 263 308 385
#     4  12  22  40  68  93 122 175 217 256 326 381
#     4  10  22  42  59  88 131 168 202 269 322 361
#
# _framework density 21.579969999999999
#
# number of rings (size 3 to 8) (size 9 to 14) (size 15 to 20)
#    0.000    1.200    6.000    2.400    0.000    1.600 
#    0.000    3.000    0.000    0.000    0.000    0.000 
#    0.000    0.000    0.000    0.000    0.000    0.000 
#
# Total GULP energy -247841.350470 kJ/mol
# GULP energy per Si atom -12392.067524 kJ/mol
# Density = 2.153085 g / cm^3
# Si number density = 21.579970 Si / 1000 Ang^3
#
#
#
# Elastic Constant Matrix: (Units=GPa)
#
#
# Indices 1 2 3 4 5 6 
#
# 1 188.3929 34.8557 38.7820 0.0000 -15.7252 0.0000
# 2 34.8557 56.1829 13.0520 0.0000 -9.0171 0.0000
# 3 38.7820 13.0520 48.9116 0.0000 2.2491 0.0000
# 4 0.0000 0.0000 0.0000 31.8703 0.0000 -3.2865
# 5 -15.7252 -9.0171 2.2491 0.0000 38.9123 0.0000
# 6 0.0000 0.0000 0.0000 -3.2865 0.0000 24.6345
#
#
#
# Elastic Compliance Matrix: (Units=1/GPa)
#
#
# Indices 1 2 3 4 5 6 
#
# 1 0.007059 -0.002829 -0.004956 0.000000 0.002484 0.000000
# 2 -0.002829 0.021008 -0.003543 0.000000 0.003930 0.000000
# 3 -0.004956 -0.003543 0.025518 0.000000 -0.004299 0.000000
# 4 0.000000 0.000000 0.000000 0.031815 0.000000 0.004245
# 5 0.002484 0.003930 -0.004299 0.000000 0.027862 0.000000
# 6 0.000000 0.000000 0.000000 0.004245 0.000000 0.041160
#
#
# Mechanical properties :
#
#
# Convention : Reuss Voigt Hill
#
# Bulk Modulus (GPa) = 32.33378 51.87409 42.10394
# Shear Modulus (GPa) = 26.68245 32.86992 29.77618
#
# Velocity S-wave (km/s) = 3.52013 3.90701 3.71860
# Velocity P-wave (km/s) = 5.61582 6.66658 6.16363
#
# Compressibility (1/GPa) = 0.03092741
#
# Stress axis : x y z
#
# Youngs Moduli (GPa) = 141.66001 47.60039 39.18776
#
# Poissons Ratio (x) = 0.13468 0.19423
# Poissons Ratio (y) = 0.40082 0.13885
# Poissons Ratio (z) = 0.70212 0.16866
#
# Static dielectric constant tensor:
#      x y z
#    x 4.086060 0.000000 -0.274350 
#    y 0.000000 3.428840 0.000000 
#    z -0.274350 0.000000 3.640600 
# 
# 
# High freq. dielectric constant tensor:
#      x y z
#    x 1.870620 0.000000 0.003650 
#    y 0.000000 1.841190 0.000000 
#    z 0.003650 0.000000 1.816050 
# 
# From -- ./inp_files/17825.got.cif
#   From: 2010.03.12/outbox.cif.g09.slc.cpg/sg14_9_cif.got.tgz:17825.got - 2010.03.31 13:35:05.
