data_PCOD8125236
_publ_section_title
;
Structure prediction by ZEFSAII (Michael W. Deem and Ramdas Pophale) SiO2 
 PCOD8125236
Probable space group: P 21/C
;
_chemical_formula_sum "Si O2"
_cell_formula_units_Z 20
_cell_length_a 7.207781
_cell_length_b 25.312920
_cell_length_c 5.118714
_cell_angle_alpha 90.000000
_cell_angle_beta 67.483486
_cell_angle_gamma 90.000000
_cell_volume 862.716630
_symmetry_space_group_name_H-M "P 21/C"
_symmetry_group_IT_number 14
_symmetry_cell_setting 'monoclinic'
loop_
_space_group_symop_operation_xyz
x,y,z
-x,1/2+y,1/2-z
-x,-y,-z
x,1/2-y,1/2+z
loop_
_atom_site_type_symbol
_atom_site_label
_atom_site_fract_x
_atom_site_fract_y
_atom_site_fract_z
Si Si1 0.416878 0.375073 0.485747
Si Si2 0.373358 0.485992 0.319188
Si Si3 0.662069 0.215637 0.625884
Si Si4 0.173511 0.586115 0.505030
Si Si5 0.999556 0.137375 0.415829
O O1 0.323800 0.423454 0.361081
O O2 0.493533 0.329554 0.250295
O O3 0.598685 0.393838 0.571182
O O4 0.237301 0.352635 0.762990
O O5 0.500000 0.500000 0.500000
O O6 0.175780 0.523413 0.434928
O O7 0.500000 0.500000 0.000000
O O8 0.633102 0.238193 0.352195
O O9 0.885419 0.191714 0.548641
O O10 0.089222 0.618310 0.309570
O O11 0.039273 0.594418 0.835908
#
# Coordination Sequence:
#
# PCOD8125236 Si02
#       5
#     4   4   4   4   4
#     4  10  24  42  67  93 124 166 208 252 308 370
#     4  10  20  37  63  92 128 167 200 242 302 367
#     4  11  24  43  63  87 122 159 206 267 315 358
#     4  10  22  41  62  95 134 161 198 252 301 365
#     4  11  24  41  65  93 123 163 209 252 308 372
#
# _framework density 23.182580999999999
#
# number of rings (size 3 to 8) (size 9 to 14) (size 15 to 20)
#    0.000    1.600    0.000    6.000    0.000   12.800 
#    0.000    0.000    0.000    0.000    0.000    0.000 
#    0.000    0.000    0.000    0.000    0.000    0.000 
#
# Total GULP energy -247982.120135 kJ/mol
# GULP energy per Si atom -12399.106007 kJ/mol
# Density = 2.312982 g / cm^3
# Si number density = 23.182581 Si / 1000 Ang^3
#
#
#
# Elastic Constant Matrix: (Units=GPa)
#
#
# Indices 1 2 3 4 5 6 
#
# 1 66.5039 18.4450 52.4362 0.0000 -20.7494 0.0000
# 2 18.4450 114.9908 37.8075 0.0000 -22.3210 0.0000
# 3 52.4362 37.8075 146.2055 0.0000 -7.9474 0.0000
# 4 0.0000 0.0000 0.0000 44.1273 0.0000 -3.9618
# 5 -20.7494 -22.3210 -7.9474 0.0000 46.8990 0.0000
# 6 0.0000 0.0000 0.0000 -3.9618 0.0000 10.5354
#
#
#
# Elastic Compliance Matrix: (Units=1/GPa)
#
#
# Indices 1 2 3 4 5 6 
#
# 1 0.024561 0.000744 -0.008469 0.000000 0.009786 0.000000
# 2 0.000744 0.010399 -0.002694 0.000000 0.004822 0.000000
# 3 -0.008469 -0.002694 0.010396 0.000000 -0.003267 0.000000
# 4 0.000000 0.000000 0.000000 0.023454 0.000000 0.008820
# 5 0.009786 0.004822 -0.003267 0.000000 0.027393 0.000000
# 6 0.000000 0.000000 0.000000 0.008820 0.000000 0.098235
#
#
# Mechanical properties :
#
#
# Convention : Reuss Voigt Hill
#
# Bulk Modulus (GPa) = 40.78567 60.56418 50.67492
# Shear Modulus (GPa) = 22.37656 34.91310 28.64483
#
# Velocity S-wave (km/s) = 3.11019 3.88494 3.51895
# Velocity P-wave (km/s) = 5.52532 6.80480 6.19816
#
# Compressibility (1/GPa) = 0.02451842
#
# Stress axis : x y z
#
# Youngs Moduli (GPa) = 40.71447 96.16636 96.18877
#
# Poissons Ratio (x) = -0.07159 0.81466
# Poissons Ratio (y) = -0.03031 0.25912
# Poissons Ratio (z) = 0.34483 0.25906
#
# Static dielectric constant tensor:
#      x y z
#    x 4.015620 0.000000 -0.199650 
#    y 0.000000 5.040820 0.000000 
#    z -0.199650 0.000000 4.420380 
# 
# 
# High freq. dielectric constant tensor:
#      x y z
#    x 1.902440 0.000000 -0.002170 
#    y 0.000000 1.919230 0.000000 
#    z -0.002170 0.000000 1.930780 
# 
# From -- ./inp_files/1773.got.cif
#   From: 2010.03.12/outbox.cif.g09.slc.cpg/sg14_1_cif.got.tgz:1773.got - 2010.03.31 13:35:05.
