data_PCOD8125827
_publ_section_title
;
Structure prediction by ZEFSAII (Michael W. Deem and Ramdas Pophale) SiO2 
 PCOD8125827
Probable space group: P 21/C
;
_chemical_formula_sum "Si O2"
_cell_formula_units_Z 24
_cell_length_a 7.526672
_cell_length_b 10.196933
_cell_length_c 14.933323
_cell_angle_alpha 90.000000
_cell_angle_beta 89.396082
_cell_angle_gamma 90.000000
_cell_volume 1146.053495
_symmetry_space_group_name_H-M "P 21/C"
_symmetry_group_IT_number 14
_symmetry_cell_setting 'monoclinic'
loop_
_space_group_symop_operation_xyz
x,y,z
-x,1/2+y,1/2-z
-x,-y,-z
x,1/2-y,1/2+z
loop_
_atom_site_type_symbol
_atom_site_label
_atom_site_fract_x
_atom_site_fract_y
_atom_site_fract_z
Si Si1 0.839480 0.810886 0.942655
Si Si2 0.615654 0.950904 0.629181
Si Si3 0.756186 0.520162 0.933257
Si Si4 0.850764 0.244141 0.932540
Si Si5 0.735559 0.030248 0.816586
Si Si6 0.528232 0.822079 0.078124
O O1 0.836645 0.661018 0.908812
O O2 0.835895 0.903924 0.856564
O O3 0.672937 0.859760 0.003479
O O4 0.018979 0.826972 0.998674
O O5 0.717560 0.987877 0.538755
O O6 0.721368 0.014504 0.710841
O O7 0.610358 0.792790 0.640438
O O8 0.416720 0.006919 0.627662
O O9 0.893714 0.398646 0.913419
O O10 0.647097 0.237952 0.971814
O O11 0.853942 0.159578 0.839816
O O12 0.536904 0.053834 0.861297
#
# Coordination Sequence:
#
# PCOD8125827 Si02
#       6
#     4   4   4   4   4   4
#     4  11  19  35  62  80 111 148 184 225 277 335
#     4   9  18  37  56  81 112 147 184 230 273 330
#     4   9  19  35  59  78 109 152 186 221 278 330
#     4   9  20  37  55  84 111 143 185 226 275 331
#     4  10  21  34  58  85 112 142 186 231 279 321
#     4   8  20  36  55  80 111 146 179 228 275 324
#
# _framework density 20.941431000000001
#
# number of rings (size 3 to 8) (size 9 to 14) (size 15 to 20)
#    1.000    1.667    0.000    2.500    2.333    0.000 
#    0.000    3.333   14.667    0.000    0.000    0.000 
#    0.000    0.000    0.000    0.000    0.000    0.000 
#
# Total GULP energy -297315.185912 kJ/mol
# GULP energy per Si atom -12388.132746 kJ/mol
# Density = 2.089377 g / cm^3
# Si number density = 20.941431 Si / 1000 Ang^3
#
#
#
# Elastic Constant Matrix: (Units=GPa)
#
#
# Indices 1 2 3 4 5 6 
#
# 1 39.2199 11.5631 18.5030 0.0000 15.5614 0.0000
# 2 11.5631 124.8341 61.7473 0.0000 13.1882 0.0000
# 3 18.5030 61.7473 108.3194 0.0000 35.5544 0.0000
# 4 0.0000 0.0000 0.0000 20.0147 0.0000 2.4160
# 5 15.5614 13.1882 35.5544 0.0000 25.1923 0.0000
# 6 0.0000 0.0000 0.0000 2.4160 0.0000 17.8047
#
#
#
# Elastic Compliance Matrix: (Units=1/GPa)
#
#
# Indices 1 2 3 4 5 6 
#
# 1 0.034500 -0.002402 0.003835 0.000000 -0.025466 0.000000
# 2 -0.002402 0.011805 -0.008901 0.000000 0.007866 0.000000
# 3 0.003835 -0.008901 0.024031 0.000000 -0.031625 0.000000
# 4 0.000000 0.000000 0.000000 0.050795 0.000000 -0.006893
# 5 -0.025466 0.007866 -0.031625 0.000000 0.095940 0.000000
# 6 0.000000 0.000000 0.000000 -0.006893 0.000000 0.057100
#
#
# Mechanical properties :
#
#
# Convention : Reuss Voigt Hill
#
# Bulk Modulus (GPa) = 18.05051 50.66668 34.35860
# Shear Modulus (GPa) = 16.25616 24.63966 20.44791
#
# Velocity S-wave (km/s) = 2.78918 3.43388 3.12818
# Velocity P-wave (km/s) = 4.36015 6.32211 5.43047
#
# Compressibility (1/GPa) = 0.05540011
#
# Stress axis : x y z
#
# Youngs Moduli (GPa) = 28.98513 84.71118 41.61235
#
# Poissons Ratio (x) = 0.20349 -0.15957
# Poissons Ratio (y) = 0.06963 0.37039
# Poissons Ratio (z) = -0.11115 0.75400
#
# Static dielectric constant tensor:
#      x y z
#    x 3.575570 0.000000 0.246260 
#    y 0.000000 3.956880 0.000000 
#    z 0.246260 0.000000 3.259320 
# 
# 
# High freq. dielectric constant tensor:
#      x y z
#    x 1.800910 0.000000 0.028850 
#    y 0.000000 1.833080 0.000000 
#    z 0.028850 0.000000 1.777480 
# 
# From -- ./inp_files/39333.got.cif
#   From: 2010.03.12/outbox.cif.g09.slc.cpg/sg14_20_cif.got.tgz:39333.got - 2010.03.31 13:35:05.
