data_PCOD8125569
_publ_section_title
;
Structure prediction by ZEFSAII (Michael W. Deem and Ramdas Pophale) SiO2 
 PCOD8125569
Probable space group: P 21/C
;
_chemical_formula_sum "Si O2"
_cell_formula_units_Z 32
_cell_length_a 11.563096
_cell_length_b 9.530477
_cell_length_c 19.922727
_cell_angle_alpha 90.000000
_cell_angle_beta 47.004700
_cell_angle_gamma 90.000000
_cell_volume 1605.825075
_symmetry_space_group_name_H-M "P 21/C"
_symmetry_group_IT_number 14
_symmetry_cell_setting 'monoclinic'
loop_
_space_group_symop_operation_xyz
x,y,z
-x,1/2+y,1/2-z
-x,-y,-z
x,1/2-y,1/2+z
loop_
_atom_site_type_symbol
_atom_site_label
_atom_site_fract_x
_atom_site_fract_y
_atom_site_fract_z
Si Si1 0.415225 0.436870 0.217504
Si Si2 0.253917 0.551232 0.582975
Si Si3 0.517397 0.253512 0.297957
Si Si4 0.391475 0.821266 0.485010
Si Si5 0.137965 0.455929 0.115163
Si Si6 0.381199 0.235858 0.994800
Si Si7 0.180044 0.664684 0.755637
Si Si8 0.900992 0.480798 0.719938
O O1 0.430209 0.325243 0.270742
O O2 0.491783 0.585676 0.207379
O O3 0.228596 0.461430 0.280761
O O4 0.501888 0.373762 0.118244
O O5 0.336469 0.659902 0.498695
O O6 0.354718 0.408932 0.544454
O O7 0.264884 0.611624 0.654155
O O8 0.075330 0.527343 0.628022
O O9 0.433941 0.297884 0.399287
O O10 0.696362 0.312805 0.232775
O O11 0.493112 0.833551 0.514123
O O12 0.227575 0.907044 0.553233
O O13 0.143726 0.446262 0.192831
O O14 0.952393 0.447834 0.167283
O O15 0.218250 0.318567 0.053052
O O16 0.099734 0.813564 0.770448
#
# Coordination Sequence:
#
# PCOD8125569 Si02
#       8
#     4   4   4   4   4   4   4   4
#     4  11  25  43  65  87 125 167 213 254 318 378
#     4  11  23  36  63 101 128 156 208 266 309 364
#     4  11  25  44  62  90 126 169 207 261 312 377
#     4  12  22  40  64  97 122 163 210 258 310 368
#     4  11  20  38  65  92 122 160 206 257 313 374
#     4  12  22  39  66  95 125 162 211 259 307 369
#     4  10  21  39  62  93 131 158 202 261 320 362
#     4  10  20  40  61  92 128 166 200 252 322 375
#
# _framework density 19.92745
#
# number of rings (size 3 to 8) (size 9 to 14) (size 15 to 20)
#    0.000    1.000    6.250    1.500    1.750    0.000 
#    2.250    2.500    0.000    0.000    0.000    0.000 
#    0.000    0.000    0.000    0.000    0.000    0.000 
#
# Total GULP energy -396784.922870 kJ/mol
# GULP energy per Si atom -12399.528840 kJ/mol
# Density = 1.988209 g / cm^3
# Si number density = 19.927450 Si / 1000 Ang^3
#
#
#
# Elastic Constant Matrix: (Units=GPa)
#
#
# Indices 1 2 3 4 5 6 
#
# 1 53.6092 23.1958 28.7023 0.0000 10.8904 0.0000
# 2 23.1958 98.0002 27.1399 0.0000 -0.7692 0.0000
# 3 28.7023 27.1399 75.9385 0.0000 4.1602 0.0000
# 4 0.0000 0.0000 0.0000 44.9167 0.0000 -4.3566
# 5 10.8904 -0.7692 4.1602 0.0000 20.8019 0.0000
# 6 0.0000 0.0000 0.0000 -4.3566 0.0000 33.7376
#
#
#
# Elastic Compliance Matrix: (Units=1/GPa)
#
#
# Indices 1 2 3 4 5 6 
#
# 1 0.027527 -0.004364 -0.008136 0.000000 -0.012946 0.000000
# 2 -0.004364 0.012049 -0.002837 0.000000 0.003298 0.000000
# 3 -0.008136 -0.002837 0.017219 0.000000 0.000711 0.000000
# 4 0.000000 0.000000 0.000000 0.022546 0.000000 0.002911
# 5 -0.012946 0.003298 0.000711 0.000000 0.054830 0.000000
# 6 0.000000 0.000000 0.000000 0.002911 0.000000 0.030016
#
#
# Mechanical properties :
#
#
# Convention : Reuss Voigt Hill
#
# Bulk Modulus (GPa) = 38.28361 42.84710 40.56536
# Shear Modulus (GPa) = 24.56186 29.79188 27.17687
#
# Velocity S-wave (km/s) = 3.51460 3.87074 3.69696
# Velocity P-wave (km/s) = 5.97688 6.44399 6.21483
#
# Compressibility (1/GPa) = 0.02612084
#
# Stress axis : x y z
#
# Youngs Moduli (GPa) = 36.32741 82.99697 58.07668
#
# Poissons Ratio (x) = 0.36221 0.47249
# Poissons Ratio (y) = 0.15854 0.16478
# Poissons Ratio (z) = 0.29554 0.23549
#
# Static dielectric constant tensor:
#      x y z
#    x 3.525600 0.000000 -0.330450 
#    y 0.000000 3.759950 0.000000 
#    z -0.330450 0.000000 3.614700 
# 
# 
# High freq. dielectric constant tensor:
#      x y z
#    x 1.757170 0.000000 -0.030330 
#    y 0.000000 1.790670 0.000000 
#    z -0.030330 0.000000 1.771180 
# 
# From -- ./inp_files/67032.got.cif
#   From: 2010.03.12/outbox.cif.g09.slc.cpg/sg14_34_cif.got.tgz:67032.got - 2010.03.31 13:35:05.
