data_PCOD8125078
_publ_section_title
;
Structure prediction by ZEFSAII (Michael W. Deem and Ramdas Pophale) SiO2 
 PCOD8125078
Probable space group: P 21/C
;
_chemical_formula_sum "Si O2"
_cell_formula_units_Z 32
_cell_length_a 8.693929
_cell_length_b 12.954161
_cell_length_c 26.507844
_cell_angle_alpha 90.000000
_cell_angle_beta 31.423068
_cell_angle_gamma 90.000000
_cell_volume 1556.438132
_symmetry_space_group_name_H-M "P 21/C"
_symmetry_group_IT_number 14
_symmetry_cell_setting 'monoclinic'
loop_
_space_group_symop_operation_xyz
x,y,z
-x,1/2+y,1/2-z
-x,-y,-z
x,1/2-y,1/2+z
loop_
_atom_site_type_symbol
_atom_site_label
_atom_site_fract_x
_atom_site_fract_y
_atom_site_fract_z
Si Si1 0.364849 0.074465 0.814491
Si Si2 0.427113 0.138356 0.070545
Si Si3 0.639536 0.408154 0.134081
Si Si4 0.133545 0.259077 0.240927
Si Si5 0.467199 0.825316 0.135968
Si Si6 0.204044 0.367618 0.924493
Si Si7 0.032149 0.733908 0.102727
Si Si8 0.829104 0.940915 0.957577
O O1 0.606184 0.076387 0.703095
O O2 0.536334 0.088633 0.819019
O O3 0.135186 0.165439 0.869659
O O4 0.174823 0.968115 0.868631
O O5 0.242071 0.172095 0.171562
O O6 0.200599 0.102547 0.090691
O O7 0.621013 0.236545 0.997627
O O8 0.627634 0.039815 0.026801
O O9 0.375030 0.346618 0.182484
O O10 0.652730 0.521313 0.105592
O O11 0.943826 0.348135 0.038007
O O12 0.850604 0.322374 0.300844
O O13 0.053679 0.202950 0.316141
O O14 0.536732 0.714064 0.140162
O O15 0.727598 0.851914 0.024017
O O16 0.057896 0.359447 0.909279
#
# Coordination Sequence:
#
# PCOD8125078 Si02
#       8
#     4   4   4   4   4   4   4   4
#     4   9  21  38  59  87 121 158 210 252 304 378
#     4  10  20  36  62  92 120 166 198 260 321 364
#     4  10  22  42  62  86 124 175 205 253 312 383
#     4  11  22  37  67  95 128 164 210 261 315 372
#     4  11  23  38  60  97 123 156 209 266 310 374
#     4  10  22  41  63  84 126 172 207 248 318 376
#     4   9  18  40  58  89 123 159 208 252 304 373
#     4  10  21  38  62  86 127 157 205 265 319 359
#
# _framework density 20.559763
#
# number of rings (size 3 to 8) (size 9 to 14) (size 15 to 20)
#    0.000    2.000    2.500    0.375    3.500    2.000 
#    4.500    0.000    0.000    3.750    0.000    0.000 
#    0.000    0.000    0.000    0.000    0.000    0.000 
#
# Total GULP energy -396779.157483 kJ/mol
# GULP energy per Si atom -12399.348671 kJ/mol
# Density = 2.051297 g / cm^3
# Si number density = 20.559763 Si / 1000 Ang^3
#
#
#
# Elastic Constant Matrix: (Units=GPa)
#
#
# Indices 1 2 3 4 5 6 
#
# 1 80.6110 21.9673 37.0810 0.0000 15.3044 0.0000
# 2 21.9673 60.0678 20.0809 0.0000 3.4376 0.0000
# 3 37.0810 20.0809 103.7807 0.0000 24.6022 0.0000
# 4 0.0000 0.0000 0.0000 31.8533 0.0000 6.6061
# 5 15.3044 3.4376 24.6022 0.0000 33.5478 0.0000
# 6 0.0000 0.0000 0.0000 6.6061 0.0000 27.8046
#
#
#
# Elastic Compliance Matrix: (Units=1/GPa)
#
#
# Indices 1 2 3 4 5 6 
#
# 1 0.016190 -0.004357 -0.003990 0.000000 -0.004013 0.000000
# 2 -0.004357 0.018992 -0.002576 0.000000 0.001931 0.000000
# 3 -0.003990 -0.002576 0.013394 0.000000 -0.007738 0.000000
# 4 0.000000 0.000000 0.000000 0.033021 0.000000 -0.007845
# 5 -0.004013 0.001931 -0.007738 0.000000 0.037116 0.000000
# 6 0.000000 0.000000 0.000000 -0.007845 0.000000 0.037829
#
#
# Mechanical properties :
#
#
# Convention : Reuss Voigt Hill
#
# Bulk Modulus (GPa) = 37.41119 44.74642 41.07881
# Shear Modulus (GPa) = 26.69531 29.66317 28.17924
#
# Velocity S-wave (km/s) = 3.60728 3.80251 3.70618
# Velocity P-wave (km/s) = 5.96538 6.41016 6.19176
#
# Compressibility (1/GPa) = 0.02672997
#
# Stress axis : x y z
#
# Youngs Moduli (GPa) = 61.76619 52.65410 74.65881
#
# Poissons Ratio (x) = 0.22943 0.29791
# Poissons Ratio (y) = 0.26913 0.19229
# Poissons Ratio (z) = 0.24647 0.13562
#
# Static dielectric constant tensor:
#      x y z
#    x 3.731940 0.000000 0.128540 
#    y 0.000000 3.548080 0.000000 
#    z 0.128540 0.000000 3.847970 
# 
# 
# High freq. dielectric constant tensor:
#      x y z
#    x 1.797420 0.000000 0.010670 
#    y 0.000000 1.787470 0.000000 
#    z 0.010670 0.000000 1.809210 
# 
# From -- ./inp_files/76729.got.cif
#   From: 2010.03.12/outbox.cif.g09.slc.cpg/sg14_39_cif.got.tgz:76729.got - 2010.03.31 13:35:05.
