data_PCOD8125588
_publ_section_title
;
Structure prediction by ZEFSAII (Michael W. Deem and Ramdas Pophale) SiO2 
 PCOD8125588
Probable space group: P 21/C
;
_chemical_formula_sum "Si O2"
_cell_formula_units_Z 24
_cell_length_a 23.937552
_cell_length_b 11.320139
_cell_length_c 13.135523
_cell_angle_alpha 90.000000
_cell_angle_beta 163.185371
_cell_angle_gamma 90.000000
_cell_volume 1029.654659
_symmetry_space_group_name_H-M "P 21/C"
_symmetry_group_IT_number 14
_symmetry_cell_setting 'monoclinic'
loop_
_space_group_symop_operation_xyz
x,y,z
-x,1/2+y,1/2-z
-x,-y,-z
x,1/2-y,1/2+z
loop_
_atom_site_type_symbol
_atom_site_label
_atom_site_fract_x
_atom_site_fract_y
_atom_site_fract_z
Si Si1 0.969903 0.798884 0.622677
Si Si2 0.765618 0.335695 0.245207
Si Si3 0.209321 0.458233 0.333765
Si Si4 0.419459 0.250807 0.280495
Si Si5 0.681294 0.307163 0.409190
Si Si6 0.835246 0.569224 0.274833
O O1 0.803823 0.894612 0.301293
O O2 0.916486 0.668085 0.493272
O O3 0.024513 0.806161 0.837419
O O4 0.169483 0.839901 0.918859
O O5 0.732833 0.475751 0.172319
O O6 0.588356 0.275734 0.994089
O O7 0.779319 0.284582 0.155726
O O8 0.269629 0.356921 0.517970
O O9 0.358809 0.569081 0.599544
O O10 0.000000 0.500000 0.000000
O O11 0.494549 0.252097 0.528866
O O12 0.317056 0.373831 0.070942
O O13 0.000000 0.500000 0.500000
#
# Coordination Sequence:
#
# PCOD8125588 Si02
#       6
#     4   4   4   4   4   4
#     4   9  21  42  62  98 126 166 226 263 315 402
#     4  11  24  40  65  95 130 172 213 268 328 379
#     4   9  19  39  65  86 125 167 208 269 315 375
#     4  10  24  43  61  97 130 163 226 266 324 400
#     4  10  20  40  63  93 128 170 210 264 327 381
#     4  11  23  47  67  91 134 176 221 270 332 389
#
# _framework density 23.308786000000001
#
# number of rings (size 3 to 8) (size 9 to 14) (size 15 to 20)
#    0.000    2.000    1.667    0.500    4.667    0.667 
#    6.000    0.000    0.000    0.000    0.000    0.000 
#    0.000    0.000    0.000    0.000    0.000    0.000 
#
# Total GULP energy -297377.128094 kJ/mol
# GULP energy per Si atom -12390.713671 kJ/mol
# Density = 2.325573 g / cm^3
# Si number density = 23.308786 Si / 1000 Ang^3
#
#
#
# Elastic Constant Matrix: (Units=GPa)
#
#
# Indices 1 2 3 4 5 6 
#
# 1 41.6914 28.0288 39.9561 0.0000 -24.3426 0.0000
# 2 28.0288 170.5156 82.2744 0.0000 -34.1125 0.0000
# 3 39.9561 82.2744 169.8487 0.0000 -64.1051 0.0000
# 4 0.0000 0.0000 0.0000 48.3040 0.0000 0.9043
# 5 -24.3426 -34.1125 -64.1051 0.0000 45.6831 0.0000
# 6 0.0000 0.0000 0.0000 0.9043 0.0000 27.1319
#
#
#
# Elastic Compliance Matrix: (Units=1/GPa)
#
#
# Indices 1 2 3 4 5 6 
#
# 1 0.035863 -0.002026 -0.001730 0.000000 0.015170 0.000000
# 2 -0.002026 0.007793 -0.003209 0.000000 0.000237 0.000000
# 3 -0.001730 -0.003209 0.014024 0.000000 0.016362 0.000000
# 4 0.000000 0.000000 0.000000 0.020715 0.000000 -0.000690
# 5 0.015170 0.000237 0.016362 0.000000 0.053110 0.000000
# 6 0.000000 0.000000 0.000000 -0.000690 0.000000 0.036880
#
#
# Mechanical properties :
#
#
# Convention : Reuss Voigt Hill
#
# Bulk Modulus (GPa) = 22.85663 75.84159 49.34911
# Shear Modulus (GPa) = 25.39384 39.67689 32.53536
#
# Velocity S-wave (km/s) = 3.30427 4.13028 3.74015
# Velocity P-wave (km/s) = 4.93811 7.44003 6.31423
#
# Compressibility (1/GPa) = 0.04375098
#
# Stress axis : x y z
#
# Youngs Moduli (GPa) = 27.88413 128.31465 71.30448
#
# Poissons Ratio (x) = 0.25990 0.12335
# Poissons Ratio (y) = 0.05648 0.22883
# Poissons Ratio (z) = 0.04824 0.41179
#
# Static dielectric constant tensor:
#      x y z
#    x 3.810970 0.000000 -0.364700 
#    y 0.000000 4.538480 0.000000 
#    z -0.364700 0.000000 4.702100 
# 
# 
# High freq. dielectric constant tensor:
#      x y z
#    x 1.886840 0.000000 -0.017000 
#    y 0.000000 1.931240 0.000000 
#    z -0.017000 0.000000 1.936190 
# 
# From -- ./inp_files/35947.got.cif
#   From: 2010.03.12/outbox.cif.g09.slc.cpg/sg14_18_cif.got.tgz:35947.got - 2010.03.31 13:35:05.
