data_PCOD8125657
_publ_section_title
;
Structure prediction by ZEFSAII (Michael W. Deem and Ramdas Pophale) SiO2 
 PCOD8125657
Probable space group: P 21/C
;
_chemical_formula_sum "Si O2"
_cell_formula_units_Z 16
_cell_length_a 11.197890
_cell_length_b 12.406490
_cell_length_c 8.978008
_cell_angle_alpha 90.000000
_cell_angle_beta 42.992526
_cell_angle_gamma 90.000000
_cell_volume 850.526179
_symmetry_space_group_name_H-M "P 21/C"
_symmetry_group_IT_number 14
_symmetry_cell_setting 'monoclinic'
loop_
_space_group_symop_operation_xyz
x,y,z
-x,1/2+y,1/2-z
-x,-y,-z
x,1/2-y,1/2+z
loop_
_atom_site_type_symbol
_atom_site_label
_atom_site_fract_x
_atom_site_fract_y
_atom_site_fract_z
Si Si1 0.313545 0.915464 0.307983
Si Si2 0.691273 0.509310 0.505624
Si Si3 0.024891 0.861533 0.779452
Si Si4 0.177169 0.808202 0.948101
O O1 0.278020 0.989411 0.197446
O O2 0.163748 0.940512 0.568265
O O3 0.304660 0.787844 0.272640
O O4 0.500824 0.941124 0.209064
O O5 0.703943 0.398828 0.585121
O O6 0.830003 0.596012 0.436249
O O7 0.065958 0.859774 0.916575
O O8 0.041386 0.741318 0.693782
#
# Coordination Sequence:
#
# PCOD8125657 Si02
#       4
#     4   4   4   4
#     4   9  21  39  58  85 116 148 189 234 285 337
#     4  11  20  40  62  83 115 155 186 234 294 330
#     4  10  21  39  57  86 115 153 187 237 279 340
#     4  10  20  41  56  86 121 142 198 237 270 350
#
# _framework density 18.811883999999999
#
# number of rings (size 3 to 8) (size 9 to 14) (size 15 to 20)
#    1.500    0.500    2.500    1.500    0.000    1.000 
#   18.000    0.000    0.000    0.000    0.000    0.000 
#    0.000    0.000    0.000    0.000    0.000    0.000 
#
# Total GULP energy -198335.598285 kJ/mol
# GULP energy per Si atom -12395.974893 kJ/mol
# Density = 1.876907 g / cm^3
# Si number density = 18.811884 Si / 1000 Ang^3
#
#
#
# Elastic Constant Matrix: (Units=GPa)
#
#
# Indices 1 2 3 4 5 6 
#
# 1 127.6375 38.2901 22.3960 0.0000 -11.8870 0.0000
# 2 38.2901 67.4322 -6.6187 0.0000 -11.6830 0.0000
# 3 22.3960 -6.6187 26.6778 0.0000 -0.8554 0.0000
# 4 0.0000 0.0000 0.0000 20.5964 0.0000 -3.5512
# 5 -11.8870 -11.6830 -0.8554 0.0000 28.9382 0.0000
# 6 0.0000 0.0000 0.0000 -3.5512 0.0000 32.3884
#
#
#
# Elastic Compliance Matrix: (Units=1/GPa)
#
#
# Indices 1 2 3 4 5 6 
#
# 1 0.012623 -0.008136 -0.012566 0.000000 0.001529 0.000000
# 2 -0.008136 0.021666 0.012391 0.000000 0.005771 0.000000
# 3 -0.012566 0.012391 0.051151 0.000000 0.001352 0.000000
# 4 0.000000 0.000000 0.000000 0.049488 0.000000 0.005426
# 5 0.001529 0.005771 0.001352 0.000000 0.037554 0.000000
# 6 0.000000 0.000000 0.000000 0.005426 0.000000 0.031470
#
#
# Mechanical properties :
#
#
# Convention : Reuss Voigt Hill
#
# Bulk Modulus (GPa) = 14.53158 36.65360 25.59259
# Shear Modulus (GPa) = 20.53266 27.56327 24.04796
#
# Velocity S-wave (km/s) = 3.30733 3.83195 3.57927
# Velocity P-wave (km/s) = 4.72504 6.25340 5.54216
#
# Compressibility (1/GPa) = 0.06881562
#
# Stress axis : x y z
#
# Youngs Moduli (GPa) = 79.22167 46.15589 19.54992
#
# Poissons Ratio (x) = 0.37553 0.24567
# Poissons Ratio (y) = 0.64456 -0.24223
# Poissons Ratio (z) = 0.99553 -0.57189
#
# Static dielectric constant tensor:
#      x y z
#    x 3.387330 0.000000 0.095150 
#    y 0.000000 3.311080 0.000000 
#    z 0.095150 0.000000 3.169950 
# 
# 
# High freq. dielectric constant tensor:
#      x y z
#    x 1.741180 0.000000 0.011170 
#    y 0.000000 1.722280 0.000000 
#    z 0.011170 0.000000 1.709370 
# 
# From -- ./inp_files/5226.got.cif
#   From: 2010.03.12/outbox.cif.g09.slc.cpg/sg14_3_cif.got.tgz:5226.got - 2010.03.31 13:35:05.
