data_PCOD8125738
_publ_section_title
;
Structure prediction by ZEFSAII (Michael W. Deem and Ramdas Pophale) SiO2 
 PCOD8125738
Probable space group: P 21/C
;
_chemical_formula_sum "Si O2"
_cell_formula_units_Z 32
_cell_length_a 8.525839
_cell_length_b 12.420673
_cell_length_c 13.245296
_cell_angle_alpha 90.000000
_cell_angle_beta 96.600360
_cell_angle_gamma 90.000000
_cell_volume 1393.335996
_symmetry_space_group_name_H-M "P 21/C"
_symmetry_group_IT_number 14
_symmetry_cell_setting 'monoclinic'
loop_
_space_group_symop_operation_xyz
x,y,z
-x,1/2+y,1/2-z
-x,-y,-z
x,1/2-y,1/2+z
loop_
_atom_site_type_symbol
_atom_site_label
_atom_site_fract_x
_atom_site_fract_y
_atom_site_fract_z
Si Si1 0.111494 0.876009 0.733485
Si Si2 0.733801 0.917272 0.176890
Si Si3 0.617223 0.088278 0.375743
Si Si4 0.587772 0.989927 0.792535
Si Si5 0.604977 0.878752 0.469995
Si Si6 0.971396 0.801331 0.340270
Si Si7 0.824086 0.499605 0.142796
Si Si8 0.242738 0.162461 0.044178
O O1 0.209679 0.865845 0.635199
O O2 0.101097 0.758531 0.781280
O O3 0.202217 0.960865 0.811302
O O4 0.933128 0.911887 0.703576
O O5 0.817554 0.842013 0.267089
O O6 0.541587 0.924718 0.172520
O O7 0.786718 0.871428 0.072830
O O8 0.496109 0.111521 0.274141
O O9 0.563047 0.123512 0.483233
O O10 0.607633 0.955228 0.371566
O O11 0.691983 0.940090 0.890411
O O12 0.705520 0.046348 0.720066
O O13 0.628420 0.756709 0.442519
O O14 0.738245 0.935008 0.548554
O O15 0.916600 0.715854 0.421760
O O16 0.065729 0.903600 0.393592
#
# Coordination Sequence:
#
# PCOD8125738 Si02
#       8
#     4   4   4   4   4   4   4   4
#     4  10  20  42  61  92 132 169 208 260 329 383
#     4  10  24  42  65  93 133 167 215 272 317 379
#     4   9  21  41  62  89 136 162 210 283 314 370
#     4  10  21  43  63  90 129 173 208 268 321 374
#     4  10  21  40  64 100 122 164 226 266 319 381
#     4  11  24  42  65  96 126 179 213 259 328 389
#     4  10  21  40  68  91 134 164 212 273 316 375
#     4  12  23  38  71  93 126 176 220 257 326 394
#
# _framework density 22.966463000000001
#
# number of rings (size 3 to 8) (size 9 to 14) (size 15 to 20)
#    0.000    1.750    1.250    3.375    1.750    4.500 
#   15.750    0.000    0.000    0.000    0.000    0.000 
#    0.000    0.000    0.000    0.000    0.000    0.000 
#
# Total GULP energy -396488.121282 kJ/mol
# GULP energy per Si atom -12390.253790 kJ/mol
# Density = 2.291419 g / cm^3
# Si number density = 22.966463 Si / 1000 Ang^3
#
#
#
# Elastic Constant Matrix: (Units=GPa)
#
#
# Indices 1 2 3 4 5 6 
#
# 1 114.6153 18.3270 25.5920 0.0000 -26.0750 0.0000
# 2 18.3270 53.6622 -5.8134 0.0000 -11.2308 0.0000
# 3 25.5920 -5.8134 48.6223 0.0000 -14.8870 0.0000
# 4 0.0000 0.0000 0.0000 23.8997 0.0000 -4.9586
# 5 -26.0750 -11.2308 -14.8870 0.0000 37.8940 0.0000
# 6 0.0000 0.0000 0.0000 -4.9586 0.0000 34.0215
#
#
#
# Elastic Compliance Matrix: (Units=1/GPa)
#
#
# Indices 1 2 3 4 5 6 
#
# 1 0.011506 -0.003428 -0.004948 0.000000 0.004957 0.000000
# 2 -0.003428 0.021903 0.006466 0.000000 0.006673 0.000000
# 3 -0.004948 0.006466 0.026700 0.000000 0.009001 0.000000
# 4 0.000000 0.000000 0.000000 0.043146 0.000000 0.006289
# 5 0.004957 0.006673 0.009001 0.000000 0.035314 0.000000
# 6 0.000000 0.000000 0.000000 0.006289 0.000000 0.030310
#
#
# Mechanical properties :
#
#
# Convention : Reuss Voigt Hill
#
# Bulk Modulus (GPa) = 17.76546 32.56789 25.16667
# Shear Modulus (GPa) = 26.11492 31.08264 28.59878
#
# Velocity S-wave (km/s) = 3.37573 3.68284 3.53263
# Velocity P-wave (km/s) = 4.79023 5.68294 5.25557
#
# Compressibility (1/GPa) = 0.05628901
#
# Stress axis : x y z
#
# Youngs Moduli (GPa) = 86.91458 45.65608 37.45307
#
# Poissons Ratio (x) = 0.15651 0.18532
# Poissons Ratio (y) = 0.29794 -0.24218
# Poissons Ratio (z) = 0.43005 -0.29522
#
# Static dielectric constant tensor:
#      x y z
#    x 4.338420 0.000000 -0.167980 
#    y 0.000000 3.924630 0.000000 
#    z -0.167980 0.000000 4.116180 
# 
# 
# High freq. dielectric constant tensor:
#      x y z
#    x 1.917430 0.000000 -0.016320 
#    y 0.000000 1.880630 0.000000 
#    z -0.016320 0.000000 1.904380 
# 
# From -- ./inp_files/40089.got.cif
#   From: 2010.03.12/outbox.cif.g09.slc.cpg/sg14_21_cif.got.tgz:40089.got - 2010.03.31 13:35:05.
