data_PCOD8125160
_publ_section_title
;
Structure prediction by ZEFSAII (Michael W. Deem and Ramdas Pophale) SiO2 
 PCOD8125160
Probable space group: P 21/C
;
_chemical_formula_sum "Si O2"
_cell_formula_units_Z 20
_cell_length_a 13.471512
_cell_length_b 5.356782
_cell_length_c 21.593529
_cell_angle_alpha 90.000000
_cell_angle_beta 140.873319
_cell_angle_gamma 90.000000
_cell_volume 983.328999
_symmetry_space_group_name_H-M "P 21/C"
_symmetry_group_IT_number 14
_symmetry_cell_setting 'monoclinic'
loop_
_space_group_symop_operation_xyz
x,y,z
-x,1/2+y,1/2-z
-x,-y,-z
x,1/2-y,1/2+z
loop_
_atom_site_type_symbol
_atom_site_label
_atom_site_fract_x
_atom_site_fract_y
_atom_site_fract_z
Si Si1 0.520806 0.245602 0.836733
Si Si2 0.252660 0.490285 0.973056
Si Si3 0.255278 0.503820 0.647440
Si Si4 0.620688 0.488151 0.502841
Si Si5 0.972893 0.690647 0.041350
O O1 0.612170 0.487949 0.908478
O O2 0.338911 0.303891 0.733013
O O3 0.607575 0.173543 0.815003
O O4 0.525602 0.028585 0.891504
O O5 0.280767 0.243902 0.945710
O O6 0.261875 0.744805 0.935760
O O7 0.082729 0.457984 0.924190
O O8 0.162254 0.385323 0.544390
O O9 0.135622 0.662769 0.632347
O O10 0.500000 0.500000 0.500000
O O11 0.000000 0.500000 0.000000
#
# Coordination Sequence:
#
# PCOD8125160 Si02
#       5
#     4   4   4   4   4
#     4  10  22  34  59  89 125 158 202 257 308 366
#     4  10  20  37  59  87 117 156 206 255 298 371
#     4  11  22  34  55  89 130 157 197 250 320 384
#     4  10  21  38  61  89 115 157 216 257 301 346
#     4  11  20  35  53  87 123 167 194 240 320 388
#
# _framework density 20.339072000000002
#
# number of rings (size 3 to 8) (size 9 to 14) (size 15 to 20)
#    1.200    0.400    4.000    1.800    2.800    0.000 
#    0.000    0.000    0.000    0.000   10.400    0.000 
#    0.000    0.000    0.000    0.000    0.000    0.000 
#
# Total GULP energy -247841.841985 kJ/mol
# GULP energy per Si atom -12392.092099 kJ/mol
# Density = 2.029278 g / cm^3
# Si number density = 20.339072 Si / 1000 Ang^3
#
#
#
# Elastic Constant Matrix: (Units=GPa)
#
#
# Indices 1 2 3 4 5 6 
#
# 1 145.0710 49.0118 6.5789 0.0000 23.1721 0.0000
# 2 49.0118 127.5284 3.7709 0.0000 14.7236 0.0000
# 3 6.5789 3.7709 51.5801 0.0000 15.2757 0.0000
# 4 0.0000 0.0000 0.0000 24.1060 0.0000 10.8931
# 5 23.1721 14.7236 15.2757 0.0000 21.6467 0.0000
# 6 0.0000 0.0000 0.0000 10.8931 0.0000 41.1793
#
#
#
# Elastic Compliance Matrix: (Units=1/GPa)
#
#
# Indices 1 2 3 4 5 6 
#
# 1 0.009148 -0.002488 0.001788 0.000000 -0.009362 0.000000
# 2 -0.002488 0.009265 0.000907 0.000000 -0.004279 0.000000
# 3 0.001788 0.000907 0.025085 0.000000 -0.020233 0.000000
# 4 0.000000 0.000000 0.000000 0.047115 0.000000 -0.012463
# 5 -0.009362 -0.004279 -0.020233 0.000000 0.073407 0.000000
# 6 0.000000 0.000000 0.000000 -0.012463 0.000000 0.027581
#
#
# Mechanical properties :
#
#
# Convention : Reuss Voigt Hill
#
# Bulk Modulus (GPa) = 22.77285 49.21140 35.99213
# Shear Modulus (GPa) = 24.29264 35.04092 29.66678
#
# Velocity S-wave (km/s) = 3.45973 4.15521 3.82332
# Velocity P-wave (km/s) = 5.21350 6.87525 6.10121
#
# Compressibility (1/GPa) = 0.04391193
#
# Stress axis : x y z
#
# Youngs Moduli (GPa) = 109.31382 107.93717 39.86437
#
# Poissons Ratio (x) = 0.26852 -0.07127
# Poissons Ratio (y) = 0.27194 -0.03616
# Poissons Ratio (z) = -0.19542 -0.09792
#
# Static dielectric constant tensor:
#      x y z
#    x 3.637500 0.000000 0.271490 
#    y 0.000000 1.888930 0.000000 
#    z 0.271490 0.000000 3.362470 
# 
# 
# High freq. dielectric constant tensor:
#      x y z
#    x 1.786890 0.000000 0.027630 
#    y 0.000000 1.808330 0.000000 
#    z 0.027630 0.000000 1.739490 
# 
# From -- ./inp_files/50952.got.cif
#   From: 2010.03.12/outbox.cif.g09.slc.cpg/sg14_26_cif.got.tgz:50952.got - 2010.03.31 13:35:05.
