data_PCOD8125486
_publ_section_title
;
Structure prediction by ZEFSAII (Michael W. Deem and Ramdas Pophale) SiO2 
 PCOD8125486
Probable space group: P 21/C
;
_chemical_formula_sum "Si O2"
_cell_formula_units_Z 24
_cell_length_a 6.744294
_cell_length_b 16.368413
_cell_length_c 10.633351
_cell_angle_alpha 90.000000
_cell_angle_beta 98.411244
_cell_angle_gamma 90.000000
_cell_volume 1161.225295
_symmetry_space_group_name_H-M "P 21/C"
_symmetry_group_IT_number 14
_symmetry_cell_setting 'monoclinic'
loop_
_space_group_symop_operation_xyz
x,y,z
-x,1/2+y,1/2-z
-x,-y,-z
x,1/2-y,1/2+z
loop_
_atom_site_type_symbol
_atom_site_label
_atom_site_fract_x
_atom_site_fract_y
_atom_site_fract_z
Si Si1 0.299835 0.903001 0.477981
Si Si2 0.366385 0.772900 0.299655
Si Si3 0.575703 0.528724 0.203875
Si Si4 0.686758 0.845201 0.899858
Si Si5 0.385155 0.381659 0.327918
Si Si6 0.040515 0.196864 0.641007
O O1 0.438815 0.839407 0.412321
O O2 0.395863 0.919265 0.622423
O O3 0.077842 0.861522 0.470643
O O4 0.292639 0.985758 0.392930
O O5 0.464978 0.687504 0.345571
O O6 0.451283 0.808203 0.174876
O O7 0.124662 0.766677 0.275769
O O8 0.727526 0.586931 0.296099
O O9 0.476151 0.467619 0.294492
O O10 0.850659 0.773018 0.915180
O O11 0.681859 0.887913 0.034301
O O12 0.190772 0.361138 0.228101
#
# Coordination Sequence:
#
# PCOD8125486 Si02
#       6
#     4   4   4   4   4   4
#     4   8  19  41  64  83 120 163 211 246 283 367
#     4   8  20  39  58  86 119 163 201 250 291 353
#     4  10  20  39  63  89 123 164 199 250 311 356
#     4  11  22  35  64  93 123 161 202 252 311 360
#     4  10  21  38  59  90 129 154 199 255 311 362
#     4   9  21  40  60  90 116 167 207 249 290 363
#
# _framework density 20.667822999999999
#
# number of rings (size 3 to 8) (size 9 to 14) (size 15 to 20)
#    1.000    1.667    0.000    0.500    4.667    3.333 
#    3.000    0.833    0.000    0.000    0.000    0.000 
#    0.000    0.000    0.000    0.000    0.000    0.000 
#
# Total GULP energy -297361.123948 kJ/mol
# GULP energy per Si atom -12390.046831 kJ/mol
# Density = 2.062078 g / cm^3
# Si number density = 20.667823 Si / 1000 Ang^3
#
#
#
# Elastic Constant Matrix: (Units=GPa)
#
#
# Indices 1 2 3 4 5 6 
#
# 1 88.8489 26.2780 12.2500 0.0000 6.9180 0.0000
# 2 26.2780 81.5692 46.5014 0.0000 8.1222 0.0000
# 3 12.2500 46.5014 104.3458 0.0000 -3.8161 0.0000
# 4 0.0000 0.0000 0.0000 28.2087 0.0000 5.2554
# 5 6.9180 8.1222 -3.8161 0.0000 14.0146 0.0000
# 6 0.0000 0.0000 0.0000 5.2554 0.0000 33.1167
#
#
#
# Elastic Compliance Matrix: (Units=1/GPa)
#
#
# Indices 1 2 3 4 5 6 
#
# 1 0.012661 -0.003666 -0.000004 0.000000 -0.004126 0.000000
# 2 -0.003666 0.019617 -0.008749 0.000000 -0.011942 0.000000
# 3 -0.000004 -0.008749 0.013806 0.000000 0.008831 0.000000
# 4 0.000000 0.000000 0.000000 0.036530 0.000000 -0.005797
# 5 -0.004126 -0.011942 0.008831 0.000000 0.082717 0.000000
# 6 0.000000 0.000000 0.000000 -0.005797 0.000000 0.031116
#
#
# Mechanical properties :
#
#
# Convention : Reuss Voigt Hill
#
# Bulk Modulus (GPa) = 47.06425 49.42477 48.24451
# Shear Modulus (GPa) = 21.89470 27.71696 24.80583
#
# Velocity S-wave (km/s) = 3.25831 3.66603 3.46817
# Velocity P-wave (km/s) = 6.08084 6.47190 6.27942
#
# Compressibility (1/GPa) = 0.02124755
#
# Stress axis : x y z
#
# Youngs Moduli (GPa) = 78.98227 50.97587 72.43368
#
# Poissons Ratio (x) = 0.18687 0.00026
# Poissons Ratio (y) = 0.28954 0.63370
# Poissons Ratio (z) = 0.00028 0.44597
#
# Static dielectric constant tensor:
#      x y z
#    x 3.562220 0.000000 -0.033820 
#    y 0.000000 3.726720 0.000000 
#    z -0.033820 0.000000 3.452210 
# 
# 
# High freq. dielectric constant tensor:
#      x y z
#    x 1.788730 0.000000 -0.003120 
#    y 0.000000 1.811790 0.000000 
#    z -0.003120 0.000000 1.791550 
# 
# From -- ./inp_files/9200.got.cif
#   From: 2010.03.12/outbox.cif.g09.slc.cpg/sg14_5_cif.got.tgz:9200.got - 2010.03.31 13:35:05.
