data_PCOD8125492
_publ_section_title
;
Structure prediction by ZEFSAII (Michael W. Deem and Ramdas Pophale) SiO2 
 PCOD8125492
Probable space group: P 21/C
;
_chemical_formula_sum "Si O2"
_cell_formula_units_Z 32
_cell_length_a 12.942364
_cell_length_b 18.310186
_cell_length_c 10.424292
_cell_angle_alpha 90.000000
_cell_angle_beta 144.344947
_cell_angle_gamma 90.000000
_cell_volume 1439.958416
_symmetry_space_group_name_H-M "P 21/C"
_symmetry_group_IT_number 14
_symmetry_cell_setting 'monoclinic'
loop_
_space_group_symop_operation_xyz
x,y,z
-x,1/2+y,1/2-z
-x,-y,-z
x,1/2-y,1/2+z
loop_
_atom_site_type_symbol
_atom_site_label
_atom_site_fract_x
_atom_site_fract_y
_atom_site_fract_z
Si Si1 0.571598 0.762451 0.233159
Si Si2 0.866649 0.089678 0.111067
Si Si3 0.730228 0.902049 0.508436
Si Si4 0.775202 0.299491 0.738635
Si Si5 0.367807 0.649228 0.162416
Si Si6 0.758785 0.625670 0.320656
Si Si7 0.427013 0.019949 0.190282
Si Si8 0.145287 0.859775 0.186458
O O1 0.667761 0.839523 0.348882
O O2 0.461184 0.728854 0.242730
O O3 0.716526 0.702213 0.344461
O O4 0.431250 0.776680 0.978510
O O5 0.073466 0.067680 0.327367
O O6 0.838392 0.157849 0.176661
O O7 0.801122 0.107618 0.899237
O O8 0.740935 0.024357 0.036443
O O9 0.732706 0.861032 0.645127
O O10 0.595814 0.968708 0.379426
O O11 0.783542 0.346061 0.880077
O O12 0.892502 0.226759 0.869801
O O13 0.510157 0.585479 0.341675
O O14 0.290869 0.626066 0.943739
O O15 0.636382 0.558606 0.242264
O O16 0.963294 0.604070 0.552997
#
# Coordination Sequence:
#
# PCOD8125492 Si02
#       8
#     4   4   4   4   4   4   4   4
#     4  10  20  39  63  93 125 168 214 266 316 377
#     4  11  25  40  66  94 129 168 212 265 317 382
#     4  11  23  41  66  95 127 166 216 264 321 373
#     4  11  21  41  64  94 129 167 214 263 320 378
#     4  10  24  39  66  93 130 170 211 262 320 379
#     4  10  23  38  65  95 129 164 214 268 320 375
#     4  11  25  41  62  95 132 168 212 260 322 379
#     4  10  22  39  67  99 123 161 219 269 316 373
#
# _framework density 22.222863
#
# number of rings (size 3 to 8) (size 9 to 14) (size 15 to 20)
#    0.000    1.500    1.250    3.375    8.750    2.500 
#    0.000    3.125    0.000    0.000    0.000    0.000 
#    0.000    0.000    0.000    0.000    0.000    0.000 
#
# Total GULP energy -396594.753078 kJ/mol
# GULP energy per Si atom -12393.586034 kJ/mol
# Density = 2.217228 g / cm^3
# Si number density = 22.222863 Si / 1000 Ang^3
#
#
#
# Elastic Constant Matrix: (Units=GPa)
#
#
# Indices 1 2 3 4 5 6 
#
# 1 100.5836 35.5145 29.2045 0.0000 11.9176 0.0000
# 2 35.5145 106.1209 35.1906 0.0000 13.7420 0.0000
# 3 29.2045 35.1906 75.8052 0.0000 18.7868 0.0000
# 4 0.0000 0.0000 0.0000 26.3088 0.0000 8.6132
# 5 11.9176 13.7420 18.7868 0.0000 31.6074 0.0000
# 6 0.0000 0.0000 0.0000 8.6132 0.0000 18.0513
#
#
#
# Elastic Compliance Matrix: (Units=1/GPa)
#
#
# Indices 1 2 3 4 5 6 
#
# 1 0.011974 -0.002842 -0.002910 0.000000 -0.001550 0.000000
# 2 -0.002842 0.011929 -0.004015 0.000000 -0.001729 0.000000
# 3 -0.002910 -0.004015 0.018145 0.000000 -0.007942 0.000000
# 4 0.000000 0.000000 0.000000 0.045047 0.000000 -0.021494
# 5 -0.001550 -0.001729 -0.007942 0.000000 0.037695 0.000000
# 6 0.000000 0.000000 0.000000 -0.021494 0.000000 0.065654
#
#
# Mechanical properties :
#
#
# Convention : Reuss Voigt Hill
#
# Bulk Modulus (GPa) = 44.41317 53.59209 49.00263
# Shear Modulus (GPa) = 22.99053 27.36685 25.17869
#
# Velocity S-wave (km/s) = 3.21992 3.51304 3.36967
# Velocity P-wave (km/s) = 5.81830 6.37365 6.10229
#
# Compressibility (1/GPa) = 0.02251584
#
# Stress axis : x y z
#
# Youngs Moduli (GPa) = 83.51594 83.82684 55.11236
#
# Poissons Ratio (x) = 0.23820 0.16036
# Poissons Ratio (y) = 0.23731 0.22126
# Poissons Ratio (z) = 0.24301 0.33654
#
# Static dielectric constant tensor:
#      x y z
#    x 3.956720 0.000000 0.236430 
#    y 0.000000 4.077710 0.000000 
#    z 0.236430 0.000000 3.875770 
# 
# 
# High freq. dielectric constant tensor:
#      x y z
#    x 1.873260 0.000000 0.018260 
#    y 0.000000 1.879550 0.000000 
#    z 0.018260 0.000000 1.856770 
# 
# From -- ./inp_files/33012.got.cif
#   From: 2010.03.12/outbox.cif.g09.slc.cpg/sg14_17_cif.got.tgz:33012.got - 2010.03.31 13:35:05.
